MODEL 1
REMARK VINA RESULT:     -12.0      0.000      0.000
REMARK SMILES O=C(Cn1c2ccccc2c(=O)c2ccccc21)N[C@@H](Cc1ccccc1)C(=O)NCCCCCCNC(=O)c1ccc(-c2c3nc(c(-c4cc(S(=O)(=O)[O-])ccc4F)c4ccc([nH]4)c(-c4cc(S(=O)(=O)[O-])ccc4F)c4nc(c(-c5cc(S(=O)(=O)[O-])ccc5F)c5ccc2[nH]5)C=C4)C=C3)cc1
REMARK SMILES IDX 33 1 32 2 31 3 30 4 28 5 29 6 20 8 19 9 1 10 2 11 3 13 4 14
REMARK SMILES IDX 5 15 18 16 6 17 10 18 13 19 17 20 7 21 9 22 11 23 14 24
REMARK SMILES IDX 16 25 8 26 12 27 15 28 21 29 22 30 23 31 27 32 24 33 26 34
REMARK SMILES IDX 25 35 34 36 35 37 36 38 37 39 38 40 39 42 40 43 41 44 102 45
REMARK SMILES IDX 42 46 101 47 43 48 44 49 45 50 95 51 46 52 100 53 94 54
REMARK SMILES IDX 96 55 47 56 99 57 93 58 92 59 48 61 80 62 60 63 79 64 61 65
REMARK SMILES IDX 64 66 78 67 97 68 62 69 63 70 77 72 98 73 65 74 49 75 50 76
REMARK SMILES IDX 58 77 51 78 57 79 59 80 56 81 52 82 53 83 54 84 55 85 81 86
REMARK SMILES IDX 82 87 90 88 83 89 89 90 91 91 88 92 84 93 85 94 86 95 87 96
REMARK SMILES IDX 66 97 67 98 75 99 68 100 74 101 76 102 73 103 69 104 70 105
REMARK SMILES IDX 71 106 72 107
REMARK H PARENT 30 7 19 12 37 41 96 60 64 71
REMARK Flexibility Score: inf
ROOT
ATOM      1  C   UNL A   1      38.307  22.435  25.679  1.00  0.00     0.002 C 
ENDROOT
BRANCH   1   2
ATOM      2  C   UNL A   1      37.431  23.672  25.880  1.00  0.00     0.021 C 
BRANCH   2   3
ATOM      3  C   UNL A   1      35.933  23.463  25.716  1.00  0.00     0.116 C 
BRANCH   3   4
ATOM      4  N   UNL A   1      35.304  22.881  26.877  1.00  0.00    -0.354 N 
ATOM      5  C   UNL A   1      34.194  22.093  26.954  1.00  0.00     0.242 C 
ATOM      6  O   UNL A   1      34.074  21.408  27.976  1.00  0.00    -0.273 OA
ATOM      7  H   UNL A   1      35.737  23.084  27.737  1.00  0.00     0.163 HD
BRANCH   5   8
ATOM      8  C   UNL A   1      33.163  21.962  25.804  1.00  0.00     0.175 C 
BRANCH   8   9
ATOM      9  N   UNL A   1      32.487  23.209  25.421  1.00  0.00    -0.342 N 
ATOM     10  O   UNL A   1      31.175  23.332  27.294  1.00  0.00    -0.273 OA
ATOM     11  C   UNL A   1      31.503  23.787  26.198  1.00  0.00     0.240 C 
ATOM     12  H   UNL A   1      32.744  23.649  24.579  1.00  0.00     0.164 HD
BRANCH  11  13
ATOM     13  C   UNL A   1      30.719  24.943  25.558  1.00  0.00     0.222 C 
BRANCH  13  14
ATOM     14  N   UNL A   1      31.576  26.014  24.990  1.00  0.00    -0.331 N 
ATOM     15  C   UNL A   1      31.899  27.132  25.806  1.00  0.00     0.053 A 
ATOM     16  C   UNL A   1      31.986  25.938  23.634  1.00  0.00     0.053 A 
ATOM     17  C   UNL A   1      31.329  27.387  27.067  1.00  0.00     0.027 A 
ATOM     18  C   UNL A   1      32.797  28.108  25.329  1.00  0.00     0.046 A 
ATOM     19  C   UNL A   1      32.940  26.848  23.139  1.00  0.00     0.046 A 
ATOM     20  C   UNL A   1      31.477  25.014  22.706  1.00  0.00     0.027 A 
ATOM     21  C   UNL A   1      31.589  28.576  27.770  1.00  0.00     0.002 A 
ATOM     22  C   UNL A   1      33.075  29.291  26.035  1.00  0.00     0.014 A 
ATOM     23  C   UNL A   1      33.458  27.903  24.028  1.00  0.00     0.197 A 
ATOM     24  C   UNL A   1      33.390  26.817  21.809  1.00  0.00     0.014 A 
ATOM     25  C   UNL A   1      31.911  24.985  21.371  1.00  0.00     0.002 A 
ATOM     26  C   UNL A   1      32.451  29.533  27.250  1.00  0.00     0.001 A 
ATOM     27  O   UNL A   1      34.402  28.609  23.684  1.00  0.00    -0.288 OA
ATOM     28  C   UNL A   1      32.869  25.884  20.924  1.00  0.00     0.001 A 
ENDBRANCH  13  14
ENDBRANCH  11  13
ENDBRANCH   8   9
BRANCH   8  29
ATOM     29  C   UNL A   1      33.656  21.090  24.616  1.00  0.00     0.070 C 
BRANCH  29  30
ATOM     30  C   UNL A   1      33.669  19.575  24.716  1.00  0.00    -0.045 A 
ATOM     31  C   UNL A   1      34.831  18.829  24.484  1.00  0.00     0.004 A 
ATOM     32  C   UNL A   1      32.478  18.872  24.957  1.00  0.00     0.004 A 
ATOM     33  C   UNL A   1      34.833  17.435  24.603  1.00  0.00     0.000 A 
ATOM     34  C   UNL A   1      32.468  17.475  25.035  1.00  0.00     0.000 A 
ATOM     35  C   UNL A   1      33.651  16.758  24.882  1.00  0.00     0.000 A 
ENDBRANCH  29  30
ENDBRANCH   8  29
ENDBRANCH   5   8
ENDBRANCH   3   4
ENDBRANCH   2   3
ENDBRANCH   1   2
BRANCH   1  36
ATOM     36  C   UNL A   1      37.696  21.287  24.865  1.00  0.00     0.002 C 
BRANCH  36  37
ATOM     37  C   UNL A   1      38.365  19.916  24.997  1.00  0.00     0.021 C 
BRANCH  37  38
ATOM     38  C   UNL A   1      39.173  19.685  26.268  1.00  0.00     0.116 C 
BRANCH  38  39
ATOM     39  N   UNL A   1      40.450  19.038  26.026  1.00  0.00    -0.352 N 
ATOM     40  C   UNL A   1      41.722  19.558  26.001  1.00  0.00     0.251 C 
ATOM     41  H   UNL A   1      40.396  18.070  25.853  1.00  0.00     0.163 HD
ATOM     42  O   UNL A   1      42.658  18.843  25.651  1.00  0.00    -0.269 OA
BRANCH  40  43
ATOM     43  C   UNL A   1      41.963  20.978  26.344  1.00  0.00     0.039 A 
ATOM     44  C   UNL A   1      41.885  21.987  25.380  1.00  0.00     0.014 A 
ATOM     45  C   UNL A   1      42.268  21.305  27.669  1.00  0.00     0.014 A 
ATOM     46  C   UNL A   1      42.273  23.286  25.701  1.00  0.00     0.010 A 
ATOM     47  C   UNL A   1      42.577  22.626  28.007  1.00  0.00     0.010 A 
ATOM     48  C   UNL A   1      42.630  23.620  27.018  1.00  0.00    -0.014 A 
BRANCH  48  49
ATOM     49  C   UNL A   1      43.033  25.009  27.360  1.00  0.00     0.031 A 
ATOM     50  C   UNL A   1      42.056  25.959  27.998  1.00  0.00     0.074 A 
ATOM     51  C   UNL A   1      44.285  25.422  27.085  1.00  0.00     0.049 A 
ATOM     52  N   UNL A   1      42.223  27.215  28.323  1.00  0.00    -0.248 NA
ATOM     53  C   UNL A   1      40.716  25.434  28.308  1.00  0.00     0.031 C 
ATOM     54  C   UNL A   1      45.318  24.590  26.469  1.00  0.00     0.029 A 
ATOM     55  N   UNL A   1      44.902  26.633  27.279  1.00  0.00    -0.354 N 
ATOM     56  C   UNL A   1      41.008  27.640  28.849  1.00  0.00     0.074 A 
ATOM     57  C   UNL A   1      40.104  26.514  28.779  1.00  0.00     0.031 C 
ATOM     58  C   UNL A   1      46.445  25.305  26.356  1.00  0.00     0.029 A 
ATOM     59  C   UNL A   1      46.197  26.669  26.817  1.00  0.00     0.049 A 
ATOM     60  H   UNL A   1      44.460  27.401  27.708  1.00  0.00     0.167 HD
ATOM     61  C   UNL A   1      40.686  28.855  29.351  1.00  0.00     0.034 A 
ATOM     62  C   UNL A   1      47.080  27.687  26.738  1.00  0.00     0.034 A 
ATOM     63  C   UNL A   1      41.608  29.958  29.439  1.00  0.00     0.049 A 
ATOM     64  C   UNL A   1      46.685  29.041  27.259  1.00  0.00     0.074 A 
ATOM     65  C   UNL A   1      41.399  31.198  30.017  1.00  0.00     0.029 A 
ATOM     66  N   UNL A   1      42.898  29.969  28.928  1.00  0.00    -0.354 N 
ATOM     67  N   UNL A   1      45.561  29.404  27.831  1.00  0.00    -0.248 NA
ATOM     68  C   UNL A   1      47.666  30.127  27.126  1.00  0.00     0.031 C 
ATOM     69  C   UNL A   1      42.530  31.981  29.790  1.00  0.00     0.029 A 
ATOM     70  C   UNL A   1      43.478  31.211  29.134  1.00  0.00     0.049 A 
ATOM     71  H   UNL A   1      43.337  29.207  28.485  1.00  0.00     0.167 HD
ATOM     72  C   UNL A   1      45.699  30.755  28.130  1.00  0.00     0.074 A 
ATOM     73  C   UNL A   1      47.028  31.142  27.701  1.00  0.00     0.031 C 
ATOM     74  C   UNL A   1      44.801  31.597  28.702  1.00  0.00     0.034 A 
BRANCH  61  75
ATOM     75  C   UNL A   1      39.284  29.086  29.859  1.00  0.00     0.023 A 
ATOM     76  C   UNL A   1      38.412  29.931  29.145  1.00  0.00     0.031 A 
ATOM     77  C   UNL A   1      38.860  28.595  31.106  1.00  0.00     0.131 A 
ATOM     78  C   UNL A   1      37.175  30.283  29.698  1.00  0.00     0.055 A 
ATOM     79  C   UNL A   1      37.610  28.920  31.636  1.00  0.00     0.041 A 
ATOM     80  F   UNL A   1      39.656  27.789  31.827  1.00  0.00    -0.206 F 
ATOM     81  C   UNL A   1      36.766  29.778  30.936  1.00  0.00     0.022 A 
BRANCH  78  82
ATOM     82  S   UNL A   1      36.076  31.462  28.866  1.00  0.00     0.124 S 
ATOM     83  O   UNL A   1      35.739  30.741  27.640  1.00  0.00    -0.237 OA
ATOM     84  O   UNL A   1      34.987  31.597  29.829  1.00  0.00    -0.237 OA
ATOM     85  O   UNL A   1      36.906  32.647  28.681  1.00  0.00    -0.744 OA
ENDBRANCH  78  82
ENDBRANCH  61  75
BRANCH  62  86
ATOM     86  C   UNL A   1      48.423  27.417  26.147  1.00  0.00     0.023 A 
ATOM     87  C   UNL A   1      48.668  27.661  24.782  1.00  0.00     0.031 A 
ATOM     88  C   UNL A   1      49.419  26.765  26.892  1.00  0.00     0.131 A 
ATOM     89  C   UNL A   1      49.832  27.163  24.184  1.00  0.00     0.055 A 
ATOM     90  C   UNL A   1      50.614  26.342  26.308  1.00  0.00     0.041 A 
ATOM     91  F   UNL A   1      49.226  26.502  28.194  1.00  0.00    -0.206 F 
ATOM     92  C   UNL A   1      50.814  26.520  24.941  1.00  0.00     0.022 A 
BRANCH  89  93
ATOM     93  S   UNL A   1      50.029  27.187  22.380  1.00  0.00     0.124 S 
ATOM     94  O   UNL A   1      48.985  26.266  21.945  1.00  0.00    -0.237 OA
ATOM     95  O   UNL A   1      49.795  28.598  22.078  1.00  0.00    -0.237 OA
ATOM     96  O   UNL A   1      51.400  26.730  22.177  1.00  0.00    -0.744 OA
ENDBRANCH  89  93
ENDBRANCH  62  86
BRANCH  74  97
ATOM     97  C   UNL A   1      45.182  33.044  28.896  1.00  0.00     0.023 A 
ATOM     98  C   UNL A   1      45.854  33.447  30.066  1.00  0.00     0.031 A 
ATOM     99  C   UNL A   1      44.722  34.039  28.016  1.00  0.00     0.131 A 
ATOM    100  C   UNL A   1      45.992  34.810  30.356  1.00  0.00     0.055 A 
ATOM    101  C   UNL A   1      44.907  35.396  28.285  1.00  0.00     0.041 A 
ATOM    102  F   UNL A   1      44.072  33.705  26.890  1.00  0.00    -0.206 F 
ATOM    103  C   UNL A   1      45.528  35.787  29.469  1.00  0.00     0.022 A 
BRANCH 100 104
ATOM    104  S   UNL A   1      46.690  35.364  31.937  1.00  0.00     0.124 S 
ATOM    105  O   UNL A   1      46.421  34.219  32.804  1.00  0.00    -0.237 OA
ATOM    106  O   UNL A   1      48.095  35.572  31.595  1.00  0.00    -0.237 OA
ATOM    107  O   UNL A   1      45.935  36.571  32.252  1.00  0.00    -0.744 OA
ENDBRANCH 100 104
ENDBRANCH  74  97
ENDBRANCH  48  49
ENDBRANCH  40  43
ENDBRANCH  38  39
ENDBRANCH  37  38
ENDBRANCH  36  37
ENDBRANCH   1  36
TORSDOF 21
ENDMDL
MODEL 2
REMARK VINA RESULT:     -11.8      0.567      7.012
REMARK SMILES O=C(Cn1c2ccccc2c(=O)c2ccccc21)N[C@@H](Cc1ccccc1)C(=O)NCCCCCCNC(=O)c1ccc(-c2c3nc(c(-c4cc(S(=O)(=O)[O-])ccc4F)c4ccc([nH]4)c(-c4cc(S(=O)(=O)[O-])ccc4F)c4nc(c(-c5cc(S(=O)(=O)[O-])ccc5F)c5ccc2[nH]5)C=C4)C=C3)cc1
REMARK SMILES IDX 33 1 32 2 31 3 30 4 28 5 29 6 20 8 19 9 1 10 2 11 3 13 4 14
REMARK SMILES IDX 5 15 18 16 6 17 10 18 13 19 17 20 7 21 9 22 11 23 14 24
REMARK SMILES IDX 16 25 8 26 12 27 15 28 21 29 22 30 23 31 27 32 24 33 26 34
REMARK SMILES IDX 25 35 34 36 35 37 36 38 37 39 38 40 39 42 40 43 41 44 102 45
REMARK SMILES IDX 42 46 101 47 43 48 44 49 45 50 95 51 46 52 100 53 94 54
REMARK SMILES IDX 96 55 47 56 99 57 93 58 92 59 48 61 80 62 60 63 79 64 61 65
REMARK SMILES IDX 64 66 78 67 97 68 62 69 63 70 77 72 98 73 65 74 49 75 50 76
REMARK SMILES IDX 58 77 51 78 57 79 59 80 56 81 52 82 53 83 54 84 55 85 81 86
REMARK SMILES IDX 82 87 90 88 83 89 89 90 91 91 88 92 84 93 85 94 86 95 87 96
REMARK SMILES IDX 66 97 67 98 75 99 68 100 74 101 76 102 73 103 69 104 70 105
REMARK SMILES IDX 71 106 72 107
REMARK H PARENT 30 7 19 12 37 41 96 60 64 71
REMARK Flexibility Score: inf
ROOT
ATOM      1  C   UNL A   1      38.354  22.455  25.705  1.00  0.00     0.002 C 
ENDROOT
BRANCH   1   2
ATOM      2  C   UNL A   1      37.435  23.669  25.842  1.00  0.00     0.021 C 
BRANCH   2   3
ATOM      3  C   UNL A   1      35.948  23.404  25.665  1.00  0.00     0.116 C 
BRANCH   3   4
ATOM      4  N   UNL A   1      35.315  22.873  26.848  1.00  0.00    -0.354 N 
ATOM      5  C   UNL A   1      34.189  22.111  26.956  1.00  0.00     0.242 C 
ATOM      6  O   UNL A   1      34.061  21.461  28.000  1.00  0.00    -0.273 OA
ATOM      7  H   UNL A   1      35.758  23.093  27.698  1.00  0.00     0.163 HD
BRANCH   5   8
ATOM      8  C   UNL A   1      33.147  21.966  25.818  1.00  0.00     0.175 C 
BRANCH   8   9
ATOM      9  N   UNL A   1      32.480  23.211  25.413  1.00  0.00    -0.342 N 
ATOM     10  O   UNL A   1      31.137  23.352  27.263  1.00  0.00    -0.273 OA
ATOM     11  C   UNL A   1      31.484  23.797  26.169  1.00  0.00     0.240 C 
ATOM     12  H   UNL A   1      32.753  23.645  24.572  1.00  0.00     0.164 HD
BRANCH  11  13
ATOM     13  C   UNL A   1      30.714  24.951  25.507  1.00  0.00     0.222 C 
BRANCH  13  14
ATOM     14  N   UNL A   1      31.583  26.017  24.949  1.00  0.00    -0.331 N 
ATOM     15  C   UNL A   1      31.913  27.127  25.774  1.00  0.00     0.053 A 
ATOM     16  C   UNL A   1      31.998  25.946  23.594  1.00  0.00     0.053 A 
ATOM     17  C   UNL A   1      31.341  27.379  27.034  1.00  0.00     0.027 A 
ATOM     18  C   UNL A   1      32.822  28.098  25.306  1.00  0.00     0.046 A 
ATOM     19  C   UNL A   1      32.962  26.851  23.109  1.00  0.00     0.046 A 
ATOM     20  C   UNL A   1      31.484  25.033  22.658  1.00  0.00     0.027 A 
ATOM     21  C   UNL A   1      31.608  28.561  27.746  1.00  0.00     0.002 A 
ATOM     22  C   UNL A   1      33.107  29.274  26.021  1.00  0.00     0.014 A 
ATOM     23  C   UNL A   1      33.486  27.896  24.007  1.00  0.00     0.197 A 
ATOM     24  C   UNL A   1      33.417  26.824  21.781  1.00  0.00     0.014 A 
ATOM     25  C   UNL A   1      31.922  25.009  21.325  1.00  0.00     0.002 A 
ATOM     26  C   UNL A   1      32.481  29.513  27.236  1.00  0.00     0.001 A 
ATOM     27  O   UNL A   1      34.437  28.595  23.671  1.00  0.00    -0.288 OA
ATOM     28  C   UNL A   1      32.890  25.902  20.887  1.00  0.00     0.001 A 
ENDBRANCH  13  14
ENDBRANCH  11  13
ENDBRANCH   8   9
BRANCH   8  29
ATOM     29  C   UNL A   1      33.621  21.064  24.645  1.00  0.00     0.070 C 
BRANCH  29  30
ATOM     30  C   UNL A   1      33.621  19.552  24.776  1.00  0.00    -0.045 A 
ATOM     31  C   UNL A   1      32.525  18.855  25.301  1.00  0.00     0.004 A 
ATOM     32  C   UNL A   1      34.771  18.814  24.455  1.00  0.00     0.004 A 
ATOM     33  C   UNL A   1      32.530  17.460  25.395  1.00  0.00     0.000 A 
ATOM     34  C   UNL A   1      34.794  17.421  24.587  1.00  0.00     0.000 A 
ATOM     35  C   UNL A   1      33.665  16.742  25.034  1.00  0.00     0.000 A 
ENDBRANCH  29  30
ENDBRANCH   8  29
ENDBRANCH   5   8
ENDBRANCH   3   4
ENDBRANCH   2   3
ENDBRANCH   1   2
BRANCH   1  36
ATOM     36  C   UNL A   1      37.795  21.256  24.929  1.00  0.00     0.002 C 
BRANCH  36  37
ATOM     37  C   UNL A   1      38.595  19.953  25.001  1.00  0.00     0.021 C 
BRANCH  37  38
ATOM     38  C   UNL A   1      39.327  19.689  26.312  1.00  0.00     0.116 C 
BRANCH  38  39
ATOM     39  N   UNL A   1      40.634  19.086  26.128  1.00  0.00    -0.352 N 
ATOM     40  C   UNL A   1      41.885  19.654  26.127  1.00  0.00     0.251 C 
ATOM     41  H   UNL A   1      40.623  18.112  25.982  1.00  0.00     0.163 HD
ATOM     42  O   UNL A   1      42.858  18.967  25.826  1.00  0.00    -0.269 OA
BRANCH  40  43
ATOM     43  C   UNL A   1      42.062  21.092  26.436  1.00  0.00     0.039 A 
ATOM     44  C   UNL A   1      42.031  22.065  25.433  1.00  0.00     0.014 A 
ATOM     45  C   UNL A   1      42.254  21.473  27.767  1.00  0.00     0.014 A 
ATOM     46  C   UNL A   1      42.358  23.385  25.736  1.00  0.00     0.010 A 
ATOM     47  C   UNL A   1      42.501  22.813  28.081  1.00  0.00     0.010 A 
ATOM     48  C   UNL A   1      42.603  23.773  27.063  1.00  0.00    -0.014 A 
BRANCH  48  49
ATOM     49  C   UNL A   1      42.941  25.185  27.384  1.00  0.00     0.031 A 
ATOM     50  C   UNL A   1      44.340  25.704  27.193  1.00  0.00     0.074 A 
ATOM     51  C   UNL A   1      41.982  26.003  27.860  1.00  0.00     0.049 A 
ATOM     52  N   UNL A   1      44.820  26.891  27.461  1.00  0.00    -0.248 NA
ATOM     53  C   UNL A   1      45.331  24.770  26.633  1.00  0.00     0.031 C 
ATOM     54  C   UNL A   1      40.592  25.612  28.085  1.00  0.00     0.029 A 
ATOM     55  N   UNL A   1      42.026  27.321  28.242  1.00  0.00    -0.354 N 
ATOM     56  C   UNL A   1      46.170  26.842  27.130  1.00  0.00     0.074 A 
ATOM     57  C   UNL A   1      46.439  25.501  26.662  1.00  0.00     0.031 C 
ATOM     58  C   UNL A   1      39.909  26.669  28.544  1.00  0.00     0.029 A 
ATOM     59  C   UNL A   1      40.826  27.793  28.722  1.00  0.00     0.049 A 
ATOM     60  H   UNL A   1      42.837  27.875  28.180  1.00  0.00     0.167 HD
ATOM     61  C   UNL A   1      47.092  27.830  27.203  1.00  0.00     0.034 A 
ATOM     62  C   UNL A   1      40.499  28.979  29.275  1.00  0.00     0.034 A 
ATOM     63  C   UNL A   1      46.800  29.170  27.645  1.00  0.00     0.049 A 
ATOM     64  C   UNL A   1      41.551  30.049  29.389  1.00  0.00     0.074 A 
ATOM     65  C   UNL A   1      47.648  30.263  27.664  1.00  0.00     0.029 A 
ATOM     66  N   UNL A   1      45.584  29.600  28.157  1.00  0.00    -0.354 N 
ATOM     67  N   UNL A   1      42.802  30.014  28.993  1.00  0.00    -0.248 NA
ATOM     68  C   UNL A   1      41.160  31.315  30.024  1.00  0.00     0.031 C 
ATOM     69  C   UNL A   1      46.972  31.329  28.256  1.00  0.00     0.029 A 
ATOM     70  C   UNL A   1      45.676  30.928  28.541  1.00  0.00     0.049 A 
ATOM     71  H   UNL A   1      44.776  29.043  28.235  1.00  0.00     0.167 HD
ATOM     72  C   UNL A   1      43.346  31.250  29.326  1.00  0.00     0.074 A 
ATOM     73  C   UNL A   1      42.281  32.023  29.931  1.00  0.00     0.031 C 
ATOM     74  C   UNL A   1      44.615  31.697  29.149  1.00  0.00     0.034 A 
BRANCH  61  75
ATOM     75  C   UNL A   1      48.514  27.533  26.796  1.00  0.00     0.023 A 
ATOM     76  C   UNL A   1      48.922  27.758  25.466  1.00  0.00     0.031 A 
ATOM     77  C   UNL A   1      49.417  26.903  27.670  1.00  0.00     0.131 A 
ATOM     78  C   UNL A   1      50.185  27.328  25.043  1.00  0.00     0.055 A 
ATOM     79  C   UNL A   1      50.689  26.508  27.251  1.00  0.00     0.041 A 
ATOM     80  F   UNL A   1      49.075  26.663  28.946  1.00  0.00    -0.206 F 
ATOM     81  C   UNL A   1      51.073  26.709  25.928  1.00  0.00     0.022 A 
BRANCH  78  82
ATOM     82  S   UNL A   1      50.700  27.490  23.311  1.00  0.00     0.124 S 
ATOM     83  O   UNL A   1      51.929  26.699  23.291  1.00  0.00    -0.237 OA
ATOM     84  O   UNL A   1      49.568  26.903  22.599  1.00  0.00    -0.237 OA
ATOM     85  O   UNL A   1      50.882  28.926  23.131  1.00  0.00    -0.744 OA
ENDBRANCH  78  82
ENDBRANCH  61  75
BRANCH  62  86
ATOM     86  C   UNL A   1      39.096  29.185  29.736  1.00  0.00     0.023 A 
ATOM     87  C   UNL A   1      38.230  30.047  29.036  1.00  0.00     0.031 A 
ATOM     88  C   UNL A   1      38.656  28.658  30.961  1.00  0.00     0.131 A 
ATOM     89  C   UNL A   1      37.017  30.437  29.615  1.00  0.00     0.055 A 
ATOM     90  C   UNL A   1      37.410  28.987  31.496  1.00  0.00     0.041 A 
ATOM     91  F   UNL A   1      39.450  27.840  31.669  1.00  0.00    -0.206 F 
ATOM     92  C   UNL A   1      36.594  29.900  30.834  1.00  0.00     0.022 A 
BRANCH  89  93
ATOM     93  S   UNL A   1      36.032  31.777  28.888  1.00  0.00     0.124 S 
ATOM     94  O   UNL A   1      35.595  31.187  27.628  1.00  0.00    -0.237 OA
ATOM     95  O   UNL A   1      34.990  31.956  29.898  1.00  0.00    -0.237 OA
ATOM     96  O   UNL A   1      36.980  32.880  28.774  1.00  0.00    -0.744 OA
ENDBRANCH  89  93
ENDBRANCH  62  86
BRANCH  74  97
ATOM     97  C   UNL A   1      44.971  33.084  29.627  1.00  0.00     0.023 A 
ATOM     98  C   UNL A   1      45.387  33.287  30.957  1.00  0.00     0.031 A 
ATOM     99  C   UNL A   1      44.723  34.213  28.827  1.00  0.00     0.131 A 
ATOM    100  C   UNL A   1      45.483  34.588  31.466  1.00  0.00     0.055 A 
ATOM    101  C   UNL A   1      44.870  35.508  29.325  1.00  0.00     0.041 A 
ATOM    102  F   UNL A   1      44.320  34.070  27.555  1.00  0.00    -0.206 F 
ATOM    103  C   UNL A   1      45.233  35.700  30.655  1.00  0.00     0.022 A 
BRANCH 100 104
ATOM    104  S   UNL A   1      45.842  34.881  33.220  1.00  0.00     0.124 S 
ATOM    105  O   UNL A   1      46.903  33.911  33.479  1.00  0.00    -0.237 OA
ATOM    106  O   UNL A   1      46.261  36.279  33.218  1.00  0.00    -0.237 OA
ATOM    107  O   UNL A   1      44.575  34.606  33.889  1.00  0.00    -0.744 OA
ENDBRANCH 100 104
ENDBRANCH  74  97
ENDBRANCH  48  49
ENDBRANCH  40  43
ENDBRANCH  38  39
ENDBRANCH  37  38
ENDBRANCH  36  37
ENDBRANCH   1  36
TORSDOF 21
ENDMDL
MODEL 3
REMARK VINA RESULT:     -11.1      3.003      4.160
REMARK SMILES O=C(Cn1c2ccccc2c(=O)c2ccccc21)N[C@@H](Cc1ccccc1)C(=O)NCCCCCCNC(=O)c1ccc(-c2c3nc(c(-c4cc(S(=O)(=O)[O-])ccc4F)c4ccc([nH]4)c(-c4cc(S(=O)(=O)[O-])ccc4F)c4nc(c(-c5cc(S(=O)(=O)[O-])ccc5F)c5ccc2[nH]5)C=C4)C=C3)cc1
REMARK SMILES IDX 33 1 32 2 31 3 30 4 28 5 29 6 20 8 19 9 1 10 2 11 3 13 4 14
REMARK SMILES IDX 5 15 18 16 6 17 10 18 13 19 17 20 7 21 9 22 11 23 14 24
REMARK SMILES IDX 16 25 8 26 12 27 15 28 21 29 22 30 23 31 27 32 24 33 26 34
REMARK SMILES IDX 25 35 34 36 35 37 36 38 37 39 38 40 39 42 40 43 41 44 102 45
REMARK SMILES IDX 42 46 101 47 43 48 44 49 45 50 95 51 46 52 100 53 94 54
REMARK SMILES IDX 96 55 47 56 99 57 93 58 92 59 48 61 80 62 60 63 79 64 61 65
REMARK SMILES IDX 64 66 78 67 97 68 62 69 63 70 77 72 98 73 65 74 49 75 50 76
REMARK SMILES IDX 58 77 51 78 57 79 59 80 56 81 52 82 53 83 54 84 55 85 81 86
REMARK SMILES IDX 82 87 90 88 83 89 89 90 91 91 88 92 84 93 85 94 86 95 87 96
REMARK SMILES IDX 66 97 67 98 75 99 68 100 74 101 76 102 73 103 69 104 70 105
REMARK SMILES IDX 71 106 72 107
REMARK H PARENT 30 7 19 12 37 41 96 60 64 71
REMARK Flexibility Score: inf
ROOT
ATOM      1  C   UNL A   1      35.577  22.881  26.458  1.00  0.00     0.002 C 
ENDROOT
BRANCH   1   2
ATOM      2  C   UNL A   1      34.339  23.567  27.038  1.00  0.00     0.021 C 
BRANCH   2   3
ATOM      3  C   UNL A   1      33.295  24.022  26.030  1.00  0.00     0.116 C 
BRANCH   3   4
ATOM      4  N   UNL A   1      32.021  23.363  26.188  1.00  0.00    -0.354 N 
ATOM      5  C   UNL A   1      31.185  22.861  25.234  1.00  0.00     0.242 C 
ATOM      6  O   UNL A   1      30.365  22.014  25.610  1.00  0.00    -0.273 OA
ATOM      7  H   UNL A   1      31.710  23.263  27.116  1.00  0.00     0.163 HD
BRANCH   5   8
ATOM      8  C   UNL A   1      31.286  23.233  23.733  1.00  0.00     0.175 C 
BRANCH   8   9
ATOM      9  N   UNL A   1      31.750  24.599  23.454  1.00  0.00    -0.342 N 
ATOM     10  O   UNL A   1      29.675  25.563  23.566  1.00  0.00    -0.273 OA
ATOM     11  C   UNL A   1      30.883  25.670  23.358  1.00  0.00     0.240 C 
ATOM     12  H   UNL A   1      32.714  24.757  23.331  1.00  0.00     0.164 HD
BRANCH  11  13
ATOM     13  C   UNL A   1      31.478  26.983  22.823  1.00  0.00     0.222 C 
BRANCH  13  14
ATOM     14  N   UNL A   1      31.235  28.158  23.696  1.00  0.00    -0.331 N 
ATOM     15  C   UNL A   1      32.052  28.331  24.846  1.00  0.00     0.053 A 
ATOM     16  C   UNL A   1      30.155  29.033  23.411  1.00  0.00     0.053 A 
ATOM     17  C   UNL A   1      32.973  27.378  25.318  1.00  0.00     0.027 A 
ATOM     18  C   UNL A   1      31.914  29.494  25.631  1.00  0.00     0.046 A 
ATOM     19  C   UNL A   1      30.026  30.241  24.122  1.00  0.00     0.046 A 
ATOM     20  C   UNL A   1      29.152  28.765  22.464  1.00  0.00     0.027 A 
ATOM     21  C   UNL A   1      33.657  27.548  26.534  1.00  0.00     0.002 A 
ATOM     22  C   UNL A   1      32.609  29.678  26.839  1.00  0.00     0.014 A 
ATOM     23  C   UNL A   1      30.990  30.554  25.192  1.00  0.00     0.197 A 
ATOM     24  C   UNL A   1      28.983  31.150  23.878  1.00  0.00     0.014 A 
ATOM     25  C   UNL A   1      28.098  29.661  22.225  1.00  0.00     0.002 A 
ATOM     26  C   UNL A   1      33.468  28.691  27.300  1.00  0.00     0.001 A 
ATOM     27  O   UNL A   1      31.007  31.662  25.720  1.00  0.00    -0.288 OA
ATOM     28  C   UNL A   1      28.016  30.854  22.929  1.00  0.00     0.001 A 
ENDBRANCH  13  14
ENDBRANCH  11  13
ENDBRANCH   8   9
BRANCH   8  29
ATOM     29  C   UNL A   1      31.933  22.127  22.855  1.00  0.00     0.070 C 
BRANCH  29  30
ATOM     30  C   UNL A   1      32.648  20.948  23.489  1.00  0.00    -0.045 A 
ATOM     31  C   UNL A   1      32.075  19.670  23.530  1.00  0.00     0.004 A 
ATOM     32  C   UNL A   1      33.878  21.134  24.140  1.00  0.00     0.004 A 
ATOM     33  C   UNL A   1      32.756  18.589  24.097  1.00  0.00     0.000 A 
ATOM     34  C   UNL A   1      34.543  20.061  24.745  1.00  0.00     0.000 A 
ATOM     35  C   UNL A   1      33.993  18.784  24.702  1.00  0.00     0.000 A 
ENDBRANCH  29  30
ENDBRANCH   8  29
ENDBRANCH   5   8
ENDBRANCH   3   4
ENDBRANCH   2   3
ENDBRANCH   1   2
BRANCH   1  36
ATOM     36  C   UNL A   1      36.484  23.741  25.569  1.00  0.00     0.002 C 
BRANCH  36  37
ATOM     37  C   UNL A   1      37.852  23.156  25.208  1.00  0.00     0.021 C 
BRANCH  37  38
ATOM     38  C   UNL A   1      38.604  22.465  26.339  1.00  0.00     0.116 C 
BRANCH  38  39
ATOM     39  N   UNL A   1      39.927  22.007  25.952  1.00  0.00    -0.352 N 
ATOM     40  C   UNL A   1      41.139  22.653  25.988  1.00  0.00     0.251 C 
ATOM     41  H   UNL A   1      39.960  21.084  25.611  1.00  0.00     0.163 HD
ATOM     42  O   UNL A   1      42.124  22.112  25.491  1.00  0.00    -0.269 OA
BRANCH  40  43
ATOM     43  C   UNL A   1      41.255  24.009  26.572  1.00  0.00     0.039 A 
ATOM     44  C   UNL A   1      41.071  25.158  25.798  1.00  0.00     0.014 A 
ATOM     45  C   UNL A   1      41.547  24.129  27.934  1.00  0.00     0.014 A 
ATOM     46  C   UNL A   1      41.343  26.412  26.340  1.00  0.00     0.010 A 
ATOM     47  C   UNL A   1      41.739  25.394  28.497  1.00  0.00     0.010 A 
ATOM     48  C   UNL A   1      41.687  26.544  27.696  1.00  0.00    -0.014 A 
BRANCH  48  49
ATOM     49  C   UNL A   1      41.966  27.885  28.274  1.00  0.00     0.031 A 
ATOM     50  C   UNL A   1      40.847  28.753  28.783  1.00  0.00     0.074 A 
ATOM     51  C   UNL A   1      43.237  28.329  28.332  1.00  0.00     0.049 A 
ATOM     52  N   UNL A   1      40.904  29.962  29.278  1.00  0.00    -0.248 NA
ATOM     53  C   UNL A   1      39.486  28.193  28.726  1.00  0.00     0.031 C 
ATOM     54  C   UNL A   1      44.402  27.577  27.870  1.00  0.00     0.029 A 
ATOM     55  N   UNL A   1      43.761  29.510  28.795  1.00  0.00    -0.354 N 
ATOM     56  C   UNL A   1      39.591  30.320  29.565  1.00  0.00     0.074 A 
ATOM     57  C   UNL A   1      38.756  29.209  29.170  1.00  0.00     0.031 C 
ATOM     58  C   UNL A   1      45.506  28.302  28.092  1.00  0.00     0.029 A 
ATOM     59  C   UNL A   1      45.125  29.603  28.639  1.00  0.00     0.049 A 
ATOM     60  H   UNL A   1      43.215  30.223  29.200  1.00  0.00     0.167 HD
ATOM     61  C   UNL A   1      39.133  31.468  30.118  1.00  0.00     0.034 A 
ATOM     62  C   UNL A   1      45.976  30.624  28.874  1.00  0.00     0.034 A 
ATOM     63  C   UNL A   1      39.983  32.554  30.533  1.00  0.00     0.049 A 
ATOM     64  C   UNL A   1      45.439  31.908  29.445  1.00  0.00     0.074 A 
ATOM     65  C   UNL A   1      39.618  33.718  31.188  1.00  0.00     0.029 A 
ATOM     66  N   UNL A   1      41.353  32.627  30.326  1.00  0.00    -0.354 N 
ATOM     67  N   UNL A   1      44.206  32.199  29.791  1.00  0.00    -0.248 NA
ATOM     68  C   UNL A   1      46.394  33.004  29.657  1.00  0.00     0.031 C 
ATOM     69  C   UNL A   1      40.749  34.525  31.308  1.00  0.00     0.029 A 
ATOM     70  C   UNL A   1      41.838  33.837  30.796  1.00  0.00     0.049 A 
ATOM     71  H   UNL A   1      41.899  31.923  29.908  1.00  0.00     0.167 HD
ATOM     72  C   UNL A   1      44.238  33.507  30.264  1.00  0.00     0.074 A 
ATOM     73  C   UNL A   1      45.617  33.942  30.188  1.00  0.00     0.031 C 
ATOM     74  C   UNL A   1      43.213  34.274  30.715  1.00  0.00     0.034 A 
BRANCH  61  75
ATOM     75  C   UNL A   1      37.648  31.636  30.326  1.00  0.00     0.023 A 
ATOM     76  C   UNL A   1      36.872  32.275  29.339  1.00  0.00     0.031 A 
ATOM     77  C   UNL A   1      37.030  31.297  31.542  1.00  0.00     0.131 A 
ATOM     78  C   UNL A   1      35.532  32.584  29.599  1.00  0.00     0.055 A 
ATOM     79  C   UNL A   1      35.682  31.575  31.782  1.00  0.00     0.041 A 
ATOM     80  F   UNL A   1      37.726  30.690  32.515  1.00  0.00    -0.206 F 
ATOM     81  C   UNL A   1      34.931  32.233  30.812  1.00  0.00     0.022 A 
BRANCH  78  82
ATOM     82  S   UNL A   1      34.534  33.513  28.403  1.00  0.00     0.124 S 
ATOM     83  O   UNL A   1      33.950  34.554  29.247  1.00  0.00    -0.237 OA
ATOM     84  O   UNL A   1      35.544  33.974  27.454  1.00  0.00    -0.237 OA
ATOM     85  O   UNL A   1      33.589  32.527  27.891  1.00  0.00    -0.744 OA
ENDBRANCH  78  82
ENDBRANCH  61  75
BRANCH  62  86
ATOM     86  C   UNL A   1      47.423  30.427  28.570  1.00  0.00     0.023 A 
ATOM     87  C   UNL A   1      48.301  29.931  29.552  1.00  0.00     0.031 A 
ATOM     88  C   UNL A   1      47.972  30.881  27.360  1.00  0.00     0.131 A 
ATOM     89  C   UNL A   1      49.684  29.998  29.349  1.00  0.00     0.055 A 
ATOM     90  C   UNL A   1      49.349  30.871  27.130  1.00  0.00     0.041 A 
ATOM     91  F   UNL A   1      47.176  31.372  26.398  1.00  0.00    -0.206 F 
ATOM     92  C   UNL A   1      50.213  30.450  28.137  1.00  0.00     0.022 A 
BRANCH  89  93
ATOM     93  S   UNL A   1      50.838  29.661  30.708  1.00  0.00     0.124 S 
ATOM     94  O   UNL A   1      49.988  28.962  31.665  1.00  0.00    -0.237 OA
ATOM     95  O   UNL A   1      51.846  28.841  30.040  1.00  0.00    -0.237 OA
ATOM     96  O   UNL A   1      51.289  30.988  31.115  1.00  0.00    -0.744 OA
ENDBRANCH  89  93
ENDBRANCH  62  86
BRANCH  74  97
ATOM     97  C   UNL A   1      43.502  35.689  31.151  1.00  0.00     0.023 A 
ATOM     98  C   UNL A   1      43.577  36.721  30.196  1.00  0.00     0.031 A 
ATOM     99  C   UNL A   1      43.881  35.977  32.474  1.00  0.00     0.131 A 
ATOM    100  C   UNL A   1      44.077  37.976  30.565  1.00  0.00     0.055 A 
ATOM    101  C   UNL A   1      44.331  37.244  32.846  1.00  0.00     0.041 A 
ATOM    102  F   UNL A   1      43.832  35.025  33.419  1.00  0.00    -0.206 F 
ATOM    103  C   UNL A   1      44.449  38.245  31.886  1.00  0.00     0.022 A 
BRANCH 100 104
ATOM    104  S   UNL A   1      44.354  39.272  29.325  1.00  0.00     0.124 S 
ATOM    105  O   UNL A   1      45.734  39.015  28.920  1.00  0.00    -0.237 OA
ATOM    106  O   UNL A   1      43.341  38.959  28.322  1.00  0.00    -0.237 OA
ATOM    107  O   UNL A   1      44.147  40.514  30.062  1.00  0.00    -0.744 OA
ENDBRANCH 100 104
ENDBRANCH  74  97
ENDBRANCH  48  49
ENDBRANCH  40  43
ENDBRANCH  38  39
ENDBRANCH  37  38
ENDBRANCH  36  37
ENDBRANCH   1  36
TORSDOF 21
ENDMDL
