MODEL 1
REMARK VINA RESULT:     -13.7      0.000      0.000
REMARK SMILES CC(=O)Nc1cnc(N2CC=C(c3ccccc3C)CC2)c(C(=O)NCCCCCCNC(=O)c2ccc(-c3c4nc(c(-c5cc(S(=O)(=O)[O-])ccc5F)c5ccc([nH]5)c(-c5cc(S(=O)(=O)[O-])ccc5F)c5nc(c(-c6cc(S(=O)(=O)[O-])ccc6F)c6ccc3[nH]6)C=C5)C=C4)cc2)c1
REMARK SMILES IDX 29 1 28 2 27 3 26 4 25 5 23 6 24 7 22 9 5 10 6 11 98 12 7 13
REMARK SMILES IDX 8 14 4 15 1 16 2 17 3 18 9 20 10 21 21 22 11 23 20 24 12 25
REMARK SMILES IDX 13 26 14 27 18 28 15 29 17 30 19 31 16 32 30 33 31 34 32 35
REMARK SMILES IDX 33 36 34 38 35 39 36 40 97 41 37 42 96 43 38 44 39 45 40 46
REMARK SMILES IDX 90 47 41 48 95 49 89 50 91 51 42 52 94 53 88 54 87 55 43 57
REMARK SMILES IDX 75 58 55 59 74 60 56 61 59 62 73 63 92 64 57 65 58 66 72 68
REMARK SMILES IDX 93 69 60 70 44 71 45 72 53 73 46 74 52 75 54 76 51 77 47 78
REMARK SMILES IDX 48 79 49 80 50 81 76 82 77 83 85 84 78 85 84 86 86 87 83 88
REMARK SMILES IDX 79 89 80 90 81 91 82 92 61 93 62 94 70 95 63 96 69 97 71 98
REMARK SMILES IDX 68 99 64 100 65 101 66 102 67 103
REMARK H PARENT 25 8 4 19 32 37 91 56 59 67
REMARK Flexibility Score: inf
ROOT
ATOM      1  C   UNL A   1      32.124  30.328  26.534  1.00  0.00     0.002 C 
ENDROOT
BRANCH   1   2
ATOM      2  C   UNL A   1      32.022  28.917  27.142  1.00  0.00     0.002 C 
BRANCH   2   3
ATOM      3  C   UNL A   1      31.826  27.751  26.160  1.00  0.00     0.021 C 
BRANCH   3   4
ATOM      4  C   UNL A   1      32.675  26.516  26.449  1.00  0.00     0.116 C 
BRANCH   4   5
ATOM      5  N   UNL A   1      31.892  25.348  26.799  1.00  0.00    -0.352 N 
ATOM      6  C   UNL A   1      31.967  23.992  26.598  1.00  0.00     0.255 C 
ATOM      7  O   UNL A   1      31.358  23.342  27.452  1.00  0.00    -0.269 OA
ATOM      8  H   UNL A   1      31.093  25.592  27.320  1.00  0.00     0.163 HD
BRANCH   6   9
ATOM      9  C   UNL A   1      32.728  23.274  25.517  1.00  0.00     0.084 A 
ATOM     10  C   UNL A   1      34.253  21.503  24.797  1.00  0.00     0.060 A 
ATOM     11  C   UNL A   1      33.843  21.747  23.503  1.00  0.00     0.139 A 
ATOM     12  C   UNL A   1      33.719  22.320  25.791  1.00  0.00     0.045 A 
ATOM     13  N   UNL A   1      32.937  22.685  23.173  1.00  0.00    -0.236 NA
ATOM     14  C   UNL A   1      32.398  23.464  24.154  1.00  0.00     0.141 A 
BRANCH  10  15
ATOM     15  N   UNL A   1      35.189  20.483  25.035  1.00  0.00    -0.325 N 
ATOM     16  C   UNL A   1      37.308  21.789  24.863  1.00  0.00     0.114 C 
ATOM     17  C   UNL A   1      36.555  20.491  24.982  1.00  0.00     0.221 C 
ATOM     18  O   UNL A   1      37.162  19.426  25.111  1.00  0.00    -0.275 OA
ATOM     19  H   UNL A   1      34.795  19.615  25.283  1.00  0.00     0.169 HD
ENDBRANCH  10  15
BRANCH  14  20
ATOM     20  N   UNL A   1      31.607  24.466  23.648  1.00  0.00    -0.352 N 
ATOM     21  C   UNL A   1      32.234  25.426  22.758  1.00  0.00     0.146 C 
ATOM     22  C   UNL A   1      30.156  24.355  23.648  1.00  0.00     0.123 C 
ATOM     23  C   UNL A   1      31.400  26.676  22.652  1.00  0.00    -0.002 C 
ATOM     24  C   UNL A   1      29.554  25.714  24.018  1.00  0.00     0.057 C 
ATOM     25  C   UNL A   1      30.193  26.833  23.231  1.00  0.00    -0.041 C 
BRANCH  25  26
ATOM     26  C   UNL A   1      29.442  28.091  23.095  1.00  0.00    -0.020 A 
ATOM     27  C   UNL A   1      28.040  28.035  23.157  1.00  0.00     0.008 A 
ATOM     28  C   UNL A   1      30.077  29.338  22.930  1.00  0.00    -0.044 A 
ATOM     29  C   UNL A   1      27.273  29.198  23.084  1.00  0.00     0.001 A 
ATOM     30  C   UNL A   1      29.291  30.502  22.875  1.00  0.00     0.004 A 
ATOM     31  C   UNL A   1      31.573  29.472  22.846  1.00  0.00     0.045 C 
ATOM     32  C   UNL A   1      27.900  30.431  22.949  1.00  0.00     0.000 A 
ENDBRANCH  25  26
ENDBRANCH  14  20
ENDBRANCH   6   9
ENDBRANCH   4   5
ENDBRANCH   3   4
ENDBRANCH   2   3
ENDBRANCH   1   2
BRANCH   1  33
ATOM     33  C   UNL A   1      32.999  31.330  27.292  1.00  0.00     0.021 C 
BRANCH  33  34
ATOM     34  C   UNL A   1      34.287  30.732  27.843  1.00  0.00     0.116 C 
BRANCH  34  35
ATOM     35  N   UNL A   1      34.906  31.545  28.884  1.00  0.00    -0.352 N 
ATOM     36  C   UNL A   1      36.040  31.269  29.637  1.00  0.00     0.251 C 
ATOM     37  H   UNL A   1      34.462  32.403  29.078  1.00  0.00     0.163 HD
ATOM     38  O   UNL A   1      36.442  32.015  30.498  1.00  0.00    -0.269 OA
BRANCH  36  39
ATOM     39  C   UNL A   1      36.816  30.059  29.271  1.00  0.00     0.039 A 
ATOM     40  C   UNL A   1      37.039  29.114  30.278  1.00  0.00     0.014 A 
ATOM     41  C   UNL A   1      37.522  30.014  28.073  1.00  0.00     0.014 A 
ATOM     42  C   UNL A   1      38.137  28.266  30.175  1.00  0.00     0.010 A 
ATOM     43  C   UNL A   1      38.665  29.239  28.014  1.00  0.00     0.010 A 
ATOM     44  C   UNL A   1      39.008  28.418  29.096  1.00  0.00    -0.014 A 
BRANCH  44  45
ATOM     45  C   UNL A   1      40.369  27.884  29.103  1.00  0.00     0.031 A 
ATOM     46  C   UNL A   1      40.644  26.502  28.660  1.00  0.00     0.074 A 
ATOM     47  C   UNL A   1      41.395  28.674  29.493  1.00  0.00     0.049 A 
ATOM     48  N   UNL A   1      41.687  25.822  28.994  1.00  0.00    -0.248 NA
ATOM     49  C   UNL A   1      39.706  25.744  27.846  1.00  0.00     0.031 C 
ATOM     50  C   UNL A   1      42.822  28.416  29.327  1.00  0.00     0.029 A 
ATOM     51  N   UNL A   1      41.335  29.762  30.359  1.00  0.00    -0.354 N 
ATOM     52  C   UNL A   1      41.709  24.671  28.238  1.00  0.00     0.074 A 
ATOM     53  C   UNL A   1      40.412  24.635  27.606  1.00  0.00     0.031 C 
ATOM     54  C   UNL A   1      43.499  29.132  30.237  1.00  0.00     0.029 A 
ATOM     55  C   UNL A   1      42.524  29.769  31.105  1.00  0.00     0.049 A 
ATOM     56  H   UNL A   1      40.596  30.408  30.434  1.00  0.00     0.167 HD
ATOM     57  C   UNL A   1      42.873  23.963  28.139  1.00  0.00     0.034 A 
ATOM     58  C   UNL A   1      42.506  29.670  32.465  1.00  0.00     0.034 A 
ATOM     59  C   UNL A   1      43.894  24.482  29.056  1.00  0.00     0.049 A 
ATOM     60  C   UNL A   1      43.230  28.456  32.997  1.00  0.00     0.074 A 
ATOM     61  C   UNL A   1      45.014  25.277  28.877  1.00  0.00     0.029 A 
ATOM     62  N   UNL A   1      43.684  24.409  30.431  1.00  0.00    -0.354 N 
ATOM     63  N   UNL A   1      43.566  27.422  32.274  1.00  0.00    -0.248 NA
ATOM     64  C   UNL A   1      43.620  28.307  34.395  1.00  0.00     0.031 C 
ATOM     65  C   UNL A   1      45.441  25.731  30.154  1.00  0.00     0.029 A 
ATOM     66  C   UNL A   1      44.601  25.187  31.111  1.00  0.00     0.049 A 
ATOM     67  H   UNL A   1      42.978  23.875  30.860  1.00  0.00     0.167 HD
ATOM     68  C   UNL A   1      44.173  26.480  33.068  1.00  0.00     0.074 A 
ATOM     69  C   UNL A   1      44.210  27.100  34.381  1.00  0.00     0.031 C 
ATOM     70  C   UNL A   1      44.580  25.271  32.569  1.00  0.00     0.034 A 
BRANCH  57  71
ATOM     71  C   UNL A   1      43.196  22.991  27.014  1.00  0.00     0.023 A 
ATOM     72  C   UNL A   1      42.660  21.683  27.060  1.00  0.00     0.031 A 
ATOM     73  C   UNL A   1      44.058  23.233  25.926  1.00  0.00     0.131 A 
ATOM     74  C   UNL A   1      43.059  20.682  26.149  1.00  0.00     0.055 A 
ATOM     75  C   UNL A   1      44.494  22.229  25.049  1.00  0.00     0.041 A 
ATOM     76  F   UNL A   1      44.480  24.461  25.611  1.00  0.00    -0.206 F 
ATOM     77  C   UNL A   1      44.006  20.940  25.165  1.00  0.00     0.022 A 
BRANCH  74  78
ATOM     78  S   UNL A   1      42.329  19.025  26.269  1.00  0.00     0.124 S 
ATOM     79  O   UNL A   1      40.979  19.243  25.761  1.00  0.00    -0.237 OA
ATOM     80  O   UNL A   1      43.219  18.234  25.427  1.00  0.00    -0.237 OA
ATOM     81  O   UNL A   1      42.407  18.724  27.699  1.00  0.00    -0.744 OA
ENDBRANCH  74  78
ENDBRANCH  57  71
BRANCH  58  82
ATOM     82  C   UNL A   1      41.321  30.322  33.089  1.00  0.00     0.023 A 
ATOM     83  C   UNL A   1      41.308  31.732  33.121  1.00  0.00     0.031 A 
ATOM     84  C   UNL A   1      40.107  29.649  33.267  1.00  0.00     0.131 A 
ATOM     85  C   UNL A   1      40.093  32.428  33.173  1.00  0.00     0.055 A 
ATOM     86  C   UNL A   1      38.898  30.350  33.376  1.00  0.00     0.041 A 
ATOM     87  F   UNL A   1      40.050  28.311  33.206  1.00  0.00    -0.206 F 
ATOM     88  C   UNL A   1      38.883  31.743  33.286  1.00  0.00     0.022 A 
BRANCH  85  89
ATOM     89  S   UNL A   1      40.100  34.212  32.819  1.00  0.00     0.124 S 
ATOM     90  O   UNL A   1      41.155  34.691  33.704  1.00  0.00    -0.237 OA
ATOM     91  O   UNL A   1      40.397  34.257  31.389  1.00  0.00    -0.237 OA
ATOM     92  O   UNL A   1      38.743  34.632  33.165  1.00  0.00    -0.744 OA
ENDBRANCH  85  89
ENDBRANCH  58  82
BRANCH  70  93
ATOM     93  C   UNL A   1      45.077  24.087  33.384  1.00  0.00     0.023 A 
ATOM     94  C   UNL A   1      46.385  23.969  33.876  1.00  0.00     0.031 A 
ATOM     95  C   UNL A   1      44.198  23.037  33.757  1.00  0.00     0.131 A 
ATOM     96  C   UNL A   1      46.801  22.837  34.604  1.00  0.00     0.055 A 
ATOM     97  C   UNL A   1      44.591  21.950  34.545  1.00  0.00     0.041 A 
ATOM     98  F   UNL A   1      42.911  23.024  33.382  1.00  0.00    -0.206 F 
ATOM     99  C   UNL A   1      45.906  21.833  34.961  1.00  0.00     0.022 A 
BRANCH  96 100
ATOM    100  S   UNL A   1      48.558  22.681  35.022  1.00  0.00     0.124 S 
ATOM    101  O   UNL A   1      48.559  23.006  36.446  1.00  0.00    -0.237 OA
ATOM    102  O   UNL A   1      48.836  21.288  34.691  1.00  0.00    -0.237 OA
ATOM    103  O   UNL A   1      49.208  23.667  34.160  1.00  0.00    -0.744 OA
ENDBRANCH  96 100
ENDBRANCH  70  93
ENDBRANCH  44  45
ENDBRANCH  36  39
ENDBRANCH  34  35
ENDBRANCH  33  34
ENDBRANCH   1  33
TORSDOF 19
ENDMDL
MODEL 2
REMARK VINA RESULT:     -13.2      4.099     10.694
REMARK SMILES CC(=O)Nc1cnc(N2CC=C(c3ccccc3C)CC2)c(C(=O)NCCCCCCNC(=O)c2ccc(-c3c4nc(c(-c5cc(S(=O)(=O)[O-])ccc5F)c5ccc([nH]5)c(-c5cc(S(=O)(=O)[O-])ccc5F)c5nc(c(-c6cc(S(=O)(=O)[O-])ccc6F)c6ccc3[nH]6)C=C5)C=C4)cc2)c1
REMARK SMILES IDX 29 1 28 2 27 3 26 4 25 5 23 6 24 7 22 9 5 10 6 11 98 12 7 13
REMARK SMILES IDX 8 14 4 15 1 16 2 17 3 18 9 20 10 21 21 22 11 23 20 24 12 25
REMARK SMILES IDX 13 26 14 27 18 28 15 29 17 30 19 31 16 32 30 33 31 34 32 35
REMARK SMILES IDX 33 36 34 38 35 39 36 40 97 41 37 42 96 43 38 44 39 45 40 46
REMARK SMILES IDX 90 47 41 48 95 49 89 50 91 51 42 52 94 53 88 54 87 55 43 57
REMARK SMILES IDX 75 58 55 59 74 60 56 61 59 62 73 63 92 64 57 65 58 66 72 68
REMARK SMILES IDX 93 69 60 70 44 71 45 72 53 73 46 74 52 75 54 76 51 77 47 78
REMARK SMILES IDX 48 79 49 80 50 81 76 82 77 83 85 84 78 85 84 86 86 87 83 88
REMARK SMILES IDX 79 89 80 90 81 91 82 92 61 93 62 94 70 95 63 96 69 97 71 98
REMARK SMILES IDX 68 99 64 100 65 101 66 102 67 103
REMARK H PARENT 25 8 4 19 32 37 91 56 59 67
REMARK Flexibility Score: inf
ROOT
ATOM      1  C   UNL A   1      37.877  21.723  24.996  1.00  0.00     0.002 C 
ENDROOT
BRANCH   1   2
ATOM      2  C   UNL A   1      36.507  21.753  24.293  1.00  0.00     0.002 C 
BRANCH   2   3
ATOM      3  C   UNL A   1      36.226  22.952  23.372  1.00  0.00     0.021 C 
BRANCH   3   4
ATOM      4  C   UNL A   1      35.171  23.927  23.888  1.00  0.00     0.116 C 
BRANCH   4   5
ATOM      5  N   UNL A   1      34.490  24.650  22.833  1.00  0.00    -0.352 N 
ATOM      6  C   UNL A   1      33.614  25.702  22.741  1.00  0.00     0.255 C 
ATOM      7  O   UNL A   1      33.660  26.276  21.649  1.00  0.00    -0.269 OA
ATOM      8  H   UNL A   1      34.716  24.289  21.945  1.00  0.00     0.163 HD
BRANCH   6   9
ATOM      9  C   UNL A   1      32.695  26.216  23.815  1.00  0.00     0.084 A 
ATOM     10  C   UNL A   1      31.673  28.067  25.043  1.00  0.00     0.060 A 
ATOM     11  C   UNL A   1      30.756  27.164  25.539  1.00  0.00     0.139 A 
ATOM     12  C   UNL A   1      32.674  27.560  24.218  1.00  0.00     0.045 A 
ATOM     13  N   UNL A   1      30.759  25.855  25.231  1.00  0.00    -0.236 NA
ATOM     14  C   UNL A   1      31.727  25.368  24.403  1.00  0.00     0.141 A 
BRANCH  10  15
ATOM     15  N   UNL A   1      31.566  29.419  25.411  1.00  0.00    -0.325 N 
ATOM     16  C   UNL A   1      33.244  29.501  27.257  1.00  0.00     0.114 C 
ATOM     17  C   UNL A   1      32.140  30.115  26.438  1.00  0.00     0.221 C 
ATOM     18  O   UNL A   1      31.791  31.281  26.634  1.00  0.00    -0.275 OA
ATOM     19  H   UNL A   1      30.981  29.957  24.830  1.00  0.00     0.169 HD
ENDBRANCH  10  15
BRANCH  14  20
ATOM     20  N   UNL A   1      31.687  23.999  24.302  1.00  0.00    -0.352 N 
ATOM     21  C   UNL A   1      31.789  23.237  25.532  1.00  0.00     0.146 C 
ATOM     22  C   UNL A   1      31.156  23.345  23.115  1.00  0.00     0.123 C 
ATOM     23  C   UNL A   1      32.179  21.810  25.242  1.00  0.00    -0.002 C 
ATOM     24  C   UNL A   1      32.037  22.138  22.778  1.00  0.00     0.057 C 
ATOM     25  C   UNL A   1      32.314  21.299  24.003  1.00  0.00    -0.041 C 
BRANCH  25  26
ATOM     26  C   UNL A   1      32.712  19.897  23.797  1.00  0.00    -0.020 A 
ATOM     27  C   UNL A   1      32.133  19.195  22.726  1.00  0.00     0.008 A 
ATOM     28  C   UNL A   1      33.661  19.252  24.614  1.00  0.00    -0.044 A 
ATOM     29  C   UNL A   1      32.504  17.880  22.450  1.00  0.00     0.001 A 
ATOM     30  C   UNL A   1      34.037  17.932  24.311  1.00  0.00     0.004 A 
ATOM     31  C   UNL A   1      34.314  19.939  25.782  1.00  0.00     0.045 C 
ATOM     32  C   UNL A   1      33.461  17.251  23.238  1.00  0.00     0.000 A 
ENDBRANCH  25  26
ENDBRANCH  14  20
ENDBRANCH   6   9
ENDBRANCH   4   5
ENDBRANCH   3   4
ENDBRANCH   2   3
ENDBRANCH   1   2
BRANCH   1  33
ATOM     33  C   UNL A   1      38.295  23.005  25.720  1.00  0.00     0.021 C 
BRANCH  33  34
ATOM     34  C   UNL A   1      39.207  22.771  26.916  1.00  0.00     0.116 C 
BRANCH  34  35
ATOM     35  N   UNL A   1      40.614  23.035  26.635  1.00  0.00    -0.352 N 
ATOM     36  C   UNL A   1      41.270  24.258  26.580  1.00  0.00     0.251 C 
ATOM     37  H   UNL A   1      41.172  22.242  26.461  1.00  0.00     0.163 HD
ATOM     38  O   UNL A   1      42.444  24.350  26.306  1.00  0.00    -0.269 OA
BRANCH  36  39
ATOM     39  C   UNL A   1      40.496  25.459  26.980  1.00  0.00     0.039 A 
ATOM     40  C   UNL A   1      40.728  26.636  26.262  1.00  0.00     0.014 A 
ATOM     41  C   UNL A   1      39.800  25.475  28.185  1.00  0.00     0.014 A 
ATOM     42  C   UNL A   1      40.464  27.859  26.870  1.00  0.00     0.010 A 
ATOM     43  C   UNL A   1      39.626  26.687  28.825  1.00  0.00     0.010 A 
ATOM     44  C   UNL A   1      40.024  27.873  28.195  1.00  0.00    -0.014 A 
BRANCH  44  45
ATOM     45  C   UNL A   1      40.111  29.063  29.039  1.00  0.00     0.031 A 
ATOM     46  C   UNL A   1      39.046  30.086  29.020  1.00  0.00     0.074 A 
ATOM     47  C   UNL A   1      41.166  29.217  29.871  1.00  0.00     0.049 A 
ATOM     48  N   UNL A   1      39.202  31.311  29.392  1.00  0.00    -0.248 NA
ATOM     49  C   UNL A   1      37.713  29.814  28.502  1.00  0.00     0.031 C 
ATOM     50  C   UNL A   1      41.303  30.183  30.956  1.00  0.00     0.029 A 
ATOM     51  N   UNL A   1      42.441  28.682  29.717  1.00  0.00    -0.354 N 
ATOM     52  C   UNL A   1      37.962  31.907  29.435  1.00  0.00     0.074 A 
ATOM     53  C   UNL A   1      37.087  30.958  28.790  1.00  0.00     0.031 C 
ATOM     54  C   UNL A   1      42.608  30.367  31.209  1.00  0.00     0.029 A 
ATOM     55  C   UNL A   1      43.355  29.629  30.206  1.00  0.00     0.049 A 
ATOM     56  H   UNL A   1      42.662  27.802  29.336  1.00  0.00     0.167 HD
ATOM     57  C   UNL A   1      37.809  33.074  30.129  1.00  0.00     0.034 A 
ATOM     58  C   UNL A   1      44.321  30.160  29.403  1.00  0.00     0.034 A 
ATOM     59  C   UNL A   1      39.103  33.605  30.572  1.00  0.00     0.049 A 
ATOM     60  C   UNL A   1      44.222  31.658  29.240  1.00  0.00     0.074 A 
ATOM     61  C   UNL A   1      39.759  33.615  31.793  1.00  0.00     0.029 A 
ATOM     62  N   UNL A   1      40.040  34.011  29.625  1.00  0.00    -0.354 N 
ATOM     63  N   UNL A   1      43.166  32.364  29.543  1.00  0.00    -0.248 NA
ATOM     64  C   UNL A   1      45.305  32.478  28.709  1.00  0.00     0.031 C 
ATOM     65  C   UNL A   1      41.114  33.971  31.562  1.00  0.00     0.029 A 
ATOM     66  C   UNL A   1      41.277  34.210  30.208  1.00  0.00     0.049 A 
ATOM     67  H   UNL A   1      39.847  34.138  28.668  1.00  0.00     0.167 HD
ATOM     68  C   UNL A   1      43.391  33.685  29.240  1.00  0.00     0.074 A 
ATOM     69  C   UNL A   1      44.759  33.704  28.751  1.00  0.00     0.031 C 
ATOM     70  C   UNL A   1      42.423  34.639  29.411  1.00  0.00     0.034 A 
BRANCH  57  71
ATOM     71  C   UNL A   1      36.482  33.589  30.666  1.00  0.00     0.023 A 
ATOM     72  C   UNL A   1      35.570  34.201  29.775  1.00  0.00     0.031 A 
ATOM     73  C   UNL A   1      36.072  33.588  32.014  1.00  0.00     0.131 A 
ATOM     74  C   UNL A   1      34.407  34.854  30.233  1.00  0.00     0.055 A 
ATOM     75  C   UNL A   1      34.943  34.277  32.479  1.00  0.00     0.041 A 
ATOM     76  F   UNL A   1      36.703  32.871  32.950  1.00  0.00    -0.206 F 
ATOM     77  C   UNL A   1      34.109  34.929  31.588  1.00  0.00     0.022 A 
BRANCH  74  78
ATOM     78  S   UNL A   1      33.283  35.620  29.030  1.00  0.00     0.124 S 
ATOM     79  O   UNL A   1      34.200  36.385  28.194  1.00  0.00    -0.237 OA
ATOM     80  O   UNL A   1      32.656  34.457  28.410  1.00  0.00    -0.237 OA
ATOM     81  O   UNL A   1      32.393  36.426  29.865  1.00  0.00    -0.744 OA
ENDBRANCH  74  78
ENDBRANCH  57  71
BRANCH  58  82
ATOM     82  C   UNL A   1      44.832  29.204  28.382  1.00  0.00     0.023 A 
ATOM     83  C   UNL A   1      45.738  28.218  28.823  1.00  0.00     0.031 A 
ATOM     84  C   UNL A   1      44.179  28.997  27.160  1.00  0.00     0.131 A 
ATOM     85  C   UNL A   1      45.857  27.004  28.133  1.00  0.00     0.055 A 
ATOM     86  C   UNL A   1      44.344  27.804  26.442  1.00  0.00     0.041 A 
ATOM     87  F   UNL A   1      43.276  29.880  26.709  1.00  0.00    -0.206 F 
ATOM     88  C   UNL A   1      45.151  26.785  26.949  1.00  0.00     0.022 A 
BRANCH  85  89
ATOM     89  S   UNL A   1      46.727  25.627  28.942  1.00  0.00     0.124 S 
ATOM     90  O   UNL A   1      47.559  26.326  29.915  1.00  0.00    -0.237 OA
ATOM     91  O   UNL A   1      45.632  24.832  29.494  1.00  0.00    -0.237 OA
ATOM     92  O   UNL A   1      47.442  24.984  27.842  1.00  0.00    -0.744 OA
ENDBRANCH  85  89
ENDBRANCH  58  82
BRANCH  70  93
ATOM     93  C   UNL A   1      42.490  36.080  28.929  1.00  0.00     0.023 A 
ATOM     94  C   UNL A   1      43.177  37.100  29.604  1.00  0.00     0.031 A 
ATOM     95  C   UNL A   1      41.897  36.467  27.700  1.00  0.00     0.131 A 
ATOM     96  C   UNL A   1      43.185  38.425  29.128  1.00  0.00     0.055 A 
ATOM     97  C   UNL A   1      41.969  37.768  27.188  1.00  0.00     0.041 A 
ATOM     98  F   UNL A   1      41.227  35.596  26.932  1.00  0.00    -0.206 F 
ATOM     99  C   UNL A   1      42.602  38.764  27.912  1.00  0.00     0.022 A 
BRANCH  96 100
ATOM    100  S   UNL A   1      43.926  39.710  30.171  1.00  0.00     0.124 S 
ATOM    101  O   UNL A   1      43.340  40.925  29.613  1.00  0.00    -0.237 OA
ATOM    102  O   UNL A   1      43.463  39.338  31.503  1.00  0.00    -0.237 OA
ATOM    103  O   UNL A   1      45.362  39.554  29.946  1.00  0.00    -0.744 OA
ENDBRANCH  96 100
ENDBRANCH  70  93
ENDBRANCH  44  45
ENDBRANCH  36  39
ENDBRANCH  34  35
ENDBRANCH  33  34
ENDBRANCH   1  33
TORSDOF 19
ENDMDL
MODEL 3
REMARK VINA RESULT:     -13.2      3.963     10.096
REMARK SMILES CC(=O)Nc1cnc(N2CC=C(c3ccccc3C)CC2)c(C(=O)NCCCCCCNC(=O)c2ccc(-c3c4nc(c(-c5cc(S(=O)(=O)[O-])ccc5F)c5ccc([nH]5)c(-c5cc(S(=O)(=O)[O-])ccc5F)c5nc(c(-c6cc(S(=O)(=O)[O-])ccc6F)c6ccc3[nH]6)C=C5)C=C4)cc2)c1
REMARK SMILES IDX 29 1 28 2 27 3 26 4 25 5 23 6 24 7 22 9 5 10 6 11 98 12 7 13
REMARK SMILES IDX 8 14 4 15 1 16 2 17 3 18 9 20 10 21 21 22 11 23 20 24 12 25
REMARK SMILES IDX 13 26 14 27 18 28 15 29 17 30 19 31 16 32 30 33 31 34 32 35
REMARK SMILES IDX 33 36 34 38 35 39 36 40 97 41 37 42 96 43 38 44 39 45 40 46
REMARK SMILES IDX 90 47 41 48 95 49 89 50 91 51 42 52 94 53 88 54 87 55 43 57
REMARK SMILES IDX 75 58 55 59 74 60 56 61 59 62 73 63 92 64 57 65 58 66 72 68
REMARK SMILES IDX 93 69 60 70 44 71 45 72 53 73 46 74 52 75 54 76 51 77 47 78
REMARK SMILES IDX 48 79 49 80 50 81 76 82 77 83 85 84 78 85 84 86 86 87 83 88
REMARK SMILES IDX 79 89 80 90 81 91 82 92 61 93 62 94 70 95 63 96 69 97 71 98
REMARK SMILES IDX 68 99 64 100 65 101 66 102 67 103
REMARK H PARENT 25 8 4 19 32 37 91 56 59 67
REMARK Flexibility Score: inf
ROOT
ATOM      1  C   UNL A   1      39.047  21.425  25.647  1.00  0.00     0.002 C 
ENDROOT
BRANCH   1   2
ATOM      2  C   UNL A   1      37.650  21.223  25.032  1.00  0.00     0.002 C 
BRANCH   2   3
ATOM      3  C   UNL A   1      36.952  22.471  24.469  1.00  0.00     0.021 C 
BRANCH   3   4
ATOM      4  C   UNL A   1      36.539  23.505  25.513  1.00  0.00     0.116 C 
BRANCH   4   5
ATOM      5  N   UNL A   1      35.585  22.998  26.479  1.00  0.00    -0.352 N 
ATOM      6  C   UNL A   1      34.628  22.016  26.524  1.00  0.00     0.255 C 
ATOM      7  O   UNL A   1      34.385  21.629  27.670  1.00  0.00    -0.269 OA
ATOM      8  H   UNL A   1      35.638  23.490  27.330  1.00  0.00     0.163 HD
BRANCH   6   9
ATOM      9  C   UNL A   1      33.929  21.373  25.357  1.00  0.00     0.084 A 
ATOM     10  C   UNL A   1      33.342  19.392  24.049  1.00  0.00     0.060 A 
ATOM     11  C   UNL A   1      32.371  20.152  23.430  1.00  0.00     0.139 A 
ATOM     12  C   UNL A   1      34.152  20.040  24.978  1.00  0.00     0.045 A 
ATOM     13  N   UNL A   1      32.147  21.448  23.712  1.00  0.00    -0.236 NA
ATOM     14  C   UNL A   1      32.927  22.071  24.642  1.00  0.00     0.141 A 
BRANCH  10  15
ATOM     15  N   UNL A   1      33.477  18.039  23.695  1.00  0.00    -0.325 N 
ATOM     16  C   UNL A   1      32.554  16.961  25.748  1.00  0.00     0.114 C 
ATOM     17  C   UNL A   1      33.255  16.899  24.417  1.00  0.00     0.221 C 
ATOM     18  O   UNL A   1      33.567  15.813  23.925  1.00  0.00    -0.275 OA
ATOM     19  H   UNL A   1      33.782  17.885  22.772  1.00  0.00     0.169 HD
ENDBRANCH  10  15
BRANCH  14  20
ATOM     20  N   UNL A   1      32.677  23.419  24.713  1.00  0.00    -0.352 N 
ATOM     21  C   UNL A   1      33.354  24.274  23.754  1.00  0.00     0.146 C 
ATOM     22  C   UNL A   1      31.506  23.935  25.406  1.00  0.00     0.123 C 
ATOM     23  C   UNL A   1      33.346  25.706  24.223  1.00  0.00    -0.002 C 
ATOM     24  C   UNL A   1      31.904  25.192  26.186  1.00  0.00     0.057 C 
ATOM     25  C   UNL A   1      32.712  26.138  25.330  1.00  0.00    -0.041 C 
BRANCH  25  26
ATOM     26  C   UNL A   1      32.761  27.553  25.732  1.00  0.00    -0.020 A 
ATOM     27  C   UNL A   1      33.806  27.964  26.577  1.00  0.00     0.008 A 
ATOM     28  C   UNL A   1      31.821  28.501  25.283  1.00  0.00    -0.044 A 
ATOM     29  C   UNL A   1      33.936  29.300  26.955  1.00  0.00     0.001 A 
ATOM     30  C   UNL A   1      31.976  29.846  25.659  1.00  0.00     0.004 A 
ATOM     31  C   UNL A   1      30.673  28.130  24.384  1.00  0.00     0.045 C 
ATOM     32  C   UNL A   1      33.025  30.242  26.490  1.00  0.00     0.000 A 
ENDBRANCH  25  26
ENDBRANCH  14  20
ENDBRANCH   6   9
ENDBRANCH   4   5
ENDBRANCH   3   4
ENDBRANCH   2   3
ENDBRANCH   1   2
BRANCH   1  33
ATOM     33  C   UNL A   1      39.206  22.624  26.584  1.00  0.00     0.021 C 
BRANCH  33  34
ATOM     34  C   UNL A   1      40.470  22.581  27.433  1.00  0.00     0.116 C 
BRANCH  34  35
ATOM     35  N   UNL A   1      41.652  23.083  26.743  1.00  0.00    -0.352 N 
ATOM     36  C   UNL A   1      41.975  24.396  26.425  1.00  0.00     0.251 C 
ATOM     37  H   UNL A   1      42.308  22.403  26.465  1.00  0.00     0.163 HD
ATOM     38  O   UNL A   1      42.981  24.686  25.820  1.00  0.00    -0.269 OA
BRANCH  36  39
ATOM     39  C   UNL A   1      41.087  25.459  26.956  1.00  0.00     0.039 A 
ATOM     40  C   UNL A   1      40.985  26.637  26.210  1.00  0.00     0.014 A 
ATOM     41  C   UNL A   1      40.616  25.391  28.264  1.00  0.00     0.014 A 
ATOM     42  C   UNL A   1      40.623  27.815  26.857  1.00  0.00     0.010 A 
ATOM     43  C   UNL A   1      40.348  26.574  28.926  1.00  0.00     0.010 A 
ATOM     44  C   UNL A   1      40.421  27.792  28.238  1.00  0.00    -0.014 A 
BRANCH  44  45
ATOM     45  C   UNL A   1      40.446  29.003  29.055  1.00  0.00     0.031 A 
ATOM     46  C   UNL A   1      39.331  29.970  29.011  1.00  0.00     0.074 A 
ATOM     47  C   UNL A   1      41.488  29.228  29.886  1.00  0.00     0.049 A 
ATOM     48  N   UNL A   1      39.424  31.209  29.357  1.00  0.00    -0.248 NA
ATOM     49  C   UNL A   1      38.015  29.621  28.496  1.00  0.00     0.031 C 
ATOM     50  C   UNL A   1      41.574  30.223  30.950  1.00  0.00     0.029 A 
ATOM     51  N   UNL A   1      42.790  28.754  29.747  1.00  0.00    -0.354 N 
ATOM     52  C   UNL A   1      38.156  31.744  29.383  1.00  0.00     0.074 A 
ATOM     53  C   UNL A   1      37.331  30.738  28.757  1.00  0.00     0.031 C 
ATOM     54  C   UNL A   1      42.866  30.478  31.202  1.00  0.00     0.029 A 
ATOM     55  C   UNL A   1      43.652  29.756  30.218  1.00  0.00     0.049 A 
ATOM     56  H   UNL A   1      43.056  27.878  29.387  1.00  0.00     0.167 HD
ATOM     57  C   UNL A   1      37.942  32.917  30.051  1.00  0.00     0.034 A 
ATOM     58  C   UNL A   1      44.594  30.317  29.405  1.00  0.00     0.034 A 
ATOM     59  C   UNL A   1      39.207  33.522  30.485  1.00  0.00     0.049 A 
ATOM     60  C   UNL A   1      44.421  31.805  29.209  1.00  0.00     0.074 A 
ATOM     61  C   UNL A   1      39.856  33.591  31.706  1.00  0.00     0.029 A 
ATOM     62  N   UNL A   1      40.125  33.952  29.531  1.00  0.00    -0.354 N 
ATOM     63  N   UNL A   1      43.330  32.464  29.493  1.00  0.00    -0.248 NA
ATOM     64  C   UNL A   1      45.463  32.665  28.662  1.00  0.00     0.031 C 
ATOM     65  C   UNL A   1      41.193  34.010  31.471  1.00  0.00     0.029 A 
ATOM     66  C   UNL A   1      41.348  34.227  30.113  1.00  0.00     0.049 A 
ATOM     67  H   UNL A   1      39.929  34.049  28.571  1.00  0.00     0.167 HD
ATOM     68  C   UNL A   1      43.489  33.787  29.162  1.00  0.00     0.074 A 
ATOM     69  C   UNL A   1      44.856  33.864  28.676  1.00  0.00     0.031 C 
ATOM     70  C   UNL A   1      42.474  34.694  29.309  1.00  0.00     0.034 A 
BRANCH  57  71
ATOM     71  C   UNL A   1      36.588  33.376  30.573  1.00  0.00     0.023 A 
ATOM     72  C   UNL A   1      35.721  34.082  29.708  1.00  0.00     0.031 A 
ATOM     73  C   UNL A   1      36.112  33.233  31.891  1.00  0.00     0.131 A 
ATOM     74  C   UNL A   1      34.535  34.687  30.174  1.00  0.00     0.055 A 
ATOM     75  C   UNL A   1      34.960  33.874  32.370  1.00  0.00     0.041 A 
ATOM     76  F   UNL A   1      36.698  32.420  32.776  1.00  0.00    -0.206 F 
ATOM     77  C   UNL A   1      34.170  34.619  31.513  1.00  0.00     0.022 A 
BRANCH  74  78
ATOM     78  S   UNL A   1      33.471  35.579  29.005  1.00  0.00     0.124 S 
ATOM     79  O   UNL A   1      32.870  36.603  29.853  1.00  0.00    -0.237 OA
ATOM     80  O   UNL A   1      34.429  36.044  28.007  1.00  0.00    -0.237 OA
ATOM     81  O   UNL A   1      32.546  34.548  28.535  1.00  0.00    -0.744 OA
ENDBRANCH  74  78
ENDBRANCH  57  71
BRANCH  58  82
ATOM     82  C   UNL A   1      45.156  29.366  28.407  1.00  0.00     0.023 A 
ATOM     83  C   UNL A   1      46.098  28.427  28.875  1.00  0.00     0.031 A 
ATOM     84  C   UNL A   1      44.525  29.110  27.183  1.00  0.00     0.131 A 
ATOM     85  C   UNL A   1      46.275  27.207  28.209  1.00  0.00     0.055 A 
ATOM     86  C   UNL A   1      44.748  27.912  26.489  1.00  0.00     0.041 A 
ATOM     87  F   UNL A   1      43.591  29.945  26.706  1.00  0.00    -0.206 F 
ATOM     88  C   UNL A   1      45.592  26.937  27.022  1.00  0.00     0.022 A 
BRANCH  85  89
ATOM     89  S   UNL A   1      47.194  25.883  29.051  1.00  0.00     0.124 S 
ATOM     90  O   UNL A   1      47.047  26.258  30.453  1.00  0.00    -0.237 OA
ATOM     91  O   UNL A   1      46.480  24.678  28.635  1.00  0.00    -0.237 OA
ATOM     92  O   UNL A   1      48.543  26.003  28.502  1.00  0.00    -0.744 OA
ENDBRANCH  85  89
ENDBRANCH  58  82
BRANCH  70  93
ATOM     93  C   UNL A   1      42.471  36.126  28.796  1.00  0.00     0.023 A 
ATOM     94  C   UNL A   1      43.020  37.210  29.496  1.00  0.00     0.031 A 
ATOM     95  C   UNL A   1      41.954  36.440  27.513  1.00  0.00     0.131 A 
ATOM     96  C   UNL A   1      42.967  38.522  28.986  1.00  0.00     0.055 A 
ATOM     97  C   UNL A   1      41.969  37.732  26.973  1.00  0.00     0.041 A 
ATOM     98  F   UNL A   1      41.418  35.504  26.717  1.00  0.00    -0.206 F 
ATOM     99  C   UNL A   1      42.462  38.789  27.718  1.00  0.00     0.022 A 
BRANCH  96 100
ATOM    100  S   UNL A   1      43.518  39.882  30.051  1.00  0.00     0.124 S 
ATOM    101  O   UNL A   1      44.599  40.464  29.260  1.00  0.00    -0.237 OA
ATOM    102  O   UNL A   1      42.313  40.695  30.171  1.00  0.00    -0.237 OA
ATOM    103  O   UNL A   1      43.941  39.211  31.279  1.00  0.00    -0.744 OA
ENDBRANCH  96 100
ENDBRANCH  70  93
ENDBRANCH  44  45
ENDBRANCH  36  39
ENDBRANCH  34  35
ENDBRANCH  33  34
ENDBRANCH   1  33
TORSDOF 19
ENDMDL
