MODEL 1
REMARK VINA RESULT:     -12.5      0.000      0.000
REMARK SMILES Cc1ccc(-c2cc(C(=O)NCCCCCCNC(=O)c3ccc(-c4c5nc(c(-c6cc(S(=O)(=O)[O-])ccc6F)c6ccc([nH]6)c(-c6cc(S(=O)(=O)[O-])ccc6F)c6nc(c(-c7cc(S(=O)(=O)[O-])ccc7F)c7ccc4[nH]7)C=C6)C=C5)cc3)c3cc(C)ccc3n2)c(C)c1
REMARK SMILES IDX 15 1 14 2 13 3 12 4 11 5 9 6 10 7 8 9 6 10 7 11 91 12 90 13
REMARK SMILES IDX 84 14 89 15 85 16 88 17 86 18 87 19 5 20 1 21 2 22 3 23
REMARK SMILES IDX 94 24 4 25 92 26 93 27 16 28 17 29 18 30 19 31 20 33 21 34
REMARK SMILES IDX 22 35 83 36 23 37 82 38 24 39 25 40 26 41 76 42 27 43 81 44
REMARK SMILES IDX 75 45 77 46 28 47 80 48 74 49 73 50 29 52 61 53 41 54 60 55
REMARK SMILES IDX 42 56 45 57 59 58 78 59 43 60 44 61 58 63 79 64 46 65 30 66
REMARK SMILES IDX 31 67 39 68 32 69 38 70 40 71 37 72 33 73 34 74 35 75 36 76
REMARK SMILES IDX 62 77 63 78 71 79 64 80 70 81 72 82 69 83 65 84 66 85 67 86
REMARK SMILES IDX 68 87 47 88 48 89 56 90 49 91 55 92 57 93 54 94 50 95 51 96
REMARK SMILES IDX 52 97 53 98
REMARK H PARENT 11 8 18 32 77 51 45 62
REMARK Flexibility Score: inf
ROOT
ATOM      1  C   UNL A   1      31.110  30.892  25.496  1.00  0.00     0.002 C 
ENDROOT
BRANCH   1   2
ATOM      2  C   UNL A   1      31.982  29.670  25.179  1.00  0.00     0.002 C 
BRANCH   2   3
ATOM      3  C   UNL A   1      32.039  29.178  23.730  1.00  0.00     0.021 C 
BRANCH   3   4
ATOM      4  C   UNL A   1      33.417  28.874  23.160  1.00  0.00     0.116 C 
BRANCH   4   5
ATOM      5  N   UNL A   1      33.485  27.962  22.034  1.00  0.00    -0.352 N 
ATOM      6  C   UNL A   1      33.344  26.587  21.984  1.00  0.00     0.252 C 
ATOM      7  O   UNL A   1      33.352  26.052  20.874  1.00  0.00    -0.269 OA
ATOM      8  H   UNL A   1      33.659  28.391  21.165  1.00  0.00     0.163 HD
BRANCH   6   9
ATOM      9  C   UNL A   1      33.300  25.705  23.198  1.00  0.00     0.051 A 
ATOM     10  C   UNL A   1      34.606  24.389  24.721  1.00  0.00     0.072 A 
ATOM     11  C   UNL A   1      34.524  25.115  23.545  1.00  0.00     0.043 A 
ATOM     12  N   UNL A   1      33.589  24.346  25.609  1.00  0.00    -0.248 NA
ATOM     13  C   UNL A   1      32.409  24.881  25.270  1.00  0.00     0.072 A 
ATOM     14  C   UNL A   1      32.170  25.460  24.012  1.00  0.00     0.013 A 
ATOM     15  C   UNL A   1      31.387  24.866  26.208  1.00  0.00     0.029 A 
ATOM     16  C   UNL A   1      30.832  25.758  23.673  1.00  0.00     0.014 A 
ATOM     17  C   UNL A   1      30.125  25.391  25.930  1.00  0.00     0.005 A 
ATOM     18  C   UNL A   1      29.830  25.824  24.643  1.00  0.00    -0.050 A 
ATOM     19  C   UNL A   1      28.526  26.500  24.334  1.00  0.00     0.044 C 
BRANCH  10  20
ATOM     20  C   UNL A   1      35.768  23.553  25.059  1.00  0.00     0.003 A 
ATOM     21  C   UNL A   1      39.196  21.122  26.131  1.00  0.00     0.044 C 
ATOM     22  C   UNL A   1      38.023  21.979  25.759  1.00  0.00    -0.051 A 
ATOM     23  C   UNL A   1      38.021  23.354  25.992  1.00  0.00     0.004 A 
ATOM     24  C   UNL A   1      36.897  21.391  25.171  1.00  0.00     0.007 A 
ATOM     25  C   UNL A   1      36.908  24.130  25.647  1.00  0.00     0.011 A 
ATOM     26  C   UNL A   1      35.776  22.159  24.808  1.00  0.00    -0.041 A 
ATOM     27  C   UNL A   1      34.609  21.429  24.193  1.00  0.00     0.045 C 
ENDBRANCH  10  20
ENDBRANCH   6   9
ENDBRANCH   4   5
ENDBRANCH   3   4
ENDBRANCH   2   3
ENDBRANCH   1   2
BRANCH   1  28
ATOM     28  C   UNL A   1      31.372  31.638  26.806  1.00  0.00     0.021 C 
BRANCH  28  29
ATOM     29  C   UNL A   1      32.688  32.403  26.910  1.00  0.00     0.116 C 
BRANCH  29  30
ATOM     30  N   UNL A   1      32.535  33.712  27.519  1.00  0.00    -0.352 N 
ATOM     31  C   UNL A   1      33.232  34.289  28.552  1.00  0.00     0.251 C 
ATOM     32  H   UNL A   1      31.825  34.271  27.132  1.00  0.00     0.163 HD
ATOM     33  O   UNL A   1      32.843  35.361  29.016  1.00  0.00    -0.269 OA
BRANCH  31  34
ATOM     34  C   UNL A   1      34.419  33.619  29.132  1.00  0.00     0.039 A 
ATOM     35  C   UNL A   1      35.691  34.091  28.794  1.00  0.00     0.014 A 
ATOM     36  C   UNL A   1      34.291  32.526  29.995  1.00  0.00     0.014 A 
ATOM     37  C   UNL A   1      36.826  33.519  29.377  1.00  0.00     0.010 A 
ATOM     38  C   UNL A   1      35.418  32.002  30.628  1.00  0.00     0.010 A 
ATOM     39  C   UNL A   1      36.698  32.500  30.334  1.00  0.00    -0.014 A 
BRANCH  39  40
ATOM     40  C   UNL A   1      37.887  31.956  31.047  1.00  0.00     0.031 A 
ATOM     41  C   UNL A   1      38.684  30.829  30.446  1.00  0.00     0.074 A 
ATOM     42  C   UNL A   1      38.215  32.439  32.263  1.00  0.00     0.049 A 
ATOM     43  N   UNL A   1      39.678  30.152  30.960  1.00  0.00    -0.248 NA
ATOM     44  C   UNL A   1      38.294  30.393  29.096  1.00  0.00     0.031 C 
ATOM     45  C   UNL A   1      37.509  33.516  32.961  1.00  0.00     0.029 A 
ATOM     46  N   UNL A   1      39.214  32.082  33.136  1.00  0.00    -0.354 N 
ATOM     47  C   UNL A   1      40.040  29.216  29.997  1.00  0.00     0.074 A 
ATOM     48  C   UNL A   1      39.110  29.368  28.898  1.00  0.00     0.031 C 
ATOM     49  C   UNL A   1      38.103  33.739  34.145  1.00  0.00     0.029 A 
ATOM     50  C   UNL A   1      39.195  32.786  34.320  1.00  0.00     0.049 A 
ATOM     51  H   UNL A   1      39.881  31.387  32.934  1.00  0.00     0.167 HD
ATOM     52  C   UNL A   1      41.068  28.332  30.016  1.00  0.00     0.034 A 
ATOM     53  C   UNL A   1      39.950  32.660  35.431  1.00  0.00     0.034 A 
ATOM     54  C   UNL A   1      41.986  28.188  31.120  1.00  0.00     0.049 A 
ATOM     55  C   UNL A   1      41.039  31.614  35.457  1.00  0.00     0.074 A 
ATOM     56  C   UNL A   1      43.073  27.336  31.232  1.00  0.00     0.029 A 
ATOM     57  N   UNL A   1      41.926  28.908  32.306  1.00  0.00    -0.354 N 
ATOM     58  N   UNL A   1      41.386  30.760  34.522  1.00  0.00    -0.248 NA
ATOM     59  C   UNL A   1      41.842  31.518  36.684  1.00  0.00     0.031 C 
ATOM     60  C   UNL A   1      43.623  27.490  32.507  1.00  0.00     0.029 A 
ATOM     61  C   UNL A   1      42.934  28.496  33.164  1.00  0.00     0.049 A 
ATOM     62  H   UNL A   1      41.264  29.608  32.508  1.00  0.00     0.167 HD
ATOM     63  C   UNL A   1      42.468  30.051  35.038  1.00  0.00     0.074 A 
ATOM     64  C   UNL A   1      42.728  30.591  36.356  1.00  0.00     0.031 C 
ATOM     65  C   UNL A   1      43.182  29.044  34.476  1.00  0.00     0.034 A 
BRANCH  52  66
ATOM     66  C   UNL A   1      41.247  27.443  28.809  1.00  0.00     0.023 A 
ATOM     67  C   UNL A   1      42.257  27.690  27.863  1.00  0.00     0.031 A 
ATOM     68  C   UNL A   1      40.404  26.337  28.599  1.00  0.00     0.131 A 
ATOM     69  C   UNL A   1      42.359  26.884  26.720  1.00  0.00     0.055 A 
ATOM     70  C   UNL A   1      40.563  25.490  27.500  1.00  0.00     0.041 A 
ATOM     71  F   UNL A   1      39.408  26.063  29.456  1.00  0.00    -0.206 F 
ATOM     72  C   UNL A   1      41.538  25.768  26.545  1.00  0.00     0.022 A 
BRANCH  69  73
ATOM     73  S   UNL A   1      43.496  27.394  25.402  1.00  0.00     0.124 S 
ATOM     74  O   UNL A   1      42.565  27.852  24.373  1.00  0.00    -0.237 OA
ATOM     75  O   UNL A   1      44.290  28.429  26.053  1.00  0.00    -0.237 OA
ATOM     76  O   UNL A   1      44.216  26.165  25.077  1.00  0.00    -0.744 OA
ENDBRANCH  69  73
ENDBRANCH  52  66
BRANCH  53  77
ATOM     77  C   UNL A   1      39.688  33.510  36.632  1.00  0.00     0.023 A 
ATOM     78  C   UNL A   1      39.063  32.981  37.772  1.00  0.00     0.031 A 
ATOM     79  C   UNL A   1      39.982  34.886  36.625  1.00  0.00     0.131 A 
ATOM     80  C   UNL A   1      38.688  33.831  38.824  1.00  0.00     0.055 A 
ATOM     81  C   UNL A   1      39.672  35.715  37.705  1.00  0.00     0.041 A 
ATOM     82  F   UNL A   1      40.576  35.449  35.561  1.00  0.00    -0.206 F 
ATOM     83  C   UNL A   1      39.002  35.191  38.806  1.00  0.00     0.022 A 
BRANCH  80  84
ATOM     84  S   UNL A   1      37.655  33.157  40.155  1.00  0.00     0.124 S 
ATOM     85  O   UNL A   1      37.552  34.300  41.055  1.00  0.00    -0.237 OA
ATOM     86  O   UNL A   1      36.438  32.793  39.437  1.00  0.00    -0.237 OA
ATOM     87  O   UNL A   1      38.442  32.034  40.659  1.00  0.00    -0.744 OA
ENDBRANCH  80  84
ENDBRANCH  53  77
BRANCH  65  88
ATOM     88  C   UNL A   1      44.345  28.495  35.268  1.00  0.00     0.023 A 
ATOM     89  C   UNL A   1      44.184  27.442  36.185  1.00  0.00     0.031 A 
ATOM     90  C   UNL A   1      45.634  29.031  35.095  1.00  0.00     0.131 A 
ATOM     91  C   UNL A   1      45.285  26.991  36.930  1.00  0.00     0.055 A 
ATOM     92  C   UNL A   1      46.736  28.536  35.792  1.00  0.00     0.041 A 
ATOM     93  F   UNL A   1      45.844  30.040  34.234  1.00  0.00    -0.206 F 
ATOM     94  C   UNL A   1      46.563  27.517  36.725  1.00  0.00     0.022 A 
BRANCH  91  95
ATOM     95  S   UNL A   1      45.010  25.757  38.231  1.00  0.00     0.124 S 
ATOM     96  O   UNL A   1      44.545  24.607  37.464  1.00  0.00    -0.237 OA
ATOM     97  O   UNL A   1      46.336  25.631  38.827  1.00  0.00    -0.237 OA
ATOM     98  O   UNL A   1      44.004  26.380  39.088  1.00  0.00    -0.744 OA
ENDBRANCH  91  95
ENDBRANCH  65  88
ENDBRANCH  39  40
ENDBRANCH  31  34
ENDBRANCH  29  30
ENDBRANCH  28  29
ENDBRANCH   1  28
TORSDOF 17
ENDMDL
MODEL 2
REMARK VINA RESULT:     -12.5      2.024      7.770
REMARK SMILES Cc1ccc(-c2cc(C(=O)NCCCCCCNC(=O)c3ccc(-c4c5nc(c(-c6cc(S(=O)(=O)[O-])ccc6F)c6ccc([nH]6)c(-c6cc(S(=O)(=O)[O-])ccc6F)c6nc(c(-c7cc(S(=O)(=O)[O-])ccc7F)c7ccc4[nH]7)C=C6)C=C5)cc3)c3cc(C)ccc3n2)c(C)c1
REMARK SMILES IDX 15 1 14 2 13 3 12 4 11 5 9 6 10 7 8 9 6 10 7 11 91 12 90 13
REMARK SMILES IDX 84 14 89 15 85 16 88 17 86 18 87 19 5 20 1 21 2 22 3 23
REMARK SMILES IDX 94 24 4 25 92 26 93 27 16 28 17 29 18 30 19 31 20 33 21 34
REMARK SMILES IDX 22 35 83 36 23 37 82 38 24 39 25 40 26 41 76 42 27 43 81 44
REMARK SMILES IDX 75 45 77 46 28 47 80 48 74 49 73 50 29 52 61 53 41 54 60 55
REMARK SMILES IDX 42 56 45 57 59 58 78 59 43 60 44 61 58 63 79 64 46 65 30 66
REMARK SMILES IDX 31 67 39 68 32 69 38 70 40 71 37 72 33 73 34 74 35 75 36 76
REMARK SMILES IDX 62 77 63 78 71 79 64 80 70 81 72 82 69 83 65 84 66 85 67 86
REMARK SMILES IDX 68 87 47 88 48 89 56 90 49 91 55 92 57 93 54 94 50 95 51 96
REMARK SMILES IDX 52 97 53 98
REMARK H PARENT 11 8 18 32 77 51 45 62
REMARK Flexibility Score: inf
ROOT
ATOM      1  C   UNL A   1      31.464  30.535  25.971  1.00  0.00     0.002 C 
ENDROOT
BRANCH   1   2
ATOM      2  C   UNL A   1      31.732  29.433  27.004  1.00  0.00     0.002 C 
BRANCH   2   3
ATOM      3  C   UNL A   1      32.412  28.146  26.530  1.00  0.00     0.021 C 
BRANCH   3   4
ATOM      4  C   UNL A   1      33.892  28.234  26.187  1.00  0.00     0.116 C 
BRANCH   4   5
ATOM      5  N   UNL A   1      34.240  28.494  24.803  1.00  0.00    -0.352 N 
ATOM      6  C   UNL A   1      33.578  28.160  23.635  1.00  0.00     0.252 C 
ATOM      7  O   UNL A   1      34.042  28.585  22.575  1.00  0.00    -0.269 OA
ATOM      8  H   UNL A   1      35.083  28.987  24.674  1.00  0.00     0.163 HD
BRANCH   6   9
ATOM      9  C   UNL A   1      32.407  27.223  23.573  1.00  0.00     0.051 A 
ATOM     10  C   UNL A   1      31.666  24.974  23.962  1.00  0.00     0.072 A 
ATOM     11  C   UNL A   1      32.704  25.885  23.871  1.00  0.00     0.043 A 
ATOM     12  N   UNL A   1      30.371  25.358  23.911  1.00  0.00    -0.248 NA
ATOM     13  C   UNL A   1      30.082  26.627  23.598  1.00  0.00     0.072 A 
ATOM     14  C   UNL A   1      31.069  27.577  23.286  1.00  0.00     0.013 A 
ATOM     15  C   UNL A   1      28.750  27.014  23.592  1.00  0.00     0.029 A 
ATOM     16  C   UNL A   1      30.644  28.802  22.726  1.00  0.00     0.014 A 
ATOM     17  C   UNL A   1      28.364  28.315  23.264  1.00  0.00     0.005 A 
ATOM     18  C   UNL A   1      29.314  29.218  22.804  1.00  0.00    -0.050 A 
ATOM     19  C   UNL A   1      28.957  30.654  22.553  1.00  0.00     0.044 C 
BRANCH  10  20
ATOM     20  C   UNL A   1      31.887  23.523  24.044  1.00  0.00     0.003 A 
ATOM     21  C   UNL A   1      32.602  19.249  24.235  1.00  0.00     0.044 C 
ATOM     22  C   UNL A   1      32.348  20.725  24.150  1.00  0.00    -0.051 A 
ATOM     23  C   UNL A   1      32.307  21.389  22.924  1.00  0.00     0.004 A 
ATOM     24  C   UNL A   1      32.153  21.461  25.324  1.00  0.00     0.007 A 
ATOM     25  C   UNL A   1      32.080  22.769  22.872  1.00  0.00     0.011 A 
ATOM     26  C   UNL A   1      31.913  22.846  25.287  1.00  0.00    -0.041 A 
ATOM     27  C   UNL A   1      31.729  23.550  26.608  1.00  0.00     0.045 C 
ENDBRANCH  10  20
ENDBRANCH   6   9
ENDBRANCH   4   5
ENDBRANCH   3   4
ENDBRANCH   2   3
ENDBRANCH   1   2
BRANCH   1  28
ATOM     28  C   UNL A   1      31.474  31.988  26.455  1.00  0.00     0.021 C 
BRANCH  28  29
ATOM     29  C   UNL A   1      32.730  32.461  27.179  1.00  0.00     0.116 C 
BRANCH  29  30
ATOM     30  N   UNL A   1      32.662  33.855  27.578  1.00  0.00    -0.352 N 
ATOM     31  C   UNL A   1      33.390  34.538  28.521  1.00  0.00     0.251 C 
ATOM     32  H   UNL A   1      31.992  34.393  27.099  1.00  0.00     0.163 HD
ATOM     33  O   UNL A   1      33.070  35.692  28.810  1.00  0.00    -0.269 OA
BRANCH  31  34
ATOM     34  C   UNL A   1      34.527  33.890  29.215  1.00  0.00     0.039 A 
ATOM     35  C   UNL A   1      34.258  32.967  30.231  1.00  0.00     0.014 A 
ATOM     36  C   UNL A   1      35.852  34.192  28.885  1.00  0.00     0.014 A 
ATOM     37  C   UNL A   1      35.310  32.293  30.858  1.00  0.00     0.010 A 
ATOM     38  C   UNL A   1      36.896  33.470  29.463  1.00  0.00     0.010 A 
ATOM     39  C   UNL A   1      36.636  32.505  30.449  1.00  0.00    -0.014 A 
BRANCH  39  40
ATOM     40  C   UNL A   1      37.759  31.716  31.028  1.00  0.00     0.031 A 
ATOM     41  C   UNL A   1      38.266  32.019  32.413  1.00  0.00     0.074 A 
ATOM     42  C   UNL A   1      38.359  30.763  30.284  1.00  0.00     0.049 A 
ATOM     43  N   UNL A   1      39.297  31.519  33.044  1.00  0.00    -0.248 NA
ATOM     44  C   UNL A   1      37.527  33.035  33.177  1.00  0.00     0.031 C 
ATOM     45  C   UNL A   1      37.973  30.390  28.921  1.00  0.00     0.029 A 
ATOM     46  N   UNL A   1      39.428  29.945  30.558  1.00  0.00    -0.354 N 
ATOM     47  C   UNL A   1      39.328  32.151  34.282  1.00  0.00     0.074 A 
ATOM     48  C   UNL A   1      38.254  33.122  34.281  1.00  0.00     0.031 C 
ATOM     49  C   UNL A   1      38.782  29.411  28.486  1.00  0.00     0.029 A 
ATOM     50  C   UNL A   1      39.781  29.123  29.510  1.00  0.00     0.049 A 
ATOM     51  H   UNL A   1      39.897  29.945  31.424  1.00  0.00     0.167 HD
ATOM     52  C   UNL A   1      40.158  31.925  35.331  1.00  0.00     0.034 A 
ATOM     53  C   UNL A   1      40.810  28.261  29.377  1.00  0.00     0.034 A 
ATOM     54  C   UNL A   1      41.228  30.957  35.317  1.00  0.00     0.049 A 
ATOM     55  C   UNL A   1      41.766  28.083  30.532  1.00  0.00     0.074 A 
ATOM     56  C   UNL A   1      42.113  30.636  36.333  1.00  0.00     0.029 A 
ATOM     57  N   UNL A   1      41.563  30.156  34.234  1.00  0.00    -0.354 N 
ATOM     58  N   UNL A   1      41.759  28.668  31.708  1.00  0.00    -0.248 NA
ATOM     59  C   UNL A   1      42.866  27.127  30.345  1.00  0.00     0.031 C 
ATOM     60  C   UNL A   1      43.024  29.698  35.842  1.00  0.00     0.029 A 
ATOM     61  C   UNL A   1      42.661  29.368  34.547  1.00  0.00     0.049 A 
ATOM     62  H   UNL A   1      41.092  30.149  33.369  1.00  0.00     0.167 HD
ATOM     63  C   UNL A   1      42.832  28.123  32.409  1.00  0.00     0.074 A 
ATOM     64  C   UNL A   1      43.450  27.151  31.534  1.00  0.00     0.031 C 
ATOM     65  C   UNL A   1      43.268  28.402  33.663  1.00  0.00     0.034 A 
BRANCH  52  66
ATOM     66  C   UNL A   1      39.945  32.748  36.579  1.00  0.00     0.023 A 
ATOM     67  C   UNL A   1      39.041  32.343  37.576  1.00  0.00     0.031 A 
ATOM     68  C   UNL A   1      40.653  33.946  36.779  1.00  0.00     0.131 A 
ATOM     69  C   UNL A   1      38.819  33.159  38.695  1.00  0.00     0.055 A 
ATOM     70  C   UNL A   1      40.488  34.714  37.934  1.00  0.00     0.041 A 
ATOM     71  F   UNL A   1      41.515  34.395  35.853  1.00  0.00    -0.206 F 
ATOM     72  C   UNL A   1      39.557  34.328  38.896  1.00  0.00     0.022 A 
BRANCH  69  73
ATOM     73  S   UNL A   1      37.459  32.736  39.817  1.00  0.00     0.124 S 
ATOM     74  O   UNL A   1      37.446  33.892  40.710  1.00  0.00    -0.237 OA
ATOM     75  O   UNL A   1      36.325  32.616  38.908  1.00  0.00    -0.237 OA
ATOM     76  O   UNL A   1      37.900  31.487  40.434  1.00  0.00    -0.744 OA
ENDBRANCH  69  73
ENDBRANCH  52  66
BRANCH  53  77
ATOM     77  C   UNL A   1      41.026  27.523  28.095  1.00  0.00     0.023 A 
ATOM     78  C   UNL A   1      40.764  26.148  27.996  1.00  0.00     0.031 A 
ATOM     79  C   UNL A   1      41.581  28.168  26.974  1.00  0.00     0.131 A 
ATOM     80  C   UNL A   1      41.122  25.449  26.833  1.00  0.00     0.055 A 
ATOM     81  C   UNL A   1      41.867  27.481  25.792  1.00  0.00     0.041 A 
ATOM     82  F   UNL A   1      41.856  29.481  27.010  1.00  0.00    -0.206 F 
ATOM     83  C   UNL A   1      41.656  26.107  25.724  1.00  0.00     0.022 A 
BRANCH  80  84
ATOM     84  S   UNL A   1      41.009  23.638  26.843  1.00  0.00     0.124 S 
ATOM     85  O   UNL A   1      39.597  23.429  26.541  1.00  0.00    -0.237 OA
ATOM     86  O   UNL A   1      41.952  23.270  25.793  1.00  0.00    -0.237 OA
ATOM     87  O   UNL A   1      41.416  23.280  28.200  1.00  0.00    -0.744 OA
ENDBRANCH  80  84
ENDBRANCH  53  77
BRANCH  65  88
ATOM     88  C   UNL A   1      44.443  27.606  34.179  1.00  0.00     0.023 A 
ATOM     89  C   UNL A   1      44.269  26.426  34.922  1.00  0.00     0.031 A 
ATOM     90  C   UNL A   1      45.757  28.034  33.914  1.00  0.00     0.131 A 
ATOM     91  C   UNL A   1      45.390  25.741  35.416  1.00  0.00     0.055 A 
ATOM     92  C   UNL A   1      46.867  27.314  34.355  1.00  0.00     0.041 A 
ATOM     93  F   UNL A   1      45.981  29.157  33.212  1.00  0.00    -0.206 F 
ATOM     94  C   UNL A   1      46.687  26.166  35.121  1.00  0.00     0.022 A 
BRANCH  91  95
ATOM     95  S   UNL A   1      45.128  24.326  36.520  1.00  0.00     0.124 S 
ATOM     96  O   UNL A   1      46.467  24.109  37.057  1.00  0.00    -0.237 OA
ATOM     97  O   UNL A   1      44.141  24.843  37.462  1.00  0.00    -0.237 OA
ATOM     98  O   UNL A   1      44.640  23.278  35.626  1.00  0.00    -0.744 OA
ENDBRANCH  91  95
ENDBRANCH  65  88
ENDBRANCH  39  40
ENDBRANCH  31  34
ENDBRANCH  29  30
ENDBRANCH  28  29
ENDBRANCH   1  28
TORSDOF 17
ENDMDL
MODEL 3
REMARK VINA RESULT:     -12.4      1.158      1.705
REMARK SMILES Cc1ccc(-c2cc(C(=O)NCCCCCCNC(=O)c3ccc(-c4c5nc(c(-c6cc(S(=O)(=O)[O-])ccc6F)c6ccc([nH]6)c(-c6cc(S(=O)(=O)[O-])ccc6F)c6nc(c(-c7cc(S(=O)(=O)[O-])ccc7F)c7ccc4[nH]7)C=C6)C=C5)cc3)c3cc(C)ccc3n2)c(C)c1
REMARK SMILES IDX 15 1 14 2 13 3 12 4 11 5 9 6 10 7 8 9 6 10 7 11 91 12 90 13
REMARK SMILES IDX 84 14 89 15 85 16 88 17 86 18 87 19 5 20 1 21 2 22 3 23
REMARK SMILES IDX 94 24 4 25 92 26 93 27 16 28 17 29 18 30 19 31 20 33 21 34
REMARK SMILES IDX 22 35 83 36 23 37 82 38 24 39 25 40 26 41 76 42 27 43 81 44
REMARK SMILES IDX 75 45 77 46 28 47 80 48 74 49 73 50 29 52 61 53 41 54 60 55
REMARK SMILES IDX 42 56 45 57 59 58 78 59 43 60 44 61 58 63 79 64 46 65 30 66
REMARK SMILES IDX 31 67 39 68 32 69 38 70 40 71 37 72 33 73 34 74 35 75 36 76
REMARK SMILES IDX 62 77 63 78 71 79 64 80 70 81 72 82 69 83 65 84 66 85 67 86
REMARK SMILES IDX 68 87 47 88 48 89 56 90 49 91 55 92 57 93 54 94 50 95 51 96
REMARK SMILES IDX 52 97 53 98
REMARK H PARENT 11 8 18 32 77 51 45 62
REMARK Flexibility Score: inf
ROOT
ATOM      1  C   UNL A   1      31.219  31.022  25.556  1.00  0.00     0.002 C 
ENDROOT
BRANCH   1   2
ATOM      2  C   UNL A   1      32.003  29.716  25.739  1.00  0.00     0.002 C 
BRANCH   2   3
ATOM      3  C   UNL A   1      31.861  28.966  27.066  1.00  0.00     0.021 C 
BRANCH   3   4
ATOM      4  C   UNL A   1      32.390  27.540  27.112  1.00  0.00     0.116 C 
BRANCH   4   5
ATOM      5  N   UNL A   1      31.413  26.470  27.172  1.00  0.00    -0.352 N 
ATOM      6  C   UNL A   1      31.341  25.282  26.467  1.00  0.00     0.252 C 
ATOM      7  O   UNL A   1      30.448  24.489  26.774  1.00  0.00    -0.269 OA
ATOM      8  H   UNL A   1      30.683  26.612  27.818  1.00  0.00     0.163 HD
BRANCH   6   9
ATOM      9  C   UNL A   1      32.203  24.956  25.283  1.00  0.00     0.051 A 
ATOM     10  C   UNL A   1      33.838  23.439  24.398  1.00  0.00     0.072 A 
ATOM     11  C   UNL A   1      33.094  23.890  25.475  1.00  0.00     0.043 A 
ATOM     12  N   UNL A   1      33.632  23.896  23.144  1.00  0.00    -0.248 NA
ATOM     13  C   UNL A   1      32.805  24.933  22.959  1.00  0.00     0.072 A 
ATOM     14  C   UNL A   1      32.162  25.592  24.020  1.00  0.00     0.013 A 
ATOM     15  C   UNL A   1      32.573  25.364  21.660  1.00  0.00     0.029 A 
ATOM     16  C   UNL A   1      31.524  26.819  23.738  1.00  0.00     0.014 A 
ATOM     17  C   UNL A   1      31.735  26.446  21.383  1.00  0.00     0.005 A 
ATOM     18  C   UNL A   1      31.219  27.200  22.430  1.00  0.00    -0.050 A 
ATOM     19  C   UNL A   1      30.224  28.295  22.176  1.00  0.00     0.044 C 
BRANCH  10  20
ATOM     20  C   UNL A   1      34.951  22.489  24.543  1.00  0.00     0.003 A 
ATOM     21  C   UNL A   1      38.270  19.739  25.026  1.00  0.00     0.044 C 
ATOM     22  C   UNL A   1      37.135  20.702  24.849  1.00  0.00    -0.051 A 
ATOM     23  C   UNL A   1      37.359  22.061  24.627  1.00  0.00     0.004 A 
ATOM     24  C   UNL A   1      35.817  20.236  24.914  1.00  0.00     0.007 A 
ATOM     25  C   UNL A   1      36.281  22.942  24.477  1.00  0.00     0.011 A 
ATOM     26  C   UNL A   1      34.724  21.107  24.753  1.00  0.00    -0.041 A 
ATOM     27  C   UNL A   1      33.344  20.508  24.853  1.00  0.00     0.045 C 
ENDBRANCH  10  20
ENDBRANCH   6   9
ENDBRANCH   4   5
ENDBRANCH   3   4
ENDBRANCH   2   3
ENDBRANCH   1   2
BRANCH   1  28
ATOM     28  C   UNL A   1      31.244  32.039  26.700  1.00  0.00     0.021 C 
BRANCH  28  29
ATOM     29  C   UNL A   1      32.610  32.579  27.109  1.00  0.00     0.116 C 
BRANCH  29  30
ATOM     30  N   UNL A   1      32.549  33.927  27.644  1.00  0.00    -0.352 N 
ATOM     31  C   UNL A   1      33.312  34.524  28.618  1.00  0.00     0.251 C 
ATOM     32  H   UNL A   1      31.855  34.501  27.248  1.00  0.00     0.163 HD
ATOM     33  O   UNL A   1      32.996  35.640  29.030  1.00  0.00    -0.269 OA
BRANCH  31  34
ATOM     34  C   UNL A   1      34.482  33.825  29.197  1.00  0.00     0.039 A 
ATOM     35  C   UNL A   1      35.765  34.262  28.855  1.00  0.00     0.014 A 
ATOM     36  C   UNL A   1      34.327  32.737  30.063  1.00  0.00     0.014 A 
ATOM     37  C   UNL A   1      36.886  33.663  29.438  1.00  0.00     0.010 A 
ATOM     38  C   UNL A   1      35.442  32.186  30.695  1.00  0.00     0.010 A 
ATOM     39  C   UNL A   1      36.734  32.649  30.397  1.00  0.00    -0.014 A 
BRANCH  39  40
ATOM     40  C   UNL A   1      37.909  32.076  31.109  1.00  0.00     0.031 A 
ATOM     41  C   UNL A   1      38.688  30.941  30.499  1.00  0.00     0.074 A 
ATOM     42  C   UNL A   1      38.241  32.540  32.332  1.00  0.00     0.049 A 
ATOM     43  N   UNL A   1      39.668  30.241  31.011  1.00  0.00    -0.248 NA
ATOM     44  C   UNL A   1      38.296  30.526  29.144  1.00  0.00     0.031 C 
ATOM     45  C   UNL A   1      37.552  33.623  33.038  1.00  0.00     0.029 A 
ATOM     46  N   UNL A   1      39.229  32.156  33.205  1.00  0.00    -0.354 N 
ATOM     47  C   UNL A   1      40.016  29.308  30.040  1.00  0.00     0.074 A 
ATOM     48  C   UNL A   1      39.093  29.488  28.939  1.00  0.00     0.031 C 
ATOM     49  C   UNL A   1      38.145  33.823  34.226  1.00  0.00     0.029 A 
ATOM     50  C   UNL A   1      39.219  32.849  34.396  1.00  0.00     0.049 A 
ATOM     51  H   UNL A   1      39.885  31.451  32.999  1.00  0.00     0.167 HD
ATOM     52  C   UNL A   1      41.028  28.405  30.054  1.00  0.00     0.034 A 
ATOM     53  C   UNL A   1      39.966  32.697  35.509  1.00  0.00     0.034 A 
ATOM     54  C   UNL A   1      41.939  28.233  31.160  1.00  0.00     0.049 A 
ATOM     55  C   UNL A   1      41.036  31.631  35.528  1.00  0.00     0.074 A 
ATOM     56  C   UNL A   1      43.008  27.360  31.267  1.00  0.00     0.029 A 
ATOM     57  N   UNL A   1      41.886  28.942  32.353  1.00  0.00    -0.354 N 
ATOM     58  N   UNL A   1      41.371  30.780  34.586  1.00  0.00    -0.248 NA
ATOM     59  C   UNL A   1      41.831  31.508  36.757  1.00  0.00     0.031 C 
ATOM     60  C   UNL A   1      43.556  27.491  32.546  1.00  0.00     0.029 A 
ATOM     61  C   UNL A   1      42.883  28.503  33.211  1.00  0.00     0.049 A 
ATOM     62  H   UNL A   1      41.236  29.652  32.559  1.00  0.00     0.167 HD
ATOM     63  C   UNL A   1      42.438  30.046  35.099  1.00  0.00     0.074 A 
ATOM     64  C   UNL A   1      42.702  30.568  36.423  1.00  0.00     0.031 C 
ATOM     65  C   UNL A   1      43.135  29.032  34.529  1.00  0.00     0.034 A 
BRANCH  52  66
ATOM     66  C   UNL A   1      41.195  27.526  28.838  1.00  0.00     0.023 A 
ATOM     67  C   UNL A   1      42.212  27.765  27.897  1.00  0.00     0.031 A 
ATOM     68  C   UNL A   1      40.335  26.437  28.614  1.00  0.00     0.131 A 
ATOM     69  C   UNL A   1      42.305  26.969  26.747  1.00  0.00     0.055 A 
ATOM     70  C   UNL A   1      40.482  25.598  27.507  1.00  0.00     0.041 A 
ATOM     71  F   UNL A   1      39.332  26.171  29.466  1.00  0.00    -0.206 F 
ATOM     72  C   UNL A   1      41.465  25.869  26.558  1.00  0.00     0.022 A 
BRANCH  69  73
ATOM     73  S   UNL A   1      43.454  27.473  25.437  1.00  0.00     0.124 S 
ATOM     74  O   UNL A   1      44.211  28.530  26.103  1.00  0.00    -0.237 OA
ATOM     75  O   UNL A   1      44.181  26.239  25.165  1.00  0.00    -0.237 OA
ATOM     76  O   UNL A   1      42.572  27.929  24.365  1.00  0.00    -0.744 OA
ENDBRANCH  69  73
ENDBRANCH  52  66
BRANCH  53  77
ATOM     77  C   UNL A   1      39.715  33.539  36.718  1.00  0.00     0.023 A 
ATOM     78  C   UNL A   1      39.113  32.999  37.865  1.00  0.00     0.031 A 
ATOM     79  C   UNL A   1      39.995  34.918  36.712  1.00  0.00     0.131 A 
ATOM     80  C   UNL A   1      38.746  33.841  38.926  1.00  0.00     0.055 A 
ATOM     81  C   UNL A   1      39.695  35.739  37.800  1.00  0.00     0.041 A 
ATOM     82  F   UNL A   1      40.568  35.492  35.641  1.00  0.00    -0.206 F 
ATOM     83  C   UNL A   1      39.046  35.204  38.909  1.00  0.00     0.022 A 
BRANCH  80  84
ATOM     84  S   UNL A   1      37.740  33.152  40.270  1.00  0.00     0.124 S 
ATOM     85  O   UNL A   1      37.685  34.272  41.201  1.00  0.00    -0.237 OA
ATOM     86  O   UNL A   1      36.496  32.828  39.580  1.00  0.00    -0.237 OA
ATOM     87  O   UNL A   1      38.520  32.001  40.721  1.00  0.00    -0.744 OA
ENDBRANCH  80  84
ENDBRANCH  53  77
BRANCH  65  88
ATOM     88  C   UNL A   1      44.285  28.454  35.320  1.00  0.00     0.023 A 
ATOM     89  C   UNL A   1      44.090  27.442  36.276  1.00  0.00     0.031 A 
ATOM     90  C   UNL A   1      45.595  28.920  35.106  1.00  0.00     0.131 A 
ATOM     91  C   UNL A   1      45.181  26.962  37.017  1.00  0.00     0.055 A 
ATOM     92  C   UNL A   1      46.684  28.394  35.802  1.00  0.00     0.041 A 
ATOM     93  F   UNL A   1      45.838  29.887  34.208  1.00  0.00    -0.206 F 
ATOM     94  C   UNL A   1      46.479  27.418  36.772  1.00  0.00     0.022 A 
BRANCH  91  95
ATOM     95  S   UNL A   1      44.871  25.789  38.365  1.00  0.00     0.124 S 
ATOM     96  O   UNL A   1      44.071  24.767  37.698  1.00  0.00    -0.237 OA
ATOM     97  O   UNL A   1      46.221  25.390  38.748  1.00  0.00    -0.237 OA
ATOM     98  O   UNL A   1      44.157  26.588  39.358  1.00  0.00    -0.744 OA
ENDBRANCH  91  95
ENDBRANCH  65  88
ENDBRANCH  39  40
ENDBRANCH  31  34
ENDBRANCH  29  30
ENDBRANCH  28  29
ENDBRANCH   1  28
TORSDOF 17
ENDMDL
