MODEL 1
REMARK VINA RESULT:     -10.5      0.000      0.000
REMARK SMILES COC(=O)[C@@H]([NH2+]CC(C)(C)C(=O)NCCCCCCNC(=O)c1ccc(-c2c3nc(c(-c4cc(S(=O)(=O)[O-])ccc4F)c4ccc([nH]4)c(-c4cc(S(=O)(=O)[O-])ccc4F)c4nc(c(-c5cc(S(=O)(=O)[O-])ccc5F)c5ccc2[nH]5)C=C4)C=C3)cc1)c1ccccc1
REMARK SMILES IDX 15 1 14 2 13 3 11 4 12 5 8 7 9 8 10 9 7 10 6 11 5 14 3 15
REMARK SMILES IDX 4 16 2 17 1 18 86 19 87 20 91 21 88 22 90 23 89 24 16 25
REMARK SMILES IDX 17 26 18 27 19 28 20 29 21 30 22 32 23 33 24 34 85 35 25 36
REMARK SMILES IDX 84 37 26 38 27 39 28 40 78 41 29 42 83 43 77 44 79 45 30 46
REMARK SMILES IDX 82 47 76 48 75 49 31 51 63 52 43 53 62 54 44 55 47 56 61 57
REMARK SMILES IDX 80 58 45 59 46 60 60 62 81 63 48 64 32 65 33 66 41 67 34 68
REMARK SMILES IDX 40 69 42 70 39 71 35 72 36 73 37 74 38 75 64 76 65 77 73 78
REMARK SMILES IDX 66 79 72 80 74 81 71 82 67 83 68 84 69 85 70 86 49 87 50 88
REMARK SMILES IDX 58 89 51 90 57 91 59 92 56 93 52 94 53 95 54 96 55 97
REMARK H PARENT 13 6 6 12 6 13 20 31 79 50 47 61
REMARK Flexibility Score: inf
ROOT
ATOM      1  C   UNL A   1      33.420  28.941  24.160  1.00  0.00     0.021 C 
ENDROOT
BRANCH   1   2
ATOM      2  C   UNL A   1      32.098  28.545  23.496  1.00  0.00     0.116 C 
BRANCH   2   3
ATOM      3  N   UNL A   1      32.355  27.644  22.394  1.00  0.00    -0.355 N 
ATOM      4  C   UNL A   1      33.070  26.491  22.452  1.00  0.00     0.231 C 
ATOM      5  O   UNL A   1      33.958  26.363  21.607  1.00  0.00    -0.274 OA
ATOM      6  H   UNL A   1      31.976  27.891  21.519  1.00  0.00     0.163 HD
BRANCH   4   7
ATOM      7  C   UNL A   1      32.789  25.428  23.524  1.00  0.00     0.092 C 
ATOM      8  C   UNL A   1      31.475  25.654  24.291  1.00  0.00     0.027 C 
ATOM      9  C   UNL A   1      33.987  25.426  24.495  1.00  0.00     0.027 C 
BRANCH   7  10
ATOM     10  C   UNL A   1      32.742  24.014  22.850  1.00  0.00     0.277 C 
BRANCH  10  11
ATOM     11  N   UNL A   1      33.337  22.846  23.536  1.00  0.00    -0.330 N 
ATOM     12  H   UNL A   1      34.001  22.409  22.898  1.00  0.00     0.347 HD
ATOM     13  H   UNL A   1      33.772  23.203  24.387  1.00  0.00     0.347 HD
BRANCH  11  14
ATOM     14  C   UNL A   1      32.356  21.810  23.969  1.00  0.00     0.324 C 
BRANCH  14  15
ATOM     15  C   UNL A   1      31.888  22.104  25.407  1.00  0.00     0.369 C 
ATOM     16  O   UNL A   1      30.765  21.817  25.815  1.00  0.00    -0.245 OA
BRANCH  15  17
ATOM     17  O   UNL A   1      32.831  22.747  26.153  1.00  0.00    -0.464 OA
ATOM     18  C   UNL A   1      32.987  22.208  27.463  1.00  0.00     0.282 C 
ENDBRANCH  15  17
ENDBRANCH  14  15
BRANCH  14  19
ATOM     19  C   UNL A   1      32.805  20.362  23.800  1.00  0.00     0.021 A 
ATOM     20  C   UNL A   1      33.845  19.875  24.611  1.00  0.00     0.010 A 
ATOM     21  C   UNL A   1      32.194  19.477  22.899  1.00  0.00     0.010 A 
ATOM     22  C   UNL A   1      34.216  18.531  24.570  1.00  0.00     0.001 A 
ATOM     23  C   UNL A   1      32.552  18.128  22.873  1.00  0.00     0.001 A 
ATOM     24  C   UNL A   1      33.556  17.654  23.713  1.00  0.00     0.000 A 
ENDBRANCH  14  19
ENDBRANCH  11  14
ENDBRANCH  10  11
ENDBRANCH   7  10
ENDBRANCH   4   7
ENDBRANCH   2   3
ENDBRANCH   1   2
BRANCH   1  25
ATOM     25  C   UNL A   1      33.252  29.677  25.496  1.00  0.00     0.002 C 
BRANCH  25  26
ATOM     26  C   UNL A   1      31.799  29.899  25.928  1.00  0.00     0.002 C 
BRANCH  26  27
ATOM     27  C   UNL A   1      31.523  31.263  26.564  1.00  0.00     0.021 C 
BRANCH  27  28
ATOM     28  C   UNL A   1      32.768  31.991  27.050  1.00  0.00     0.116 C 
BRANCH  28  29
ATOM     29  N   UNL A   1      32.516  33.406  27.267  1.00  0.00    -0.352 N 
ATOM     30  C   UNL A   1      33.078  34.243  28.197  1.00  0.00     0.251 C 
ATOM     31  H   UNL A   1      31.854  33.818  26.666  1.00  0.00     0.163 HD
ATOM     32  O   UNL A   1      32.594  35.355  28.397  1.00  0.00    -0.269 OA
BRANCH  30  33
ATOM     33  C   UNL A   1      34.248  33.781  28.973  1.00  0.00     0.039 A 
ATOM     34  C   UNL A   1      34.056  32.870  30.013  1.00  0.00     0.014 A 
ATOM     35  C   UNL A   1      35.535  34.223  28.648  1.00  0.00     0.014 A 
ATOM     36  C   UNL A   1      35.164  32.347  30.682  1.00  0.00     0.010 A 
ATOM     37  C   UNL A   1      36.640  33.644  29.264  1.00  0.00     0.010 A 
ATOM     38  C   UNL A   1      36.466  32.697  30.284  1.00  0.00    -0.014 A 
BRANCH  38  39
ATOM     39  C   UNL A   1      37.659  32.066  30.910  1.00  0.00     0.031 A 
ATOM     40  C   UNL A   1      38.439  31.020  30.165  1.00  0.00     0.074 A 
ATOM     41  C   UNL A   1      37.994  32.392  32.175  1.00  0.00     0.049 A 
ATOM     42  N   UNL A   1      39.451  30.297  30.572  1.00  0.00    -0.248 NA
ATOM     43  C   UNL A   1      38.005  30.730  28.790  1.00  0.00     0.031 C 
ATOM     44  C   UNL A   1      37.292  33.370  33.010  1.00  0.00     0.029 A 
ATOM     45  N   UNL A   1      39.001  31.931  32.985  1.00  0.00    -0.354 N 
ATOM     46  C   UNL A   1      39.772  29.462  29.508  1.00  0.00     0.074 A 
ATOM     47  C   UNL A   1      38.805  29.726  28.462  1.00  0.00     0.031 C 
ATOM     48  C   UNL A   1      37.905  33.453  34.201  1.00  0.00     0.029 A 
ATOM     49  C   UNL A   1      39.006  32.497  34.241  1.00  0.00     0.049 A 
ATOM     50  H   UNL A   1      39.660  31.258  32.696  1.00  0.00     0.167 HD
ATOM     51  C   UNL A   1      40.790  28.572  29.406  1.00  0.00     0.034 A 
ATOM     52  C   UNL A   1      39.792  32.256  35.308  1.00  0.00     0.034 A 
ATOM     53  C   UNL A   1      41.747  28.326  30.458  1.00  0.00     0.049 A 
ATOM     54  C   UNL A   1      40.884  31.222  35.190  1.00  0.00     0.074 A 
ATOM     55  C   UNL A   1      42.850  27.491  30.441  1.00  0.00     0.029 A 
ATOM     56  N   UNL A   1      41.706  28.901  31.723  1.00  0.00    -0.354 N 
ATOM     57  N   UNL A   1      41.208  30.479  34.157  1.00  0.00    -0.248 NA
ATOM     58  C   UNL A   1      41.717  30.998  36.378  1.00  0.00     0.031 C 
ATOM     59  C   UNL A   1      43.425  27.497  31.716  1.00  0.00     0.029 A 
ATOM     60  C   UNL A   1      42.737  28.403  32.506  1.00  0.00     0.049 A 
ATOM     61  H   UNL A   1      41.042  29.564  32.020  1.00  0.00     0.167 HD
ATOM     62  C   UNL A   1      42.300  29.719  34.565  1.00  0.00     0.074 A 
ATOM     63  C   UNL A   1      42.590  30.107  35.930  1.00  0.00     0.031 C 
ATOM     64  C   UNL A   1      43.004  28.786  33.873  1.00  0.00     0.034 A 
BRANCH  51  65
ATOM     65  C   UNL A   1      40.903  27.783  28.123  1.00  0.00     0.023 A 
ATOM     66  C   UNL A   1      40.340  26.501  27.990  1.00  0.00     0.031 A 
ATOM     67  C   UNL A   1      41.598  28.312  27.020  1.00  0.00     0.131 A 
ATOM     68  C   UNL A   1      40.544  25.764  26.815  1.00  0.00     0.055 A 
ATOM     69  C   UNL A   1      41.724  27.607  25.822  1.00  0.00     0.041 A 
ATOM     70  F   UNL A   1      42.177  29.520  27.092  1.00  0.00    -0.206 F 
ATOM     71  C   UNL A   1      41.208  26.318  25.719  1.00  0.00     0.022 A 
BRANCH  68  72
ATOM     72  S   UNL A   1      40.058  24.016  26.794  1.00  0.00     0.124 S 
ATOM     73  O   UNL A   1      41.265  23.382  26.270  1.00  0.00    -0.237 OA
ATOM     74  O   UNL A   1      39.757  23.757  28.197  1.00  0.00    -0.237 OA
ATOM     75  O   UNL A   1      38.908  23.992  25.893  1.00  0.00    -0.744 OA
ENDBRANCH  68  72
ENDBRANCH  51  65
BRANCH  52  76
ATOM     76  C   UNL A   1      39.567  32.982  36.593  1.00  0.00     0.023 A 
ATOM     77  C   UNL A   1      38.711  32.463  37.577  1.00  0.00     0.031 A 
ATOM     78  C   UNL A   1      40.168  34.230  36.836  1.00  0.00     0.131 A 
ATOM     79  C   UNL A   1      38.442  33.209  38.735  1.00  0.00     0.055 A 
ATOM     80  C   UNL A   1      39.945  34.940  38.017  1.00  0.00     0.041 A 
ATOM     81  F   UNL A   1      40.996  34.775  35.930  1.00  0.00    -0.206 F 
ATOM     82  C   UNL A   1      39.065  34.437  38.969  1.00  0.00     0.022 A 
BRANCH  79  83
ATOM     83  S   UNL A   1      37.185  32.594  39.890  1.00  0.00     0.124 S 
ATOM     84  O   UNL A   1      37.300  33.547  40.987  1.00  0.00    -0.237 OA
ATOM     85  O   UNL A   1      35.969  32.682  39.088  1.00  0.00    -0.237 OA
ATOM     86  O   UNL A   1      37.635  31.237  40.190  1.00  0.00    -0.744 OA
ENDBRANCH  79  83
ENDBRANCH  52  76
BRANCH  64  87
ATOM     87  C   UNL A   1      44.179  28.148  34.575  1.00  0.00     0.023 A 
ATOM     88  C   UNL A   1      44.058  26.923  35.252  1.00  0.00     0.031 A 
ATOM     89  C   UNL A   1      45.438  28.776  34.562  1.00  0.00     0.131 A 
ATOM     90  C   UNL A   1      45.163  26.387  35.932  1.00  0.00     0.055 A 
ATOM     91  C   UNL A   1      46.549  28.206  35.185  1.00  0.00     0.041 A 
ATOM     92  F   UNL A   1      45.609  29.950  33.935  1.00  0.00    -0.206 F 
ATOM     93  C   UNL A   1      46.413  27.011  35.885  1.00  0.00     0.022 A 
BRANCH  90  94
ATOM     94  S   UNL A   1      44.927  24.906  36.951  1.00  0.00     0.124 S 
ATOM     95  O   UNL A   1      43.474  24.857  37.081  1.00  0.00    -0.237 OA
ATOM     96  O   UNL A   1      45.528  23.861  36.128  1.00  0.00    -0.237 OA
ATOM     97  O   UNL A   1      45.650  25.217  38.182  1.00  0.00    -0.744 OA
ENDBRANCH  90  94
ENDBRANCH  64  87
ENDBRANCH  38  39
ENDBRANCH  30  33
ENDBRANCH  28  29
ENDBRANCH  27  28
ENDBRANCH  26  27
ENDBRANCH  25  26
ENDBRANCH   1  25
TORSDOF 22
ENDMDL
MODEL 2
REMARK VINA RESULT:     -10.3      1.768      2.459
REMARK SMILES COC(=O)[C@@H]([NH2+]CC(C)(C)C(=O)NCCCCCCNC(=O)c1ccc(-c2c3nc(c(-c4cc(S(=O)(=O)[O-])ccc4F)c4ccc([nH]4)c(-c4cc(S(=O)(=O)[O-])ccc4F)c4nc(c(-c5cc(S(=O)(=O)[O-])ccc5F)c5ccc2[nH]5)C=C4)C=C3)cc1)c1ccccc1
REMARK SMILES IDX 15 1 14 2 13 3 11 4 12 5 8 7 9 8 10 9 7 10 6 11 5 14 3 15
REMARK SMILES IDX 4 16 2 17 1 18 86 19 87 20 91 21 88 22 90 23 89 24 16 25
REMARK SMILES IDX 17 26 18 27 19 28 20 29 21 30 22 32 23 33 24 34 85 35 25 36
REMARK SMILES IDX 84 37 26 38 27 39 28 40 78 41 29 42 83 43 77 44 79 45 30 46
REMARK SMILES IDX 82 47 76 48 75 49 31 51 63 52 43 53 62 54 44 55 47 56 61 57
REMARK SMILES IDX 80 58 45 59 46 60 60 62 81 63 48 64 32 65 33 66 41 67 34 68
REMARK SMILES IDX 40 69 42 70 39 71 35 72 36 73 37 74 38 75 64 76 65 77 73 78
REMARK SMILES IDX 66 79 72 80 74 81 71 82 67 83 68 84 69 85 70 86 49 87 50 88
REMARK SMILES IDX 58 89 51 90 57 91 59 92 56 93 52 94 53 95 54 96 55 97
REMARK H PARENT 13 6 6 12 6 13 20 31 79 50 47 61
REMARK Flexibility Score: inf
ROOT
ATOM      1  C   UNL A   1      32.921  29.594  25.048  1.00  0.00     0.021 C 
ENDROOT
BRANCH   1   2
ATOM      2  C   UNL A   1      33.070  28.775  23.763  1.00  0.00     0.116 C 
BRANCH   2   3
ATOM      3  N   UNL A   1      33.500  27.433  24.086  1.00  0.00    -0.355 N 
ATOM      4  C   UNL A   1      32.721  26.442  24.592  1.00  0.00     0.231 C 
ATOM      5  O   UNL A   1      33.155  25.873  25.595  1.00  0.00    -0.274 OA
ATOM      6  H   UNL A   1      34.447  27.217  23.924  1.00  0.00     0.163 HD
BRANCH   4   7
ATOM      7  C   UNL A   1      31.373  26.078  23.951  1.00  0.00     0.092 C 
ATOM      8  C   UNL A   1      31.024  26.926  22.718  1.00  0.00     0.027 C 
ATOM      9  C   UNL A   1      30.291  26.234  25.039  1.00  0.00     0.027 C 
BRANCH   7  10
ATOM     10  C   UNL A   1      31.391  24.567  23.534  1.00  0.00     0.277 C 
BRANCH  10  11
ATOM     11  N   UNL A   1      31.847  23.539  24.495  1.00  0.00    -0.330 N 
ATOM     12  H   UNL A   1      32.321  24.010  25.264  1.00  0.00     0.347 HD
ATOM     13  H   UNL A   1      31.012  23.029  24.788  1.00  0.00     0.347 HD
BRANCH  11  14
ATOM     14  C   UNL A   1      32.780  22.524  23.927  1.00  0.00     0.324 C 
BRANCH  14  15
ATOM     15  C   UNL A   1      32.287  21.107  24.280  1.00  0.00     0.369 C 
ATOM     16  O   UNL A   1      32.049  20.751  25.432  1.00  0.00    -0.245 OA
BRANCH  15  17
ATOM     17  O   UNL A   1      32.186  20.291  23.192  1.00  0.00    -0.464 OA
ATOM     18  C   UNL A   1      31.959  20.992  21.972  1.00  0.00     0.282 C 
ENDBRANCH  15  17
ENDBRANCH  14  15
BRANCH  14  19
ATOM     19  C   UNL A   1      34.254  22.716  24.267  1.00  0.00     0.021 A 
ATOM     20  C   UNL A   1      35.191  22.768  23.220  1.00  0.00     0.010 A 
ATOM     21  C   UNL A   1      34.715  22.888  25.581  1.00  0.00     0.010 A 
ATOM     22  C   UNL A   1      36.534  23.051  23.473  1.00  0.00     0.001 A 
ATOM     23  C   UNL A   1      36.055  23.191  25.832  1.00  0.00     0.001 A 
ATOM     24  C   UNL A   1      36.962  23.279  24.779  1.00  0.00     0.000 A 
ENDBRANCH  14  19
ENDBRANCH  11  14
ENDBRANCH  10  11
ENDBRANCH   7  10
ENDBRANCH   4   7
ENDBRANCH   2   3
ENDBRANCH   1   2
BRANCH   1  25
ATOM     25  C   UNL A   1      31.479  30.023  25.351  1.00  0.00     0.002 C 
BRANCH  25  26
ATOM     26  C   UNL A   1      31.350  31.335  26.133  1.00  0.00     0.002 C 
BRANCH  26  27
ATOM     27  C   UNL A   1      32.261  31.442  27.357  1.00  0.00     0.021 C 
BRANCH  27  28
ATOM     28  C   UNL A   1      33.354  32.495  27.234  1.00  0.00     0.116 C 
BRANCH  28  29
ATOM     29  N   UNL A   1      32.894  33.803  27.669  1.00  0.00    -0.352 N 
ATOM     30  C   UNL A   1      33.276  34.521  28.773  1.00  0.00     0.251 C 
ATOM     31  H   UNL A   1      32.219  34.231  27.093  1.00  0.00     0.163 HD
ATOM     32  O   UNL A   1      32.631  35.509  29.119  1.00  0.00    -0.269 OA
BRANCH  30  33
ATOM     33  C   UNL A   1      34.449  34.078  29.555  1.00  0.00     0.039 A 
ATOM     34  C   UNL A   1      34.250  33.302  30.697  1.00  0.00     0.014 A 
ATOM     35  C   UNL A   1      35.745  34.401  29.136  1.00  0.00     0.014 A 
ATOM     36  C   UNL A   1      35.354  32.790  31.381  1.00  0.00     0.010 A 
ATOM     37  C   UNL A   1      36.839  33.828  29.774  1.00  0.00     0.010 A 
ATOM     38  C   UNL A   1      36.656  33.012  30.901  1.00  0.00    -0.014 A 
BRANCH  38  39
ATOM     39  C   UNL A   1      37.835  32.384  31.552  1.00  0.00     0.031 A 
ATOM     40  C   UNL A   1      38.553  31.247  30.879  1.00  0.00     0.074 A 
ATOM     41  C   UNL A   1      38.216  32.797  32.778  1.00  0.00     0.049 A 
ATOM     42  N   UNL A   1      39.543  30.516  31.323  1.00  0.00    -0.248 NA
ATOM     43  C   UNL A   1      38.073  30.863  29.543  1.00  0.00     0.031 C 
ATOM     44  C   UNL A   1      37.576  33.870  33.543  1.00  0.00     0.029 A 
ATOM     45  N   UNL A   1      39.222  32.360  33.602  1.00  0.00    -0.354 N 
ATOM     46  C   UNL A   1      39.802  29.582  30.326  1.00  0.00     0.074 A 
ATOM     47  C   UNL A   1      38.822  29.802  29.283  1.00  0.00     0.031 C 
ATOM     48  C   UNL A   1      38.221  34.023  34.710  1.00  0.00     0.029 A 
ATOM     49  C   UNL A   1      39.281  33.026  34.806  1.00  0.00     0.049 A 
ATOM     50  H   UNL A   1      39.845  31.638  33.355  1.00  0.00     0.167 HD
ATOM     51  C   UNL A   1      40.779  28.644  30.277  1.00  0.00     0.034 A 
ATOM     52  C   UNL A   1      40.083  32.840  35.873  1.00  0.00     0.034 A 
ATOM     53  C   UNL A   1      41.750  28.443  31.326  1.00  0.00     0.049 A 
ATOM     54  C   UNL A   1      41.127  31.752  35.818  1.00  0.00     0.074 A 
ATOM     55  C   UNL A   1      42.817  27.561  31.354  1.00  0.00     0.029 A 
ATOM     56  N   UNL A   1      41.765  29.121  32.539  1.00  0.00    -0.354 N 
ATOM     57  N   UNL A   1      41.395  30.914  34.843  1.00  0.00    -0.248 NA
ATOM     58  C   UNL A   1      41.979  31.590  37.002  1.00  0.00     0.031 C 
ATOM     59  C   UNL A   1      43.423  27.646  32.612  1.00  0.00     0.029 A 
ATOM     60  C   UNL A   1      42.793  28.643  33.338  1.00  0.00     0.049 A 
ATOM     61  H   UNL A   1      41.137  29.834  32.794  1.00  0.00     0.167 HD
ATOM     62  C   UNL A   1      42.463  30.142  35.289  1.00  0.00     0.074 A 
ATOM     63  C   UNL A   1      42.803  30.628  36.611  1.00  0.00     0.031 C 
ATOM     64  C   UNL A   1      43.110  29.126  34.663  1.00  0.00     0.034 A 
BRANCH  51  65
ATOM     65  C   UNL A   1      40.827  27.747  29.061  1.00  0.00     0.023 A 
ATOM     66  C   UNL A   1      41.766  27.942  28.034  1.00  0.00     0.031 A 
ATOM     67  C   UNL A   1      39.909  26.691  28.919  1.00  0.00     0.131 A 
ATOM     68  C   UNL A   1      41.720  27.146  26.880  1.00  0.00     0.055 A 
ATOM     69  C   UNL A   1      39.923  25.848  27.807  1.00  0.00     0.041 A 
ATOM     70  F   UNL A   1      38.973  26.468  29.855  1.00  0.00    -0.206 F 
ATOM     71  C   UNL A   1      40.822  26.082  26.771  1.00  0.00     0.022 A 
BRANCH  68  72
ATOM     72  S   UNL A   1      42.750  27.616  25.463  1.00  0.00     0.124 S 
ATOM     73  O   UNL A   1      42.027  28.776  24.946  1.00  0.00    -0.237 OA
ATOM     74  O   UNL A   1      44.038  27.890  26.087  1.00  0.00    -0.237 OA
ATOM     75  O   UNL A   1      42.710  26.433  24.605  1.00  0.00    -0.744 OA
ENDBRANCH  68  72
ENDBRANCH  51  65
BRANCH  52  76
ATOM     76  C   UNL A   1      39.920  33.678  37.097  1.00  0.00     0.023 A 
ATOM     77  C   UNL A   1      39.353  33.148  38.267  1.00  0.00     0.031 A 
ATOM     78  C   UNL A   1      40.287  35.036  37.101  1.00  0.00     0.131 A 
ATOM     79  C   UNL A   1      39.124  33.981  39.373  1.00  0.00     0.055 A 
ATOM     80  C   UNL A   1      40.113  35.845  38.225  1.00  0.00     0.041 A 
ATOM     81  F   UNL A   1      40.835  35.596  36.010  1.00  0.00    -0.206 F 
ATOM     82  C   UNL A   1      39.514  35.322  39.366  1.00  0.00     0.022 A 
BRANCH  79  83
ATOM     83  S   UNL A   1      38.215  33.308  40.791  1.00  0.00     0.124 S 
ATOM     84  O   UNL A   1      38.794  31.975  40.909  1.00  0.00    -0.237 OA
ATOM     85  O   UNL A   1      38.559  34.254  41.847  1.00  0.00    -0.237 OA
ATOM     86  O   UNL A   1      36.822  33.348  40.351  1.00  0.00    -0.744 OA
ENDBRANCH  79  83
ENDBRANCH  52  76
BRANCH  64  87
ATOM     87  C   UNL A   1      44.274  28.497  35.390  1.00  0.00     0.023 A 
ATOM     88  C   UNL A   1      44.087  27.470  36.333  1.00  0.00     0.031 A 
ATOM     89  C   UNL A   1      45.587  28.929  35.133  1.00  0.00     0.131 A 
ATOM     90  C   UNL A   1      45.192  26.945  37.022  1.00  0.00     0.055 A 
ATOM     91  C   UNL A   1      46.687  28.358  35.774  1.00  0.00     0.041 A 
ATOM     92  F   UNL A   1      45.822  29.909  34.248  1.00  0.00    -0.206 F 
ATOM     93  C   UNL A   1      46.493  27.368  36.733  1.00  0.00     0.022 A 
BRANCH  90  94
ATOM     94  S   UNL A   1      44.901  25.759  38.362  1.00  0.00     0.124 S 
ATOM     95  O   UNL A   1      46.234  25.621  38.939  1.00  0.00    -0.237 OA
ATOM     96  O   UNL A   1      43.918  26.454  39.187  1.00  0.00    -0.237 OA
ATOM     97  O   UNL A   1      44.400  24.574  37.668  1.00  0.00    -0.744 OA
ENDBRANCH  90  94
ENDBRANCH  64  87
ENDBRANCH  38  39
ENDBRANCH  30  33
ENDBRANCH  28  29
ENDBRANCH  27  28
ENDBRANCH  26  27
ENDBRANCH  25  26
ENDBRANCH   1  25
TORSDOF 22
ENDMDL
MODEL 3
REMARK VINA RESULT:     -10.0      2.642      8.578
REMARK SMILES COC(=O)[C@@H]([NH2+]CC(C)(C)C(=O)NCCCCCCNC(=O)c1ccc(-c2c3nc(c(-c4cc(S(=O)(=O)[O-])ccc4F)c4ccc([nH]4)c(-c4cc(S(=O)(=O)[O-])ccc4F)c4nc(c(-c5cc(S(=O)(=O)[O-])ccc5F)c5ccc2[nH]5)C=C4)C=C3)cc1)c1ccccc1
REMARK SMILES IDX 15 1 14 2 13 3 11 4 12 5 8 7 9 8 10 9 7 10 6 11 5 14 3 15
REMARK SMILES IDX 4 16 2 17 1 18 86 19 87 20 91 21 88 22 90 23 89 24 16 25
REMARK SMILES IDX 17 26 18 27 19 28 20 29 21 30 22 32 23 33 24 34 85 35 25 36
REMARK SMILES IDX 84 37 26 38 27 39 28 40 78 41 29 42 83 43 77 44 79 45 30 46
REMARK SMILES IDX 82 47 76 48 75 49 31 51 63 52 43 53 62 54 44 55 47 56 61 57
REMARK SMILES IDX 80 58 45 59 46 60 60 62 81 63 48 64 32 65 33 66 41 67 34 68
REMARK SMILES IDX 40 69 42 70 39 71 35 72 36 73 37 74 38 75 64 76 65 77 73 78
REMARK SMILES IDX 66 79 72 80 74 81 71 82 67 83 68 84 69 85 70 86 49 87 50 88
REMARK SMILES IDX 58 89 51 90 57 91 59 92 56 93 52 94 53 95 54 96 55 97
REMARK H PARENT 13 6 6 12 6 13 20 31 79 50 47 61
REMARK Flexibility Score: inf
ROOT
ATOM      1  C   UNL A   1      35.889  30.672  28.144  1.00  0.00     0.021 C 
ENDROOT
BRANCH   1   2
ATOM      2  C   UNL A   1      35.158  29.664  27.254  1.00  0.00     0.116 C 
BRANCH   2   3
ATOM      3  N   UNL A   1      33.760  29.612  27.621  1.00  0.00    -0.355 N 
ATOM      4  C   UNL A   1      32.713  29.474  26.768  1.00  0.00     0.231 C 
ATOM      5  O   UNL A   1      31.803  30.296  26.893  1.00  0.00    -0.274 OA
ATOM      6  H   UNL A   1      33.549  29.683  28.580  1.00  0.00     0.163 HD
BRANCH   4   7
ATOM      7  C   UNL A   1      32.687  28.366  25.705  1.00  0.00     0.092 C 
ATOM      8  C   UNL A   1      33.444  27.093  26.117  1.00  0.00     0.027 C 
ATOM      9  C   UNL A   1      33.286  28.956  24.412  1.00  0.00     0.027 C 
BRANCH   7  10
ATOM     10  C   UNL A   1      31.199  27.987  25.390  1.00  0.00     0.277 C 
BRANCH  10  11
ATOM     11  N   UNL A   1      30.870  26.635  24.886  1.00  0.00    -0.330 N 
ATOM     12  H   UNL A   1      31.726  26.082  24.877  1.00  0.00     0.347 HD
ATOM     13  H   UNL A   1      30.155  26.261  25.511  1.00  0.00     0.347 HD
BRANCH  11  14
ATOM     14  C   UNL A   1      30.285  26.607  23.514  1.00  0.00     0.324 C 
BRANCH  14  15
ATOM     15  C   UNL A   1      31.388  26.298  22.484  1.00  0.00     0.369 C 
ATOM     16  O   UNL A   1      31.241  26.475  21.276  1.00  0.00    -0.245 OA
BRANCH  15  17
ATOM     17  O   UNL A   1      32.513  25.773  23.048  1.00  0.00    -0.464 OA
ATOM     18  C   UNL A   1      32.699  24.388  22.768  1.00  0.00     0.282 C 
ENDBRANCH  15  17
ENDBRANCH  14  15
BRANCH  14  19
ATOM     19  C   UNL A   1      29.462  27.830  23.120  1.00  0.00     0.021 A 
ATOM     20  C   UNL A   1      28.078  27.824  23.366  1.00  0.00     0.010 A 
ATOM     21  C   UNL A   1      30.034  28.982  22.561  1.00  0.00     0.010 A 
ATOM     22  C   UNL A   1      27.303  28.959  23.124  1.00  0.00     0.001 A 
ATOM     23  C   UNL A   1      29.262  30.124  22.338  1.00  0.00     0.001 A 
ATOM     24  C   UNL A   1      27.899  30.115  22.625  1.00  0.00     0.000 A 
ENDBRANCH  14  19
ENDBRANCH  11  14
ENDBRANCH  10  11
ENDBRANCH   7  10
ENDBRANCH   4   7
ENDBRANCH   2   3
ENDBRANCH   1   2
BRANCH   1  25
ATOM     25  C   UNL A   1      35.432  32.125  27.948  1.00  0.00     0.002 C 
BRANCH  25  26
ATOM     26  C   UNL A   1      34.432  32.630  28.992  1.00  0.00     0.002 C 
BRANCH  26  27
ATOM     27  C   UNL A   1      33.557  33.795  28.528  1.00  0.00     0.021 C 
BRANCH  27  28
ATOM     28  C   UNL A   1      33.978  35.152  29.076  1.00  0.00     0.116 C 
BRANCH  28  29
ATOM     29  N   UNL A   1      33.050  35.638  30.083  1.00  0.00    -0.352 N 
ATOM     30  C   UNL A   1      33.035  35.380  31.430  1.00  0.00     0.251 C 
ATOM     31  H   UNL A   1      32.338  36.234  29.754  1.00  0.00     0.163 HD
ATOM     32  O   UNL A   1      32.055  35.687  32.105  1.00  0.00    -0.269 OA
BRANCH  30  33
ATOM     33  C   UNL A   1      34.194  34.704  32.050  1.00  0.00     0.039 A 
ATOM     34  C   UNL A   1      34.021  33.439  32.613  1.00  0.00     0.014 A 
ATOM     35  C   UNL A   1      35.456  35.308  32.042  1.00  0.00     0.014 A 
ATOM     36  C   UNL A   1      35.130  32.749  33.106  1.00  0.00     0.010 A 
ATOM     37  C   UNL A   1      36.569  34.588  32.464  1.00  0.00     0.010 A 
ATOM     38  C   UNL A   1      36.418  33.299  32.995  1.00  0.00    -0.014 A 
BRANCH  38  39
ATOM     39  C   UNL A   1      37.622  32.532  33.413  1.00  0.00     0.031 A 
ATOM     40  C   UNL A   1      38.342  32.890  34.683  1.00  0.00     0.074 A 
ATOM     41  C   UNL A   1      38.100  31.559  32.612  1.00  0.00     0.049 A 
ATOM     42  N   UNL A   1      39.452  32.399  35.170  1.00  0.00    -0.248 NA
ATOM     43  C   UNL A   1      37.749  33.962  35.497  1.00  0.00     0.031 C 
ATOM     44  C   UNL A   1      37.505  31.144  31.339  1.00  0.00     0.029 A 
ATOM     45  N   UNL A   1      39.200  30.748  32.740  1.00  0.00    -0.354 N 
ATOM     46  C   UNL A   1      39.696  33.104  36.344  1.00  0.00     0.074 A 
ATOM     47  C   UNL A   1      38.650  34.099  36.458  1.00  0.00     0.031 C 
ATOM     48  C   UNL A   1      38.231  30.142  30.819  1.00  0.00     0.029 A 
ATOM     49  C   UNL A   1      39.374  29.879  31.686  1.00  0.00     0.049 A 
ATOM     50  H   UNL A   1      39.808  30.784  33.514  1.00  0.00     0.167 HD
ATOM     51  C   UNL A   1      40.689  32.924  37.250  1.00  0.00     0.034 A 
ATOM     52  C   UNL A   1      40.354  28.988  31.436  1.00  0.00     0.034 A 
ATOM     53  C   UNL A   1      41.720  31.923  37.120  1.00  0.00     0.049 A 
ATOM     54  C   UNL A   1      41.478  28.845  32.431  1.00  0.00     0.074 A 
ATOM     55  C   UNL A   1      42.739  31.617  38.005  1.00  0.00     0.029 A 
ATOM     56  N   UNL A   1      41.877  31.077  36.028  1.00  0.00    -0.354 N 
ATOM     57  N   UNL A   1      41.664  29.482  33.564  1.00  0.00    -0.248 NA
ATOM     58  C   UNL A   1      42.520  27.860  32.118  1.00  0.00     0.031 C 
ATOM     59  C   UNL A   1      43.556  30.647  37.415  1.00  0.00     0.029 A 
ATOM     60  C   UNL A   1      43.001  30.282  36.200  1.00  0.00     0.049 A 
ATOM     61  H   UNL A   1      41.278  31.047  35.248  1.00  0.00     0.167 HD
ATOM     62  C   UNL A   1      42.830  28.955  34.109  1.00  0.00     0.074 A 
ATOM     63  C   UNL A   1      43.293  27.935  33.191  1.00  0.00     0.031 C 
ATOM     64  C   UNL A   1      43.462  29.280  35.267  1.00  0.00     0.034 A 
BRANCH  51  65
ATOM     65  C   UNL A   1      40.718  33.847  38.446  1.00  0.00     0.023 A 
ATOM     66  C   UNL A   1      39.907  33.626  39.572  1.00  0.00     0.031 A 
ATOM     67  C   UNL A   1      41.559  34.975  38.454  1.00  0.00     0.131 A 
ATOM     68  C   UNL A   1      39.897  34.555  40.623  1.00  0.00     0.055 A 
ATOM     69  C   UNL A   1      41.606  35.850  39.541  1.00  0.00     0.041 A 
ATOM     70  F   UNL A   1      42.340  35.253  37.399  1.00  0.00    -0.206 F 
ATOM     71  C   UNL A   1      40.761  35.651  40.628  1.00  0.00     0.022 A 
BRANCH  68  72
ATOM     72  S   UNL A   1      38.631  34.389  41.912  1.00  0.00     0.124 S 
ATOM     73  O   UNL A   1      38.627  35.730  42.493  1.00  0.00    -0.237 OA
ATOM     74  O   UNL A   1      37.447  34.021  41.146  1.00  0.00    -0.237 OA
ATOM     75  O   UNL A   1      39.163  33.342  42.782  1.00  0.00    -0.744 OA
ENDBRANCH  68  72
ENDBRANCH  51  65
BRANCH  52  76
ATOM     76  C   UNL A   1      40.339  28.180  30.182  1.00  0.00     0.023 A 
ATOM     77  C   UNL A   1      41.238  28.448  29.137  1.00  0.00     0.031 A 
ATOM     78  C   UNL A   1      39.394  27.155  29.989  1.00  0.00     0.131 A 
ATOM     79  C   UNL A   1      41.143  27.737  27.931  1.00  0.00     0.055 A 
ATOM     80  C   UNL A   1      39.344  26.409  28.811  1.00  0.00     0.041 A 
ATOM     81  F   UNL A   1      38.511  26.855  30.954  1.00  0.00    -0.206 F 
ATOM     82  C   UNL A   1      40.212  26.708  27.766  1.00  0.00     0.022 A 
BRANCH  79  83
ATOM     83  S   UNL A   1      42.191  28.243  26.540  1.00  0.00     0.124 S 
ATOM     84  O   UNL A   1      41.556  27.552  25.424  1.00  0.00    -0.237 OA
ATOM     85  O   UNL A   1      42.045  29.694  26.563  1.00  0.00    -0.237 OA
ATOM     86  O   UNL A   1      43.513  27.745  26.913  1.00  0.00    -0.744 OA
ENDBRANCH  79  83
ENDBRANCH  52  76
BRANCH  64  87
ATOM     87  C   UNL A   1      44.703  28.497  35.619  1.00  0.00     0.023 A 
ATOM     88  C   UNL A   1      44.637  27.293  36.341  1.00  0.00     0.031 A 
ATOM     89  C   UNL A   1      45.970  28.962  35.221  1.00  0.00     0.131 A 
ATOM     90  C   UNL A   1      45.820  26.620  36.688  1.00  0.00     0.055 A 
ATOM     91  C   UNL A   1      47.137  28.255  35.513  1.00  0.00     0.041 A 
ATOM     92  F   UNL A   1      46.092  30.107  34.533  1.00  0.00    -0.206 F 
ATOM     93  C   UNL A   1      47.067  27.083  36.261  1.00  0.00     0.022 A 
BRANCH  90  94
ATOM     94  S   UNL A   1      45.713  25.175  37.779  1.00  0.00     0.124 S 
ATOM     95  O   UNL A   1      45.522  25.797  39.086  1.00  0.00    -0.237 OA
ATOM     96  O   UNL A   1      44.561  24.460  37.239  1.00  0.00    -0.237 OA
ATOM     97  O   UNL A   1      47.000  24.508  37.591  1.00  0.00    -0.744 OA
ENDBRANCH  90  94
ENDBRANCH  64  87
ENDBRANCH  38  39
ENDBRANCH  30  33
ENDBRANCH  28  29
ENDBRANCH  27  28
ENDBRANCH  26  27
ENDBRANCH  25  26
ENDBRANCH   1  25
TORSDOF 22
ENDMDL
