MODEL 1
REMARK VINA RESULT:     -10.4      0.000      0.000
REMARK SMILES COc1ccccc1[C@H](C(=O)NCCCCCCNC(=O)c1ccc(-c2c3nc(c(-c4cc(S(=O)(=O)[O-])ccc4F)c4ccc([nH]4)c(-c4cc(S(=O)(=O)[O-])ccc4F)c4nc(c(-c5cc(S(=O)(=O)[O-])ccc5F)c5ccc2[nH]5)C=C4)C=C3)cc1)[NH+](C)C
REMARK SMILES IDX 16 1 15 2 14 3 13 4 12 5 10 6 11 7 9 9 8 10 3 11 4 12 5 13
REMARK SMILES IDX 7 14 6 15 2 16 1 17 85 18 86 19 87 20 17 22 18 23 19 24
REMARK SMILES IDX 20 25 21 27 22 28 23 29 84 30 24 31 83 32 25 33 26 34 27 35
REMARK SMILES IDX 77 36 28 37 82 38 76 39 78 40 29 41 81 42 75 43 74 44 30 46
REMARK SMILES IDX 62 47 42 48 61 49 43 50 46 51 60 52 79 53 44 54 45 55 59 57
REMARK SMILES IDX 80 58 47 59 31 60 32 61 40 62 33 63 39 64 41 65 38 66 34 67
REMARK SMILES IDX 35 68 36 69 37 70 63 71 64 72 72 73 65 74 71 75 73 76 70 77
REMARK SMILES IDX 66 78 67 79 68 80 69 81 48 82 49 83 57 84 50 85 56 86 58 87
REMARK SMILES IDX 55 88 51 89 52 90 53 91 54 92
REMARK H PARENT 12 8 85 21 19 26 78 45 46 56
REMARK Flexibility Score: inf
ROOT
ATOM      1  C   UNL A   1      36.924  20.340  24.985  1.00  0.00     0.002 C 
ENDROOT
BRANCH   1   2
ATOM      2  C   UNL A   1      36.945  21.715  24.309  1.00  0.00     0.002 C 
BRANCH   2   3
ATOM      3  C   UNL A   1      37.238  22.892  25.250  1.00  0.00     0.021 C 
BRANCH   3   4
ATOM      4  C   UNL A   1      35.986  23.646  25.701  1.00  0.00     0.116 C 
BRANCH   4   5
ATOM      5  N   UNL A   1      35.361  22.954  26.812  1.00  0.00    -0.351 N 
ATOM      6  C   UNL A   1      34.021  22.802  27.062  1.00  0.00     0.283 C 
ATOM      7  O   UNL A   1      33.691  22.499  28.213  1.00  0.00    -0.268 OA
ATOM      8  H   UNL A   1      35.972  22.543  27.466  1.00  0.00     0.163 HD
BRANCH   6   9
ATOM      9  C   UNL A   1      33.004  23.002  25.893  1.00  0.00     0.308 C 
BRANCH   9  10
ATOM     10  C   UNL A   1      32.820  21.712  25.080  1.00  0.00     0.061 A 
ATOM     11  C   UNL A   1      32.400  21.800  23.734  1.00  0.00     0.128 A 
ATOM     12  C   UNL A   1      32.251  20.660  22.935  1.00  0.00     0.047 A 
ATOM     13  C   UNL A   1      32.500  19.398  23.469  1.00  0.00     0.004 A 
ATOM     14  C   UNL A   1      33.032  20.421  25.593  1.00  0.00     0.014 A 
ATOM     15  C   UNL A   1      32.874  19.279  24.803  1.00  0.00     0.001 A 
BRANCH  11  16
ATOM     16  O   UNL A   1      31.971  23.006  23.239  1.00  0.00    -0.496 OA
ATOM     17  C   UNL A   1      32.939  23.641  22.402  1.00  0.00     0.278 C 
ENDBRANCH  11  16
ENDBRANCH   9  10
BRANCH   9  18
ATOM     18  N   UNL A   1      31.815  23.707  26.438  1.00  0.00    -0.326 N 
ATOM     19  C   UNL A   1      31.680  25.083  25.996  1.00  0.00     0.333 C 
ATOM     20  C   UNL A   1      30.585  22.937  26.508  1.00  0.00     0.333 C 
ATOM     21  H   UNL A   1      32.037  23.798  27.430  1.00  0.00     0.348 HD
ENDBRANCH   9  18
ENDBRANCH   6   9
ENDBRANCH   4   5
ENDBRANCH   3   4
ENDBRANCH   2   3
ENDBRANCH   1   2
BRANCH   1  22
ATOM     22  C   UNL A   1      38.252  19.580  24.928  1.00  0.00     0.021 C 
BRANCH  22  23
ATOM     23  C   UNL A   1      39.279  20.024  25.965  1.00  0.00     0.116 C 
BRANCH  23  24
ATOM     24  N   UNL A   1      40.467  19.186  25.951  1.00  0.00    -0.352 N 
ATOM     25  C   UNL A   1      41.790  19.553  26.020  1.00  0.00     0.251 C 
ATOM     26  H   UNL A   1      40.300  18.219  25.883  1.00  0.00     0.163 HD
ATOM     27  O   UNL A   1      42.664  18.728  25.789  1.00  0.00    -0.269 OA
BRANCH  25  28
ATOM     28  C   UNL A   1      42.145  20.952  26.348  1.00  0.00     0.039 A 
ATOM     29  C   UNL A   1      42.382  21.294  27.681  1.00  0.00     0.014 A 
ATOM     30  C   UNL A   1      42.246  21.922  25.346  1.00  0.00     0.014 A 
ATOM     31  C   UNL A   1      42.784  22.594  28.001  1.00  0.00     0.010 A 
ATOM     32  C   UNL A   1      42.720  23.195  25.657  1.00  0.00     0.010 A 
ATOM     33  C   UNL A   1      42.994  23.546  26.988  1.00  0.00    -0.014 A 
BRANCH  33  34
ATOM     34  C   UNL A   1      43.501  24.908  27.305  1.00  0.00     0.031 A 
ATOM     35  C   UNL A   1      42.567  25.952  27.858  1.00  0.00     0.074 A 
ATOM     36  C   UNL A   1      44.787  25.219  27.042  1.00  0.00     0.049 A 
ATOM     37  N   UNL A   1      42.803  27.209  28.134  1.00  0.00    -0.248 NA
ATOM     38  C   UNL A   1      41.177  25.537  28.110  1.00  0.00     0.031 C 
ATOM     39  C   UNL A   1      45.780  24.301  26.476  1.00  0.00     0.029 A 
ATOM     40  N   UNL A   1      45.483  26.392  27.206  1.00  0.00    -0.354 N 
ATOM     41  C   UNL A   1      41.595  27.739  28.573  1.00  0.00     0.074 A 
ATOM     42  C   UNL A   1      40.615  26.678  28.484  1.00  0.00     0.031 C 
ATOM     43  C   UNL A   1      46.958  24.937  26.368  1.00  0.00     0.029 A 
ATOM     44  C   UNL A   1      46.797  26.321  26.800  1.00  0.00     0.049 A 
ATOM     45  H   UNL A   1      45.079  27.208  27.579  1.00  0.00     0.167 HD
ATOM     46  C   UNL A   1      41.331  28.990  29.022  1.00  0.00     0.034 A 
ATOM     47  C   UNL A   1      47.759  27.267  26.764  1.00  0.00     0.034 A 
ATOM     48  C   UNL A   1      42.326  30.030  29.130  1.00  0.00     0.049 A 
ATOM     49  C   UNL A   1      47.424  28.660  27.244  1.00  0.00     0.074 A 
ATOM     50  C   UNL A   1      42.179  31.305  29.647  1.00  0.00     0.029 A 
ATOM     51  N   UNL A   1      43.642  29.923  28.704  1.00  0.00    -0.354 N 
ATOM     52  N   UNL A   1      46.291  29.120  27.724  1.00  0.00    -0.248 NA
ATOM     53  C   UNL A   1      48.500  29.659  27.187  1.00  0.00     0.031 C 
ATOM     54  C   UNL A   1      43.379  31.997  29.454  1.00  0.00     0.029 A 
ATOM     55  C   UNL A   1      44.304  31.125  28.906  1.00  0.00     0.049 A 
ATOM     56  H   UNL A   1      44.047  29.114  28.316  1.00  0.00     0.167 HD
ATOM     57  C   UNL A   1      46.537  30.448  28.067  1.00  0.00     0.074 A 
ATOM     58  C   UNL A   1      47.926  30.708  27.756  1.00  0.00     0.031 C 
ATOM     59  C   UNL A   1      45.692  31.370  28.595  1.00  0.00     0.034 A 
BRANCH  46  60
ATOM     60  C   UNL A   1      39.910  29.323  29.404  1.00  0.00     0.023 A 
ATOM     61  C   UNL A   1      39.500  29.421  30.744  1.00  0.00     0.031 A 
ATOM     62  C   UNL A   1      38.955  29.582  28.402  1.00  0.00     0.131 A 
ATOM     63  C   UNL A   1      38.163  29.725  31.047  1.00  0.00     0.055 A 
ATOM     64  C   UNL A   1      37.647  29.955  28.710  1.00  0.00     0.041 A 
ATOM     65  F   UNL A   1      39.284  29.481  27.105  1.00  0.00    -0.206 F 
ATOM     66  C   UNL A   1      37.241  30.020  30.039  1.00  0.00     0.022 A 
BRANCH  63  67
ATOM     67  S   UNL A   1      37.617  29.627  32.773  1.00  0.00     0.124 S 
ATOM     68  O   UNL A   1      37.479  28.184  32.958  1.00  0.00    -0.237 OA
ATOM     69  O   UNL A   1      38.718  30.260  33.489  1.00  0.00    -0.237 OA
ATOM     70  O   UNL A   1      36.359  30.372  32.778  1.00  0.00    -0.744 OA
ENDBRANCH  63  67
ENDBRANCH  46  60
BRANCH  47  71
ATOM     71  C   UNL A   1      49.123  26.962  26.238  1.00  0.00     0.023 A 
ATOM     72  C   UNL A   1      49.524  27.414  24.969  1.00  0.00     0.031 A 
ATOM     73  C   UNL A   1      50.011  26.134  26.948  1.00  0.00     0.131 A 
ATOM     74  C   UNL A   1      50.736  26.969  24.417  1.00  0.00     0.055 A 
ATOM     75  C   UNL A   1      51.250  25.757  26.425  1.00  0.00     0.041 A 
ATOM     76  F   UNL A   1      49.684  25.671  28.165  1.00  0.00    -0.206 F 
ATOM     77  C   UNL A   1      51.609  26.156  25.142  1.00  0.00     0.022 A 
BRANCH  74  78
ATOM     78  S   UNL A   1      51.081  27.346  22.675  1.00  0.00     0.124 S 
ATOM     79  O   UNL A   1      51.169  28.801  22.702  1.00  0.00    -0.237 OA
ATOM     80  O   UNL A   1      52.333  26.629  22.455  1.00  0.00    -0.237 OA
ATOM     81  O   UNL A   1      49.920  26.802  21.974  1.00  0.00    -0.744 OA
ENDBRANCH  74  78
ENDBRANCH  47  71
BRANCH  59  82
ATOM     82  C   UNL A   1      46.269  32.725  28.928  1.00  0.00     0.023 A 
ATOM     83  C   UNL A   1      46.840  33.004  30.182  1.00  0.00     0.031 A 
ATOM     84  C   UNL A   1      46.240  33.758  27.972  1.00  0.00     0.131 A 
ATOM     85  C   UNL A   1      47.300  34.299  30.468  1.00  0.00     0.055 A 
ATOM     86  C   UNL A   1      46.762  35.023  28.238  1.00  0.00     0.041 A 
ATOM     87  F   UNL A   1      45.703  33.551  26.758  1.00  0.00    -0.206 F 
ATOM     88  C   UNL A   1      47.283  35.304  29.498  1.00  0.00     0.022 A 
BRANCH  85  89
ATOM     89  S   UNL A   1      47.826  34.681  32.161  1.00  0.00     0.124 S 
ATOM     90  O   UNL A   1      48.468  35.980  31.994  1.00  0.00    -0.237 OA
ATOM     91  O   UNL A   1      46.560  34.685  32.888  1.00  0.00    -0.237 OA
ATOM     92  O   UNL A   1      48.727  33.581  32.496  1.00  0.00    -0.744 OA
ENDBRANCH  85  89
ENDBRANCH  59  82
ENDBRANCH  33  34
ENDBRANCH  25  28
ENDBRANCH  23  24
ENDBRANCH  22  23
ENDBRANCH   1  22
TORSDOF 19
ENDMDL
MODEL 2
REMARK VINA RESULT:     -10.2      2.506      8.366
REMARK SMILES COc1ccccc1[C@H](C(=O)NCCCCCCNC(=O)c1ccc(-c2c3nc(c(-c4cc(S(=O)(=O)[O-])ccc4F)c4ccc([nH]4)c(-c4cc(S(=O)(=O)[O-])ccc4F)c4nc(c(-c5cc(S(=O)(=O)[O-])ccc5F)c5ccc2[nH]5)C=C4)C=C3)cc1)[NH+](C)C
REMARK SMILES IDX 16 1 15 2 14 3 13 4 12 5 10 6 11 7 9 9 8 10 3 11 4 12 5 13
REMARK SMILES IDX 7 14 6 15 2 16 1 17 85 18 86 19 87 20 17 22 18 23 19 24
REMARK SMILES IDX 20 25 21 27 22 28 23 29 84 30 24 31 83 32 25 33 26 34 27 35
REMARK SMILES IDX 77 36 28 37 82 38 76 39 78 40 29 41 81 42 75 43 74 44 30 46
REMARK SMILES IDX 62 47 42 48 61 49 43 50 46 51 60 52 79 53 44 54 45 55 59 57
REMARK SMILES IDX 80 58 47 59 31 60 32 61 40 62 33 63 39 64 41 65 38 66 34 67
REMARK SMILES IDX 35 68 36 69 37 70 63 71 64 72 72 73 65 74 71 75 73 76 70 77
REMARK SMILES IDX 66 78 67 79 68 80 69 81 48 82 49 83 57 84 50 85 56 86 58 87
REMARK SMILES IDX 55 88 51 89 52 90 53 91 54 92
REMARK H PARENT 12 8 85 21 19 26 78 45 46 56
REMARK Flexibility Score: inf
ROOT
ATOM      1  C   UNL A   1      34.459  20.502  25.556  1.00  0.00     0.002 C 
ENDROOT
BRANCH   1   2
ATOM      2  C   UNL A   1      33.114  20.708  24.851  1.00  0.00     0.002 C 
BRANCH   2   3
ATOM      3  C   UNL A   1      33.212  20.964  23.340  1.00  0.00     0.021 C 
BRANCH   3   4
ATOM      4  C   UNL A   1      32.207  21.997  22.826  1.00  0.00     0.116 C 
BRANCH   4   5
ATOM      5  N   UNL A   1      32.883  22.980  22.001  1.00  0.00    -0.351 N 
ATOM      6  C   UNL A   1      32.860  24.345  22.130  1.00  0.00     0.283 C 
ATOM      7  O   UNL A   1      33.196  25.012  21.146  1.00  0.00    -0.268 OA
ATOM      8  H   UNL A   1      33.423  22.626  21.258  1.00  0.00     0.163 HD
BRANCH   6   9
ATOM      9  C   UNL A   1      32.433  24.971  23.496  1.00  0.00     0.308 C 
BRANCH   9  10
ATOM     10  C   UNL A   1      33.379  24.548  24.630  1.00  0.00     0.061 A 
ATOM     11  C   UNL A   1      32.833  24.159  25.873  1.00  0.00     0.128 A 
ATOM     12  C   UNL A   1      33.646  23.730  26.930  1.00  0.00     0.047 A 
ATOM     13  C   UNL A   1      35.029  23.698  26.775  1.00  0.00     0.004 A 
ATOM     14  C   UNL A   1      34.780  24.532  24.520  1.00  0.00     0.014 A 
ATOM     15  C   UNL A   1      35.596  24.115  25.576  1.00  0.00     0.001 A 
BRANCH  11  16
ATOM     16  O   UNL A   1      31.496  24.357  26.116  1.00  0.00    -0.496 OA
ATOM     17  C   UNL A   1      30.763  23.136  26.224  1.00  0.00     0.278 C 
ENDBRANCH  11  16
ENDBRANCH   9  10
BRANCH   9  18
ATOM     18  N   UNL A   1      32.149  26.412  23.270  1.00  0.00    -0.326 N 
ATOM     19  C   UNL A   1      30.913  26.674  22.555  1.00  0.00     0.333 C 
ATOM     20  C   UNL A   1      32.450  27.309  24.372  1.00  0.00     0.333 C 
ATOM     21  H   UNL A   1      32.870  26.685  22.602  1.00  0.00     0.348 HD
ENDBRANCH   9  18
ENDBRANCH   6   9
ENDBRANCH   4   5
ENDBRANCH   3   4
ENDBRANCH   2   3
ENDBRANCH   1   2
BRANCH   1  22
ATOM     22  C   UNL A   1      35.647  20.280  24.616  1.00  0.00     0.021 C 
BRANCH  22  23
ATOM     23  C   UNL A   1      36.950  20.921  25.085  1.00  0.00     0.116 C 
BRANCH  23  24
ATOM     24  N   UNL A   1      37.975  19.928  25.367  1.00  0.00    -0.352 N 
ATOM     25  C   UNL A   1      39.271  20.114  25.786  1.00  0.00     0.251 C 
ATOM     26  H   UNL A   1      37.702  18.992  25.241  1.00  0.00     0.163 HD
ATOM     27  O   UNL A   1      40.055  19.173  25.777  1.00  0.00    -0.269 OA
BRANCH  25  28
ATOM     28  C   UNL A   1      39.715  21.458  26.219  1.00  0.00     0.039 A 
ATOM     29  C   UNL A   1      40.871  21.570  26.993  1.00  0.00     0.014 A 
ATOM     30  C   UNL A   1      38.997  22.603  25.861  1.00  0.00     0.014 A 
ATOM     31  C   UNL A   1      41.343  22.835  27.354  1.00  0.00     0.010 A 
ATOM     32  C   UNL A   1      39.509  23.864  26.156  1.00  0.00     0.010 A 
ATOM     33  C   UNL A   1      40.688  23.995  26.906  1.00  0.00    -0.014 A 
BRANCH  33  34
ATOM     34  C   UNL A   1      41.223  25.349  27.212  1.00  0.00     0.031 A 
ATOM     35  C   UNL A   1      42.578  25.760  26.697  1.00  0.00     0.074 A 
ATOM     36  C   UNL A   1      40.515  26.185  27.999  1.00  0.00     0.049 A 
ATOM     37  N   UNL A   1      43.242  26.867  26.911  1.00  0.00    -0.248 NA
ATOM     38  C   UNL A   1      43.292  24.789  25.851  1.00  0.00     0.031 C 
ATOM     39  C   UNL A   1      39.204  25.887  28.584  1.00  0.00     0.029 A 
ATOM     40  N   UNL A   1      40.794  27.451  28.451  1.00  0.00    -0.354 N 
ATOM     41  C   UNL A   1      44.454  26.721  26.245  1.00  0.00     0.074 A 
ATOM     42  C   UNL A   1      44.453  25.398  25.658  1.00  0.00     0.031 C 
ATOM     43  C   UNL A   1      38.785  26.949  29.291  1.00  0.00     0.029 A 
ATOM     44  C   UNL A   1      39.815  27.982  29.261  1.00  0.00     0.049 A 
ATOM     45  H   UNL A   1      41.619  27.935  28.219  1.00  0.00     0.167 HD
ATOM     46  C   UNL A   1      45.467  27.612  26.124  1.00  0.00     0.034 A 
ATOM     47  C   UNL A   1      39.759  29.159  29.919  1.00  0.00     0.034 A 
ATOM     48  C   UNL A   1      45.442  28.937  26.694  1.00  0.00     0.049 A 
ATOM     49  C   UNL A   1      40.919  30.119  29.788  1.00  0.00     0.074 A 
ATOM     50  C   UNL A   1      46.382  29.945  26.562  1.00  0.00     0.029 A 
ATOM     51  N   UNL A   1      44.438  29.436  27.512  1.00  0.00    -0.354 N 
ATOM     52  N   UNL A   1      42.026  29.988  29.092  1.00  0.00    -0.248 NA
ATOM     53  C   UNL A   1      40.818  31.388  30.521  1.00  0.00     0.031 C 
ATOM     54  C   UNL A   1      45.991  31.018  27.369  1.00  0.00     0.029 A 
ATOM     55  C   UNL A   1      44.759  30.720  27.927  1.00  0.00     0.049 A 
ATOM     56  H   UNL A   1      43.619  28.951  27.761  1.00  0.00     0.167 HD
ATOM     57  C   UNL A   1      42.727  31.179  29.271  1.00  0.00     0.074 A 
ATOM     58  C   UNL A   1      41.912  32.018  30.122  1.00  0.00     0.031 C 
ATOM     59  C   UNL A   1      43.935  31.548  28.774  1.00  0.00     0.034 A 
BRANCH  46  60
ATOM     60  C   UNL A   1      46.705  27.185  25.375  1.00  0.00     0.023 A 
ATOM     61  C   UNL A   1      46.996  27.654  24.082  1.00  0.00     0.031 A 
ATOM     62  C   UNL A   1      47.630  26.315  25.983  1.00  0.00     0.131 A 
ATOM     63  C   UNL A   1      48.156  27.217  23.424  1.00  0.00     0.055 A 
ATOM     64  C   UNL A   1      48.818  25.942  25.352  1.00  0.00     0.041 A 
ATOM     65  F   UNL A   1      47.394  25.816  27.207  1.00  0.00    -0.206 F 
ATOM     66  C   UNL A   1      49.083  26.388  24.061  1.00  0.00     0.022 A 
BRANCH  63  67
ATOM     67  S   UNL A   1      48.390  27.665  21.682  1.00  0.00     0.124 S 
ATOM     68  O   UNL A   1      47.071  28.188  21.333  1.00  0.00    -0.237 OA
ATOM     69  O   UNL A   1      49.468  28.643  21.749  1.00  0.00    -0.237 OA
ATOM     70  O   UNL A   1      48.737  26.396  21.045  1.00  0.00    -0.744 OA
ENDBRANCH  63  67
ENDBRANCH  46  60
BRANCH  47  71
ATOM     71  C   UNL A   1      38.592  29.506  30.785  1.00  0.00     0.023 A 
ATOM     72  C   UNL A   1      37.587  30.374  30.326  1.00  0.00     0.031 A 
ATOM     73  C   UNL A   1      38.512  29.057  32.115  1.00  0.00     0.131 A 
ATOM     74  C   UNL A   1      36.598  30.831  31.211  1.00  0.00     0.055 A 
ATOM     75  C   UNL A   1      37.481  29.455  32.969  1.00  0.00     0.041 A 
ATOM     76  F   UNL A   1      39.443  28.227  32.611  1.00  0.00    -0.206 F 
ATOM     77  C   UNL A   1      36.528  30.366  32.525  1.00  0.00     0.022 A 
BRANCH  74  78
ATOM     78  S   UNL A   1      35.494  32.161  30.659  1.00  0.00     0.124 S 
ATOM     79  O   UNL A   1      34.996  31.626  29.397  1.00  0.00    -0.237 OA
ATOM     80  O   UNL A   1      34.531  32.227  31.753  1.00  0.00    -0.237 OA
ATOM     81  O   UNL A   1      36.384  33.315  30.542  1.00  0.00    -0.744 OA
ENDBRANCH  74  78
ENDBRANCH  47  71
BRANCH  59  82
ATOM     82  C   UNL A   1      44.413  32.946  29.088  1.00  0.00     0.023 A 
ATOM     83  C   UNL A   1      44.108  34.041  28.262  1.00  0.00     0.031 A 
ATOM     84  C   UNL A   1      45.196  33.181  30.234  1.00  0.00     0.131 A 
ATOM     85  C   UNL A   1      44.634  35.309  28.559  1.00  0.00     0.055 A 
ATOM     86  C   UNL A   1      45.658  34.456  30.562  1.00  0.00     0.041 A 
ATOM     87  F   UNL A   1      45.523  32.172  31.058  1.00  0.00    -0.206 F 
ATOM     88  C   UNL A   1      45.390  35.526  29.713  1.00  0.00     0.022 A 
BRANCH  85  89
ATOM     89  S   UNL A   1      44.404  36.649  27.359  1.00  0.00     0.124 S 
ATOM     90  O   UNL A   1      45.406  36.328  26.349  1.00  0.00    -0.237 OA
ATOM     91  O   UNL A   1      43.013  36.470  26.955  1.00  0.00    -0.237 OA
ATOM     92  O   UNL A   1      44.671  37.856  28.138  1.00  0.00    -0.744 OA
ENDBRANCH  85  89
ENDBRANCH  59  82
ENDBRANCH  33  34
ENDBRANCH  25  28
ENDBRANCH  23  24
ENDBRANCH  22  23
ENDBRANCH   1  22
TORSDOF 19
ENDMDL
MODEL 3
REMARK VINA RESULT:     -10.2      2.328      7.950
REMARK SMILES COc1ccccc1[C@H](C(=O)NCCCCCCNC(=O)c1ccc(-c2c3nc(c(-c4cc(S(=O)(=O)[O-])ccc4F)c4ccc([nH]4)c(-c4cc(S(=O)(=O)[O-])ccc4F)c4nc(c(-c5cc(S(=O)(=O)[O-])ccc5F)c5ccc2[nH]5)C=C4)C=C3)cc1)[NH+](C)C
REMARK SMILES IDX 16 1 15 2 14 3 13 4 12 5 10 6 11 7 9 9 8 10 3 11 4 12 5 13
REMARK SMILES IDX 7 14 6 15 2 16 1 17 85 18 86 19 87 20 17 22 18 23 19 24
REMARK SMILES IDX 20 25 21 27 22 28 23 29 84 30 24 31 83 32 25 33 26 34 27 35
REMARK SMILES IDX 77 36 28 37 82 38 76 39 78 40 29 41 81 42 75 43 74 44 30 46
REMARK SMILES IDX 62 47 42 48 61 49 43 50 46 51 60 52 79 53 44 54 45 55 59 57
REMARK SMILES IDX 80 58 47 59 31 60 32 61 40 62 33 63 39 64 41 65 38 66 34 67
REMARK SMILES IDX 35 68 36 69 37 70 63 71 64 72 72 73 65 74 71 75 73 76 70 77
REMARK SMILES IDX 66 78 67 79 68 80 69 81 48 82 49 83 57 84 50 85 56 86 58 87
REMARK SMILES IDX 55 88 51 89 52 90 53 91 54 92
REMARK H PARENT 12 8 85 21 19 26 78 45 46 56
REMARK Flexibility Score: inf
ROOT
ATOM      1  C   UNL A   1      35.247  20.956  24.978  1.00  0.00     0.002 C 
ENDROOT
BRANCH   1   2
ATOM      2  C   UNL A   1      35.185  21.777  26.270  1.00  0.00     0.002 C 
BRANCH   2   3
ATOM      3  C   UNL A   1      34.040  21.398  27.220  1.00  0.00     0.021 C 
BRANCH   3   4
ATOM      4  C   UNL A   1      33.353  22.603  27.867  1.00  0.00     0.116 C 
BRANCH   4   5
ATOM      5  N   UNL A   1      31.926  22.558  27.611  1.00  0.00    -0.351 N 
ATOM      6  C   UNL A   1      31.142  23.529  27.043  1.00  0.00     0.283 C 
ATOM      7  O   UNL A   1      29.923  23.454  27.230  1.00  0.00    -0.268 OA
ATOM      8  H   UNL A   1      31.463  21.731  27.879  1.00  0.00     0.163 HD
BRANCH   6   9
ATOM      9  C   UNL A   1      31.821  24.648  26.190  1.00  0.00     0.308 C 
BRANCH   9  10
ATOM     10  C   UNL A   1      32.388  24.090  24.876  1.00  0.00     0.061 A 
ATOM     11  C   UNL A   1      33.533  24.692  24.309  1.00  0.00     0.128 A 
ATOM     12  C   UNL A   1      34.114  24.202  23.133  1.00  0.00     0.047 A 
ATOM     13  C   UNL A   1      33.553  23.107  22.483  1.00  0.00     0.004 A 
ATOM     14  C   UNL A   1      31.831  23.006  24.176  1.00  0.00     0.014 A 
ATOM     15  C   UNL A   1      32.401  22.520  22.996  1.00  0.00     0.001 A 
BRANCH  11  16
ATOM     16  O   UNL A   1      33.996  25.878  24.822  1.00  0.00    -0.496 OA
ATOM     17  C   UNL A   1      33.748  26.991  23.962  1.00  0.00     0.278 C 
ENDBRANCH  11  16
ENDBRANCH   9  10
BRANCH   9  18
ATOM     18  N   UNL A   1      30.905  25.818  26.160  1.00  0.00    -0.326 N 
ATOM     19  C   UNL A   1      31.408  26.990  26.853  1.00  0.00     0.333 C 
ATOM     20  C   UNL A   1      30.218  26.067  24.904  1.00  0.00     0.333 C 
ATOM     21  H   UNL A   1      30.126  25.514  26.745  1.00  0.00     0.348 HD
ENDBRANCH   9  18
ENDBRANCH   6   9
ENDBRANCH   4   5
ENDBRANCH   3   4
ENDBRANCH   2   3
ENDBRANCH   1   2
BRANCH   1  22
ATOM     22  C   UNL A   1      36.611  20.328  24.684  1.00  0.00     0.021 C 
BRANCH  22  23
ATOM     23  C   UNL A   1      37.789  21.040  25.343  1.00  0.00     0.116 C 
BRANCH  23  24
ATOM     24  N   UNL A   1      38.782  20.104  25.844  1.00  0.00    -0.352 N 
ATOM     25  C   UNL A   1      40.007  20.359  26.414  1.00  0.00     0.251 C 
ATOM     26  H   UNL A   1      38.543  19.153  25.765  1.00  0.00     0.163 HD
ATOM     27  O   UNL A   1      40.799  19.443  26.592  1.00  0.00    -0.269 OA
BRANCH  25  28
ATOM     28  C   UNL A   1      40.367  21.747  26.784  1.00  0.00     0.039 A 
ATOM     29  C   UNL A   1      41.317  21.953  27.786  1.00  0.00     0.014 A 
ATOM     30  C   UNL A   1      39.774  22.839  26.143  1.00  0.00     0.014 A 
ATOM     31  C   UNL A   1      41.719  23.254  28.101  1.00  0.00     0.010 A 
ATOM     32  C   UNL A   1      40.230  24.129  26.405  1.00  0.00     0.010 A 
ATOM     33  C   UNL A   1      41.208  24.351  27.387  1.00  0.00    -0.014 A 
BRANCH  33  34
ATOM     34  C   UNL A   1      41.687  25.734  27.653  1.00  0.00     0.031 A 
ATOM     35  C   UNL A   1      43.059  26.159  27.201  1.00  0.00     0.074 A 
ATOM     36  C   UNL A   1      40.908  26.587  28.351  1.00  0.00     0.049 A 
ATOM     37  N   UNL A   1      43.679  27.295  27.396  1.00  0.00    -0.248 NA
ATOM     38  C   UNL A   1      43.851  25.169  26.452  1.00  0.00     0.031 C 
ATOM     39  C   UNL A   1      39.572  26.280  28.869  1.00  0.00     0.029 A 
ATOM     40  N   UNL A   1      41.125  27.883  28.752  1.00  0.00    -0.354 N 
ATOM     41  C   UNL A   1      44.934  27.152  26.813  1.00  0.00     0.074 A 
ATOM     42  C   UNL A   1      45.005  25.802  26.297  1.00  0.00     0.031 C 
ATOM     43  C   UNL A   1      39.082  27.363  29.493  1.00  0.00     0.029 A 
ATOM     44  C   UNL A   1      40.083  28.424  29.472  1.00  0.00     0.049 A 
ATOM     45  H   UNL A   1      41.949  28.379  28.545  1.00  0.00     0.167 HD
ATOM     46  C   UNL A   1      45.928  28.066  26.708  1.00  0.00     0.034 A 
ATOM     47  C   UNL A   1      39.955  29.630  30.063  1.00  0.00     0.034 A 
ATOM     48  C   UNL A   1      45.831  29.418  27.206  1.00  0.00     0.049 A 
ATOM     49  C   UNL A   1      41.094  30.617  29.952  1.00  0.00     0.074 A 
ATOM     50  C   UNL A   1      46.750  30.445  27.078  1.00  0.00     0.029 A 
ATOM     51  N   UNL A   1      44.765  29.926  27.934  1.00  0.00    -0.354 N 
ATOM     52  N   UNL A   1      42.245  30.484  29.333  1.00  0.00    -0.248 NA
ATOM     53  C   UNL A   1      40.914  31.918  30.610  1.00  0.00     0.031 C 
ATOM     54  C   UNL A   1      46.281  31.545  27.802  1.00  0.00     0.029 A 
ATOM     55  C   UNL A   1      45.025  31.238  28.300  1.00  0.00     0.049 A 
ATOM     56  H   UNL A   1      43.945  29.430  28.157  1.00  0.00     0.167 HD
ATOM     57  C   UNL A   1      42.902  31.704  29.491  1.00  0.00     0.074 A 
ATOM     58  C   UNL A   1      42.013  32.560  30.247  1.00  0.00     0.031 C 
ATOM     59  C   UNL A   1      44.128  32.084  29.050  1.00  0.00     0.034 A 
BRANCH  46  60
ATOM     60  C   UNL A   1      47.221  27.639  26.059  1.00  0.00     0.023 A 
ATOM     61  C   UNL A   1      48.298  27.129  26.803  1.00  0.00     0.031 A 
ATOM     62  C   UNL A   1      47.363  27.713  24.660  1.00  0.00     0.131 A 
ATOM     63  C   UNL A   1      49.485  26.755  26.152  1.00  0.00     0.055 A 
ATOM     64  C   UNL A   1      48.517  27.272  24.012  1.00  0.00     0.041 A 
ATOM     65  F   UNL A   1      46.376  28.214  23.900  1.00  0.00    -0.206 F 
ATOM     66  C   UNL A   1      49.590  26.796  24.759  1.00  0.00     0.022 A 
BRANCH  63  67
ATOM     67  S   UNL A   1      50.927  26.311  27.157  1.00  0.00     0.124 S 
ATOM     68  O   UNL A   1      51.984  27.087  26.514  1.00  0.00    -0.237 OA
ATOM     69  O   UNL A   1      50.531  26.750  28.489  1.00  0.00    -0.237 OA
ATOM     70  O   UNL A   1      51.033  24.863  26.984  1.00  0.00    -0.744 OA
ENDBRANCH  63  67
ENDBRANCH  46  60
BRANCH  47  71
ATOM     71  C   UNL A   1      38.727  29.986  30.837  1.00  0.00     0.023 A 
ATOM     72  C   UNL A   1      37.679  30.703  30.237  1.00  0.00     0.031 A 
ATOM     73  C   UNL A   1      38.623  29.702  32.210  1.00  0.00     0.131 A 
ATOM     74  C   UNL A   1      36.619  31.184  31.021  1.00  0.00     0.055 A 
ATOM     75  C   UNL A   1      37.528  30.117  32.970  1.00  0.00     0.041 A 
ATOM     76  F   UNL A   1      39.593  29.021  32.840  1.00  0.00    -0.206 F 
ATOM     77  C   UNL A   1      36.528  30.883  32.381  1.00  0.00     0.022 A 
BRANCH  74  78
ATOM     78  S   UNL A   1      35.440  32.339  30.266  1.00  0.00     0.124 S 
ATOM     79  O   UNL A   1      36.271  33.520  30.068  1.00  0.00    -0.237 OA
ATOM     80  O   UNL A   1      35.046  31.620  29.058  1.00  0.00    -0.237 OA
ATOM     81  O   UNL A   1      34.397  32.471  31.281  1.00  0.00    -0.744 OA
ENDBRANCH  74  78
ENDBRANCH  47  71
BRANCH  59  82
ATOM     82  C   UNL A   1      44.548  33.509  29.320  1.00  0.00     0.023 A 
ATOM     83  C   UNL A   1      45.268  33.868  30.472  1.00  0.00     0.031 A 
ATOM     84  C   UNL A   1      44.212  34.527  28.408  1.00  0.00     0.131 A 
ATOM     85  C   UNL A   1      45.574  35.217  30.713  1.00  0.00     0.055 A 
ATOM     86  C   UNL A   1      44.581  35.855  28.618  1.00  0.00     0.041 A 
ATOM     87  F   UNL A   1      43.521  34.243  27.291  1.00  0.00    -0.206 F 
ATOM     88  C   UNL A   1      45.253  36.209  29.784  1.00  0.00     0.022 A 
BRANCH  85  89
ATOM     89  S   UNL A   1      46.308  35.671  32.308  1.00  0.00     0.124 S 
ATOM     90  O   UNL A   1      45.130  35.819  33.154  1.00  0.00    -0.237 OA
ATOM     91  O   UNL A   1      47.161  34.522  32.598  1.00  0.00    -0.237 OA
ATOM     92  O   UNL A   1      47.022  36.912  32.016  1.00  0.00    -0.744 OA
ENDBRANCH  85  89
ENDBRANCH  59  82
ENDBRANCH  33  34
ENDBRANCH  25  28
ENDBRANCH  23  24
ENDBRANCH  22  23
ENDBRANCH   1  22
TORSDOF 19
ENDMDL
