MODEL 1
REMARK VINA RESULT:     -11.3      0.000      0.000
REMARK SMILES O=C(NCCCCCCNC(=O)[C@@H]1CSCN1C(=O)c1cccc(Cl)c1)c1ccc(-c2c3nc(c(-c4cc(S(=O)(=O)[O-])ccc4F)c4ccc([nH]4)c(-c4cc(S(=O)(=O)[O-])ccc4F)c4nc(c(-c5cc(S(=O)(=O)[O-])ccc5F)c5ccc2[nH]5)C=C4)C=C3)cc1
REMARK SMILES IDX 6 1 5 2 4 3 3 4 1 5 2 6 27 8 28 9 89 10 29 11 88 12 30 13
REMARK SMILES IDX 31 14 32 15 82 16 33 17 87 18 81 19 83 20 34 21 86 22 80 23
REMARK SMILES IDX 79 24 35 26 67 27 47 28 66 29 48 30 51 31 65 32 84 33 49 34
REMARK SMILES IDX 50 35 64 37 85 38 52 39 36 40 37 41 45 42 38 43 44 44 46 45
REMARK SMILES IDX 43 46 39 47 40 48 41 49 42 50 68 51 69 52 77 53 70 54 76 55
REMARK SMILES IDX 78 56 75 57 71 58 72 59 73 60 74 61 53 62 54 63 62 64 55 65
REMARK SMILES IDX 61 66 63 67 60 68 56 69 57 70 58 71 59 72 7 73 8 74 9 75
REMARK SMILES IDX 10 76 11 77 12 79 13 80 14 81 17 82 15 83 16 84 18 85 19 86
REMARK SMILES IDX 20 87 21 88 26 89 22 90 24 91 23 92 25 93
REMARK H PARENT 3 7 83 25 51 36 10 78
REMARK Flexibility Score: inf
ROOT
ATOM      1  C   UNL A   1      31.585  30.920  26.235  1.00  0.00     0.002 C 
ENDROOT
BRANCH   1   2
ATOM      2  C   UNL A   1      31.441  32.344  26.774  1.00  0.00     0.021 C 
BRANCH   2   3
ATOM      3  C   UNL A   1      32.720  32.993  27.284  1.00  0.00     0.116 C 
BRANCH   3   4
ATOM      4  N   UNL A   1      32.512  34.342  27.781  1.00  0.00    -0.352 N 
ATOM      5  O   UNL A   1      32.740  36.088  29.186  1.00  0.00    -0.269 OA
ATOM      6  C   UNL A   1      33.137  34.991  28.821  1.00  0.00     0.251 C 
ATOM      7  H   UNL A   1      31.827  34.867  27.307  1.00  0.00     0.163 HD
BRANCH   6   8
ATOM      8  C   UNL A   1      34.278  34.342  29.511  1.00  0.00     0.039 A 
ATOM      9  C   UNL A   1      35.589  34.535  29.066  1.00  0.00     0.014 A 
ATOM     10  C   UNL A   1      34.029  33.536  30.626  1.00  0.00     0.014 A 
ATOM     11  C   UNL A   1      36.631  33.828  29.656  1.00  0.00     0.010 A 
ATOM     12  C   UNL A   1      35.089  32.889  31.268  1.00  0.00     0.010 A 
ATOM     13  C   UNL A   1      36.397  33.012  30.774  1.00  0.00    -0.014 A 
BRANCH  13  14
ATOM     14  C   UNL A   1      37.545  32.354  31.450  1.00  0.00     0.031 A 
ATOM     15  C   UNL A   1      38.303  31.236  30.789  1.00  0.00     0.074 A 
ATOM     16  C   UNL A   1      37.911  32.795  32.670  1.00  0.00     0.049 A 
ATOM     17  N   UNL A   1      39.325  30.553  31.240  1.00  0.00    -0.248 NA
ATOM     18  C   UNL A   1      37.846  30.823  29.454  1.00  0.00     0.031 C 
ATOM     19  C   UNL A   1      37.243  33.870  33.408  1.00  0.00     0.029 A 
ATOM     20  N   UNL A   1      38.933  32.412  33.498  1.00  0.00    -0.354 N 
ATOM     21  C   UNL A   1      39.630  29.622  30.252  1.00  0.00     0.074 A 
ATOM     22  C   UNL A   1      38.658  29.807  29.194  1.00  0.00     0.031 C 
ATOM     23  C   UNL A   1      37.896  34.088  34.557  1.00  0.00     0.029 A 
ATOM     24  C   UNL A   1      38.985  33.125  34.673  1.00  0.00     0.049 A 
ATOM     25  H   UNL A   1      39.569  31.695  33.275  1.00  0.00     0.167 HD
ATOM     26  C   UNL A   1      40.631  28.707  30.232  1.00  0.00     0.034 A 
ATOM     27  C   UNL A   1      39.800  33.005  35.738  1.00  0.00     0.034 A 
ATOM     28  C   UNL A   1      41.588  28.538  31.302  1.00  0.00     0.049 A 
ATOM     29  C   UNL A   1      40.873  31.951  35.710  1.00  0.00     0.074 A 
ATOM     30  C   UNL A   1      42.660  27.664  31.372  1.00  0.00     0.029 A 
ATOM     31  N   UNL A   1      41.582  29.247  32.498  1.00  0.00    -0.354 N 
ATOM     32  N   UNL A   1      41.158  31.090  34.760  1.00  0.00    -0.248 NA
ATOM     33  C   UNL A   1      41.732  31.853  36.894  1.00  0.00     0.031 C 
ATOM     34  C   UNL A   1      43.258  27.797  32.631  1.00  0.00     0.029 A 
ATOM     35  C   UNL A   1      42.609  28.808  33.322  1.00  0.00     0.049 A 
ATOM     36  H   UNL A   1      40.942  29.960  32.727  1.00  0.00     0.167 HD
ATOM     37  C   UNL A   1      42.245  30.359  35.228  1.00  0.00     0.074 A 
ATOM     38  C   UNL A   1      42.574  30.896  36.533  1.00  0.00     0.031 C 
ATOM     39  C   UNL A   1      42.910  29.336  34.632  1.00  0.00     0.034 A 
BRANCH  26  40
ATOM     40  C   UNL A   1      40.712  27.787  29.034  1.00  0.00     0.023 A 
ATOM     41  C   UNL A   1      41.658  27.979  28.012  1.00  0.00     0.031 A 
ATOM     42  C   UNL A   1      39.815  26.711  28.905  1.00  0.00     0.131 A 
ATOM     43  C   UNL A   1      41.643  27.152  26.877  1.00  0.00     0.055 A 
ATOM     44  C   UNL A   1      39.854  25.846  27.810  1.00  0.00     0.041 A 
ATOM     45  F   UNL A   1      38.876  26.487  29.839  1.00  0.00    -0.206 F 
ATOM     46  C   UNL A   1      40.762  26.072  26.780  1.00  0.00     0.022 A 
BRANCH  43  47
ATOM     47  S   UNL A   1      42.697  27.591  25.468  1.00  0.00     0.124 S 
ATOM     48  O   UNL A   1      43.922  28.021  26.137  1.00  0.00    -0.237 OA
ATOM     49  O   UNL A   1      42.780  26.335  24.731  1.00  0.00    -0.237 OA
ATOM     50  O   UNL A   1      41.954  28.657  24.800  1.00  0.00    -0.744 OA
ENDBRANCH  43  47
ENDBRANCH  26  40
BRANCH  27  51
ATOM     51  C   UNL A   1      39.608  33.879  36.929  1.00  0.00     0.023 A 
ATOM     52  C   UNL A   1      39.010  33.390  38.100  1.00  0.00     0.031 A 
ATOM     53  C   UNL A   1      40.007  35.229  36.904  1.00  0.00     0.131 A 
ATOM     54  C   UNL A   1      38.797  34.252  39.187  1.00  0.00     0.055 A 
ATOM     55  C   UNL A   1      39.842  36.067  38.006  1.00  0.00     0.041 A 
ATOM     56  F   UNL A   1      40.588  35.744  35.809  1.00  0.00    -0.206 F 
ATOM     57  C   UNL A   1      39.222  35.583  39.153  1.00  0.00     0.022 A 
BRANCH  54  58
ATOM     58  S   UNL A   1      37.885  33.628  40.624  1.00  0.00     0.124 S 
ATOM     59  O   UNL A   1      36.667  33.118  40.006  1.00  0.00    -0.237 OA
ATOM     60  O   UNL A   1      38.805  32.627  41.154  1.00  0.00    -0.237 OA
ATOM     61  O   UNL A   1      37.712  34.815  41.460  1.00  0.00    -0.744 OA
ENDBRANCH  54  58
ENDBRANCH  27  51
BRANCH  39  62
ATOM     62  C   UNL A   1      44.080  28.760  35.390  1.00  0.00     0.023 A 
ATOM     63  C   UNL A   1      43.924  27.686  36.285  1.00  0.00     0.031 A 
ATOM     64  C   UNL A   1      45.363  29.315  35.239  1.00  0.00     0.131 A 
ATOM     65  C   UNL A   1      45.019  27.241  37.039  1.00  0.00     0.055 A 
ATOM     66  C   UNL A   1      46.462  28.827  35.947  1.00  0.00     0.041 A 
ATOM     67  F   UNL A   1      45.568  30.343  34.401  1.00  0.00    -0.206 F 
ATOM     68  C   UNL A   1      46.291  27.794  36.864  1.00  0.00     0.022 A 
BRANCH  65  69
ATOM     69  S   UNL A   1      44.741  25.993  38.325  1.00  0.00     0.124 S 
ATOM     70  O   UNL A   1      43.814  26.679  39.219  1.00  0.00    -0.237 OA
ATOM     71  O   UNL A   1      44.189  24.878  37.565  1.00  0.00    -0.237 OA
ATOM     72  O   UNL A   1      46.077  25.765  38.876  1.00  0.00    -0.744 OA
ENDBRANCH  65  69
ENDBRANCH  39  62
ENDBRANCH  13  14
ENDBRANCH   6   8
ENDBRANCH   3   4
ENDBRANCH   2   3
ENDBRANCH   1   2
BRANCH   1  73
ATOM     73  C   UNL A   1      32.310  29.923  27.141  1.00  0.00     0.002 C 
BRANCH  73  74
ATOM     74  C   UNL A   1      33.327  29.001  26.464  1.00  0.00     0.021 C 
BRANCH  74  75
ATOM     75  C   UNL A   1      33.097  27.504  26.634  1.00  0.00     0.116 C 
BRANCH  75  76
ATOM     76  N   UNL A   1      34.047  26.694  25.901  1.00  0.00    -0.354 N 
ATOM     77  C   UNL A   1      34.006  25.353  25.640  1.00  0.00     0.243 C 
ATOM     78  H   UNL A   1      34.828  27.174  25.543  1.00  0.00     0.163 HD
ATOM     79  O   UNL A   1      34.889  24.896  24.909  1.00  0.00    -0.273 OA
BRANCH  77  80
ATOM     80  C   UNL A   1      32.871  24.474  26.225  1.00  0.00     0.185 C 
ATOM     81  C   UNL A   1      33.356  23.045  26.485  1.00  0.00     0.106 C 
ATOM     82  N   UNL A   1      31.743  24.368  25.290  1.00  0.00    -0.317 N 
ATOM     83  S   UNL A   1      32.934  22.077  24.995  1.00  0.00    -0.138 SA
ATOM     84  C   UNL A   1      31.985  23.418  24.226  1.00  0.00     0.190 C 
BRANCH  82  85
ATOM     85  C   UNL A   1      30.523  24.951  25.566  1.00  0.00     0.255 C 
ATOM     86  O   UNL A   1      29.818  24.645  26.522  1.00  0.00    -0.269 OA
BRANCH  85  87
ATOM     87  C   UNL A   1      30.052  26.029  24.680  1.00  0.00     0.041 A 
ATOM     88  C   UNL A   1      28.683  26.188  24.452  1.00  0.00     0.014 A 
ATOM     89  C   UNL A   1      30.985  26.909  24.127  1.00  0.00     0.034 A 
ATOM     90  C   UNL A   1      28.243  27.231  23.638  1.00  0.00     0.002 A 
ATOM     91  C   UNL A   1      30.532  27.952  23.323  1.00  0.00     0.041 A 
ATOM     92  C   UNL A   1      29.168  28.116  23.075  1.00  0.00     0.020 A 
ATOM     93  Cl  UNL A   1      31.670  29.039  22.630  1.00  0.00    -0.084 Cl
ENDBRANCH  85  87
ENDBRANCH  82  85
ENDBRANCH  77  80
ENDBRANCH  75  76
ENDBRANCH  74  75
ENDBRANCH  73  74
ENDBRANCH   1  73
TORSDOF 18
ENDMDL
MODEL 2
REMARK VINA RESULT:     -11.2      1.704      3.028
REMARK SMILES O=C(NCCCCCCNC(=O)[C@@H]1CSCN1C(=O)c1cccc(Cl)c1)c1ccc(-c2c3nc(c(-c4cc(S(=O)(=O)[O-])ccc4F)c4ccc([nH]4)c(-c4cc(S(=O)(=O)[O-])ccc4F)c4nc(c(-c5cc(S(=O)(=O)[O-])ccc5F)c5ccc2[nH]5)C=C4)C=C3)cc1
REMARK SMILES IDX 6 1 5 2 4 3 3 4 1 5 2 6 27 8 28 9 89 10 29 11 88 12 30 13
REMARK SMILES IDX 31 14 32 15 82 16 33 17 87 18 81 19 83 20 34 21 86 22 80 23
REMARK SMILES IDX 79 24 35 26 67 27 47 28 66 29 48 30 51 31 65 32 84 33 49 34
REMARK SMILES IDX 50 35 64 37 85 38 52 39 36 40 37 41 45 42 38 43 44 44 46 45
REMARK SMILES IDX 43 46 39 47 40 48 41 49 42 50 68 51 69 52 77 53 70 54 76 55
REMARK SMILES IDX 78 56 75 57 71 58 72 59 73 60 74 61 53 62 54 63 62 64 55 65
REMARK SMILES IDX 61 66 63 67 60 68 56 69 57 70 58 71 59 72 7 73 8 74 9 75
REMARK SMILES IDX 10 76 11 77 12 79 13 80 14 81 17 82 15 83 16 84 18 85 19 86
REMARK SMILES IDX 20 87 21 88 26 89 22 90 24 91 23 92 25 93
REMARK H PARENT 3 7 83 25 51 36 10 78
REMARK Flexibility Score: inf
ROOT
ATOM      1  C   UNL A   1      31.691  30.428  25.826  1.00  0.00     0.002 C 
ENDROOT
BRANCH   1   2
ATOM      2  C   UNL A   1      31.493  31.765  26.543  1.00  0.00     0.021 C 
BRANCH   2   3
ATOM      3  C   UNL A   1      32.706  32.302  27.290  1.00  0.00     0.116 C 
BRANCH   3   4
ATOM      4  N   UNL A   1      32.592  33.713  27.617  1.00  0.00    -0.352 N 
ATOM      5  O   UNL A   1      32.976  35.608  28.773  1.00  0.00    -0.269 OA
ATOM      6  C   UNL A   1      33.298  34.452  28.538  1.00  0.00     0.251 C 
ATOM      7  H   UNL A   1      31.912  34.212  27.108  1.00  0.00     0.163 HD
BRANCH   6   8
ATOM      8  C   UNL A   1      34.437  33.833  29.258  1.00  0.00     0.039 A 
ATOM      9  C   UNL A   1      35.746  34.272  29.042  1.00  0.00     0.014 A 
ATOM     10  C   UNL A   1      34.185  32.803  30.170  1.00  0.00     0.014 A 
ATOM     11  C   UNL A   1      36.808  33.602  29.640  1.00  0.00     0.010 A 
ATOM     12  C   UNL A   1      35.249  32.184  30.831  1.00  0.00     0.010 A 
ATOM     13  C   UNL A   1      36.572  32.564  30.555  1.00  0.00    -0.014 A 
BRANCH  13  14
ATOM     14  C   UNL A   1      37.721  31.939  31.261  1.00  0.00     0.031 A 
ATOM     15  C   UNL A   1      38.553  30.873  30.605  1.00  0.00     0.074 A 
ATOM     16  C   UNL A   1      38.018  32.363  32.506  1.00  0.00     0.049 A 
ATOM     17  N   UNL A   1      39.586  30.225  31.080  1.00  0.00    -0.248 NA
ATOM     18  C   UNL A   1      38.169  30.477  29.243  1.00  0.00     0.031 C 
ATOM     19  C   UNL A   1      37.273  33.389  33.242  1.00  0.00     0.029 A 
ATOM     20  N   UNL A   1      39.022  32.004  33.366  1.00  0.00    -0.354 N 
ATOM     21  C   UNL A   1      39.972  29.335  30.083  1.00  0.00     0.074 A 
ATOM     22  C   UNL A   1      39.035  29.504  28.991  1.00  0.00     0.031 C 
ATOM     23  C   UNL A   1      37.870  33.604  34.423  1.00  0.00     0.029 A 
ATOM     24  C   UNL A   1      38.995  32.687  34.559  1.00  0.00     0.049 A 
ATOM     25  H   UNL A   1      39.698  31.321  33.151  1.00  0.00     0.167 HD
ATOM     26  C   UNL A   1      41.013  28.464  30.081  1.00  0.00     0.034 A 
ATOM     27  C   UNL A   1      39.771  32.575  35.653  1.00  0.00     0.034 A 
ATOM     28  C   UNL A   1      41.934  28.309  31.185  1.00  0.00     0.049 A 
ATOM     29  C   UNL A   1      40.891  31.570  35.643  1.00  0.00     0.074 A 
ATOM     30  C   UNL A   1      43.040  27.482  31.277  1.00  0.00     0.029 A 
ATOM     31  N   UNL A   1      41.848  28.986  32.396  1.00  0.00    -0.354 N 
ATOM     32  N   UNL A   1      41.252  30.748  34.684  1.00  0.00    -0.248 NA
ATOM     33  C   UNL A   1      41.706  31.478  36.859  1.00  0.00     0.031 C 
ATOM     34  C   UNL A   1      43.580  27.607  32.562  1.00  0.00     0.029 A 
ATOM     35  C   UNL A   1      42.860  28.570  33.251  1.00  0.00     0.049 A 
ATOM     36  H   UNL A   1      41.168  29.664  32.617  1.00  0.00     0.167 HD
ATOM     37  C   UNL A   1      42.351  30.052  35.179  1.00  0.00     0.074 A 
ATOM     38  C   UNL A   1      42.603  30.569  36.509  1.00  0.00     0.031 C 
ATOM     39  C   UNL A   1      43.084  29.076  34.585  1.00  0.00     0.034 A 
BRANCH  26  40
ATOM     40  C   UNL A   1      41.183  27.582  28.865  1.00  0.00     0.023 A 
ATOM     41  C   UNL A   1      42.196  27.808  27.916  1.00  0.00     0.031 A 
ATOM     42  C   UNL A   1      40.305  26.505  28.643  1.00  0.00     0.131 A 
ATOM     43  C   UNL A   1      42.264  27.015  26.760  1.00  0.00     0.055 A 
ATOM     44  C   UNL A   1      40.425  25.673  27.528  1.00  0.00     0.041 A 
ATOM     45  F   UNL A   1      39.305  26.249  29.502  1.00  0.00    -0.206 F 
ATOM     46  C   UNL A   1      41.400  25.934  26.571  1.00  0.00     0.022 A 
BRANCH  43  47
ATOM     47  S   UNL A   1      43.410  27.501  25.440  1.00  0.00     0.124 S 
ATOM     48  O   UNL A   1      42.490  27.834  24.355  1.00  0.00    -0.237 OA
ATOM     49  O   UNL A   1      44.124  28.624  26.038  1.00  0.00    -0.237 OA
ATOM     50  O   UNL A   1      44.212  26.299  25.219  1.00  0.00    -0.744 OA
ENDBRANCH  43  47
ENDBRANCH  26  40
BRANCH  27  51
ATOM     51  C   UNL A   1      39.493  33.408  36.857  1.00  0.00     0.023 A 
ATOM     52  C   UNL A   1      38.793  32.885  37.955  1.00  0.00     0.031 A 
ATOM     53  C   UNL A   1      39.912  34.750  36.916  1.00  0.00     0.131 A 
ATOM     54  C   UNL A   1      38.502  33.711  39.052  1.00  0.00     0.055 A 
ATOM     55  C   UNL A   1      39.667  35.550  38.032  1.00  0.00     0.041 A 
ATOM     56  F   UNL A   1      40.589  35.295  35.893  1.00  0.00    -0.206 F 
ATOM     57  C   UNL A   1      38.947  35.035  39.104  1.00  0.00     0.022 A 
BRANCH  54  58
ATOM     58  S   UNL A   1      37.465  33.050  40.385  1.00  0.00     0.124 S 
ATOM     59  O   UNL A   1      36.222  32.761  39.679  1.00  0.00    -0.237 OA
ATOM     60  O   UNL A   1      38.239  31.893  40.824  1.00  0.00    -0.237 OA
ATOM     61  O   UNL A   1      37.399  34.152  41.343  1.00  0.00    -0.744 OA
ENDBRANCH  54  58
ENDBRANCH  27  51
BRANCH  39  62
ATOM     62  C   UNL A   1      44.248  28.532  35.376  1.00  0.00     0.023 A 
ATOM     63  C   UNL A   1      44.083  27.502  36.320  1.00  0.00     0.031 A 
ATOM     64  C   UNL A   1      45.534  29.074  35.206  1.00  0.00     0.131 A 
ATOM     65  C   UNL A   1      45.172  27.089  37.099  1.00  0.00     0.055 A 
ATOM     66  C   UNL A   1      46.627  28.616  35.942  1.00  0.00     0.041 A 
ATOM     67  F   UNL A   1      45.748  30.061  34.322  1.00  0.00    -0.206 F 
ATOM     68  C   UNL A   1      46.447  27.628  36.906  1.00  0.00     0.022 A 
BRANCH  65  69
ATOM     69  S   UNL A   1      44.882  25.903  38.441  1.00  0.00     0.124 S 
ATOM     70  O   UNL A   1      44.370  24.744  37.717  1.00  0.00    -0.237 OA
ATOM     71  O   UNL A   1      46.212  25.756  39.022  1.00  0.00    -0.237 OA
ATOM     72  O   UNL A   1      43.906  26.581  39.293  1.00  0.00    -0.744 OA
ENDBRANCH  65  69
ENDBRANCH  39  62
ENDBRANCH  13  14
ENDBRANCH   6   8
ENDBRANCH   3   4
ENDBRANCH   2   3
ENDBRANCH   1   2
BRANCH   1  73
ATOM     73  C   UNL A   1      32.586  29.407  26.531  1.00  0.00     0.002 C 
BRANCH  73  74
ATOM     74  C   UNL A   1      31.889  28.170  27.102  1.00  0.00     0.021 C 
BRANCH  74  75
ATOM     75  C   UNL A   1      32.094  26.868  26.336  1.00  0.00     0.116 C 
BRANCH  75  76
ATOM     76  N   UNL A   1      31.465  25.728  26.970  1.00  0.00    -0.354 N 
ATOM     77  C   UNL A   1      31.508  24.412  26.601  1.00  0.00     0.243 C 
ATOM     78  H   UNL A   1      30.935  25.928  27.775  1.00  0.00     0.163 HD
ATOM     79  O   UNL A   1      30.966  23.600  27.356  1.00  0.00    -0.273 OA
BRANCH  77  80
ATOM     80  C   UNL A   1      32.239  23.985  25.302  1.00  0.00     0.185 C 
ATOM     81  C   UNL A   1      31.456  22.900  24.559  1.00  0.00     0.106 C 
ATOM     82  N   UNL A   1      33.561  23.417  25.597  1.00  0.00    -0.317 N 
ATOM     83  S   UNL A   1      32.135  21.299  25.115  1.00  0.00    -0.138 SA
ATOM     84  C   UNL A   1      33.493  22.047  26.057  1.00  0.00     0.190 C 
BRANCH  82  85
ATOM     85  C   UNL A   1      34.722  24.072  25.238  1.00  0.00     0.255 C 
ATOM     86  O   UNL A   1      34.756  25.221  24.812  1.00  0.00    -0.269 OA
BRANCH  85  87
ATOM     87  C   UNL A   1      36.001  23.363  25.409  1.00  0.00     0.041 A 
ATOM     88  C   UNL A   1      37.076  24.014  26.018  1.00  0.00     0.014 A 
ATOM     89  C   UNL A   1      36.097  22.029  25.006  1.00  0.00     0.034 A 
ATOM     90  C   UNL A   1      38.274  23.326  26.205  1.00  0.00     0.002 A 
ATOM     91  C   UNL A   1      37.296  21.351  25.207  1.00  0.00     0.041 A 
ATOM     92  C   UNL A   1      38.384  21.991  25.802  1.00  0.00     0.020 A 
ATOM     93  Cl  UNL A   1      37.431  19.710  24.710  1.00  0.00    -0.084 Cl
ENDBRANCH  85  87
ENDBRANCH  82  85
ENDBRANCH  77  80
ENDBRANCH  75  76
ENDBRANCH  74  75
ENDBRANCH  73  74
ENDBRANCH   1  73
TORSDOF 18
ENDMDL
MODEL 3
REMARK VINA RESULT:     -11.1      1.706      7.780
REMARK SMILES O=C(NCCCCCCNC(=O)[C@@H]1CSCN1C(=O)c1cccc(Cl)c1)c1ccc(-c2c3nc(c(-c4cc(S(=O)(=O)[O-])ccc4F)c4ccc([nH]4)c(-c4cc(S(=O)(=O)[O-])ccc4F)c4nc(c(-c5cc(S(=O)(=O)[O-])ccc5F)c5ccc2[nH]5)C=C4)C=C3)cc1
REMARK SMILES IDX 6 1 5 2 4 3 3 4 1 5 2 6 27 8 28 9 89 10 29 11 88 12 30 13
REMARK SMILES IDX 31 14 32 15 82 16 33 17 87 18 81 19 83 20 34 21 86 22 80 23
REMARK SMILES IDX 79 24 35 26 67 27 47 28 66 29 48 30 51 31 65 32 84 33 49 34
REMARK SMILES IDX 50 35 64 37 85 38 52 39 36 40 37 41 45 42 38 43 44 44 46 45
REMARK SMILES IDX 43 46 39 47 40 48 41 49 42 50 68 51 69 52 77 53 70 54 76 55
REMARK SMILES IDX 78 56 75 57 71 58 72 59 73 60 74 61 53 62 54 63 62 64 55 65
REMARK SMILES IDX 61 66 63 67 60 68 56 69 57 70 58 71 59 72 7 73 8 74 9 75
REMARK SMILES IDX 10 76 11 77 12 79 13 80 14 81 17 82 15 83 16 84 18 85 19 86
REMARK SMILES IDX 20 87 21 88 26 89 22 90 24 91 23 92 25 93
REMARK H PARENT 3 7 83 25 51 36 10 78
REMARK Flexibility Score: inf
ROOT
ATOM      1  C   UNL A   1      31.473  30.471  25.793  1.00  0.00     0.002 C 
ENDROOT
BRANCH   1   2
ATOM      2  C   UNL A   1      31.400  31.824  26.504  1.00  0.00     0.021 C 
BRANCH   2   3
ATOM      3  C   UNL A   1      32.710  32.338  27.087  1.00  0.00     0.116 C 
BRANCH   3   4
ATOM      4  N   UNL A   1      32.639  33.730  27.498  1.00  0.00    -0.352 N 
ATOM      5  O   UNL A   1      33.106  35.545  28.747  1.00  0.00    -0.269 OA
ATOM      6  C   UNL A   1      33.392  34.398  28.436  1.00  0.00     0.251 C 
ATOM      7  H   UNL A   1      31.956  34.272  27.041  1.00  0.00     0.163 HD
BRANCH   6   8
ATOM      8  C   UNL A   1      34.538  33.713  29.080  1.00  0.00     0.039 A 
ATOM      9  C   UNL A   1      35.853  34.086  28.790  1.00  0.00     0.014 A 
ATOM     10  C   UNL A   1      34.288  32.687  29.998  1.00  0.00     0.014 A 
ATOM     11  C   UNL A   1      36.913  33.356  29.318  1.00  0.00     0.010 A 
ATOM     12  C   UNL A   1      35.356  32.007  30.589  1.00  0.00     0.010 A 
ATOM     13  C   UNL A   1      36.678  32.321  30.237  1.00  0.00    -0.014 A 
BRANCH  13  14
ATOM     14  C   UNL A   1      37.833  31.630  30.867  1.00  0.00     0.031 A 
ATOM     15  C   UNL A   1      38.249  31.935  32.279  1.00  0.00     0.074 A 
ATOM     16  C   UNL A   1      38.496  30.701  30.149  1.00  0.00     0.049 A 
ATOM     17  N   UNL A   1      39.232  31.426  32.977  1.00  0.00    -0.248 NA
ATOM     18  C   UNL A   1      37.466  32.952  32.996  1.00  0.00     0.031 C 
ATOM     19  C   UNL A   1      38.182  30.330  28.766  1.00  0.00     0.029 A 
ATOM     20  N   UNL A   1      39.554  29.895  30.475  1.00  0.00    -0.354 N 
ATOM     21  C   UNL A   1      39.196  32.065  34.213  1.00  0.00     0.074 A 
ATOM     22  C   UNL A   1      38.114  33.026  34.151  1.00  0.00     0.031 C 
ATOM     23  C   UNL A   1      39.000  29.341  28.379  1.00  0.00     0.029 A 
ATOM     24  C   UNL A   1      39.941  29.056  29.456  1.00  0.00     0.049 A 
ATOM     25  H   UNL A   1      39.996  29.913  31.355  1.00  0.00     0.167 HD
ATOM     26  C   UNL A   1      39.990  31.862  35.295  1.00  0.00     0.034 A 
ATOM     27  C   UNL A   1      40.953  28.172  29.383  1.00  0.00     0.034 A 
ATOM     28  C   UNL A   1      41.067  30.899  35.332  1.00  0.00     0.049 A 
ATOM     29  C   UNL A   1      41.847  27.998  30.581  1.00  0.00     0.074 A 
ATOM     30  C   UNL A   1      41.912  30.588  36.384  1.00  0.00     0.029 A 
ATOM     31  N   UNL A   1      41.460  30.098  34.265  1.00  0.00    -0.354 N 
ATOM     32  N   UNL A   1      41.788  28.599  31.748  1.00  0.00    -0.248 NA
ATOM     33  C   UNL A   1      42.940  27.029  30.453  1.00  0.00     0.031 C 
ATOM     34  C   UNL A   1      42.853  29.655  35.935  1.00  0.00     0.029 A 
ATOM     35  C   UNL A   1      42.553  29.322  34.624  1.00  0.00     0.049 A 
ATOM     36  H   UNL A   1      41.024  30.084  33.381  1.00  0.00     0.167 HD
ATOM     37  C   UNL A   1      42.830  28.065  32.499  1.00  0.00     0.074 A 
ATOM     38  C   UNL A   1      43.483  27.080  31.660  1.00  0.00     0.031 C 
ATOM     39  C   UNL A   1      43.210  28.362  33.768  1.00  0.00     0.034 A 
BRANCH  26  40
ATOM     40  C   UNL A   1      39.749  32.729  36.509  1.00  0.00     0.023 A 
ATOM     41  C   UNL A   1      38.899  32.328  37.554  1.00  0.00     0.031 A 
ATOM     42  C   UNL A   1      40.369  33.988  36.614  1.00  0.00     0.131 A 
ATOM     43  C   UNL A   1      38.639  33.200  38.623  1.00  0.00     0.055 A 
ATOM     44  C   UNL A   1      40.165  34.821  37.717  1.00  0.00     0.041 A 
ATOM     45  F   UNL A   1      41.176  34.437  35.640  1.00  0.00    -0.206 F 
ATOM     46  C   UNL A   1      39.284  34.435  38.723  1.00  0.00     0.022 A 
BRANCH  43  47
ATOM     47  S   UNL A   1      37.340  32.758  39.810  1.00  0.00     0.124 S 
ATOM     48  O   UNL A   1      37.403  33.874  40.750  1.00  0.00    -0.237 OA
ATOM     49  O   UNL A   1      36.150  32.698  38.969  1.00  0.00    -0.237 OA
ATOM     50  O   UNL A   1      37.788  31.475  40.348  1.00  0.00    -0.744 OA
ENDBRANCH  43  47
ENDBRANCH  26  40
BRANCH  27  51
ATOM     51  C   UNL A   1      41.197  27.415  28.123  1.00  0.00     0.023 A 
ATOM     52  C   UNL A   1      40.917  26.043  28.035  1.00  0.00     0.031 A 
ATOM     53  C   UNL A   1      41.731  28.056  26.990  1.00  0.00     0.131 A 
ATOM     54  C   UNL A   1      41.206  25.347  26.851  1.00  0.00     0.055 A 
ATOM     55  C   UNL A   1      41.966  27.371  25.798  1.00  0.00     0.041 A 
ATOM     56  F   UNL A   1      42.012  29.369  27.022  1.00  0.00    -0.206 F 
ATOM     57  C   UNL A   1      41.714  26.005  25.727  1.00  0.00     0.022 A 
BRANCH  54  58
ATOM     58  S   UNL A   1      40.976  23.549  26.822  1.00  0.00     0.124 S 
ATOM     59  O   UNL A   1      41.904  23.147  25.772  1.00  0.00    -0.237 OA
ATOM     60  O   UNL A   1      41.346  23.176  28.184  1.00  0.00    -0.237 OA
ATOM     61  O   UNL A   1      39.560  23.391  26.499  1.00  0.00    -0.744 OA
ENDBRANCH  54  58
ENDBRANCH  27  51
BRANCH  39  62
ATOM     62  C   UNL A   1      44.374  27.580  34.324  1.00  0.00     0.023 A 
ATOM     63  C   UNL A   1      44.199  26.317  34.919  1.00  0.00     0.031 A 
ATOM     64  C   UNL A   1      45.672  28.120  34.287  1.00  0.00     0.131 A 
ATOM     65  C   UNL A   1      45.293  25.664  35.505  1.00  0.00     0.055 A 
ATOM     66  C   UNL A   1      46.767  27.437  34.818  1.00  0.00     0.041 A 
ATOM     67  F   UNL A   1      45.896  29.323  33.735  1.00  0.00    -0.206 F 
ATOM     68  C   UNL A   1      46.578  26.209  35.445  1.00  0.00     0.022 A 
BRANCH  65  69
ATOM     69  S   UNL A   1      44.997  24.135  36.436  1.00  0.00     0.124 S 
ATOM     70  O   UNL A   1      43.744  23.664  35.855  1.00  0.00    -0.237 OA
ATOM     71  O   UNL A   1      46.182  23.345  36.124  1.00  0.00    -0.237 OA
ATOM     72  O   UNL A   1      44.903  24.591  37.822  1.00  0.00    -0.744 OA
ENDBRANCH  65  69
ENDBRANCH  39  62
ENDBRANCH  13  14
ENDBRANCH   6   8
ENDBRANCH   3   4
ENDBRANCH   2   3
ENDBRANCH   1   2
BRANCH   1  73
ATOM     73  C   UNL A   1      31.780  29.258  26.675  1.00  0.00     0.002 C 
BRANCH  73  74
ATOM     74  C   UNL A   1      32.937  28.364  26.224  1.00  0.00     0.021 C 
BRANCH  74  75
ATOM     75  C   UNL A   1      32.730  26.862  26.385  1.00  0.00     0.116 C 
BRANCH  75  76
ATOM     76  N   UNL A   1      33.915  26.087  26.087  1.00  0.00    -0.354 N 
ATOM     77  C   UNL A   1      34.005  24.807  25.615  1.00  0.00     0.243 C 
ATOM     78  H   UNL A   1      34.773  26.544  26.244  1.00  0.00     0.163 HD
ATOM     79  O   UNL A   1      35.132  24.386  25.345  1.00  0.00    -0.273 OA
BRANCH  77  80
ATOM     80  C   UNL A   1      32.725  23.955  25.412  1.00  0.00     0.185 C 
ATOM     81  C   UNL A   1      32.903  22.546  25.984  1.00  0.00     0.106 C 
ATOM     82  N   UNL A   1      32.416  23.790  23.986  1.00  0.00    -0.317 N 
ATOM     83  S   UNL A   1      33.465  21.494  24.601  1.00  0.00    -0.138 SA
ATOM     84  C   UNL A   1      33.237  22.784  23.347  1.00  0.00     0.190 C 
BRANCH  82  85
ATOM     85  C   UNL A   1      31.306  24.380  23.417  1.00  0.00     0.255 C 
ATOM     86  O   UNL A   1      30.281  23.772  23.126  1.00  0.00    -0.269 OA
BRANCH  85  87
ATOM     87  C   UNL A   1      31.336  25.832  23.177  1.00  0.00     0.041 A 
ATOM     88  C   UNL A   1      30.190  26.595  23.411  1.00  0.00     0.014 A 
ATOM     89  C   UNL A   1      32.531  26.429  22.769  1.00  0.00     0.034 A 
ATOM     90  C   UNL A   1      30.235  27.975  23.211  1.00  0.00     0.002 A 
ATOM     91  C   UNL A   1      32.566  27.808  22.583  1.00  0.00     0.041 A 
ATOM     92  C   UNL A   1      31.425  28.583  22.800  1.00  0.00     0.020 A 
ATOM     93  Cl  UNL A   1      34.029  28.554  22.075  1.00  0.00    -0.084 Cl
ENDBRANCH  85  87
ENDBRANCH  82  85
ENDBRANCH  77  80
ENDBRANCH  75  76
ENDBRANCH  74  75
ENDBRANCH  73  74
ENDBRANCH   1  73
TORSDOF 18
ENDMDL
