MODEL 1
REMARK VINA RESULT:     -12.4      0.000      0.000
REMARK SMILES COc1ccc(-c2ccc(/C=C3\SC(=S)N([C@H](Cc4ccccc4)C(=O)NCCCCCCNC(=O)c4ccc(-c5c6nc(c(-c7cc(S(=O)(=O)[O-])ccc7F)c7ccc([nH]7)c(-c7cc(S(=O)(=O)[O-])ccc7F)c7nc(c(-c8cc(S(=O)(=O)[O-])ccc8F)c8ccc5[nH]8)C=C7)C=C6)cc4)C3=O)o2)cc1
REMARK SMILES IDX 30 1 29 2 28 3 27 4 25 5 26 6 17 8 16 9 11 10 12 11 13 12
REMARK SMILES IDX 100 13 14 14 101 15 15 16 10 17 7 18 8 19 102 20 9 21 6 22
REMARK SMILES IDX 3 23 4 24 104 25 5 26 103 27 2 28 1 29 18 30 19 31 20 32
REMARK SMILES IDX 24 33 21 34 23 35 22 36 31 37 32 38 33 39 34 40 35 41 36 43
REMARK SMILES IDX 37 44 38 45 99 46 39 47 98 48 40 49 41 50 42 51 92 52 43 53
REMARK SMILES IDX 97 54 91 55 93 56 44 57 96 58 90 59 89 60 45 62 77 63 57 64
REMARK SMILES IDX 76 65 58 66 61 67 75 68 94 69 59 70 60 71 74 73 95 74 62 75
REMARK SMILES IDX 46 76 47 77 55 78 48 79 54 80 56 81 53 82 49 83 50 84 51 85
REMARK SMILES IDX 52 86 78 87 79 88 87 89 80 90 86 91 88 92 85 93 81 94 82 95
REMARK SMILES IDX 83 96 84 97 63 98 64 99 72 100 65 101 71 102 73 103 70 104
REMARK SMILES IDX 66 105 67 106 68 107 69 108
REMARK H PARENT 27 7 34 42 93 61 61 72
REMARK Flexibility Score: inf
ROOT
ATOM      1  C   UNL A   1      31.856  29.947  27.123  1.00  0.00     0.002 C 
ENDROOT
BRANCH   1   2
ATOM      2  C   UNL A   1      32.411  28.634  26.554  1.00  0.00     0.021 C 
BRANCH   2   3
ATOM      3  C   UNL A   1      33.838  28.760  26.035  1.00  0.00     0.116 C 
BRANCH   3   4
ATOM      4  N   UNL A   1      33.868  28.955  24.593  1.00  0.00    -0.354 N 
ATOM      5  C   UNL A   1      32.973  28.614  23.619  1.00  0.00     0.243 C 
ATOM      6  O   UNL A   1      33.145  29.102  22.496  1.00  0.00    -0.273 OA
ATOM      7  H   UNL A   1      34.674  29.412  24.262  1.00  0.00     0.163 HD
BRANCH   5   8
ATOM      8  C   UNL A   1      31.762  27.700  23.897  1.00  0.00     0.185 C 
BRANCH   8   9
ATOM      9  N   UNL A   1      32.029  26.269  24.245  1.00  0.00    -0.280 N 
ATOM     10  C   UNL A   1      34.612  23.815  23.804  1.00  0.00     0.068 C 
ATOM     11  C   UNL A   1      33.456  24.388  24.154  1.00  0.00     0.084 C 
ATOM     12  S   UNL A   1      32.326  23.933  25.346  1.00  0.00    -0.054 SA
ATOM     13  C   UNL A   1      32.995  25.627  23.495  1.00  0.00     0.267 C 
ATOM     14  C   UNL A   1      31.389  25.424  25.135  1.00  0.00     0.149 C 
ATOM     15  O   UNL A   1      33.372  25.947  22.370  1.00  0.00    -0.268 OA
ATOM     16  S   UNL A   1      29.919  25.541  25.911  1.00  0.00    -0.052 S 
BRANCH  10  17
ATOM     17  C   UNL A   1      35.041  22.544  24.266  1.00  0.00     0.128 A 
ATOM     18  C   UNL A   1      34.981  20.379  24.747  1.00  0.00     0.134 A 
ATOM     19  C   UNL A   1      36.050  20.896  25.442  1.00  0.00     0.051 A 
ATOM     20  O   UNL A   1      34.365  21.364  24.033  1.00  0.00    -0.457 OA
ATOM     21  C   UNL A   1      36.105  22.265  25.114  1.00  0.00     0.051 A 
BRANCH  18  22
ATOM     22  C   UNL A   1      34.399  19.050  24.704  1.00  0.00     0.017 A 
ATOM     23  C   UNL A   1      33.304  16.461  24.879  1.00  0.00     0.118 A 
ATOM     24  C   UNL A   1      34.602  16.655  24.398  1.00  0.00     0.047 A 
ATOM     25  C   UNL A   1      32.546  17.567  25.259  1.00  0.00     0.047 A 
ATOM     26  C   UNL A   1      35.144  17.943  24.297  1.00  0.00     0.016 A 
ATOM     27  C   UNL A   1      33.094  18.853  25.177  1.00  0.00     0.016 A 
BRANCH  23  28
ATOM     28  O   UNL A   1      32.906  15.156  24.965  1.00  0.00    -0.497 OA
ATOM     29  C   UNL A   1      31.965  14.840  25.984  1.00  0.00     0.278 C 
ENDBRANCH  23  28
ENDBRANCH  18  22
ENDBRANCH  10  17
ENDBRANCH   8   9
BRANCH   8  30
ATOM     30  C   UNL A   1      30.651  27.937  22.821  1.00  0.00     0.071 C 
BRANCH  30  31
ATOM     31  C   UNL A   1      29.651  29.053  23.038  1.00  0.00    -0.045 A 
ATOM     32  C   UNL A   1      30.020  30.200  23.758  1.00  0.00     0.004 A 
ATOM     33  C   UNL A   1      28.332  28.944  22.580  1.00  0.00     0.004 A 
ATOM     34  C   UNL A   1      29.114  31.243  23.954  1.00  0.00     0.000 A 
ATOM     35  C   UNL A   1      27.413  29.973  22.814  1.00  0.00     0.000 A 
ATOM     36  C   UNL A   1      27.810  31.127  23.486  1.00  0.00     0.000 A 
ENDBRANCH  30  31
ENDBRANCH   8  30
ENDBRANCH   5   8
ENDBRANCH   3   4
ENDBRANCH   2   3
ENDBRANCH   1   2
BRANCH   1  37
ATOM     37  C   UNL A   1      32.870  31.094  27.224  1.00  0.00     0.002 C 
BRANCH  37  38
ATOM     38  C   UNL A   1      32.264  32.500  27.276  1.00  0.00     0.021 C 
BRANCH  38  39
ATOM     39  C   UNL A   1      33.284  33.635  27.281  1.00  0.00     0.116 C 
BRANCH  39  40
ATOM     40  N   UNL A   1      32.998  34.620  28.309  1.00  0.00    -0.352 N 
ATOM     41  C   UNL A   1      33.535  34.739  29.567  1.00  0.00     0.251 C 
ATOM     42  H   UNL A   1      32.327  35.299  28.070  1.00  0.00     0.163 HD
ATOM     43  O   UNL A   1      33.039  35.525  30.369  1.00  0.00    -0.269 OA
BRANCH  41  44
ATOM     44  C   UNL A   1      34.689  33.900  29.956  1.00  0.00     0.039 A 
ATOM     45  C   UNL A   1      35.950  34.209  29.441  1.00  0.00     0.014 A 
ATOM     46  C   UNL A   1      34.528  32.812  30.819  1.00  0.00     0.014 A 
ATOM     47  C   UNL A   1      37.061  33.459  29.834  1.00  0.00     0.010 A 
ATOM     48  C   UNL A   1      35.644  32.104  31.256  1.00  0.00     0.010 A 
ATOM     49  C   UNL A   1      36.922  32.419  30.767  1.00  0.00    -0.014 A 
BRANCH  49  50
ATOM     50  C   UNL A   1      38.100  31.648  31.240  1.00  0.00     0.031 A 
ATOM     51  C   UNL A   1      38.753  32.002  32.551  1.00  0.00     0.074 A 
ATOM     52  C   UNL A   1      38.624  30.683  30.460  1.00  0.00     0.049 A 
ATOM     53  N   UNL A   1      39.835  31.509  33.095  1.00  0.00    -0.248 NA
ATOM     54  C   UNL A   1      38.119  33.073  33.334  1.00  0.00     0.031 C 
ATOM     55  C   UNL A   1      38.106  30.285  29.148  1.00  0.00     0.029 A 
ATOM     56  N   UNL A   1      39.716  29.873  30.643  1.00  0.00    -0.354 N 
ATOM     57  C   UNL A   1      40.026  32.224  34.273  1.00  0.00     0.074 A 
ATOM     58  C   UNL A   1      38.972  33.214  34.337  1.00  0.00     0.031 C 
ATOM     59  C   UNL A   1      38.873  29.301  28.652  1.00  0.00     0.029 A 
ATOM     60  C   UNL A   1      39.959  29.026  29.587  1.00  0.00     0.049 A 
ATOM     61  H   UNL A   1      40.273  29.896  31.455  1.00  0.00     0.167 HD
ATOM     62  C   UNL A   1      40.982  32.057  35.220  1.00  0.00     0.034 A 
ATOM     63  C   UNL A   1      40.954  28.138  29.388  1.00  0.00     0.034 A 
ATOM     64  C   UNL A   1      42.009  31.045  35.153  1.00  0.00     0.049 A 
ATOM     65  C   UNL A   1      42.001  27.965  30.459  1.00  0.00     0.074 A 
ATOM     66  C   UNL A   1      42.973  30.733  36.096  1.00  0.00     0.029 A 
ATOM     67  N   UNL A   1      42.210  30.187  34.080  1.00  0.00    -0.354 N 
ATOM     68  N   UNL A   1      42.126  28.602  31.601  1.00  0.00    -0.248 NA
ATOM     69  C   UNL A   1      43.029  26.944  30.222  1.00  0.00     0.031 C 
ATOM     70  C   UNL A   1      43.796  29.731  35.567  1.00  0.00     0.029 A 
ATOM     71  C   UNL A   1      43.303  29.368  34.323  1.00  0.00     0.049 A 
ATOM     72  H   UNL A   1      41.657  30.162  33.266  1.00  0.00     0.167 HD
ATOM     73  C   UNL A   1      43.233  28.038  32.229  1.00  0.00     0.074 A 
ATOM     74  C   UNL A   1      43.727  27.001  31.346  1.00  0.00     0.031 C 
ATOM     75  C   UNL A   1      43.790  28.345  33.428  1.00  0.00     0.034 A 
BRANCH  62  76
ATOM     76  C   UNL A   1      40.976  33.007  36.394  1.00  0.00     0.023 A 
ATOM     77  C   UNL A   1      40.330  32.692  37.601  1.00  0.00     0.031 A 
ATOM     78  C   UNL A   1      41.615  34.256  36.296  1.00  0.00     0.131 A 
ATOM     79  C   UNL A   1      40.275  33.639  38.635  1.00  0.00     0.055 A 
ATOM     80  C   UNL A   1      41.623  35.163  37.357  1.00  0.00     0.041 A 
ATOM     81  F   UNL A   1      42.233  34.620  35.162  1.00  0.00    -0.206 F 
ATOM     82  C   UNL A   1      40.939  34.864  38.530  1.00  0.00     0.022 A 
BRANCH  79  83
ATOM     83  S   UNL A   1      39.215  33.300  40.066  1.00  0.00     0.124 S 
ATOM     84  O   UNL A   1      38.285  32.316  39.519  1.00  0.00    -0.237 OA
ATOM     85  O   UNL A   1      40.167  32.801  41.053  1.00  0.00    -0.237 OA
ATOM     86  O   UNL A   1      38.626  34.602  40.373  1.00  0.00    -0.744 OA
ENDBRANCH  79  83
ENDBRANCH  62  76
BRANCH  63  87
ATOM     87  C   UNL A   1      41.026  27.356  28.121  1.00  0.00     0.023 A 
ATOM     88  C   UNL A   1      40.709  25.989  28.095  1.00  0.00     0.031 A 
ATOM     89  C   UNL A   1      41.458  27.956  26.924  1.00  0.00     0.131 A 
ATOM     90  C   UNL A   1      40.875  25.255  26.910  1.00  0.00     0.055 A 
ATOM     91  C   UNL A   1      41.574  27.233  25.736  1.00  0.00     0.041 A 
ATOM     92  F   UNL A   1      41.767  29.262  26.894  1.00  0.00    -0.206 F 
ATOM     93  C   UNL A   1      41.295  25.870  25.728  1.00  0.00     0.022 A 
BRANCH  90  94
ATOM     94  S   UNL A   1      40.619  23.460  26.958  1.00  0.00     0.124 S 
ATOM     95  O   UNL A   1      41.140  23.119  28.276  1.00  0.00    -0.237 OA
ATOM     96  O   UNL A   1      39.172  23.358  26.794  1.00  0.00    -0.237 OA
ATOM     97  O   UNL A   1      41.408  22.973  25.829  1.00  0.00    -0.744 OA
ENDBRANCH  90  94
ENDBRANCH  63  87
BRANCH  75  98
ATOM     98  C   UNL A   1      44.970  27.515  33.866  1.00  0.00     0.023 A 
ATOM     99  C   UNL A   1      44.804  26.261  34.478  1.00  0.00     0.031 A 
ATOM    100  C   UNL A   1      46.278  27.994  33.677  1.00  0.00     0.131 A 
ATOM    101  C   UNL A   1      45.926  25.551  34.930  1.00  0.00     0.055 A 
ATOM    102  C   UNL A   1      47.395  27.258  34.078  1.00  0.00     0.041 A 
ATOM    103  F   UNL A   1      46.493  29.186  33.098  1.00  0.00    -0.206 F 
ATOM    104  C   UNL A   1      47.221  26.034  34.719  1.00  0.00     0.022 A 
BRANCH 101 105
ATOM    105  S   UNL A   1      45.670  24.023  35.872  1.00  0.00     0.124 S 
ATOM    106  O   UNL A   1      44.242  23.787  35.684  1.00  0.00    -0.237 OA
ATOM    107  O   UNL A   1      46.565  23.087  35.200  1.00  0.00    -0.237 OA
ATOM    108  O   UNL A   1      46.064  24.388  37.232  1.00  0.00    -0.744 OA
ENDBRANCH 101 105
ENDBRANCH  75  98
ENDBRANCH  49  50
ENDBRANCH  41  44
ENDBRANCH  39  40
ENDBRANCH  38  39
ENDBRANCH  37  38
ENDBRANCH   1  37
TORSDOF 22
ENDMDL
MODEL 2
REMARK VINA RESULT:     -12.2      1.654      7.186
REMARK SMILES COc1ccc(-c2ccc(/C=C3\SC(=S)N([C@H](Cc4ccccc4)C(=O)NCCCCCCNC(=O)c4ccc(-c5c6nc(c(-c7cc(S(=O)(=O)[O-])ccc7F)c7ccc([nH]7)c(-c7cc(S(=O)(=O)[O-])ccc7F)c7nc(c(-c8cc(S(=O)(=O)[O-])ccc8F)c8ccc5[nH]8)C=C7)C=C6)cc4)C3=O)o2)cc1
REMARK SMILES IDX 30 1 29 2 28 3 27 4 25 5 26 6 17 8 16 9 11 10 12 11 13 12
REMARK SMILES IDX 100 13 14 14 101 15 15 16 10 17 7 18 8 19 102 20 9 21 6 22
REMARK SMILES IDX 3 23 4 24 104 25 5 26 103 27 2 28 1 29 18 30 19 31 20 32
REMARK SMILES IDX 24 33 21 34 23 35 22 36 31 37 32 38 33 39 34 40 35 41 36 43
REMARK SMILES IDX 37 44 38 45 99 46 39 47 98 48 40 49 41 50 42 51 92 52 43 53
REMARK SMILES IDX 97 54 91 55 93 56 44 57 96 58 90 59 89 60 45 62 77 63 57 64
REMARK SMILES IDX 76 65 58 66 61 67 75 68 94 69 59 70 60 71 74 73 95 74 62 75
REMARK SMILES IDX 46 76 47 77 55 78 48 79 54 80 56 81 53 82 49 83 50 84 51 85
REMARK SMILES IDX 52 86 78 87 79 88 87 89 80 90 86 91 88 92 85 93 81 94 82 95
REMARK SMILES IDX 83 96 84 97 63 98 64 99 72 100 65 101 71 102 73 103 70 104
REMARK SMILES IDX 66 105 67 106 68 107 69 108
REMARK H PARENT 27 7 34 42 93 61 61 72
REMARK Flexibility Score: inf
ROOT
ATOM      1  C   UNL A   1      31.947  29.492  27.251  1.00  0.00     0.002 C 
ENDROOT
BRANCH   1   2
ATOM      2  C   UNL A   1      32.380  28.236  26.482  1.00  0.00     0.021 C 
BRANCH   2   3
ATOM      3  C   UNL A   1      33.847  28.260  26.070  1.00  0.00     0.116 C 
BRANCH   3   4
ATOM      4  N   UNL A   1      34.005  28.639  24.674  1.00  0.00    -0.354 N 
ATOM      5  C   UNL A   1      33.197  28.443  23.590  1.00  0.00     0.243 C 
ATOM      6  O   UNL A   1      33.470  29.069  22.560  1.00  0.00    -0.273 OA
ATOM      7  H   UNL A   1      34.841  29.120  24.476  1.00  0.00     0.163 HD
BRANCH   5   8
ATOM      8  C   UNL A   1      31.959  27.524  23.642  1.00  0.00     0.185 C 
BRANCH   8   9
ATOM      9  N   UNL A   1      32.168  26.086  23.997  1.00  0.00    -0.280 N 
ATOM     10  C   UNL A   1      34.716  23.573  23.708  1.00  0.00     0.068 C 
ATOM     11  C   UNL A   1      33.553  24.171  23.986  1.00  0.00     0.084 C 
ATOM     12  S   UNL A   1      32.337  23.737  25.098  1.00  0.00    -0.054 SA
ATOM     13  C   UNL A   1      33.166  25.424  23.307  1.00  0.00     0.267 C 
ATOM     14  C   UNL A   1      31.451  25.251  24.837  1.00  0.00     0.149 C 
ATOM     15  O   UNL A   1      33.623  25.741  22.210  1.00  0.00    -0.268 OA
ATOM     16  S   UNL A   1      29.937  25.400  25.516  1.00  0.00    -0.052 S 
BRANCH  10  17
ATOM     17  C   UNL A   1      35.083  22.289  24.188  1.00  0.00     0.128 A 
ATOM     18  C   UNL A   1      34.919  20.137  24.701  1.00  0.00     0.134 A 
ATOM     19  C   UNL A   1      36.012  20.612  25.387  1.00  0.00     0.051 A 
ATOM     20  O   UNL A   1      34.351  21.140  23.972  1.00  0.00    -0.457 OA
ATOM     21  C   UNL A   1      36.134  21.971  25.040  1.00  0.00     0.051 A 
BRANCH  18  22
ATOM     22  C   UNL A   1      34.273  18.837  24.677  1.00  0.00     0.017 A 
ATOM     23  C   UNL A   1      33.103  16.282  24.876  1.00  0.00     0.118 A 
ATOM     24  C   UNL A   1      34.293  16.468  24.166  1.00  0.00     0.047 A 
ATOM     25  C   UNL A   1      32.489  17.381  25.475  1.00  0.00     0.047 A 
ATOM     26  C   UNL A   1      34.870  17.740  24.053  1.00  0.00     0.016 A 
ATOM     27  C   UNL A   1      33.076  18.649  25.380  1.00  0.00     0.016 A 
BRANCH  23  28
ATOM     28  O   UNL A   1      32.664  14.990  24.945  1.00  0.00    -0.497 OA
ATOM     29  C   UNL A   1      32.377  14.479  26.240  1.00  0.00     0.278 C 
ENDBRANCH  23  28
ENDBRANCH  18  22
ENDBRANCH  10  17
ENDBRANCH   8   9
BRANCH   8  30
ATOM     30  C   UNL A   1      31.042  27.787  22.401  1.00  0.00     0.071 C 
BRANCH  30  31
ATOM     31  C   UNL A   1      29.810  28.650  22.574  1.00  0.00    -0.045 A 
ATOM     32  C   UNL A   1      28.604  28.078  23.007  1.00  0.00     0.004 A 
ATOM     33  C   UNL A   1      29.829  30.014  22.253  1.00  0.00     0.004 A 
ATOM     34  C   UNL A   1      27.463  28.862  23.184  1.00  0.00     0.000 A 
ATOM     35  C   UNL A   1      28.673  30.790  22.392  1.00  0.00     0.000 A 
ATOM     36  C   UNL A   1      27.497  30.217  22.873  1.00  0.00     0.000 A 
ENDBRANCH  30  31
ENDBRANCH   8  30
ENDBRANCH   5   8
ENDBRANCH   3   4
ENDBRANCH   2   3
ENDBRANCH   1   2
BRANCH   1  37
ATOM     37  C   UNL A   1      32.987  30.619  27.298  1.00  0.00     0.002 C 
BRANCH  37  38
ATOM     38  C   UNL A   1      32.415  32.039  27.251  1.00  0.00     0.021 C 
BRANCH  38  39
ATOM     39  C   UNL A   1      33.461  33.150  27.279  1.00  0.00     0.116 C 
BRANCH  39  40
ATOM     40  N   UNL A   1      32.971  34.343  27.947  1.00  0.00    -0.352 N 
ATOM     41  C   UNL A   1      33.355  34.880  29.151  1.00  0.00     0.251 C 
ATOM     42  H   UNL A   1      32.266  34.837  27.469  1.00  0.00     0.163 HD
ATOM     43  O   UNL A   1      32.701  35.793  29.646  1.00  0.00    -0.269 OA
BRANCH  41  44
ATOM     44  C   UNL A   1      34.536  34.337  29.855  1.00  0.00     0.039 A 
ATOM     45  C   UNL A   1      34.344  33.617  31.037  1.00  0.00     0.014 A 
ATOM     46  C   UNL A   1      35.826  34.541  29.356  1.00  0.00     0.014 A 
ATOM     47  C   UNL A   1      35.443  33.054  31.691  1.00  0.00     0.010 A 
ATOM     48  C   UNL A   1      36.913  33.930  29.976  1.00  0.00     0.010 A 
ATOM     49  C   UNL A   1      36.733  33.182  31.150  1.00  0.00    -0.014 A 
BRANCH  49  50
ATOM     50  C   UNL A   1      37.906  32.542  31.800  1.00  0.00     0.031 A 
ATOM     51  C   UNL A   1      38.656  31.448  31.088  1.00  0.00     0.074 A 
ATOM     52  C   UNL A   1      38.248  32.894  33.054  1.00  0.00     0.049 A 
ATOM     53  N   UNL A   1      39.646  30.709  31.516  1.00  0.00    -0.248 NA
ATOM     54  C   UNL A   1      38.209  31.123  29.725  1.00  0.00     0.031 C 
ATOM     55  C   UNL A   1      37.565  33.909  33.862  1.00  0.00     0.029 A 
ATOM     56  N   UNL A   1      39.241  32.429  33.879  1.00  0.00    -0.354 N 
ATOM     57  C   UNL A   1      39.928  29.817  30.487  1.00  0.00     0.074 A 
ATOM     58  C   UNL A   1      38.971  30.079  29.433  1.00  0.00     0.031 C 
ATOM     59  C   UNL A   1      38.166  33.995  35.059  1.00  0.00     0.029 A 
ATOM     60  C   UNL A   1      39.249  33.018  35.122  1.00  0.00     0.049 A 
ATOM     61  H   UNL A   1      39.888  31.739  33.605  1.00  0.00     0.167 HD
ATOM     62  C   UNL A   1      40.905  28.879  30.422  1.00  0.00     0.034 A 
ATOM     63  C   UNL A   1      40.029  32.787  36.196  1.00  0.00     0.034 A 
ATOM     64  C   UNL A   1      41.868  28.651  31.472  1.00  0.00     0.049 A 
ATOM     65  C   UNL A   1      41.114  31.744  36.097  1.00  0.00     0.074 A 
ATOM     66  C   UNL A   1      42.950  27.787  31.476  1.00  0.00     0.029 A 
ATOM     67  N   UNL A   1      41.862  29.283  32.708  1.00  0.00    -0.354 N 
ATOM     68  N   UNL A   1      41.411  30.956  35.088  1.00  0.00    -0.248 NA
ATOM     69  C   UNL A   1      41.976  31.570  37.272  1.00  0.00     0.031 C 
ATOM     70  C   UNL A   1      43.558  27.850  32.736  1.00  0.00     0.029 A 
ATOM     71  C   UNL A   1      42.900  28.805  33.494  1.00  0.00     0.049 A 
ATOM     72  H   UNL A   1      41.215  29.972  32.986  1.00  0.00     0.167 HD
ATOM     73  C   UNL A   1      42.513  30.213  35.502  1.00  0.00     0.074 A 
ATOM     74  C   UNL A   1      42.835  30.658  36.842  1.00  0.00     0.031 C 
ATOM     75  C   UNL A   1      43.201  29.252  34.834  1.00  0.00     0.034 A 
BRANCH  62  76
ATOM     76  C   UNL A   1      40.961  28.013  29.187  1.00  0.00     0.023 A 
ATOM     77  C   UNL A   1      41.971  28.161  28.221  1.00  0.00     0.031 A 
ATOM     78  C   UNL A   1      39.977  27.032  28.965  1.00  0.00     0.131 A 
ATOM     79  C   UNL A   1      41.936  27.395  27.046  1.00  0.00     0.055 A 
ATOM     80  C   UNL A   1      39.991  26.219  27.830  1.00  0.00     0.041 A 
ATOM     81  F   UNL A   1      38.978  26.857  29.843  1.00  0.00    -0.206 F 
ATOM     82  C   UNL A   1      40.966  26.407  26.855  1.00  0.00     0.022 A 
BRANCH  79  83
ATOM     83  S   UNL A   1      43.096  27.797  25.713  1.00  0.00     0.124 S 
ATOM     84  O   UNL A   1      42.187  28.164  24.630  1.00  0.00    -0.237 OA
ATOM     85  O   UNL A   1      43.875  28.886  26.290  1.00  0.00    -0.237 OA
ATOM     86  O   UNL A   1      43.828  26.549  25.506  1.00  0.00    -0.744 OA
ENDBRANCH  79  83
ENDBRANCH  62  76
BRANCH  63  87
ATOM     87  C   UNL A   1      39.810  33.537  37.465  1.00  0.00     0.023 A 
ATOM     88  C   UNL A   1      39.116  32.958  38.538  1.00  0.00     0.031 A 
ATOM     89  C   UNL A   1      40.253  34.865  37.605  1.00  0.00     0.131 A 
ATOM     90  C   UNL A   1      38.841  33.718  39.685  1.00  0.00     0.055 A 
ATOM     91  C   UNL A   1      40.021  35.601  38.768  1.00  0.00     0.041 A 
ATOM     92  F   UNL A   1      40.927  35.464  36.611  1.00  0.00    -0.206 F 
ATOM     93  C   UNL A   1      39.299  35.032  39.812  1.00  0.00     0.022 A 
BRANCH  90  94
ATOM     94  S   UNL A   1      37.797  32.992  40.979  1.00  0.00     0.124 S 
ATOM     95  O   UNL A   1      36.492  32.966  40.329  1.00  0.00    -0.237 OA
ATOM     96  O   UNL A   1      38.435  31.696  41.189  1.00  0.00    -0.237 OA
ATOM     97  O   UNL A   1      37.924  33.934  42.089  1.00  0.00    -0.744 OA
ENDBRANCH  90  94
ENDBRANCH  63  87
BRANCH  75  98
ATOM     98  C   UNL A   1      44.394  28.653  35.535  1.00  0.00     0.023 A 
ATOM     99  C   UNL A   1      44.255  27.613  36.470  1.00  0.00     0.031 A 
ATOM    100  C   UNL A   1      45.685  29.142  35.272  1.00  0.00     0.131 A 
ATOM    101  C   UNL A   1      45.385  27.131  37.148  1.00  0.00     0.055 A 
ATOM    102  C   UNL A   1      46.812  28.619  35.908  1.00  0.00     0.041 A 
ATOM    103  F   UNL A   1      45.873  30.136  34.388  1.00  0.00    -0.206 F 
ATOM    104  C   UNL A   1      46.664  27.616  36.861  1.00  0.00     0.022 A 
BRANCH 101 105
ATOM    105  S   UNL A   1      45.152  25.914  38.473  1.00  0.00     0.124 S 
ATOM    106  O   UNL A   1      44.837  24.703  37.721  1.00  0.00    -0.237 OA
ATOM    107  O   UNL A   1      46.447  25.929  39.144  1.00  0.00    -0.237 OA
ATOM    108  O   UNL A   1      44.044  26.464  39.253  1.00  0.00    -0.744 OA
ENDBRANCH 101 105
ENDBRANCH  75  98
ENDBRANCH  49  50
ENDBRANCH  41  44
ENDBRANCH  39  40
ENDBRANCH  38  39
ENDBRANCH  37  38
ENDBRANCH   1  37
TORSDOF 22
ENDMDL
MODEL 3
REMARK VINA RESULT:     -12.1      5.205     11.199
REMARK SMILES COc1ccc(-c2ccc(/C=C3\SC(=S)N([C@H](Cc4ccccc4)C(=O)NCCCCCCNC(=O)c4ccc(-c5c6nc(c(-c7cc(S(=O)(=O)[O-])ccc7F)c7ccc([nH]7)c(-c7cc(S(=O)(=O)[O-])ccc7F)c7nc(c(-c8cc(S(=O)(=O)[O-])ccc8F)c8ccc5[nH]8)C=C7)C=C6)cc4)C3=O)o2)cc1
REMARK SMILES IDX 30 1 29 2 28 3 27 4 25 5 26 6 17 8 16 9 11 10 12 11 13 12
REMARK SMILES IDX 100 13 14 14 101 15 15 16 10 17 7 18 8 19 102 20 9 21 6 22
REMARK SMILES IDX 3 23 4 24 104 25 5 26 103 27 2 28 1 29 18 30 19 31 20 32
REMARK SMILES IDX 24 33 21 34 23 35 22 36 31 37 32 38 33 39 34 40 35 41 36 43
REMARK SMILES IDX 37 44 38 45 99 46 39 47 98 48 40 49 41 50 42 51 92 52 43 53
REMARK SMILES IDX 97 54 91 55 93 56 44 57 96 58 90 59 89 60 45 62 77 63 57 64
REMARK SMILES IDX 76 65 58 66 61 67 75 68 94 69 59 70 60 71 74 73 95 74 62 75
REMARK SMILES IDX 46 76 47 77 55 78 48 79 54 80 56 81 53 82 49 83 50 84 51 85
REMARK SMILES IDX 52 86 78 87 79 88 87 89 80 90 86 91 88 92 85 93 81 94 82 95
REMARK SMILES IDX 83 96 84 97 63 98 64 99 72 100 65 101 71 102 73 103 70 104
REMARK SMILES IDX 66 105 67 106 68 107 69 108
REMARK H PARENT 27 7 34 42 93 61 61 72
REMARK Flexibility Score: inf
ROOT
ATOM      1  C   UNL A   1      33.221  23.229  25.308  1.00  0.00     0.002 C 
ENDROOT
BRANCH   1   2
ATOM      2  C   UNL A   1      32.273  22.939  24.136  1.00  0.00     0.021 C 
BRANCH   2   3
ATOM      3  C   UNL A   1      31.591  24.189  23.592  1.00  0.00     0.116 C 
BRANCH   3   4
ATOM      4  N   UNL A   1      32.368  24.803  22.526  1.00  0.00    -0.354 N 
ATOM      5  C   UNL A   1      32.611  26.113  22.227  1.00  0.00     0.243 C 
ATOM      6  O   UNL A   1      33.494  26.351  21.396  1.00  0.00    -0.273 OA
ATOM      7  H   UNL A   1      32.793  24.161  21.912  1.00  0.00     0.163 HD
BRANCH   5   8
ATOM      8  C   UNL A   1      31.861  27.268  22.923  1.00  0.00     0.185 C 
BRANCH   8   9
ATOM      9  N   UNL A   1      32.242  27.603  24.332  1.00  0.00    -0.280 N 
ATOM     10  C   UNL A   1      34.477  29.804  26.078  1.00  0.00     0.068 C 
ATOM     11  C   UNL A   1      33.563  28.858  25.836  1.00  0.00     0.084 C 
ATOM     12  S   UNL A   1      32.365  28.207  26.857  1.00  0.00    -0.054 SA
ATOM     13  C   UNL A   1      33.462  28.228  24.503  1.00  0.00     0.267 C 
ATOM     14  C   UNL A   1      31.622  27.293  25.530  1.00  0.00     0.149 C 
ATOM     15  O   UNL A   1      34.411  28.195  23.723  1.00  0.00    -0.268 OA
ATOM     16  S   UNL A   1      30.430  26.192  25.908  1.00  0.00    -0.052 S 
BRANCH  10  17
ATOM     17  C   UNL A   1      34.748  30.334  27.365  1.00  0.00     0.128 A 
ATOM     18  C   UNL A   1      34.780  31.770  29.057  1.00  0.00     0.134 A 
ATOM     19  C   UNL A   1      35.733  30.820  29.343  1.00  0.00     0.051 A 
ATOM     20  O   UNL A   1      34.178  31.486  27.867  1.00  0.00    -0.457 OA
ATOM     21  C   UNL A   1      35.693  29.892  28.283  1.00  0.00     0.051 A 
BRANCH  18  22
ATOM     22  C   UNL A   1      34.381  32.985  29.742  1.00  0.00     0.017 A 
ATOM     23  C   UNL A   1      33.396  35.213  31.158  1.00  0.00     0.118 A 
ATOM     24  C   UNL A   1      33.266  35.137  29.768  1.00  0.00     0.047 A 
ATOM     25  C   UNL A   1      34.033  34.177  31.840  1.00  0.00     0.047 A 
ATOM     26  C   UNL A   1      33.768  34.037  29.059  1.00  0.00     0.016 A 
ATOM     27  C   UNL A   1      34.517  33.068  31.135  1.00  0.00     0.016 A 
BRANCH  23  28
ATOM     28  O   UNL A   1      32.832  36.316  31.734  1.00  0.00    -0.497 OA
ATOM     29  C   UNL A   1      33.423  37.572  31.427  1.00  0.00     0.278 C 
ENDBRANCH  23  28
ENDBRANCH  18  22
ENDBRANCH  10  17
ENDBRANCH   8   9
BRANCH   8  30
ATOM     30  C   UNL A   1      30.325  27.156  22.648  1.00  0.00     0.071 C 
BRANCH  30  31
ATOM     31  C   UNL A   1      29.492  28.420  22.633  1.00  0.00    -0.045 A 
ATOM     32  C   UNL A   1      30.044  29.623  22.168  1.00  0.00     0.004 A 
ATOM     33  C   UNL A   1      28.183  28.432  23.132  1.00  0.00     0.004 A 
ATOM     34  C   UNL A   1      29.285  30.794  22.135  1.00  0.00     0.000 A 
ATOM     35  C   UNL A   1      27.437  29.616  23.138  1.00  0.00     0.000 A 
ATOM     36  C   UNL A   1      27.983  30.790  22.624  1.00  0.00     0.000 A 
ENDBRANCH  30  31
ENDBRANCH   8  30
ENDBRANCH   5   8
ENDBRANCH   3   4
ENDBRANCH   2   3
ENDBRANCH   1   2
BRANCH   1  37
ATOM     37  C   UNL A   1      34.521  23.952  24.932  1.00  0.00     0.002 C 
BRANCH  37  38
ATOM     38  C   UNL A   1      35.778  23.076  24.924  1.00  0.00     0.021 C 
BRANCH  38  39
ATOM     39  C   UNL A   1      36.651  23.202  26.168  1.00  0.00     0.116 C 
BRANCH  39  40
ATOM     40  N   UNL A   1      37.607  22.113  26.277  1.00  0.00    -0.352 N 
ATOM     41  C   UNL A   1      38.968  22.170  26.445  1.00  0.00     0.251 C 
ATOM     42  H   UNL A   1      37.225  21.208  26.223  1.00  0.00     0.163 HD
ATOM     43  O   UNL A   1      39.639  21.149  26.331  1.00  0.00    -0.269 OA
BRANCH  41  44
ATOM     44  C   UNL A   1      39.619  23.465  26.737  1.00  0.00     0.039 A 
ATOM     45  C   UNL A   1      40.519  23.542  27.803  1.00  0.00     0.014 A 
ATOM     46  C   UNL A   1      39.339  24.599  25.968  1.00  0.00     0.014 A 
ATOM     47  C   UNL A   1      41.181  24.744  28.064  1.00  0.00     0.010 A 
ATOM     48  C   UNL A   1      40.044  25.779  26.192  1.00  0.00     0.010 A 
ATOM     49  C   UNL A   1      40.971  25.864  27.244  1.00  0.00    -0.014 A 
BRANCH  49  50
ATOM     50  C   UNL A   1      41.709  27.133  27.471  1.00  0.00     0.031 A 
ATOM     51  C   UNL A   1      43.091  27.312  26.900  1.00  0.00     0.074 A 
ATOM     52  C   UNL A   1      41.167  28.090  28.248  1.00  0.00     0.049 A 
ATOM     53  N   UNL A   1      43.929  28.304  27.056  1.00  0.00    -0.248 NA
ATOM     54  C   UNL A   1      43.607  26.213  26.070  1.00  0.00     0.031 C 
ATOM     55  C   UNL A   1      39.854  28.009  28.894  1.00  0.00     0.029 A 
ATOM     56  N   UNL A   1      41.655  29.310  28.643  1.00  0.00    -0.354 N 
ATOM     57  C   UNL A   1      45.079  27.942  26.364  1.00  0.00     0.074 A 
ATOM     58  C   UNL A   1      44.845  26.617  25.827  1.00  0.00     0.031 C 
ATOM     59  C   UNL A   1      39.638  29.133  29.596  1.00  0.00     0.029 A 
ATOM     60  C   UNL A   1      40.809  29.998  29.484  1.00  0.00     0.049 A 
ATOM     61  H   UNL A   1      42.527  29.660  28.352  1.00  0.00     0.167 HD
ATOM     62  C   UNL A   1      46.218  28.655  26.180  1.00  0.00     0.034 A 
ATOM     63  C   UNL A   1      40.967  31.183  30.106  1.00  0.00     0.034 A 
ATOM     64  C   UNL A   1      46.423  29.986  26.700  1.00  0.00     0.049 A 
ATOM     65  C   UNL A   1      42.238  31.961  29.879  1.00  0.00     0.074 A 
ATOM     66  C   UNL A   1      47.501  30.831  26.503  1.00  0.00     0.029 A 
ATOM     67  N   UNL A   1      45.535  30.662  27.526  1.00  0.00    -0.354 N 
ATOM     68  N   UNL A   1      43.290  31.633  29.164  1.00  0.00    -0.248 NA
ATOM     69  C   UNL A   1      42.337  33.273  30.531  1.00  0.00     0.031 C 
ATOM     70  C   UNL A   1      47.294  31.990  27.260  1.00  0.00     0.029 A 
ATOM     71  C   UNL A   1      46.055  31.900  27.874  1.00  0.00     0.049 A 
ATOM     72  H   UNL A   1      44.662  30.314  27.822  1.00  0.00     0.167 HD
ATOM     73  C   UNL A   1      44.163  32.712  29.259  1.00  0.00     0.074 A 
ATOM     74  C   UNL A   1      43.508  33.705  30.087  1.00  0.00     0.031 C 
ATOM     75  C   UNL A   1      45.394  32.873  28.710  1.00  0.00     0.034 A 
BRANCH  62  76
ATOM     76  C   UNL A   1      47.337  27.998  25.409  1.00  0.00     0.023 A 
ATOM     77  C   UNL A   1      47.481  28.166  24.021  1.00  0.00     0.031 A 
ATOM     78  C   UNL A   1      48.266  27.176  26.072  1.00  0.00     0.131 A 
ATOM     79  C   UNL A   1      48.483  27.468  23.330  1.00  0.00     0.055 A 
ATOM     80  C   UNL A   1      49.309  26.546  25.390  1.00  0.00     0.041 A 
ATOM     81  F   UNL A   1      48.169  26.963  27.393  1.00  0.00    -0.206 F 
ATOM     82  C   UNL A   1      49.414  26.678  24.009  1.00  0.00     0.022 A 
BRANCH  79  83
ATOM     83  S   UNL A   1      48.472  27.503  21.517  1.00  0.00     0.124 S 
ATOM     84  O   UNL A   1      49.619  28.362  21.232  1.00  0.00    -0.237 OA
ATOM     85  O   UNL A   1      48.628  26.094  21.174  1.00  0.00    -0.237 OA
ATOM     86  O   UNL A   1      47.171  28.083  21.193  1.00  0.00    -0.744 OA
ENDBRANCH  79  83
ENDBRANCH  62  76
BRANCH  63  87
ATOM     87  C   UNL A   1      39.908  31.705  31.016  1.00  0.00     0.023 A 
ATOM     88  C   UNL A   1      39.878  31.347  32.373  1.00  0.00     0.031 A 
ATOM     89  C   UNL A   1      38.880  32.533  30.529  1.00  0.00     0.131 A 
ATOM     90  C   UNL A   1      38.818  31.776  33.186  1.00  0.00     0.055 A 
ATOM     91  C   UNL A   1      37.855  32.998  31.355  1.00  0.00     0.041 A 
ATOM     92  F   UNL A   1      38.865  32.909  29.241  1.00  0.00    -0.206 F 
ATOM     93  C   UNL A   1      37.812  32.608  32.689  1.00  0.00     0.022 A 
BRANCH  90  94
ATOM     94  S   UNL A   1      38.724  31.156  34.889  1.00  0.00     0.124 S 
ATOM     95  O   UNL A   1      38.691  29.713  34.679  1.00  0.00    -0.237 OA
ATOM     96  O   UNL A   1      39.951  31.691  35.472  1.00  0.00    -0.237 OA
ATOM     97  O   UNL A   1      37.487  31.742  35.397  1.00  0.00    -0.744 OA
ENDBRANCH  90  94
ENDBRANCH  63  87
BRANCH  75  98
ATOM     98  C   UNL A   1      46.086  34.190  28.957  1.00  0.00     0.023 A 
ATOM     99  C   UNL A   1      45.924  35.283  28.088  1.00  0.00     0.031 A 
ATOM    100  C   UNL A   1      46.927  34.347  30.072  1.00  0.00     0.131 A 
ATOM    101  C   UNL A   1      46.639  36.468  28.319  1.00  0.00     0.055 A 
ATOM    102  C   UNL A   1      47.591  35.548  30.328  1.00  0.00     0.041 A 
ATOM    103  F   UNL A   1      47.117  33.334  30.933  1.00  0.00    -0.206 F 
ATOM    104  C   UNL A   1      47.458  36.613  29.442  1.00  0.00     0.022 A 
BRANCH 101 105
ATOM    105  S   UNL A   1      46.547  37.794  27.085  1.00  0.00     0.124 S 
ATOM    106  O   UNL A   1      47.532  38.746  27.589  1.00  0.00    -0.237 OA
ATOM    107  O   UNL A   1      46.904  37.101  25.852  1.00  0.00    -0.237 OA
ATOM    108  O   UNL A   1      45.157  38.241  27.164  1.00  0.00    -0.744 OA
ENDBRANCH 101 105
ENDBRANCH  75  98
ENDBRANCH  49  50
ENDBRANCH  41  44
ENDBRANCH  39  40
ENDBRANCH  38  39
ENDBRANCH  37  38
ENDBRANCH   1  37
TORSDOF 22
ENDMDL
