MODEL 1
REMARK VINA RESULT:     -11.6      0.000      0.000
REMARK SMILES CCOc1ccc(-c2nc(C(=O)NCCCCCCNC(=O)c3ccc(-c4c5nc(c(-c6cc(S(=O)(=O)[O-])ccc6F)c6ccc([nH]6)c(-c6cc(S(=O)(=O)[O-])ccc6F)c6nc(c(-c7cc(S(=O)(=O)[O-])ccc7F)c7ccc4[nH]7)C=C6)C=C5)cc3)cc(=O)[nH]2)cc1
REMARK SMILES IDX 16 1 15 2 14 3 13 4 11 5 12 6 10 8 8 9 9 10 89 11 87 12
REMARK SMILES IDX 86 14 88 15 7 16 4 17 5 18 91 19 6 20 90 21 3 22 2 23 1 24
REMARK SMILES IDX 17 25 18 26 19 27 20 28 21 29 22 31 23 32 24 33 85 34 25 35
REMARK SMILES IDX 84 36 26 37 27 38 28 39 78 40 29 41 83 42 77 43 79 44 30 45
REMARK SMILES IDX 82 46 76 47 75 48 31 50 63 51 43 52 62 53 44 54 47 55 61 56
REMARK SMILES IDX 80 57 45 58 46 59 60 61 81 62 48 63 32 64 33 65 41 66 34 67
REMARK SMILES IDX 40 68 42 69 39 70 35 71 36 72 37 73 38 74 64 75 65 76 73 77
REMARK SMILES IDX 66 78 72 79 74 80 71 81 67 82 68 83 69 84 70 85 49 86 50 87
REMARK SMILES IDX 58 88 51 89 57 90 59 91 56 92 52 93 53 94 54 95 55 96
REMARK H PARENT 13 7 89 13 20 30 79 49 47 60
REMARK Flexibility Score: inf
ROOT
ATOM      1  C   UNL A   1      33.252  22.003  27.556  1.00  0.00     0.002 C 
ENDROOT
BRANCH   1   2
ATOM      2  C   UNL A   1      32.104  22.955  27.223  1.00  0.00     0.021 C 
BRANCH   2   3
ATOM      3  C   UNL A   1      31.224  22.565  26.042  1.00  0.00     0.116 C 
BRANCH   3   4
ATOM      4  N   UNL A   1      31.935  22.522  24.779  1.00  0.00    -0.351 N 
ATOM      5  C   UNL A   1      32.504  23.495  24.009  1.00  0.00     0.270 C 
ATOM      6  O   UNL A   1      33.032  23.130  22.954  1.00  0.00    -0.268 OA
ATOM      7  H   UNL A   1      32.024  21.616  24.404  1.00  0.00     0.163 HD
BRANCH   5   8
ATOM      8  C   UNL A   1      32.465  24.969  24.373  1.00  0.00     0.136 A 
ATOM      9  C   UNL A   1      31.423  26.983  24.024  1.00  0.00     0.141 A 
ATOM     10  N   UNL A   1      31.415  25.702  23.846  1.00  0.00    -0.225 NA
ATOM     11  N   UNL A   1      32.335  27.616  24.823  1.00  0.00    -0.306 N 
ATOM     12  C   UNL A   1      33.363  26.948  25.407  1.00  0.00     0.251 A 
ATOM     13  H   UNL A   1      32.244  28.584  24.980  1.00  0.00     0.171 HD
ATOM     14  C   UNL A   1      33.484  25.538  25.030  1.00  0.00     0.105 A 
ATOM     15  O   UNL A   1      34.142  27.473  26.185  1.00  0.00    -0.269 OA
BRANCH   9  16
ATOM     16  C   UNL A   1      30.448  27.861  23.342  1.00  0.00     0.018 A 
ATOM     17  C   UNL A   1      28.599  29.582  22.172  1.00  0.00     0.119 A 
ATOM     18  C   UNL A   1      28.147  28.481  22.896  1.00  0.00     0.047 A 
ATOM     19  C   UNL A   1      29.964  29.855  22.074  1.00  0.00     0.047 A 
ATOM     20  C   UNL A   1      29.073  27.615  23.480  1.00  0.00     0.016 A 
ATOM     21  C   UNL A   1      30.893  28.991  22.655  1.00  0.00     0.016 A 
BRANCH  17  22
ATOM     22  O   UNL A   1      27.672  30.452  21.672  1.00  0.00    -0.494 OA
BRANCH  22  23
ATOM     23  C   UNL A   1      28.271  31.609  21.077  1.00  0.00     0.226 C 
ATOM     24  C   UNL A   1      28.374  32.753  22.073  1.00  0.00     0.049 C 
ENDBRANCH  22  23
ENDBRANCH  17  22
ENDBRANCH   9  16
ENDBRANCH   5   8
ENDBRANCH   3   4
ENDBRANCH   2   3
ENDBRANCH   1   2
BRANCH   1  25
ATOM     25  C   UNL A   1      34.632  22.396  27.024  1.00  0.00     0.002 C 
BRANCH  25  26
ATOM     26  C   UNL A   1      35.244  21.465  25.973  1.00  0.00     0.021 C 
BRANCH  26  27
ATOM     27  C   UNL A   1      36.621  21.867  25.452  1.00  0.00     0.116 C 
BRANCH  27  28
ATOM     28  N   UNL A   1      37.619  20.841  25.687  1.00  0.00    -0.352 N 
ATOM     29  C   UNL A   1      38.937  20.960  26.046  1.00  0.00     0.251 C 
ATOM     30  H   UNL A   1      37.301  19.917  25.570  1.00  0.00     0.163 HD
ATOM     31  O   UNL A   1      39.658  19.967  25.993  1.00  0.00    -0.269 OA
BRANCH  29  32
ATOM     32  C   UNL A   1      39.497  22.264  26.474  1.00  0.00     0.039 A 
ATOM     33  C   UNL A   1      40.518  22.263  27.429  1.00  0.00     0.014 A 
ATOM     34  C   UNL A   1      39.006  23.480  25.987  1.00  0.00     0.014 A 
ATOM     35  C   UNL A   1      41.069  23.471  27.859  1.00  0.00     0.010 A 
ATOM     36  C   UNL A   1      39.612  24.682  26.360  1.00  0.00     0.010 A 
ATOM     37  C   UNL A   1      40.646  24.692  27.306  1.00  0.00    -0.014 A 
BRANCH  37  38
ATOM     38  C   UNL A   1      41.295  25.967  27.721  1.00  0.00     0.031 A 
ATOM     39  C   UNL A   1      42.711  26.279  27.314  1.00  0.00     0.074 A 
ATOM     40  C   UNL A   1      40.593  26.850  28.462  1.00  0.00     0.049 A 
ATOM     41  N   UNL A   1      43.420  27.354  27.553  1.00  0.00    -0.248 NA
ATOM     42  C   UNL A   1      43.431  25.245  26.555  1.00  0.00     0.031 C 
ATOM     43  C   UNL A   1      39.230  26.641  28.953  1.00  0.00     0.029 A 
ATOM     44  N   UNL A   1      40.918  28.103  28.919  1.00  0.00    -0.354 N 
ATOM     45  C   UNL A   1      44.660  27.133  26.960  1.00  0.00     0.074 A 
ATOM     46  C   UNL A   1      44.631  25.791  26.420  1.00  0.00     0.031 C 
ATOM     47  C   UNL A   1      38.819  27.743  29.601  1.00  0.00     0.029 A 
ATOM     48  C   UNL A   1      39.902  28.719  29.616  1.00  0.00     0.049 A 
ATOM     49  H   UNL A   1      41.795  28.522  28.763  1.00  0.00     0.167 HD
ATOM     50  C   UNL A   1      45.711  27.983  26.848  1.00  0.00     0.034 A 
ATOM     51  C   UNL A   1      39.851  29.932  30.203  1.00  0.00     0.034 A 
ATOM     52  C   UNL A   1      45.730  29.318  27.395  1.00  0.00     0.049 A 
ATOM     53  C   UNL A   1      41.055  30.837  30.097  1.00  0.00     0.074 A 
ATOM     54  C   UNL A   1      46.740  30.264  27.327  1.00  0.00     0.029 A 
ATOM     55  N   UNL A   1      44.693  29.901  28.112  1.00  0.00    -0.354 N 
ATOM     56  N   UNL A   1      42.200  30.626  29.488  1.00  0.00    -0.248 NA
ATOM     57  C   UNL A   1      40.951  32.153  30.740  1.00  0.00     0.031 C 
ATOM     58  C   UNL A   1      46.341  31.388  28.057  1.00  0.00     0.029 A 
ATOM     59  C   UNL A   1      45.049  31.181  28.510  1.00  0.00     0.049 A 
ATOM     60  H   UNL A   1      43.832  29.468  28.309  1.00  0.00     0.167 HD
ATOM     61  C   UNL A   1      42.934  31.799  29.647  1.00  0.00     0.074 A 
ATOM     62  C   UNL A   1      42.087  32.721  30.372  1.00  0.00     0.031 C 
ATOM     63  C   UNL A   1      44.197  32.089  29.239  1.00  0.00     0.034 A 
BRANCH  50  64
ATOM     64  C   UNL A   1      46.930  27.491  26.103  1.00  0.00     0.023 A 
ATOM     65  C   UNL A   1      47.175  27.869  24.770  1.00  0.00     0.031 A 
ATOM     66  C   UNL A   1      47.869  26.655  26.732  1.00  0.00     0.131 A 
ATOM     67  C   UNL A   1      48.299  27.371  24.095  1.00  0.00     0.055 A 
ATOM     68  C   UNL A   1      49.025  26.223  26.079  1.00  0.00     0.041 A 
ATOM     69  F   UNL A   1      47.679  26.243  27.995  1.00  0.00    -0.206 F 
ATOM     70  C   UNL A   1      49.241  26.574  24.749  1.00  0.00     0.022 A 
BRANCH  67  71
ATOM     71  S   UNL A   1      48.455  27.690  22.317  1.00  0.00     0.124 S 
ATOM     72  O   UNL A   1      47.196  28.373  22.029  1.00  0.00    -0.237 OA
ATOM     73  O   UNL A   1      49.657  28.513  22.247  1.00  0.00    -0.237 OA
ATOM     74  O   UNL A   1      48.578  26.354  21.738  1.00  0.00    -0.744 OA
ENDBRANCH  67  71
ENDBRANCH  50  64
BRANCH  51  75
ATOM     75  C   UNL A   1      38.638  30.372  30.957  1.00  0.00     0.023 A 
ATOM     76  C   UNL A   1      37.550  30.967  30.298  1.00  0.00     0.031 A 
ATOM     77  C   UNL A   1      38.591  30.298  32.361  1.00  0.00     0.131 A 
ATOM     78  C   UNL A   1      36.509  31.541  31.042  1.00  0.00     0.055 A 
ATOM     79  C   UNL A   1      37.514  30.799  33.093  1.00  0.00     0.041 A 
ATOM     80  F   UNL A   1      39.602  29.739  33.048  1.00  0.00    -0.206 F 
ATOM     81  C   UNL A   1      36.475  31.448  32.435  1.00  0.00     0.022 A 
BRANCH  78  82
ATOM     82  S   UNL A   1      35.278  32.551  30.171  1.00  0.00     0.124 S 
ATOM     83  O   UNL A   1      36.079  33.694  29.749  1.00  0.00    -0.237 OA
ATOM     84  O   UNL A   1      34.841  31.647  29.113  1.00  0.00    -0.237 OA
ATOM     85  O   UNL A   1      34.280  32.832  31.201  1.00  0.00    -0.744 OA
ENDBRANCH  78  82
ENDBRANCH  51  75
BRANCH  63  86
ATOM     86  C   UNL A   1      44.704  33.481  29.537  1.00  0.00     0.023 A 
ATOM     87  C   UNL A   1      44.533  34.539  28.627  1.00  0.00     0.031 A 
ATOM     88  C   UNL A   1      45.414  33.740  30.723  1.00  0.00     0.131 A 
ATOM     89  C   UNL A   1      45.145  35.778  28.871  1.00  0.00     0.055 A 
ATOM     90  C   UNL A   1      45.951  34.999  30.997  1.00  0.00     0.041 A 
ATOM     91  F   UNL A   1      45.610  32.770  31.630  1.00  0.00    -0.206 F 
ATOM     92  C   UNL A   1      45.836  36.020  30.059  1.00  0.00     0.022 A 
BRANCH  89  93
ATOM     93  S   UNL A   1      45.143  37.019  27.548  1.00  0.00     0.124 S 
ATOM     94  O   UNL A   1      45.634  38.203  28.242  1.00  0.00    -0.237 OA
ATOM     95  O   UNL A   1      46.051  36.432  26.569  1.00  0.00    -0.237 OA
ATOM     96  O   UNL A   1      43.741  37.077  27.136  1.00  0.00    -0.744 OA
ENDBRANCH  89  93
ENDBRANCH  63  86
ENDBRANCH  37  38
ENDBRANCH  29  32
ENDBRANCH  27  28
ENDBRANCH  26  27
ENDBRANCH  25  26
ENDBRANCH   1  25
TORSDOF 19
ENDMDL
MODEL 2
REMARK VINA RESULT:     -11.3      1.739      2.450
REMARK SMILES CCOc1ccc(-c2nc(C(=O)NCCCCCCNC(=O)c3ccc(-c4c5nc(c(-c6cc(S(=O)(=O)[O-])ccc6F)c6ccc([nH]6)c(-c6cc(S(=O)(=O)[O-])ccc6F)c6nc(c(-c7cc(S(=O)(=O)[O-])ccc7F)c7ccc4[nH]7)C=C6)C=C5)cc3)cc(=O)[nH]2)cc1
REMARK SMILES IDX 16 1 15 2 14 3 13 4 11 5 12 6 10 8 8 9 9 10 89 11 87 12
REMARK SMILES IDX 86 14 88 15 7 16 4 17 5 18 91 19 6 20 90 21 3 22 2 23 1 24
REMARK SMILES IDX 17 25 18 26 19 27 20 28 21 29 22 31 23 32 24 33 85 34 25 35
REMARK SMILES IDX 84 36 26 37 27 38 28 39 78 40 29 41 83 42 77 43 79 44 30 45
REMARK SMILES IDX 82 46 76 47 75 48 31 50 63 51 43 52 62 53 44 54 47 55 61 56
REMARK SMILES IDX 80 57 45 58 46 59 60 61 81 62 48 63 32 64 33 65 41 66 34 67
REMARK SMILES IDX 40 68 42 69 39 70 35 71 36 72 37 73 38 74 64 75 65 76 73 77
REMARK SMILES IDX 66 78 72 79 74 80 71 81 67 82 68 83 69 84 70 85 49 86 50 87
REMARK SMILES IDX 58 88 51 89 57 90 59 91 56 92 52 93 53 94 54 95 55 96
REMARK H PARENT 13 7 89 13 20 30 79 49 47 60
REMARK Flexibility Score: inf
ROOT
ATOM      1  C   UNL A   1      36.956  22.333  25.374  1.00  0.00     0.002 C 
ENDROOT
BRANCH   1   2
ATOM      2  C   UNL A   1      36.412  23.706  25.768  1.00  0.00     0.021 C 
BRANCH   2   3
ATOM      3  C   UNL A   1      35.005  24.039  25.289  1.00  0.00     0.116 C 
BRANCH   3   4
ATOM      4  N   UNL A   1      34.429  23.022  24.430  1.00  0.00    -0.351 N 
ATOM      5  C   UNL A   1      33.139  22.666  24.163  1.00  0.00     0.270 C 
ATOM      6  O   UNL A   1      32.974  21.725  23.380  1.00  0.00    -0.268 OA
ATOM      7  H   UNL A   1      35.098  22.486  23.947  1.00  0.00     0.163 HD
BRANCH   5   8
ATOM      8  C   UNL A   1      31.942  23.334  24.816  1.00  0.00     0.136 A 
ATOM      9  C   UNL A   1      30.476  25.098  24.738  1.00  0.00     0.141 A 
ATOM     10  N   UNL A   1      31.408  24.423  24.147  1.00  0.00    -0.225 NA
ATOM     11  N   UNL A   1      29.904  24.700  25.914  1.00  0.00    -0.306 N 
ATOM     12  C   UNL A   1      30.350  23.615  26.598  1.00  0.00     0.251 A 
ATOM     13  H   UNL A   1      29.146  25.215  26.276  1.00  0.00     0.171 HD
ATOM     14  C   UNL A   1      31.547  22.978  26.045  1.00  0.00     0.105 A 
ATOM     15  O   UNL A   1      29.807  23.195  27.607  1.00  0.00    -0.269 OA
BRANCH   9  16
ATOM     16  C   UNL A   1      29.982  26.376  24.183  1.00  0.00     0.018 A 
ATOM     17  C   UNL A   1      29.081  28.738  23.017  1.00  0.00     0.119 A 
ATOM     18  C   UNL A   1      30.437  28.586  23.297  1.00  0.00     0.047 A 
ATOM     19  C   UNL A   1      28.184  27.699  23.269  1.00  0.00     0.047 A 
ATOM     20  C   UNL A   1      30.890  27.404  23.885  1.00  0.00     0.016 A 
ATOM     21  C   UNL A   1      28.632  26.516  23.858  1.00  0.00     0.016 A 
BRANCH  17  22
ATOM     22  O   UNL A   1      28.676  29.875  22.377  1.00  0.00    -0.494 OA
BRANCH  22  23
ATOM     23  C   UNL A   1      27.896  30.731  23.220  1.00  0.00     0.226 C 
ATOM     24  C   UNL A   1      28.729  31.878  23.769  1.00  0.00     0.049 C 
ENDBRANCH  22  23
ENDBRANCH  17  22
ENDBRANCH   9  16
ENDBRANCH   5   8
ENDBRANCH   3   4
ENDBRANCH   2   3
ENDBRANCH   1   2
BRANCH   1  25
ATOM     25  C   UNL A   1      38.420  22.059  25.724  1.00  0.00     0.002 C 
BRANCH  25  26
ATOM     26  C   UNL A   1      38.950  20.665  25.377  1.00  0.00     0.021 C 
BRANCH  26  27
ATOM     27  C   UNL A   1      39.655  19.923  26.509  1.00  0.00     0.116 C 
BRANCH  27  28
ATOM     28  N   UNL A   1      40.937  19.384  26.099  1.00  0.00    -0.352 N 
ATOM     29  C   UNL A   1      42.140  20.015  25.914  1.00  0.00     0.251 C 
ATOM     30  H   UNL A   1      40.945  18.415  25.928  1.00  0.00     0.163 HD
ATOM     31  O   UNL A   1      43.054  19.404  25.366  1.00  0.00    -0.269 OA
BRANCH  29  32
ATOM     32  C   UNL A   1      42.340  21.420  26.344  1.00  0.00     0.039 A 
ATOM     33  C   UNL A   1      42.505  21.676  27.708  1.00  0.00     0.014 A 
ATOM     34  C   UNL A   1      42.321  22.485  25.437  1.00  0.00     0.014 A 
ATOM     35  C   UNL A   1      42.692  22.986  28.153  1.00  0.00     0.010 A 
ATOM     36  C   UNL A   1      42.587  23.785  25.875  1.00  0.00     0.010 A 
ATOM     37  C   UNL A   1      42.768  24.051  27.239  1.00  0.00    -0.014 A 
BRANCH  37  38
ATOM     38  C   UNL A   1      43.042  25.434  27.722  1.00  0.00     0.031 A 
ATOM     39  C   UNL A   1      44.430  26.013  27.651  1.00  0.00     0.074 A 
ATOM     40  C   UNL A   1      42.025  26.170  28.217  1.00  0.00     0.049 A 
ATOM     41  N   UNL A   1      44.843  27.209  27.991  1.00  0.00    -0.248 NA
ATOM     42  C   UNL A   1      45.498  25.133  27.153  1.00  0.00     0.031 C 
ATOM     43  C   UNL A   1      40.646  25.702  28.375  1.00  0.00     0.029 A 
ATOM     44  N   UNL A   1      41.985  27.467  28.663  1.00  0.00    -0.354 N 
ATOM     45  C   UNL A   1      46.210  27.230  27.730  1.00  0.00     0.074 A 
ATOM     46  C   UNL A   1      46.569  25.903  27.280  1.00  0.00     0.031 C 
ATOM     47  C   UNL A   1      39.888  26.709  28.837  1.00  0.00     0.029 A 
ATOM     48  C   UNL A   1      40.730  27.880  29.056  1.00  0.00     0.049 A 
ATOM     49  H   UNL A   1      42.778  28.049  28.700  1.00  0.00     0.167 HD
ATOM     50  C   UNL A   1      47.078  28.268  27.825  1.00  0.00     0.034 A 
ATOM     51  C   UNL A   1      40.308  29.065  29.540  1.00  0.00     0.034 A 
ATOM     52  C   UNL A   1      46.709  29.587  28.280  1.00  0.00     0.049 A 
ATOM     53  C   UNL A   1      41.309  30.188  29.674  1.00  0.00     0.074 A 
ATOM     54  C   UNL A   1      47.508  30.712  28.402  1.00  0.00     0.029 A 
ATOM     55  N   UNL A   1      45.435  29.963  28.688  1.00  0.00    -0.354 N 
ATOM     56  N   UNL A   1      42.587  30.199  29.374  1.00  0.00    -0.248 NA
ATOM     57  C   UNL A   1      40.802  31.465  30.193  1.00  0.00     0.031 C 
ATOM     58  C   UNL A   1      46.736  31.745  28.945  1.00  0.00     0.029 A 
ATOM     59  C   UNL A   1      45.434  31.292  29.083  1.00  0.00     0.049 A 
ATOM     60  H   UNL A   1      44.649  29.371  28.697  1.00  0.00     0.167 HD
ATOM     61  C   UNL A   1      43.025  31.496  29.635  1.00  0.00     0.074 A 
ATOM     62  C   UNL A   1      41.867  32.241  30.078  1.00  0.00     0.031 C 
ATOM     63  C   UNL A   1      44.272  32.023  29.529  1.00  0.00     0.034 A 
BRANCH  50  64
ATOM     64  C   UNL A   1      48.513  28.018  27.427  1.00  0.00     0.023 A 
ATOM     65  C   UNL A   1      48.947  28.193  26.101  1.00  0.00     0.031 A 
ATOM     66  C   UNL A   1      49.465  27.621  28.384  1.00  0.00     0.131 A 
ATOM     67  C   UNL A   1      50.279  27.922  25.757  1.00  0.00     0.055 A 
ATOM     68  C   UNL A   1      50.807  27.425  28.049  1.00  0.00     0.041 A 
ATOM     69  F   UNL A   1      49.107  27.416  29.661  1.00  0.00    -0.206 F 
ATOM     70  C   UNL A   1      51.219  27.567  26.727  1.00  0.00     0.022 A 
BRANCH  67  71
ATOM     71  S   UNL A   1      50.742  27.933  24.004  1.00  0.00     0.124 S 
ATOM     72  O   UNL A   1      49.436  27.856  23.355  1.00  0.00    -0.237 OA
ATOM     73  O   UNL A   1      51.447  29.203  23.871  1.00  0.00    -0.237 OA
ATOM     74  O   UNL A   1      51.573  26.739  23.861  1.00  0.00    -0.744 OA
ENDBRANCH  67  71
ENDBRANCH  50  64
BRANCH  51  75
ATOM     75  C   UNL A   1      38.886  29.267  29.950  1.00  0.00     0.023 A 
ATOM     76  C   UNL A   1      37.981  29.949  29.121  1.00  0.00     0.031 A 
ATOM     77  C   UNL A   1      38.435  28.869  31.221  1.00  0.00     0.131 A 
ATOM     78  C   UNL A   1      36.708  30.291  29.604  1.00  0.00     0.055 A 
ATOM     79  C   UNL A   1      37.141  29.141  31.667  1.00  0.00     0.041 A 
ATOM     80  F   UNL A   1      39.253  28.211  32.059  1.00  0.00    -0.206 F 
ATOM     81  C   UNL A   1      36.276  29.879  30.865  1.00  0.00     0.022 A 
BRANCH  78  82
ATOM     82  S   UNL A   1      35.685  31.421  28.618  1.00  0.00     0.124 S 
ATOM     83  O   UNL A   1      34.787  31.965  29.630  1.00  0.00    -0.237 OA
ATOM     84  O   UNL A   1      36.681  32.341  28.081  1.00  0.00    -0.237 OA
ATOM     85  O   UNL A   1      35.058  30.539  27.635  1.00  0.00    -0.744 OA
ENDBRANCH  78  82
ENDBRANCH  51  75
BRANCH  63  86
ATOM     86  C   UNL A   1      44.419  33.491  29.857  1.00  0.00     0.023 A 
ATOM     87  C   UNL A   1      44.377  34.478  28.857  1.00  0.00     0.031 A 
ATOM     88  C   UNL A   1      44.657  33.903  31.180  1.00  0.00     0.131 A 
ATOM     89  C   UNL A   1      44.663  35.814  29.179  1.00  0.00     0.055 A 
ATOM     90  C   UNL A   1      44.861  35.245  31.507  1.00  0.00     0.041 A 
ATOM     91  F   UNL A   1      44.709  33.007  32.179  1.00  0.00    -0.206 F 
ATOM     92  C   UNL A   1      44.886  36.206  30.500  1.00  0.00     0.022 A 
BRANCH  89  93
ATOM     93  S   UNL A   1      44.881  37.002  27.826  1.00  0.00     0.124 S 
ATOM     94  O   UNL A   1      45.607  36.210  26.840  1.00  0.00    -0.237 OA
ATOM     95  O   UNL A   1      43.503  37.339  27.483  1.00  0.00    -0.237 OA
ATOM     96  O   UNL A   1      45.648  38.083  28.442  1.00  0.00    -0.744 OA
ENDBRANCH  89  93
ENDBRANCH  63  86
ENDBRANCH  37  38
ENDBRANCH  29  32
ENDBRANCH  27  28
ENDBRANCH  26  27
ENDBRANCH  25  26
ENDBRANCH   1  25
TORSDOF 19
ENDMDL
MODEL 3
REMARK VINA RESULT:     -10.8      5.257     12.937
REMARK SMILES CCOc1ccc(-c2nc(C(=O)NCCCCCCNC(=O)c3ccc(-c4c5nc(c(-c6cc(S(=O)(=O)[O-])ccc6F)c6ccc([nH]6)c(-c6cc(S(=O)(=O)[O-])ccc6F)c6nc(c(-c7cc(S(=O)(=O)[O-])ccc7F)c7ccc4[nH]7)C=C6)C=C5)cc3)cc(=O)[nH]2)cc1
REMARK SMILES IDX 16 1 15 2 14 3 13 4 11 5 12 6 10 8 8 9 9 10 89 11 87 12
REMARK SMILES IDX 86 14 88 15 7 16 4 17 5 18 91 19 6 20 90 21 3 22 2 23 1 24
REMARK SMILES IDX 17 25 18 26 19 27 20 28 21 29 22 31 23 32 24 33 85 34 25 35
REMARK SMILES IDX 84 36 26 37 27 38 28 39 78 40 29 41 83 42 77 43 79 44 30 45
REMARK SMILES IDX 82 46 76 47 75 48 31 50 63 51 43 52 62 53 44 54 47 55 61 56
REMARK SMILES IDX 80 57 45 58 46 59 60 61 81 62 48 63 32 64 33 65 41 66 34 67
REMARK SMILES IDX 40 68 42 69 39 70 35 71 36 72 37 73 38 74 64 75 65 76 73 77
REMARK SMILES IDX 66 78 72 79 74 80 71 81 67 82 68 83 69 84 70 85 49 86 50 87
REMARK SMILES IDX 58 88 51 89 57 90 59 91 56 92 52 93 53 94 54 95 55 96
REMARK H PARENT 13 7 89 13 20 30 79 49 47 60
REMARK Flexibility Score: inf
ROOT
ATOM      1  C   UNL A   1      49.941  26.323  31.696  1.00  0.00     0.002 C 
ENDROOT
BRANCH   1   2
ATOM      2  C   UNL A   1      50.493  26.596  30.297  1.00  0.00     0.021 C 
BRANCH   2   3
ATOM      3  C   UNL A   1      49.491  27.086  29.259  1.00  0.00     0.116 C 
BRANCH   3   4
ATOM      4  N   UNL A   1      48.411  26.151  29.009  1.00  0.00    -0.351 N 
ATOM      5  C   UNL A   1      47.175  26.301  28.450  1.00  0.00     0.270 C 
ATOM      6  O   UNL A   1      46.465  25.293  28.394  1.00  0.00    -0.268 OA
ATOM      7  H   UNL A   1      48.607  25.231  29.299  1.00  0.00     0.163 HD
BRANCH   5   8
ATOM      8  C   UNL A   1      46.645  27.637  27.957  1.00  0.00     0.136 A 
ATOM      9  C   UNL A   1      45.373  29.478  28.465  1.00  0.00     0.141 A 
ATOM     10  N   UNL A   1      45.953  28.400  28.883  1.00  0.00    -0.225 NA
ATOM     11  N   UNL A   1      45.535  29.963  27.196  1.00  0.00    -0.306 N 
ATOM     12  C   UNL A   1      46.239  29.286  26.253  1.00  0.00     0.251 A 
ATOM     13  H   UNL A   1      45.129  30.829  26.960  1.00  0.00     0.171 HD
ATOM     14  C   UNL A   1      46.711  27.961  26.659  1.00  0.00     0.105 A 
ATOM     15  O   UNL A   1      46.462  29.734  25.141  1.00  0.00    -0.269 OA
BRANCH   9  16
ATOM     16  C   UNL A   1      44.464  30.251  29.338  1.00  0.00     0.018 A 
ATOM     17  C   UNL A   1      42.691  31.592  31.013  1.00  0.00     0.119 A 
ATOM     18  C   UNL A   1      42.317  31.314  29.700  1.00  0.00     0.047 A 
ATOM     19  C   UNL A   1      43.923  31.159  31.505  1.00  0.00     0.047 A 
ATOM     20  C   UNL A   1      43.205  30.646  28.858  1.00  0.00     0.016 A 
ATOM     21  C   UNL A   1      44.816  30.491  30.666  1.00  0.00     0.016 A 
BRANCH  17  22
ATOM     22  O   UNL A   1      41.775  32.184  31.836  1.00  0.00    -0.494 OA
BRANCH  22  23
ATOM     23  C   UNL A   1      41.478  33.530  31.446  1.00  0.00     0.226 C 
ATOM     24  C   UNL A   1      40.147  33.615  30.716  1.00  0.00     0.049 C 
ENDBRANCH  22  23
ENDBRANCH  17  22
ENDBRANCH   9  16
ENDBRANCH   5   8
ENDBRANCH   3   4
ENDBRANCH   2   3
ENDBRANCH   1   2
BRANCH   1  25
ATOM     25  C   UNL A   1      50.102  24.895  32.220  1.00  0.00     0.002 C 
BRANCH  25  26
ATOM     26  C   UNL A   1      49.998  24.714  33.737  1.00  0.00     0.021 C 
BRANCH  26  27
ATOM     27  C   UNL A   1      48.593  24.815  34.323  1.00  0.00     0.116 C 
BRANCH  27  28
ATOM     28  N   UNL A   1      48.580  25.481  35.611  1.00  0.00    -0.352 N 
ATOM     29  C   UNL A   1      47.776  26.491  36.074  1.00  0.00     0.251 C 
ATOM     30  H   UNL A   1      49.253  25.158  36.253  1.00  0.00     0.163 HD
ATOM     31  O   UNL A   1      48.070  27.048  37.128  1.00  0.00    -0.269 OA
BRANCH  29  32
ATOM     32  C   UNL A   1      46.581  26.925  35.311  1.00  0.00     0.039 A 
ATOM     33  C   UNL A   1      45.415  26.161  35.418  1.00  0.00     0.014 A 
ATOM     34  C   UNL A   1      46.604  28.038  34.464  1.00  0.00     0.014 A 
ATOM     35  C   UNL A   1      44.270  26.536  34.713  1.00  0.00     0.010 A 
ATOM     36  C   UNL A   1      45.436  28.456  33.821  1.00  0.00     0.010 A 
ATOM     37  C   UNL A   1      44.258  27.706  33.933  1.00  0.00    -0.014 A 
BRANCH  37  38
ATOM     38  C   UNL A   1      43.007  28.133  33.246  1.00  0.00     0.031 A 
ATOM     39  C   UNL A   1      41.999  29.002  33.951  1.00  0.00     0.074 A 
ATOM     40  C   UNL A   1      42.790  27.740  31.974  1.00  0.00     0.049 A 
ATOM     41  N   UNL A   1      40.876  29.499  33.496  1.00  0.00    -0.248 NA
ATOM     42  C   UNL A   1      42.277  29.344  35.355  1.00  0.00     0.031 C 
ATOM     43  C   UNL A   1      43.672  26.863  31.201  1.00  0.00     0.029 A 
ATOM     44  N   UNL A   1      41.773  28.034  31.100  1.00  0.00    -0.354 N 
ATOM     45  C   UNL A   1      40.324  30.225  34.547  1.00  0.00     0.074 A 
ATOM     46  C   UNL A   1      41.197  30.037  35.686  1.00  0.00     0.031 C 
ATOM     47  C   UNL A   1      43.185  26.729  29.957  1.00  0.00     0.029 A 
ATOM     48  C   UNL A   1      41.931  27.468  29.854  1.00  0.00     0.049 A 
ATOM     49  H   UNL A   1      41.003  28.599  31.340  1.00  0.00     0.167 HD
ATOM     50  C   UNL A   1      39.213  31.002  34.552  1.00  0.00     0.034 A 
ATOM     51  C   UNL A   1      41.153  27.533  28.755  1.00  0.00     0.034 A 
ATOM     52  C   UNL A   1      38.348  31.178  33.411  1.00  0.00     0.049 A 
ATOM     53  C   UNL A   1      39.898  28.373  28.807  1.00  0.00     0.074 A 
ATOM     54  C   UNL A   1      37.203  31.952  33.307  1.00  0.00     0.029 A 
ATOM     55  N   UNL A   1      38.527  30.573  32.174  1.00  0.00    -0.354 N 
ATOM     56  N   UNL A   1      39.423  29.092  29.799  1.00  0.00    -0.248 NA
ATOM     57  C   UNL A   1      39.088  28.426  27.584  1.00  0.00     0.031 C 
ATOM     58  C   UNL A   1      36.658  31.764  32.033  1.00  0.00     0.029 A 
ATOM     59  C   UNL A   1      37.504  30.939  31.312  1.00  0.00     0.049 A 
ATOM     60  H   UNL A   1      39.271  29.972  31.943  1.00  0.00     0.167 HD
ATOM     61  C   UNL A   1      38.277  29.709  29.302  1.00  0.00     0.074 A 
ATOM     62  C   UNL A   1      38.161  29.308  27.917  1.00  0.00     0.031 C 
ATOM     63  C   UNL A   1      37.395  30.527  29.933  1.00  0.00     0.034 A 
BRANCH  50  64
ATOM     64  C   UNL A   1      38.870  31.723  35.835  1.00  0.00     0.023 A 
ATOM     65  C   UNL A   1      38.138  31.092  36.856  1.00  0.00     0.031 A 
ATOM     66  C   UNL A   1      39.297  33.045  36.052  1.00  0.00     0.131 A 
ATOM     67  C   UNL A   1      37.808  31.798  38.022  1.00  0.00     0.055 A 
ATOM     68  C   UNL A   1      39.030  33.718  37.247  1.00  0.00     0.041 A 
ATOM     69  F   UNL A   1      39.980  33.708  35.107  1.00  0.00    -0.206 F 
ATOM     70  C   UNL A   1      38.273  33.097  38.237  1.00  0.00     0.022 A 
BRANCH  67  71
ATOM     71  S   UNL A   1      36.669  31.032  39.208  1.00  0.00     0.124 S 
ATOM     72  O   UNL A   1      35.623  32.047  39.307  1.00  0.00    -0.237 OA
ATOM     73  O   UNL A   1      36.296  29.794  38.534  1.00  0.00    -0.237 OA
ATOM     74  O   UNL A   1      37.484  30.868  40.410  1.00  0.00    -0.744 OA
ENDBRANCH  67  71
ENDBRANCH  50  64
BRANCH  51  75
ATOM     75  C   UNL A   1      41.509  26.783  27.513  1.00  0.00     0.023 A 
ATOM     76  C   UNL A   1      41.311  25.396  27.422  1.00  0.00     0.031 A 
ATOM     77  C   UNL A   1      42.147  27.425  26.437  1.00  0.00     0.131 A 
ATOM     78  C   UNL A   1      41.823  24.685  26.325  1.00  0.00     0.055 A 
ATOM     79  C   UNL A   1      42.583  26.725  25.311  1.00  0.00     0.041 A 
ATOM     80  F   UNL A   1      42.363  28.750  26.465  1.00  0.00    -0.206 F 
ATOM     81  C   UNL A   1      42.444  25.342  25.261  1.00  0.00     0.022 A 
BRANCH  78  82
ATOM     82  S   UNL A   1      41.806  22.871  26.386  1.00  0.00     0.124 S 
ATOM     83  O   UNL A   1      40.383  22.585  26.247  1.00  0.00    -0.237 OA
ATOM     84  O   UNL A   1      42.646  22.523  25.245  1.00  0.00    -0.237 OA
ATOM     85  O   UNL A   1      42.379  22.571  27.696  1.00  0.00    -0.744 OA
ENDBRANCH  78  82
ENDBRANCH  51  75
BRANCH  63  86
ATOM     86  C   UNL A   1      36.257  31.070  29.100  1.00  0.00     0.023 A 
ATOM     87  C   UNL A   1      35.291  30.223  28.530  1.00  0.00     0.031 A 
ATOM     88  C   UNL A   1      36.168  32.447  28.829  1.00  0.00     0.131 A 
ATOM     89  C   UNL A   1      34.337  30.746  27.643  1.00  0.00     0.055 A 
ATOM     90  C   UNL A   1      35.167  32.972  28.012  1.00  0.00     0.041 A 
ATOM     91  F   UNL A   1      37.062  33.306  29.345  1.00  0.00    -0.206 F 
ATOM     92  C   UNL A   1      34.257  32.118  27.396  1.00  0.00     0.022 A 
BRANCH  89  93
ATOM     93  S   UNL A   1      33.296  29.590  26.711  1.00  0.00     0.124 S 
ATOM     94  O   UNL A   1      32.470  30.495  25.920  1.00  0.00    -0.237 OA
ATOM     95  O   UNL A   1      34.283  28.814  25.966  1.00  0.00    -0.237 OA
ATOM     96  O   UNL A   1      32.587  28.851  27.754  1.00  0.00    -0.744 OA
ENDBRANCH  89  93
ENDBRANCH  63  86
ENDBRANCH  37  38
ENDBRANCH  29  32
ENDBRANCH  27  28
ENDBRANCH  26  27
ENDBRANCH  25  26
ENDBRANCH   1  25
TORSDOF 19
ENDMDL
