MODEL 1
REMARK VINA RESULT:     -10.0      0.000      0.000
REMARK SMILES CN(C)S(=O)(=O)c1cccc(-c2cc(Cl)cc(C(=O)NCCCCCCNC(=O)c3ccc(-c4c5nc(c(-c6cc(S(=O)(=O)[O-])ccc6F)c6ccc([nH]6)c(-c6cc(S(=O)(=O)[O-])ccc6F)c6nc(c(-c7cc(S(=O)(=O)[O-])ccc7F)c7ccc4[nH]7)C=C6)C=C5)cc3)c2)c1
REMARK SMILES IDX 23 1 22 2 21 3 20 4 18 5 19 6 17 8 12 9 13 10 93 11 14 12
REMARK SMILES IDX 15 13 16 14 11 15 7 16 8 17 94 18 9 19 10 20 4 21 5 22 6 23
REMARK SMILES IDX 2 24 1 25 3 26 24 27 25 28 26 29 27 30 28 31 29 33 30 34
REMARK SMILES IDX 31 35 92 36 32 37 91 38 33 39 34 40 35 41 85 42 36 43 90 44
REMARK SMILES IDX 84 45 86 46 37 47 89 48 83 49 82 50 38 52 70 53 50 54 69 55
REMARK SMILES IDX 51 56 54 57 68 58 87 59 52 60 53 61 67 63 88 64 55 65 39 66
REMARK SMILES IDX 40 67 48 68 41 69 47 70 49 71 46 72 42 73 43 74 44 75 45 76
REMARK SMILES IDX 71 77 72 78 80 79 73 80 79 81 81 82 78 83 74 84 75 85 76 86
REMARK SMILES IDX 77 87 56 88 57 89 65 90 58 91 64 92 66 93 63 94 59 95 60 96
REMARK SMILES IDX 61 97 62 98
REMARK H PARENT 20 7 27 32 86 51 54 62
REMARK Flexibility Score: inf
ROOT
ATOM      1  C   UNL A   1      38.444  28.197  28.230  1.00  0.00     0.002 C 
ENDROOT
BRANCH   1   2
ATOM      2  C   UNL A   1      39.733  27.464  27.863  1.00  0.00     0.021 C 
BRANCH   2   3
ATOM      3  C   UNL A   1      39.637  25.958  27.644  1.00  0.00     0.116 C 
BRANCH   3   4
ATOM      4  N   UNL A   1      40.661  25.177  28.322  1.00  0.00    -0.352 N 
ATOM      5  C   UNL A   1      41.046  23.863  28.165  1.00  0.00     0.251 C 
ATOM      6  O   UNL A   1      41.938  23.415  28.885  1.00  0.00    -0.269 OA
ATOM      7  H   UNL A   1      41.164  25.672  29.008  1.00  0.00     0.163 HD
BRANCH   5   8
ATOM      8  C   UNL A   1      40.382  22.950  27.194  1.00  0.00     0.041 A 
ATOM      9  C   UNL A   1      38.514  22.405  25.717  1.00  0.00    -0.016 A 
ATOM     10  C   UNL A   1      39.006  21.097  25.609  1.00  0.00     0.029 A 
ATOM     11  C   UNL A   1      39.278  23.341  26.435  1.00  0.00     0.022 A 
ATOM     12  C   UNL A   1      40.186  20.734  26.261  1.00  0.00     0.042 A 
ATOM     13  Cl  UNL A   1      40.767  19.118  26.125  1.00  0.00    -0.084 Cl
ATOM     14  C   UNL A   1      40.862  21.643  27.073  1.00  0.00     0.034 A 
BRANCH   9  15
ATOM     15  C   UNL A   1      37.149  22.778  25.297  1.00  0.00    -0.017 A 
ATOM     16  C   UNL A   1      34.746  22.641  25.612  1.00  0.00     0.083 A 
ATOM     17  C   UNL A   1      34.533  22.979  24.271  1.00  0.00     0.022 A 
ATOM     18  C   UNL A   1      36.040  22.582  26.137  1.00  0.00     0.030 A 
ATOM     19  C   UNL A   1      35.619  23.255  23.449  1.00  0.00     0.002 A 
ATOM     20  C   UNL A   1      36.914  23.144  23.957  1.00  0.00     0.009 A 
BRANCH  16  21
ATOM     21  S   UNL A   1      33.307  22.235  26.572  1.00  0.00     0.242 S 
ATOM     22  O   UNL A   1      33.621  22.571  27.950  1.00  0.00    -0.207 OA
ATOM     23  O   UNL A   1      32.929  20.904  26.170  1.00  0.00    -0.207 OA
BRANCH  21  24
ATOM     24  N   UNL A   1      32.064  23.317  26.077  1.00  0.00    -0.204 NA
ATOM     25  C   UNL A   1      30.731  22.865  26.564  1.00  0.00     0.124 C 
ATOM     26  C   UNL A   1      32.282  24.740  26.438  1.00  0.00     0.124 C 
ENDBRANCH  21  24
ENDBRANCH  16  21
ENDBRANCH   9  15
ENDBRANCH   5   8
ENDBRANCH   3   4
ENDBRANCH   2   3
ENDBRANCH   1   2
BRANCH   1  27
ATOM     27  C   UNL A   1      38.420  29.712  28.013  1.00  0.00     0.002 C 
BRANCH  27  28
ATOM     28  C   UNL A   1      37.424  30.516  28.852  1.00  0.00     0.021 C 
BRANCH  28  29
ATOM     29  C   UNL A   1      36.428  29.713  29.683  1.00  0.00     0.116 C 
BRANCH  29  30
ATOM     30  N   UNL A   1      36.118  30.332  30.960  1.00  0.00    -0.352 N 
ATOM     31  C   UNL A   1      36.850  30.362  32.123  1.00  0.00     0.251 C 
ATOM     32  H   UNL A   1      35.253  30.801  30.997  1.00  0.00     0.163 HD
ATOM     33  O   UNL A   1      36.344  30.840  33.137  1.00  0.00    -0.269 OA
BRANCH  31  34
ATOM     34  C   UNL A   1      38.219  29.794  32.175  1.00  0.00     0.039 A 
ATOM     35  C   UNL A   1      39.310  30.666  32.086  1.00  0.00     0.014 A 
ATOM     36  C   UNL A   1      38.439  28.419  32.290  1.00  0.00     0.014 A 
ATOM     37  C   UNL A   1      40.613  30.167  32.179  1.00  0.00     0.010 A 
ATOM     38  C   UNL A   1      39.737  27.930  32.450  1.00  0.00     0.010 A 
ATOM     39  C   UNL A   1      40.838  28.798  32.396  1.00  0.00    -0.014 A 
BRANCH  39  40
ATOM     40  C   UNL A   1      42.215  28.259  32.560  1.00  0.00     0.031 A 
ATOM     41  C   UNL A   1      43.034  27.896  31.350  1.00  0.00     0.074 A 
ATOM     42  C   UNL A   1      42.708  28.044  33.794  1.00  0.00     0.049 A 
ATOM     43  N   UNL A   1      44.223  27.352  31.285  1.00  0.00    -0.248 NA
ATOM     44  C   UNL A   1      42.420  28.159  30.042  1.00  0.00     0.031 C 
ATOM     45  C   UNL A   1      42.003  28.325  35.046  1.00  0.00     0.029 A 
ATOM     46  N   UNL A   1      43.915  27.533  34.203  1.00  0.00    -0.354 N 
ATOM     47  C   UNL A   1      44.495  27.195  29.930  1.00  0.00     0.074 A 
ATOM     48  C   UNL A   1      43.316  27.644  29.215  1.00  0.00     0.031 C 
ATOM     49  C   UNL A   1      42.800  28.008  36.080  1.00  0.00     0.029 A 
ATOM     50  C   UNL A   1      44.052  27.461  35.570  1.00  0.00     0.049 A 
ATOM     51  H   UNL A   1      44.617  27.245  33.575  1.00  0.00     0.167 HD
ATOM     52  C   UNL A   1      45.629  26.744  29.334  1.00  0.00     0.034 A 
ATOM     53  C   UNL A   1      45.067  26.998  36.325  1.00  0.00     0.034 A 
ATOM     54  C   UNL A   1      46.796  26.303  30.059  1.00  0.00     0.049 A 
ATOM     55  C   UNL A   1      46.299  26.458  35.645  1.00  0.00     0.074 A 
ATOM     56  C   UNL A   1      48.013  25.869  29.559  1.00  0.00     0.029 A 
ATOM     57  N   UNL A   1      46.891  26.227  31.444  1.00  0.00    -0.354 N 
ATOM     58  N   UNL A   1      46.559  26.355  34.362  1.00  0.00    -0.248 NA
ATOM     59  C   UNL A   1      47.377  25.977  36.518  1.00  0.00     0.031 C 
ATOM     60  C   UNL A   1      48.817  25.474  30.636  1.00  0.00     0.029 A 
ATOM     61  C   UNL A   1      48.131  25.726  31.812  1.00  0.00     0.049 A 
ATOM     62  H   UNL A   1      46.181  26.490  32.073  1.00  0.00     0.167 HD
ATOM     63  C   UNL A   1      47.843  25.829  34.276  1.00  0.00     0.074 A 
ATOM     64  C   UNL A   1      48.308  25.644  35.637  1.00  0.00     0.031 C 
ATOM     65  C   UNL A   1      48.578  25.534  33.173  1.00  0.00     0.034 A 
BRANCH  52  66
ATOM     66  C   UNL A   1      45.635  26.684  27.823  1.00  0.00     0.023 A 
ATOM     67  C   UNL A   1      45.485  25.467  27.134  1.00  0.00     0.031 A 
ATOM     68  C   UNL A   1      45.848  27.847  27.060  1.00  0.00     0.131 A 
ATOM     69  C   UNL A   1      45.649  25.423  25.742  1.00  0.00     0.055 A 
ATOM     70  C   UNL A   1      45.919  27.810  25.665  1.00  0.00     0.041 A 
ATOM     71  F   UNL A   1      46.016  29.036  27.658  1.00  0.00    -0.206 F 
ATOM     72  C   UNL A   1      45.840  26.590  24.999  1.00  0.00     0.022 A 
BRANCH  69  73
ATOM     73  S   UNL A   1      45.787  23.802  24.940  1.00  0.00     0.124 S 
ATOM     74  O   UNL A   1      46.766  24.075  23.890  1.00  0.00    -0.237 OA
ATOM     75  O   UNL A   1      46.242  22.948  26.031  1.00  0.00    -0.237 OA
ATOM     76  O   UNL A   1      44.431  23.538  24.463  1.00  0.00    -0.744 OA
ENDBRANCH  69  73
ENDBRANCH  52  66
BRANCH  53  77
ATOM     77  C   UNL A   1      44.973  27.024  37.812  1.00  0.00     0.023 A 
ATOM     78  C   UNL A   1      45.289  28.187  38.532  1.00  0.00     0.031 A 
ATOM     79  C   UNL A   1      44.602  25.879  38.537  1.00  0.00     0.131 A 
ATOM     80  C   UNL A   1      45.265  28.170  39.934  1.00  0.00     0.055 A 
ATOM     81  C   UNL A   1      44.537  25.878  39.932  1.00  0.00     0.041 A 
ATOM     82  F   UNL A   1      44.283  24.742  37.897  1.00  0.00    -0.206 F 
ATOM     83  C   UNL A   1      44.881  27.027  40.639  1.00  0.00     0.022 A 
BRANCH  80  84
ATOM     84  S   UNL A   1      45.811  29.650  40.830  1.00  0.00     0.124 S 
ATOM     85  O   UNL A   1      46.404  29.070  42.030  1.00  0.00    -0.237 OA
ATOM     86  O   UNL A   1      46.741  30.253  39.880  1.00  0.00    -0.237 OA
ATOM     87  O   UNL A   1      44.572  30.395  41.043  1.00  0.00    -0.744 OA
ENDBRANCH  80  84
ENDBRANCH  53  77
BRANCH  65  88
ATOM     88  C   UNL A   1      49.981  25.025  33.403  1.00  0.00     0.023 A 
ATOM     89  C   UNL A   1      50.310  23.666  33.257  1.00  0.00     0.031 A 
ATOM     90  C   UNL A   1      50.996  25.914  33.798  1.00  0.00     0.131 A 
ATOM     91  C   UNL A   1      51.608  23.226  33.558  1.00  0.00     0.055 A 
ATOM     92  C   UNL A   1      52.299  25.480  34.041  1.00  0.00     0.041 A 
ATOM     93  F   UNL A   1      50.736  27.222  33.956  1.00  0.00    -0.206 F 
ATOM     94  C   UNL A   1      52.609  24.127  33.935  1.00  0.00     0.022 A 
BRANCH  91  95
ATOM     95  S   UNL A   1      51.954  21.445  33.538  1.00  0.00     0.124 S 
ATOM     96  O   UNL A   1      53.313  21.393  34.066  1.00  0.00    -0.237 OA
ATOM     97  O   UNL A   1      50.910  20.914  34.409  1.00  0.00    -0.237 OA
ATOM     98  O   UNL A   1      51.822  21.086  32.126  1.00  0.00    -0.744 OA
ENDBRANCH  91  95
ENDBRANCH  65  88
ENDBRANCH  39  40
ENDBRANCH  31  34
ENDBRANCH  29  30
ENDBRANCH  28  29
ENDBRANCH  27  28
ENDBRANCH   1  27
TORSDOF 19
ENDMDL
MODEL 2
REMARK VINA RESULT:      -9.9      6.139     11.491
REMARK SMILES CN(C)S(=O)(=O)c1cccc(-c2cc(Cl)cc(C(=O)NCCCCCCNC(=O)c3ccc(-c4c5nc(c(-c6cc(S(=O)(=O)[O-])ccc6F)c6ccc([nH]6)c(-c6cc(S(=O)(=O)[O-])ccc6F)c6nc(c(-c7cc(S(=O)(=O)[O-])ccc7F)c7ccc4[nH]7)C=C6)C=C5)cc3)c2)c1
REMARK SMILES IDX 23 1 22 2 21 3 20 4 18 5 19 6 17 8 12 9 13 10 93 11 14 12
REMARK SMILES IDX 15 13 16 14 11 15 7 16 8 17 94 18 9 19 10 20 4 21 5 22 6 23
REMARK SMILES IDX 2 24 1 25 3 26 24 27 25 28 26 29 27 30 28 31 29 33 30 34
REMARK SMILES IDX 31 35 92 36 32 37 91 38 33 39 34 40 35 41 85 42 36 43 90 44
REMARK SMILES IDX 84 45 86 46 37 47 89 48 83 49 82 50 38 52 70 53 50 54 69 55
REMARK SMILES IDX 51 56 54 57 68 58 87 59 52 60 53 61 67 63 88 64 55 65 39 66
REMARK SMILES IDX 40 67 48 68 41 69 47 70 49 71 46 72 42 73 43 74 44 75 45 76
REMARK SMILES IDX 71 77 72 78 80 79 73 80 79 81 81 82 78 83 74 84 75 85 76 86
REMARK SMILES IDX 77 87 56 88 57 89 65 90 58 91 64 92 66 93 63 94 59 95 60 96
REMARK SMILES IDX 61 97 62 98
REMARK H PARENT 20 7 27 32 86 51 54 62
REMARK Flexibility Score: inf
ROOT
ATOM      1  C   UNL A   1      45.645  23.383  26.737  1.00  0.00     0.002 C 
ENDROOT
BRANCH   1   2
ATOM      2  C   UNL A   1      44.781  24.615  26.470  1.00  0.00     0.021 C 
BRANCH   2   3
ATOM      3  C   UNL A   1      44.546  24.994  25.012  1.00  0.00     0.116 C 
BRANCH   3   4
ATOM      4  N   UNL A   1      43.493  25.976  24.800  1.00  0.00    -0.352 N 
ATOM      5  C   UNL A   1      43.485  27.344  24.972  1.00  0.00     0.251 C 
ATOM      6  O   UNL A   1      42.447  27.965  24.745  1.00  0.00    -0.269 OA
ATOM      7  H   UNL A   1      42.642  25.599  24.479  1.00  0.00     0.163 HD
BRANCH   5   8
ATOM      8  C   UNL A   1      44.671  28.088  25.478  1.00  0.00     0.041 A 
ATOM      9  C   UNL A   1      45.679  30.104  26.422  1.00  0.00    -0.016 A 
ATOM     10  C   UNL A   1      46.947  29.578  26.141  1.00  0.00     0.029 A 
ATOM     11  C   UNL A   1      44.558  29.294  26.173  1.00  0.00     0.022 A 
ATOM     12  C   UNL A   1      47.072  28.312  25.565  1.00  0.00     0.042 A 
ATOM     13  Cl  UNL A   1      48.639  27.690  25.217  1.00  0.00    -0.084 Cl
ATOM     14  C   UNL A   1      45.943  27.576  25.208  1.00  0.00     0.034 A 
BRANCH   9  15
ATOM     15  C   UNL A   1      45.464  31.524  26.761  1.00  0.00    -0.017 A 
ATOM     16  C   UNL A   1      46.327  33.640  27.582  1.00  0.00     0.083 A 
ATOM     17  C   UNL A   1      45.036  34.049  27.936  1.00  0.00     0.022 A 
ATOM     18  C   UNL A   1      46.540  32.406  26.960  1.00  0.00     0.030 A 
ATOM     19  C   UNL A   1      43.953  33.220  27.671  1.00  0.00     0.002 A 
ATOM     20  C   UNL A   1      44.168  31.965  27.099  1.00  0.00     0.009 A 
BRANCH  16  21
ATOM     21  S   UNL A   1      47.660  34.728  28.021  1.00  0.00     0.242 S 
ATOM     22  O   UNL A   1      48.845  33.899  28.154  1.00  0.00    -0.207 OA
ATOM     23  O   UNL A   1      47.164  35.543  29.101  1.00  0.00    -0.207 OA
BRANCH  21  24
ATOM     24  N   UNL A   1      47.929  35.749  26.661  1.00  0.00    -0.204 NA
ATOM     25  C   UNL A   1      48.322  34.956  25.462  1.00  0.00     0.124 C 
ATOM     26  C   UNL A   1      46.809  36.661  26.323  1.00  0.00     0.124 C 
ENDBRANCH  21  24
ENDBRANCH  16  21
ENDBRANCH   9  15
ENDBRANCH   5   8
ENDBRANCH   3   4
ENDBRANCH   2   3
ENDBRANCH   1   2
BRANCH   1  27
ATOM     27  C   UNL A   1      45.542  22.232  25.735  1.00  0.00     0.002 C 
BRANCH  27  28
ATOM     28  C   UNL A   1      44.305  21.336  25.833  1.00  0.00     0.021 C 
BRANCH  28  29
ATOM     29  C   UNL A   1      42.985  21.944  25.370  1.00  0.00     0.116 C 
BRANCH  29  30
ATOM     30  N   UNL A   1      41.837  21.449  26.109  1.00  0.00    -0.352 N 
ATOM     31  C   UNL A   1      41.148  22.020  27.152  1.00  0.00     0.251 C 
ATOM     32  H   UNL A   1      41.501  20.569  25.818  1.00  0.00     0.163 HD
ATOM     33  O   UNL A   1      40.273  21.370  27.720  1.00  0.00    -0.269 OA
BRANCH  31  34
ATOM     34  C   UNL A   1      41.474  23.390  27.617  1.00  0.00     0.039 A 
ATOM     35  C   UNL A   1      40.979  24.480  26.893  1.00  0.00     0.014 A 
ATOM     36  C   UNL A   1      42.273  23.613  28.742  1.00  0.00     0.014 A 
ATOM     37  C   UNL A   1      41.228  25.784  27.331  1.00  0.00     0.010 A 
ATOM     38  C   UNL A   1      42.465  24.911  29.217  1.00  0.00     0.010 A 
ATOM     39  C   UNL A   1      41.946  26.011  28.517  1.00  0.00    -0.014 A 
BRANCH  39  40
ATOM     40  C   UNL A   1      42.168  27.389  29.032  1.00  0.00     0.031 A 
ATOM     41  C   UNL A   1      43.567  27.896  29.258  1.00  0.00     0.074 A 
ATOM     42  C   UNL A   1      41.112  28.164  29.349  1.00  0.00     0.049 A 
ATOM     43  N   UNL A   1      43.965  29.037  29.763  1.00  0.00    -0.248 NA
ATOM     44  C   UNL A   1      44.659  26.986  28.891  1.00  0.00     0.031 C 
ATOM     45  C   UNL A   1      39.708  27.778  29.205  1.00  0.00     0.029 A 
ATOM     46  N   UNL A   1      41.054  29.435  29.864  1.00  0.00    -0.354 N 
ATOM     47  C   UNL A   1      45.355  28.977  29.784  1.00  0.00     0.074 A 
ATOM     48  C   UNL A   1      45.721  27.661  29.302  1.00  0.00     0.031 C 
ATOM     49  C   UNL A   1      38.929  28.799  29.597  1.00  0.00     0.029 A 
ATOM     50  C   UNL A   1      39.773  29.896  30.060  1.00  0.00     0.049 A 
ATOM     51  H   UNL A   1      41.856  29.968  30.073  1.00  0.00     0.167 HD
ATOM     52  C   UNL A   1      46.244  29.937  30.147  1.00  0.00     0.034 A 
ATOM     53  C   UNL A   1      39.329  31.064  30.564  1.00  0.00     0.034 A 
ATOM     54  C   UNL A   1      45.863  31.246  30.623  1.00  0.00     0.049 A 
ATOM     55  C   UNL A   1      40.332  32.099  31.006  1.00  0.00     0.074 A 
ATOM     56  C   UNL A   1      46.679  32.309  30.976  1.00  0.00     0.029 A 
ATOM     57  N   UNL A   1      44.555  31.669  30.826  1.00  0.00    -0.354 N 
ATOM     58  N   UNL A   1      41.643  32.044  30.980  1.00  0.00    -0.248 NA
ATOM     59  C   UNL A   1      39.791  33.356  31.537  1.00  0.00     0.031 C 
ATOM     60  C   UNL A   1      45.868  33.349  31.449  1.00  0.00     0.029 A 
ATOM     61  C   UNL A   1      44.543  32.963  31.326  1.00  0.00     0.049 A 
ATOM     62  H   UNL A   1      43.753  31.129  30.642  1.00  0.00     0.167 HD
ATOM     63  C   UNL A   1      42.083  33.273  31.462  1.00  0.00     0.074 A 
ATOM     64  C   UNL A   1      40.897  34.050  31.761  1.00  0.00     0.031 C 
ATOM     65  C   UNL A   1      43.352  33.723  31.633  1.00  0.00     0.034 A 
BRANCH  52  66
ATOM     66  C   UNL A   1      47.711  29.582  30.065  1.00  0.00     0.023 A 
ATOM     67  C   UNL A   1      48.545  30.122  29.068  1.00  0.00     0.031 A 
ATOM     68  C   UNL A   1      48.274  28.650  30.955  1.00  0.00     0.131 A 
ATOM     69  C   UNL A   1      49.860  29.656  28.924  1.00  0.00     0.055 A 
ATOM     70  C   UNL A   1      49.612  28.258  30.863  1.00  0.00     0.041 A 
ATOM     71  F   UNL A   1      47.527  28.085  31.916  1.00  0.00    -0.206 F 
ATOM     72  C   UNL A   1      50.408  28.746  29.830  1.00  0.00     0.022 A 
BRANCH  69  73
ATOM     73  S   UNL A   1      50.782  30.121  27.433  1.00  0.00     0.124 S 
ATOM     74  O   UNL A   1      51.771  31.049  27.975  1.00  0.00    -0.237 OA
ATOM     75  O   UNL A   1      51.296  28.838  26.967  1.00  0.00    -0.237 OA
ATOM     76  O   UNL A   1      49.766  30.734  26.579  1.00  0.00    -0.744 OA
ENDBRANCH  69  73
ENDBRANCH  52  66
BRANCH  53  77
ATOM     77  C   UNL A   1      37.867  31.327  30.681  1.00  0.00     0.023 A 
ATOM     78  C   UNL A   1      37.130  31.782  29.576  1.00  0.00     0.031 A 
ATOM     79  C   UNL A   1      37.194  31.165  31.903  1.00  0.00     0.131 A 
ATOM     80  C   UNL A   1      35.770  32.095  29.723  1.00  0.00     0.055 A 
ATOM     81  C   UNL A   1      35.830  31.436  32.035  1.00  0.00     0.041 A 
ATOM     82  F   UNL A   1      37.852  30.726  32.988  1.00  0.00    -0.206 F 
ATOM     83  C   UNL A   1      35.113  31.915  30.943  1.00  0.00     0.022 A 
BRANCH  80  84
ATOM     84  S   UNL A   1      34.884  32.808  28.310  1.00  0.00     0.124 S 
ATOM     85  O   UNL A   1      34.295  31.623  27.699  1.00  0.00    -0.237 OA
ATOM     86  O   UNL A   1      33.954  33.723  28.967  1.00  0.00    -0.237 OA
ATOM     87  O   UNL A   1      35.943  33.451  27.535  1.00  0.00    -0.744 OA
ENDBRANCH  80  84
ENDBRANCH  53  77
BRANCH  65  88
ATOM     88  C   UNL A   1      43.513  35.142  32.124  1.00  0.00     0.023 A 
ATOM     89  C   UNL A   1      43.788  36.204  31.245  1.00  0.00     0.031 A 
ATOM     90  C   UNL A   1      43.412  35.428  33.497  1.00  0.00     0.131 A 
ATOM     91  C   UNL A   1      44.008  37.493  31.755  1.00  0.00     0.055 A 
ATOM     92  C   UNL A   1      43.575  36.722  33.992  1.00  0.00     0.041 A 
ATOM     93  F   UNL A   1      43.154  34.450  34.381  1.00  0.00    -0.206 F 
ATOM     94  C   UNL A   1      43.888  37.761  33.122  1.00  0.00     0.022 A 
BRANCH  91  95
ATOM     95  S   UNL A   1      44.541  38.803  30.618  1.00  0.00     0.124 S 
ATOM     96  O   UNL A   1      45.678  39.378  31.329  1.00  0.00    -0.237 OA
ATOM     97  O   UNL A   1      44.859  38.054  29.406  1.00  0.00    -0.237 OA
ATOM     98  O   UNL A   1      43.368  39.670  30.518  1.00  0.00    -0.744 OA
ENDBRANCH  91  95
ENDBRANCH  65  88
ENDBRANCH  39  40
ENDBRANCH  31  34
ENDBRANCH  29  30
ENDBRANCH  28  29
ENDBRANCH  27  28
ENDBRANCH   1  27
TORSDOF 19
ENDMDL
MODEL 3
REMARK VINA RESULT:      -9.9      6.881     10.542
REMARK SMILES CN(C)S(=O)(=O)c1cccc(-c2cc(Cl)cc(C(=O)NCCCCCCNC(=O)c3ccc(-c4c5nc(c(-c6cc(S(=O)(=O)[O-])ccc6F)c6ccc([nH]6)c(-c6cc(S(=O)(=O)[O-])ccc6F)c6nc(c(-c7cc(S(=O)(=O)[O-])ccc7F)c7ccc4[nH]7)C=C6)C=C5)cc3)c2)c1
REMARK SMILES IDX 23 1 22 2 21 3 20 4 18 5 19 6 17 8 12 9 13 10 93 11 14 12
REMARK SMILES IDX 15 13 16 14 11 15 7 16 8 17 94 18 9 19 10 20 4 21 5 22 6 23
REMARK SMILES IDX 2 24 1 25 3 26 24 27 25 28 26 29 27 30 28 31 29 33 30 34
REMARK SMILES IDX 31 35 92 36 32 37 91 38 33 39 34 40 35 41 85 42 36 43 90 44
REMARK SMILES IDX 84 45 86 46 37 47 89 48 83 49 82 50 38 52 70 53 50 54 69 55
REMARK SMILES IDX 51 56 54 57 68 58 87 59 52 60 53 61 67 63 88 64 55 65 39 66
REMARK SMILES IDX 40 67 48 68 41 69 47 70 49 71 46 72 42 73 43 74 44 75 45 76
REMARK SMILES IDX 71 77 72 78 80 79 73 80 79 81 81 82 78 83 74 84 75 85 76 86
REMARK SMILES IDX 77 87 56 88 57 89 65 90 58 91 64 92 66 93 63 94 59 95 60 96
REMARK SMILES IDX 61 97 62 98
REMARK H PARENT 20 7 27 32 86 51 54 62
REMARK Flexibility Score: inf
ROOT
ATOM      1  C   UNL A   1      40.791  25.927  28.872  1.00  0.00     0.002 C 
ENDROOT
BRANCH   1   2
ATOM      2  C   UNL A   1      40.174  26.875  29.899  1.00  0.00     0.021 C 
BRANCH   2   3
ATOM      3  C   UNL A   1      39.083  27.819  29.405  1.00  0.00     0.116 C 
BRANCH   3   4
ATOM      4  N   UNL A   1      39.331  28.404  28.095  1.00  0.00    -0.352 N 
ATOM      5  C   UNL A   1      38.664  29.396  27.408  1.00  0.00     0.251 C 
ATOM      6  O   UNL A   1      39.058  29.707  26.284  1.00  0.00    -0.269 OA
ATOM      7  H   UNL A   1      40.108  28.029  27.622  1.00  0.00     0.163 HD
BRANCH   5   8
ATOM      8  C   UNL A   1      37.450  30.062  27.953  1.00  0.00     0.041 A 
ATOM      9  C   UNL A   1      35.036  30.441  27.934  1.00  0.00    -0.016 A 
ATOM     10  C   UNL A   1      35.221  31.541  28.781  1.00  0.00     0.029 A 
ATOM     11  C   UNL A   1      36.158  29.656  27.616  1.00  0.00     0.022 A 
ATOM     12  C   UNL A   1      36.500  31.875  29.231  1.00  0.00     0.042 A 
ATOM     13  Cl  UNL A   1      36.707  33.238  30.263  1.00  0.00    -0.084 Cl
ATOM     14  C   UNL A   1      37.617  31.160  28.802  1.00  0.00     0.034 A 
BRANCH   9  15
ATOM     15  C   UNL A   1      33.776  30.202  27.204  1.00  0.00    -0.017 A 
ATOM     16  C   UNL A   1      32.572  29.122  25.393  1.00  0.00     0.083 A 
ATOM     17  C   UNL A   1      31.581  30.109  25.440  1.00  0.00     0.022 A 
ATOM     18  C   UNL A   1      33.640  29.140  26.294  1.00  0.00     0.030 A 
ATOM     19  C   UNL A   1      31.661  31.122  26.389  1.00  0.00     0.002 A 
ATOM     20  C   UNL A   1      32.754  31.172  27.254  1.00  0.00     0.009 A 
BRANCH  16  21
ATOM     21  S   UNL A   1      32.431  27.907  24.105  1.00  0.00     0.242 S 
ATOM     22  O   UNL A   1      33.721  27.246  24.016  1.00  0.00    -0.207 OA
ATOM     23  O   UNL A   1      31.835  28.590  22.984  1.00  0.00    -0.207 OA
BRANCH  21  24
ATOM     24  N   UNL A   1      31.314  26.724  24.666  1.00  0.00    -0.204 NA
ATOM     25  C   UNL A   1      31.590  25.391  24.059  1.00  0.00     0.124 C 
ATOM     26  C   UNL A   1      31.210  26.600  26.140  1.00  0.00     0.124 C 
ENDBRANCH  21  24
ENDBRANCH  16  21
ENDBRANCH   9  15
ENDBRANCH   5   8
ENDBRANCH   3   4
ENDBRANCH   2   3
ENDBRANCH   1   2
BRANCH   1  27
ATOM     27  C   UNL A   1      39.877  24.851  28.283  1.00  0.00     0.002 C 
BRANCH  27  28
ATOM     28  C   UNL A   1      40.031  24.554  26.789  1.00  0.00     0.021 C 
BRANCH  28  29
ATOM     29  C   UNL A   1      40.608  25.672  25.927  1.00  0.00     0.116 C 
BRANCH  29  30
ATOM     30  N   UNL A   1      41.952  25.395  25.454  1.00  0.00    -0.352 N 
ATOM     31  C   UNL A   1      43.101  26.138  25.585  1.00  0.00     0.251 C 
ATOM     32  H   UNL A   1      42.056  24.546  24.966  1.00  0.00     0.163 HD
ATOM     33  O   UNL A   1      44.119  25.776  24.997  1.00  0.00    -0.269 OA
BRANCH  31  34
ATOM     34  C   UNL A   1      43.115  27.381  26.392  1.00  0.00     0.039 A 
ATOM     35  C   UNL A   1      43.856  27.402  27.579  1.00  0.00     0.014 A 
ATOM     36  C   UNL A   1      42.394  28.515  26.007  1.00  0.00     0.014 A 
ATOM     37  C   UNL A   1      43.928  28.574  28.339  1.00  0.00     0.010 A 
ATOM     38  C   UNL A   1      42.520  29.702  26.729  1.00  0.00     0.010 A 
ATOM     39  C   UNL A   1      43.288  29.745  27.903  1.00  0.00    -0.014 A 
BRANCH  39  40
ATOM     40  C   UNL A   1      43.404  31.017  28.667  1.00  0.00     0.031 A 
ATOM     41  C   UNL A   1      44.449  32.033  28.289  1.00  0.00     0.074 A 
ATOM     42  C   UNL A   1      42.609  31.234  29.732  1.00  0.00     0.049 A 
ATOM     43  N   UNL A   1      44.753  33.166  28.870  1.00  0.00    -0.248 NA
ATOM     44  C   UNL A   1      45.277  31.716  27.118  1.00  0.00     0.031 C 
ATOM     45  C   UNL A   1      41.579  30.315  30.218  1.00  0.00     0.029 A 
ATOM     46  N   UNL A   1      42.546  32.292  30.604  1.00  0.00    -0.354 N 
ATOM     47  C   UNL A   1      45.815  33.693  28.142  1.00  0.00     0.074 A 
ATOM     48  C   UNL A   1      46.140  32.719  27.119  1.00  0.00     0.031 C 
ATOM     49  C   UNL A   1      40.970  30.861  31.283  1.00  0.00     0.029 A 
ATOM     50  C   UNL A   1      41.592  32.146  31.584  1.00  0.00     0.049 A 
ATOM     51  H   UNL A   1      43.129  33.083  30.534  1.00  0.00     0.167 HD
ATOM     52  C   UNL A   1      46.445  34.886  28.294  1.00  0.00     0.034 A 
ATOM     53  C   UNL A   1      41.262  32.951  32.613  1.00  0.00     0.034 A 
ATOM     54  C   UNL A   1      46.108  35.847  29.317  1.00  0.00     0.049 A 
ATOM     55  C   UNL A   1      42.005  34.250  32.794  1.00  0.00     0.074 A 
ATOM     56  C   UNL A   1      46.649  37.104  29.536  1.00  0.00     0.029 A 
ATOM     57  N   UNL A   1      45.148  35.656  30.304  1.00  0.00    -0.354 N 
ATOM     58  N   UNL A   1      42.978  34.754  32.072  1.00  0.00    -0.248 NA
ATOM     59  C   UNL A   1      41.597  35.091  33.925  1.00  0.00     0.031 C 
ATOM     60  C   UNL A   1      46.061  37.643  30.687  1.00  0.00     0.029 A 
ATOM     61  C   UNL A   1      45.103  36.756  31.149  1.00  0.00     0.049 A 
ATOM     62  H   UNL A   1      44.582  34.855  30.391  1.00  0.00     0.167 HD
ATOM     63  C   UNL A   1      43.276  35.987  32.644  1.00  0.00     0.074 A 
ATOM     64  C   UNL A   1      42.372  36.153  33.764  1.00  0.00     0.031 C 
ATOM     65  C   UNL A   1      44.205  36.904  32.272  1.00  0.00     0.034 A 
BRANCH  52  66
ATOM     66  C   UNL A   1      47.579  35.191  27.343  1.00  0.00     0.023 A 
ATOM     67  C   UNL A   1      48.881  34.708  27.570  1.00  0.00     0.031 A 
ATOM     68  C   UNL A   1      47.374  36.019  26.225  1.00  0.00     0.131 A 
ATOM     69  C   UNL A   1      49.941  35.135  26.756  1.00  0.00     0.055 A 
ATOM     70  C   UNL A   1      48.419  36.367  25.364  1.00  0.00     0.041 A 
ATOM     71  F   UNL A   1      46.160  36.527  25.962  1.00  0.00    -0.206 F 
ATOM     72  C   UNL A   1      49.715  35.941  25.639  1.00  0.00     0.022 A 
BRANCH  69  73
ATOM     73  S   UNL A   1      51.637  34.767  27.284  1.00  0.00     0.124 S 
ATOM     74  O   UNL A   1      51.415  34.195  28.610  1.00  0.00    -0.237 OA
ATOM     75  O   UNL A   1      52.093  33.839  26.256  1.00  0.00    -0.237 OA
ATOM     76  O   UNL A   1      52.289  36.074  27.280  1.00  0.00    -0.744 OA
ENDBRANCH  69  73
ENDBRANCH  52  66
BRANCH  53  77
ATOM     77  C   UNL A   1      40.177  32.562  33.557  1.00  0.00     0.023 A 
ATOM     78  C   UNL A   1      38.892  33.117  33.442  1.00  0.00     0.031 A 
ATOM     79  C   UNL A   1      40.416  31.660  34.607  1.00  0.00     0.131 A 
ATOM     80  C   UNL A   1      37.904  32.794  34.385  1.00  0.00     0.055 A 
ATOM     81  C   UNL A   1      39.417  31.307  35.518  1.00  0.00     0.041 A 
ATOM     82  F   UNL A   1      41.625  31.095  34.757  1.00  0.00    -0.206 F 
ATOM     83  C   UNL A   1      38.155  31.885  35.415  1.00  0.00     0.022 A 
BRANCH  80  84
ATOM     84  S   UNL A   1      36.300  33.635  34.284  1.00  0.00     0.124 S 
ATOM     85  O   UNL A   1      35.900  33.682  35.685  1.00  0.00    -0.237 OA
ATOM     86  O   UNL A   1      36.665  34.911  33.677  1.00  0.00    -0.237 OA
ATOM     87  O   UNL A   1      35.505  32.750  33.436  1.00  0.00    -0.744 OA
ENDBRANCH  80  84
ENDBRANCH  53  77
BRANCH  65  88
ATOM     88  C   UNL A   1      44.251  38.189  33.062  1.00  0.00     0.023 A 
ATOM     89  C   UNL A   1      43.410  39.274  32.761  1.00  0.00     0.031 A 
ATOM     90  C   UNL A   1      45.168  38.335  34.117  1.00  0.00     0.131 A 
ATOM     91  C   UNL A   1      43.542  40.478  33.471  1.00  0.00     0.055 A 
ATOM     92  C   UNL A   1      45.256  39.514  34.857  1.00  0.00     0.041 A 
ATOM     93  F   UNL A   1      45.997  37.331  34.445  1.00  0.00    -0.206 F 
ATOM     94  C   UNL A   1      44.449  40.599  34.528  1.00  0.00     0.022 A 
BRANCH  91  95
ATOM     95  S   UNL A   1      42.572  41.917  32.940  1.00  0.00     0.124 S 
ATOM     96  O   UNL A   1      41.715  41.341  31.909  1.00  0.00    -0.237 OA
ATOM     97  O   UNL A   1      41.904  42.316  34.175  1.00  0.00    -0.237 OA
ATOM     98  O   UNL A   1      43.585  42.853  32.454  1.00  0.00    -0.744 OA
ENDBRANCH  91  95
ENDBRANCH  65  88
ENDBRANCH  39  40
ENDBRANCH  31  34
ENDBRANCH  29  30
ENDBRANCH  28  29
ENDBRANCH  27  28
ENDBRANCH   1  27
TORSDOF 19
ENDMDL
