MODEL 1
REMARK VINA RESULT:     -11.1      0.000      0.000
REMARK SMILES COc1ccc2c(c1)[C@H]([NH2+][C@H]1CCC[C@H](C(=O)NCCCCCCNC(=O)c3ccc(-c4c5nc(c(-c6cc(S(=O)(=O)[O-])ccc6F)c6ccc([nH]6)c(-c6cc(S(=O)(=O)[O-])ccc6F)c6nc(c(-c7cc(S(=O)(=O)[O-])ccc7F)c7ccc4[nH]7)C=C6)C=C5)cc3)C1)CC2
REMARK SMILES IDX 21 1 20 2 19 3 18 4 16 5 17 6 15 8 11 9 12 10 91 11 13 12
REMARK SMILES IDX 14 13 10 14 9 17 3 18 4 19 8 20 5 21 7 22 6 23 93 24 92 25
REMARK SMILES IDX 2 26 1 27 22 28 23 29 24 30 25 31 26 32 27 34 28 35 29 36
REMARK SMILES IDX 90 37 30 38 89 39 31 40 32 41 33 42 83 43 34 44 88 45 82 46
REMARK SMILES IDX 84 47 35 48 87 49 81 50 80 51 36 53 68 54 48 55 67 56 49 57
REMARK SMILES IDX 52 58 66 59 85 60 50 61 51 62 65 64 86 65 53 66 37 67 38 68
REMARK SMILES IDX 46 69 39 70 45 71 47 72 44 73 40 74 41 75 42 76 43 77 69 78
REMARK SMILES IDX 70 79 78 80 71 81 77 82 79 83 76 84 72 85 73 86 74 87 75 88
REMARK SMILES IDX 54 89 55 90 63 91 56 92 62 93 64 94 61 95 57 96 58 97 59 98
REMARK SMILES IDX 60 99
REMARK H PARENT 18 7 10 15 10 16 25 33 84 52 52 63
REMARK Flexibility Score: inf
ROOT
ATOM      1  C   UNL A   1      32.003  29.124  25.440  1.00  0.00     0.002 C 
ENDROOT
BRANCH   1   2
ATOM      2  C   UNL A   1      32.715  28.727  24.146  1.00  0.00     0.021 C 
BRANCH   2   3
ATOM      3  C   UNL A   1      31.957  27.693  23.314  1.00  0.00     0.116 C 
BRANCH   3   4
ATOM      4  N   UNL A   1      30.634  27.431  23.854  1.00  0.00    -0.356 N 
ATOM      5  C   UNL A   1      30.096  26.292  24.375  1.00  0.00     0.223 C 
ATOM      6  O   UNL A   1      28.917  26.322  24.734  1.00  0.00    -0.275 OA
ATOM      7  H   UNL A   1      30.024  28.204  23.840  1.00  0.00     0.163 HD
BRANCH   5   8
ATOM      8  C   UNL A   1      30.927  25.018  24.521  1.00  0.00     0.084 C 
ATOM      9  C   UNL A   1      33.384  24.233  24.780  1.00  0.00     0.183 C 
ATOM     10  C   UNL A   1      33.280  23.799  23.310  1.00  0.00     0.065 C 
ATOM     11  C   UNL A   1      32.360  25.364  24.981  1.00  0.00     0.078 C 
ATOM     12  C   UNL A   1      31.926  23.171  23.001  1.00  0.00     0.007 C 
ATOM     13  C   UNL A   1      30.773  24.125  23.275  1.00  0.00     0.014 C 
BRANCH   9  14
ATOM     14  N   UNL A   1      33.108  23.191  25.774  1.00  0.00    -0.338 N 
ATOM     15  H   UNL A   1      32.681  23.645  26.581  1.00  0.00     0.347 HD
ATOM     16  H   UNL A   1      32.515  22.519  25.286  1.00  0.00     0.347 HD
BRANCH  14  17
ATOM     17  C   UNL A   1      34.239  22.403  26.261  1.00  0.00     0.214 C 
ATOM     18  C   UNL A   1      33.330  18.882  25.001  1.00  0.00     0.119 A 
ATOM     19  C   UNL A   1      34.599  18.511  24.527  1.00  0.00     0.047 A 
ATOM     20  C   UNL A   1      33.120  20.142  25.566  1.00  0.00     0.056 A 
ATOM     21  C   UNL A   1      35.694  19.359  24.693  1.00  0.00     0.008 A 
ATOM     22  C   UNL A   1      34.207  20.997  25.701  1.00  0.00     0.016 A 
ATOM     23  C   UNL A   1      35.484  20.584  25.301  1.00  0.00    -0.038 A 
ATOM     24  C   UNL A   1      36.513  21.607  25.650  1.00  0.00     0.042 C 
ATOM     25  C   UNL A   1      35.636  22.850  25.775  1.00  0.00     0.075 C 
BRANCH  18  26
ATOM     26  O   UNL A   1      32.236  18.063  24.896  1.00  0.00    -0.497 OA
ATOM     27  C   UNL A   1      32.419  16.816  25.562  1.00  0.00     0.278 C 
ENDBRANCH  18  26
ENDBRANCH  14  17
ENDBRANCH   9  14
ENDBRANCH   5   8
ENDBRANCH   3   4
ENDBRANCH   2   3
ENDBRANCH   1   2
BRANCH   1  28
ATOM     28  C   UNL A   1      31.421  30.540  25.441  1.00  0.00     0.002 C 
BRANCH  28  29
ATOM     29  C   UNL A   1      31.513  31.275  26.780  1.00  0.00     0.021 C 
BRANCH  29  30
ATOM     30  C   UNL A   1      32.820  32.032  26.998  1.00  0.00     0.116 C 
BRANCH  30  31
ATOM     31  N   UNL A   1      32.587  33.438  27.279  1.00  0.00    -0.352 N 
ATOM     32  C   UNL A   1      33.128  34.226  28.262  1.00  0.00     0.251 C 
ATOM     33  H   UNL A   1      31.950  33.890  26.679  1.00  0.00     0.163 HD
ATOM     34  O   UNL A   1      32.641  35.331  28.496  1.00  0.00    -0.269 OA
BRANCH  32  35
ATOM     35  C   UNL A   1      34.280  33.734  29.046  1.00  0.00     0.039 A 
ATOM     36  C   UNL A   1      34.062  32.794  30.054  1.00  0.00     0.014 A 
ATOM     37  C   UNL A   1      35.573  34.201  28.784  1.00  0.00     0.014 A 
ATOM     38  C   UNL A   1      35.150  32.277  30.763  1.00  0.00     0.010 A 
ATOM     39  C   UNL A   1      36.661  33.627  29.437  1.00  0.00     0.010 A 
ATOM     40  C   UNL A   1      36.461  32.662  30.436  1.00  0.00    -0.014 A 
BRANCH  40  41
ATOM     41  C   UNL A   1      37.632  32.070  31.135  1.00  0.00     0.031 A 
ATOM     42  C   UNL A   1      38.477  31.032  30.448  1.00  0.00     0.074 A 
ATOM     43  C   UNL A   1      37.900  32.430  32.406  1.00  0.00     0.049 A 
ATOM     44  N   UNL A   1      39.493  30.353  30.911  1.00  0.00    -0.248 NA
ATOM     45  C   UNL A   1      38.109  30.695  29.064  1.00  0.00     0.031 C 
ATOM     46  C   UNL A   1      37.131  33.400  33.189  1.00  0.00     0.029 A 
ATOM     47  N   UNL A   1      38.887  32.019  33.268  1.00  0.00    -0.354 N 
ATOM     48  C   UNL A   1      39.884  29.502  29.883  1.00  0.00     0.074 A 
ATOM     49  C   UNL A   1      38.949  29.706  28.795  1.00  0.00     0.031 C 
ATOM     50  C   UNL A   1      37.693  33.532  34.402  1.00  0.00     0.029 A 
ATOM     51  C   UNL A   1      38.825  32.618  34.505  1.00  0.00     0.049 A 
ATOM     52  H   UNL A   1      39.573  31.358  33.023  1.00  0.00     0.167 HD
ATOM     53  C   UNL A   1      40.938  28.649  29.839  1.00  0.00     0.034 A 
ATOM     54  C   UNL A   1      39.586  32.441  35.604  1.00  0.00     0.034 A 
ATOM     55  C   UNL A   1      41.861  28.464  30.932  1.00  0.00     0.049 A 
ATOM     56  C   UNL A   1      40.726  31.455  35.547  1.00  0.00     0.074 A 
ATOM     57  C   UNL A   1      42.990  27.664  30.979  1.00  0.00     0.029 A 
ATOM     58  N   UNL A   1      41.760  29.078  32.175  1.00  0.00    -0.354 N 
ATOM     59  N   UNL A   1      41.112  30.693  34.549  1.00  0.00    -0.248 NA
ATOM     60  C   UNL A   1      41.540  31.312  36.761  1.00  0.00     0.031 C 
ATOM     61  C   UNL A   1      43.522  27.730  32.271  1.00  0.00     0.029 A 
ATOM     62  C   UNL A   1      42.783  28.643  33.006  1.00  0.00     0.049 A 
ATOM     63  H   UNL A   1      41.065  29.726  32.429  1.00  0.00     0.167 HD
ATOM     64  C   UNL A   1      42.234  30.007  35.006  1.00  0.00     0.074 A 
ATOM     65  C   UNL A   1      42.471  30.459  36.362  1.00  0.00     0.031 C 
ATOM     66  C   UNL A   1      43.003  29.092  34.361  1.00  0.00     0.034 A 
BRANCH  53  67
ATOM     67  C   UNL A   1      41.124  27.834  28.580  1.00  0.00     0.023 A 
ATOM     68  C   UNL A   1      40.732  26.486  28.508  1.00  0.00     0.031 A 
ATOM     69  C   UNL A   1      41.719  28.406  27.442  1.00  0.00     0.131 A 
ATOM     70  C   UNL A   1      41.010  25.735  27.356  1.00  0.00     0.055 A 
ATOM     71  C   UNL A   1      41.912  27.677  26.267  1.00  0.00     0.041 A 
ATOM     72  F   UNL A   1      42.136  29.682  27.455  1.00  0.00    -0.206 F 
ATOM     73  C   UNL A   1      41.572  26.329  26.223  1.00  0.00     0.022 A 
BRANCH  70  74
ATOM     74  S   UNL A   1      40.770  23.938  27.415  1.00  0.00     0.124 S 
ATOM     75  O   UNL A   1      41.569  23.573  28.581  1.00  0.00    -0.237 OA
ATOM     76  O   UNL A   1      39.324  23.818  27.567  1.00  0.00    -0.237 OA
ATOM     77  O   UNL A   1      41.305  23.479  26.134  1.00  0.00    -0.744 OA
ENDBRANCH  70  74
ENDBRANCH  53  67
BRANCH  54  78
ATOM     78  C   UNL A   1      39.292  33.195  36.858  1.00  0.00     0.023 A 
ATOM     79  C   UNL A   1      39.884  34.442  37.109  1.00  0.00     0.031 A 
ATOM     80  C   UNL A   1      38.450  32.656  37.848  1.00  0.00     0.131 A 
ATOM     81  C   UNL A   1      39.670  35.085  38.338  1.00  0.00     0.055 A 
ATOM     82  C   UNL A   1      38.191  33.328  39.043  1.00  0.00     0.041 A 
ATOM     83  F   UNL A   1      37.856  31.466  37.661  1.00  0.00    -0.206 F 
ATOM     84  C   UNL A   1      38.814  34.544  39.300  1.00  0.00     0.022 A 
BRANCH  81  85
ATOM     85  S   UNL A   1      40.608  36.594  38.704  1.00  0.00     0.124 S 
ATOM     86  O   UNL A   1      41.432  36.727  37.509  1.00  0.00    -0.237 OA
ATOM     87  O   UNL A   1      39.544  37.581  38.864  1.00  0.00    -0.237 OA
ATOM     88  O   UNL A   1      41.332  36.256  39.928  1.00  0.00    -0.744 OA
ENDBRANCH  81  85
ENDBRANCH  54  78
BRANCH  66  89
ATOM     89  C   UNL A   1      44.205  28.557  35.104  1.00  0.00     0.023 A 
ATOM     90  C   UNL A   1      44.101  27.492  36.016  1.00  0.00     0.031 A 
ATOM     91  C   UNL A   1      45.473  29.129  34.899  1.00  0.00     0.131 A 
ATOM     92  C   UNL A   1      45.232  27.074  36.735  1.00  0.00     0.055 A 
ATOM     93  C   UNL A   1      46.608  28.662  35.563  1.00  0.00     0.041 A 
ATOM     94  F   UNL A   1      45.632  30.151  34.042  1.00  0.00    -0.206 F 
ATOM     95  C   UNL A   1      46.488  27.638  36.498  1.00  0.00     0.022 A 
BRANCH  92  96
ATOM     96  S   UNL A   1      45.020  25.850  38.057  1.00  0.00     0.124 S 
ATOM     97  O   UNL A   1      44.233  24.817  37.390  1.00  0.00    -0.237 OA
ATOM     98  O   UNL A   1      46.398  25.494  38.377  1.00  0.00    -0.237 OA
ATOM     99  O   UNL A   1      44.315  26.592  39.100  1.00  0.00    -0.744 OA
ENDBRANCH  92  96
ENDBRANCH  66  89
ENDBRANCH  40  41
ENDBRANCH  32  35
ENDBRANCH  30  31
ENDBRANCH  29  30
ENDBRANCH  28  29
ENDBRANCH   1  28
TORSDOF 19
ENDMDL
MODEL 2
REMARK VINA RESULT:     -11.0      8.067     13.936
REMARK SMILES COc1ccc2c(c1)[C@H]([NH2+][C@H]1CCC[C@H](C(=O)NCCCCCCNC(=O)c3ccc(-c4c5nc(c(-c6cc(S(=O)(=O)[O-])ccc6F)c6ccc([nH]6)c(-c6cc(S(=O)(=O)[O-])ccc6F)c6nc(c(-c7cc(S(=O)(=O)[O-])ccc7F)c7ccc4[nH]7)C=C6)C=C5)cc3)C1)CC2
REMARK SMILES IDX 21 1 20 2 19 3 18 4 16 5 17 6 15 8 11 9 12 10 91 11 13 12
REMARK SMILES IDX 14 13 10 14 9 17 3 18 4 19 8 20 5 21 7 22 6 23 93 24 92 25
REMARK SMILES IDX 2 26 1 27 22 28 23 29 24 30 25 31 26 32 27 34 28 35 29 36
REMARK SMILES IDX 90 37 30 38 89 39 31 40 32 41 33 42 83 43 34 44 88 45 82 46
REMARK SMILES IDX 84 47 35 48 87 49 81 50 80 51 36 53 68 54 48 55 67 56 49 57
REMARK SMILES IDX 52 58 66 59 85 60 50 61 51 62 65 64 86 65 53 66 37 67 38 68
REMARK SMILES IDX 46 69 39 70 45 71 47 72 44 73 40 74 41 75 42 76 43 77 69 78
REMARK SMILES IDX 70 79 78 80 71 81 77 82 79 83 76 84 72 85 73 86 74 87 75 88
REMARK SMILES IDX 54 89 55 90 63 91 56 92 62 93 64 94 61 95 57 96 58 97 59 98
REMARK SMILES IDX 60 99
REMARK H PARENT 18 7 10 15 10 16 25 33 84 52 52 63
REMARK Flexibility Score: inf
ROOT
ATOM      1  C   UNL A   1      49.142  38.193  27.023  1.00  0.00     0.002 C 
ENDROOT
BRANCH   1   2
ATOM      2  C   UNL A   1      47.942  38.720  27.811  1.00  0.00     0.021 C 
BRANCH   2   3
ATOM      3  C   UNL A   1      47.565  40.162  27.477  1.00  0.00     0.116 C 
BRANCH   3   4
ATOM      4  N   UNL A   1      47.201  40.315  26.079  1.00  0.00    -0.356 N 
ATOM      5  C   UNL A   1      45.992  40.553  25.497  1.00  0.00     0.223 C 
ATOM      6  O   UNL A   1      45.944  40.601  24.265  1.00  0.00    -0.275 OA
ATOM      7  H   UNL A   1      47.952  40.231  25.448  1.00  0.00     0.163 HD
BRANCH   5   8
ATOM      8  C   UNL A   1      44.735  40.765  26.337  1.00  0.00     0.084 C 
ATOM      9  C   UNL A   1      42.974  39.435  27.699  1.00  0.00     0.183 C 
ATOM     10  C   UNL A   1      42.028  39.698  26.517  1.00  0.00     0.065 C 
ATOM     11  C   UNL A   1      44.407  39.486  27.139  1.00  0.00     0.078 C 
ATOM     12  C   UNL A   1      42.192  41.111  25.968  1.00  0.00     0.007 C 
ATOM     13  C   UNL A   1      43.609  41.380  25.483  1.00  0.00     0.014 C 
BRANCH   9  14
ATOM     14  N   UNL A   1      42.888  40.388  28.810  1.00  0.00    -0.338 N 
ATOM     15  H   UNL A   1      43.082  41.315  28.432  1.00  0.00     0.347 HD
ATOM     16  H   UNL A   1      41.950  40.258  29.190  1.00  0.00     0.347 HD
BRANCH  14  17
ATOM     17  C   UNL A   1      43.780  40.183  29.950  1.00  0.00     0.214 C 
ATOM     18  C   UNL A   1      42.550  42.889  32.394  1.00  0.00     0.119 A 
ATOM     19  C   UNL A   1      42.554  42.112  33.563  1.00  0.00     0.047 A 
ATOM     20  C   UNL A   1      42.919  42.333  31.167  1.00  0.00     0.056 A 
ATOM     21  C   UNL A   1      43.013  40.795  33.538  1.00  0.00     0.008 A 
ATOM     22  C   UNL A   1      43.345  41.012  31.140  1.00  0.00     0.016 A 
ATOM     23  C   UNL A   1      43.426  40.271  32.326  1.00  0.00    -0.038 A 
ATOM     24  C   UNL A   1      44.022  38.926  32.080  1.00  0.00     0.042 C 
ATOM     25  C   UNL A   1      43.756  38.774  30.585  1.00  0.00     0.075 C 
BRANCH  18  26
ATOM     26  O   UNL A   1      42.146  44.199  32.381  1.00  0.00    -0.497 OA
ATOM     27  C   UNL A   1      42.295  44.831  33.651  1.00  0.00     0.278 C 
ENDBRANCH  18  26
ENDBRANCH  14  17
ENDBRANCH   9  14
ENDBRANCH   5   8
ENDBRANCH   3   4
ENDBRANCH   2   3
ENDBRANCH   1   2
BRANCH   1  28
ATOM     28  C   UNL A   1      48.910  36.850  26.326  1.00  0.00     0.002 C 
BRANCH  28  29
ATOM     29  C   UNL A   1      47.447  36.534  26.003  1.00  0.00     0.021 C 
BRANCH  29  30
ATOM     30  C   UNL A   1      47.153  35.053  25.785  1.00  0.00     0.116 C 
BRANCH  30  31
ATOM     31  N   UNL A   1      45.990  34.855  24.936  1.00  0.00    -0.352 N 
ATOM     32  C   UNL A   1      44.707  34.524  25.289  1.00  0.00     0.251 C 
ATOM     33  H   UNL A   1      46.145  34.976  23.972  1.00  0.00     0.163 HD
ATOM     34  O   UNL A   1      43.909  34.169  24.424  1.00  0.00    -0.269 OA
BRANCH  32  35
ATOM     35  C   UNL A   1      44.300  34.577  26.708  1.00  0.00     0.039 A 
ATOM     36  C   UNL A   1      43.761  35.761  27.216  1.00  0.00     0.014 A 
ATOM     37  C   UNL A   1      44.448  33.459  27.537  1.00  0.00     0.014 A 
ATOM     38  C   UNL A   1      43.317  35.806  28.539  1.00  0.00     0.010 A 
ATOM     39  C   UNL A   1      43.934  33.483  28.830  1.00  0.00     0.010 A 
ATOM     40  C   UNL A   1      43.367  34.657  29.347  1.00  0.00    -0.014 A 
BRANCH  40  41
ATOM     41  C   UNL A   1      42.836  34.671  30.735  1.00  0.00     0.031 A 
ATOM     42  C   UNL A   1      41.388  34.353  30.994  1.00  0.00     0.074 A 
ATOM     43  C   UNL A   1      43.646  35.023  31.754  1.00  0.00     0.049 A 
ATOM     44  N   UNL A   1      40.724  34.377  32.120  1.00  0.00    -0.248 NA
ATOM     45  C   UNL A   1      40.576  33.986  29.825  1.00  0.00     0.031 C 
ATOM     46  C   UNL A   1      45.058  35.387  31.622  1.00  0.00     0.029 A 
ATOM     47  N   UNL A   1      43.400  35.139  33.100  1.00  0.00    -0.354 N 
ATOM     48  C   UNL A   1      39.415  34.037  31.797  1.00  0.00     0.074 A 
ATOM     49  C   UNL A   1      39.368  33.879  30.359  1.00  0.00     0.031 C 
ATOM     50  C   UNL A   1      45.560  35.655  32.839  1.00  0.00     0.029 A 
ATOM     51  C   UNL A   1      44.495  35.537  33.831  1.00  0.00     0.049 A 
ATOM     52  H   UNL A   1      42.522  34.954  33.503  1.00  0.00     0.167 HD
ATOM     53  C   UNL A   1      38.357  33.850  32.626  1.00  0.00     0.034 A 
ATOM     54  C   UNL A   1      44.625  35.794  35.148  1.00  0.00     0.034 A 
ATOM     55  C   UNL A   1      38.425  34.008  34.058  1.00  0.00     0.049 A 
ATOM     56  C   UNL A   1      43.424  35.621  36.043  1.00  0.00     0.074 A 
ATOM     57  C   UNL A   1      37.429  33.798  34.996  1.00  0.00     0.029 A 
ATOM     58  N   UNL A   1      39.548  34.426  34.762  1.00  0.00    -0.354 N 
ATOM     59  N   UNL A   1      42.203  35.252  35.728  1.00  0.00    -0.248 NA
ATOM     60  C   UNL A   1      43.619  35.890  37.473  1.00  0.00     0.031 C 
ATOM     61  C   UNL A   1      37.923  34.165  36.252  1.00  0.00     0.029 A 
ATOM     62  C   UNL A   1      39.256  34.516  36.115  1.00  0.00     0.049 A 
ATOM     63  H   UNL A   1      40.423  34.628  34.359  1.00  0.00     0.167 HD
ATOM     64  C   UNL A   1      41.497  35.212  36.927  1.00  0.00     0.074 A 
ATOM     65  C   UNL A   1      42.432  35.578  37.971  1.00  0.00     0.031 C 
ATOM     66  C   UNL A   1      40.194  34.894  37.147  1.00  0.00     0.034 A 
BRANCH  53  67
ATOM     67  C   UNL A   1      37.033  33.485  31.994  1.00  0.00     0.023 A 
ATOM     68  C   UNL A   1      36.006  34.431  31.831  1.00  0.00     0.031 A 
ATOM     69  C   UNL A   1      36.786  32.169  31.567  1.00  0.00     0.131 A 
ATOM     70  C   UNL A   1      34.757  34.031  31.330  1.00  0.00     0.055 A 
ATOM     71  C   UNL A   1      35.571  31.798  30.987  1.00  0.00     0.041 A 
ATOM     72  F   UNL A   1      37.718  31.214  31.716  1.00  0.00    -0.206 F 
ATOM     73  C   UNL A   1      34.542  32.727  30.880  1.00  0.00     0.022 A 
BRANCH  70  74
ATOM     74  S   UNL A   1      33.374  35.202  31.421  1.00  0.00     0.124 S 
ATOM     75  O   UNL A   1      32.735  35.002  30.122  1.00  0.00    -0.237 OA
ATOM     76  O   UNL A   1      32.630  34.722  32.580  1.00  0.00    -0.237 OA
ATOM     77  O   UNL A   1      34.031  36.496  31.591  1.00  0.00    -0.744 OA
ENDBRANCH  70  74
ENDBRANCH  53  67
BRANCH  54  78
ATOM     78  C   UNL A   1      45.931  36.256  35.704  1.00  0.00     0.023 A 
ATOM     79  C   UNL A   1      46.271  37.618  35.718  1.00  0.00     0.031 A 
ATOM     80  C   UNL A   1      46.880  35.337  36.187  1.00  0.00     0.131 A 
ATOM     81  C   UNL A   1      47.543  38.019  36.154  1.00  0.00     0.055 A 
ATOM     82  C   UNL A   1      48.121  35.746  36.677  1.00  0.00     0.041 A 
ATOM     83  F   UNL A   1      46.608  34.022  36.197  1.00  0.00    -0.206 F 
ATOM     84  C   UNL A   1      48.464  37.093  36.649  1.00  0.00     0.022 A 
BRANCH  81  85
ATOM     85  S   UNL A   1      48.017  39.760  35.971  1.00  0.00     0.124 S 
ATOM     86  O   UNL A   1      47.177  40.402  36.976  1.00  0.00    -0.237 OA
ATOM     87  O   UNL A   1      49.447  39.717  36.259  1.00  0.00    -0.237 OA
ATOM     88  O   UNL A   1      47.671  40.062  34.583  1.00  0.00    -0.744 OA
ENDBRANCH  81  85
ENDBRANCH  54  78
BRANCH  66  89
ATOM     89  C   UNL A   1      39.721  34.882  38.581  1.00  0.00     0.023 A 
ATOM     90  C   UNL A   1      39.722  33.708  39.354  1.00  0.00     0.031 A 
ATOM     91  C   UNL A   1      39.255  36.066  39.179  1.00  0.00     0.131 A 
ATOM     92  C   UNL A   1      39.209  33.730  40.661  1.00  0.00     0.055 A 
ATOM     93  C   UNL A   1      38.812  36.098  40.503  1.00  0.00     0.041 A 
ATOM     94  F   UNL A   1      39.228  37.217  38.489  1.00  0.00    -0.206 F 
ATOM     95  C   UNL A   1      38.774  34.922  41.246  1.00  0.00     0.022 A 
BRANCH  92  96
ATOM     96  S   UNL A   1      39.024  32.161  41.551  1.00  0.00     0.124 S 
ATOM     97  O   UNL A   1      38.558  32.608  42.860  1.00  0.00    -0.237 OA
ATOM     98  O   UNL A   1      38.044  31.452  40.734  1.00  0.00    -0.237 OA
ATOM     99  O   UNL A   1      40.372  31.595  41.532  1.00  0.00    -0.744 OA
ENDBRANCH  92  96
ENDBRANCH  66  89
ENDBRANCH  40  41
ENDBRANCH  32  35
ENDBRANCH  30  31
ENDBRANCH  29  30
ENDBRANCH  28  29
ENDBRANCH   1  28
TORSDOF 19
ENDMDL
MODEL 3
REMARK VINA RESULT:     -10.9      9.865     16.618
REMARK SMILES COc1ccc2c(c1)[C@H]([NH2+][C@H]1CCC[C@H](C(=O)NCCCCCCNC(=O)c3ccc(-c4c5nc(c(-c6cc(S(=O)(=O)[O-])ccc6F)c6ccc([nH]6)c(-c6cc(S(=O)(=O)[O-])ccc6F)c6nc(c(-c7cc(S(=O)(=O)[O-])ccc7F)c7ccc4[nH]7)C=C6)C=C5)cc3)C1)CC2
REMARK SMILES IDX 21 1 20 2 19 3 18 4 16 5 17 6 15 8 11 9 12 10 91 11 13 12
REMARK SMILES IDX 14 13 10 14 9 17 3 18 4 19 8 20 5 21 7 22 6 23 93 24 92 25
REMARK SMILES IDX 2 26 1 27 22 28 23 29 24 30 25 31 26 32 27 34 28 35 29 36
REMARK SMILES IDX 90 37 30 38 89 39 31 40 32 41 33 42 83 43 34 44 88 45 82 46
REMARK SMILES IDX 84 47 35 48 87 49 81 50 80 51 36 53 68 54 48 55 67 56 49 57
REMARK SMILES IDX 52 58 66 59 85 60 50 61 51 62 65 64 86 65 53 66 37 67 38 68
REMARK SMILES IDX 46 69 39 70 45 71 47 72 44 73 40 74 41 75 42 76 43 77 69 78
REMARK SMILES IDX 70 79 78 80 71 81 77 82 79 83 76 84 72 85 73 86 74 87 75 88
REMARK SMILES IDX 54 89 55 90 63 91 56 92 62 93 64 94 61 95 57 96 58 97 59 98
REMARK SMILES IDX 60 99
REMARK H PARENT 18 7 10 15 10 16 25 33 84 52 52 63
REMARK Flexibility Score: inf
ROOT
ATOM      1  C   UNL A   1      46.541  40.288  25.035  1.00  0.00     0.002 C 
ENDROOT
BRANCH   1   2
ATOM      2  C   UNL A   1      46.529  41.795  24.778  1.00  0.00     0.021 C 
BRANCH   2   3
ATOM      3  C   UNL A   1      46.073  42.180  23.372  1.00  0.00     0.116 C 
BRANCH   3   4
ATOM      4  N   UNL A   1      47.015  41.738  22.359  1.00  0.00    -0.356 N 
ATOM      5  C   UNL A   1      47.467  42.361  21.233  1.00  0.00     0.223 C 
ATOM      6  O   UNL A   1      48.248  41.743  20.506  1.00  0.00    -0.275 OA
ATOM      7  H   UNL A   1      47.389  40.840  22.509  1.00  0.00     0.163 HD
BRANCH   5   8
ATOM      8  C   UNL A   1      47.029  43.781  20.883  1.00  0.00     0.084 C 
ATOM      9  C   UNL A   1      47.173  45.519  18.964  1.00  0.00     0.183 C 
ATOM     10  C   UNL A   1      48.213  46.233  19.842  1.00  0.00     0.065 C 
ATOM     11  C   UNL A   1      47.197  44.034  19.368  1.00  0.00     0.078 C 
ATOM     12  C   UNL A   1      47.816  46.214  21.314  1.00  0.00     0.007 C 
ATOM     13  C   UNL A   1      47.664  44.798  21.851  1.00  0.00     0.014 C 
BRANCH   9  14
ATOM     14  N   UNL A   1      45.795  46.000  19.089  1.00  0.00    -0.338 N 
ATOM     15  H   UNL A   1      45.383  45.541  19.902  1.00  0.00     0.347 HD
ATOM     16  H   UNL A   1      45.880  47.015  19.155  1.00  0.00     0.347 HD
BRANCH  14  17
ATOM     17  C   UNL A   1      44.894  45.778  17.959  1.00  0.00     0.214 C 
ATOM     18  C   UNL A   1      42.096  43.702  19.593  1.00  0.00     0.119 A 
ATOM     19  C   UNL A   1      41.000  44.361  19.013  1.00  0.00     0.047 A 
ATOM     20  C   UNL A   1      43.402  44.111  19.316  1.00  0.00     0.056 A 
ATOM     21  C   UNL A   1      41.197  45.379  18.081  1.00  0.00     0.008 A 
ATOM     22  C   UNL A   1      43.594  45.148  18.412  1.00  0.00     0.016 A 
ATOM     23  C   UNL A   1      42.496  45.742  17.776  1.00  0.00    -0.038 A 
ATOM     24  C   UNL A   1      42.940  46.740  16.759  1.00  0.00     0.042 C 
ATOM     25  C   UNL A   1      44.346  47.049  17.270  1.00  0.00     0.075 C 
BRANCH  18  26
ATOM     26  O   UNL A   1      41.948  42.669  20.482  1.00  0.00    -0.497 OA
ATOM     27  C   UNL A   1      43.186  42.271  21.069  1.00  0.00     0.278 C 
ENDBRANCH  18  26
ENDBRANCH  14  17
ENDBRANCH   9  14
ENDBRANCH   5   8
ENDBRANCH   3   4
ENDBRANCH   2   3
ENDBRANCH   1   2
BRANCH   1  28
ATOM     28  C   UNL A   1      46.268  39.885  26.487  1.00  0.00     0.002 C 
BRANCH  28  29
ATOM     29  C   UNL A   1      44.826  39.463  26.781  1.00  0.00     0.021 C 
BRANCH  29  30
ATOM     30  C   UNL A   1      44.695  38.288  27.744  1.00  0.00     0.116 C 
BRANCH  30  31
ATOM     31  N   UNL A   1      45.773  38.268  28.719  1.00  0.00    -0.352 N 
ATOM     32  C   UNL A   1      46.214  37.232  29.502  1.00  0.00     0.251 C 
ATOM     33  H   UNL A   1      46.256  39.118  28.832  1.00  0.00     0.163 HD
ATOM     34  O   UNL A   1      46.981  37.458  30.436  1.00  0.00    -0.269 OA
BRANCH  32  35
ATOM     35  C   UNL A   1      45.748  35.857  29.230  1.00  0.00     0.039 A 
ATOM     36  C   UNL A   1      45.821  34.903  30.247  1.00  0.00     0.014 A 
ATOM     37  C   UNL A   1      45.238  35.511  27.974  1.00  0.00     0.014 A 
ATOM     38  C   UNL A   1      45.329  33.615  30.021  1.00  0.00     0.010 A 
ATOM     39  C   UNL A   1      44.679  34.251  27.777  1.00  0.00     0.010 A 
ATOM     40  C   UNL A   1      44.721  33.288  28.797  1.00  0.00    -0.014 A 
BRANCH  40  41
ATOM     41  C   UNL A   1      44.133  31.943  28.566  1.00  0.00     0.031 A 
ATOM     42  C   UNL A   1      42.808  31.582  29.181  1.00  0.00     0.074 A 
ATOM     43  C   UNL A   1      44.818  31.031  27.848  1.00  0.00     0.049 A 
ATOM     44  N   UNL A   1      42.165  30.444  29.153  1.00  0.00    -0.248 NA
ATOM     45  C   UNL A   1      42.133  32.635  29.955  1.00  0.00     0.031 C 
ATOM     46  C   UNL A   1      46.128  31.253  27.231  1.00  0.00     0.029 A 
ATOM     47  N   UNL A   1      44.515  29.733  27.518  1.00  0.00    -0.354 N 
ATOM     48  C   UNL A   1      41.014  30.638  29.909  1.00  0.00     0.074 A 
ATOM     49  C   UNL A   1      41.084  31.985  30.438  1.00  0.00     0.031 C 
ATOM     50  C   UNL A   1      46.500  30.142  26.574  1.00  0.00     0.029 A 
ATOM     51  C   UNL A   1      45.485  29.112  26.767  1.00  0.00     0.049 A 
ATOM     52  H   UNL A   1      43.680  29.290  27.794  1.00  0.00     0.167 HD
ATOM     53  C   UNL A   1      39.982  29.783  30.121  1.00  0.00     0.034 A 
ATOM     54  C   UNL A   1      45.558  27.850  26.299  1.00  0.00     0.034 A 
ATOM     55  C   UNL A   1      39.928  28.447  29.581  1.00  0.00     0.049 A 
ATOM     56  C   UNL A   1      44.419  26.902  26.584  1.00  0.00     0.074 A 
ATOM     57  C   UNL A   1      38.912  27.513  29.693  1.00  0.00     0.029 A 
ATOM     58  N   UNL A   1      40.936  27.846  28.835  1.00  0.00    -0.354 N 
ATOM     59  N   UNL A   1      43.314  27.118  27.261  1.00  0.00    -0.248 NA
ATOM     60  C   UNL A   1      44.532  25.546  26.035  1.00  0.00     0.031 C 
ATOM     61  C   UNL A   1      39.337  26.326  29.087  1.00  0.00     0.029 A 
ATOM     62  C   UNL A   1      40.580  26.543  28.515  1.00  0.00     0.049 A 
ATOM     63  H   UNL A   1      41.779  28.281  28.572  1.00  0.00     0.167 HD
ATOM     64  C   UNL A   1      42.587  25.932  27.187  1.00  0.00     0.074 A 
ATOM     65  C   UNL A   1      43.371  25.015  26.387  1.00  0.00     0.031 C 
ATOM     66  C   UNL A   1      41.376  25.632  27.726  1.00  0.00     0.034 A 
BRANCH  53  67
ATOM     67  C   UNL A   1      38.849  30.262  30.999  1.00  0.00     0.023 A 
ATOM     68  C   UNL A   1      37.713  30.892  30.461  1.00  0.00     0.031 A 
ATOM     69  C   UNL A   1      38.912  30.105  32.394  1.00  0.00     0.131 A 
ATOM     70  C   UNL A   1      36.728  31.410  31.315  1.00  0.00     0.055 A 
ATOM     71  C   UNL A   1      37.886  30.544  33.233  1.00  0.00     0.041 A 
ATOM     72  F   UNL A   1      39.981  29.532  32.971  1.00  0.00    -0.206 F 
ATOM     73  C   UNL A   1      36.792  31.215  32.696  1.00  0.00     0.022 A 
BRANCH  70  74
ATOM     74  S   UNL A   1      35.442  32.477  30.606  1.00  0.00     0.124 S 
ATOM     75  O   UNL A   1      36.153  33.746  30.474  1.00  0.00    -0.237 OA
ATOM     76  O   UNL A   1      35.117  31.793  29.360  1.00  0.00    -0.237 OA
ATOM     77  O   UNL A   1      34.389  32.463  31.621  1.00  0.00    -0.744 OA
ENDBRANCH  70  74
ENDBRANCH  53  67
BRANCH  54  78
ATOM     78  C   UNL A   1      46.752  27.396  25.526  1.00  0.00     0.023 A 
ATOM     79  C   UNL A   1      46.983  27.848  24.218  1.00  0.00     0.031 A 
ATOM     80  C   UNL A   1      47.656  26.464  26.069  1.00  0.00     0.131 A 
ATOM     81  C   UNL A   1      48.057  27.331  23.477  1.00  0.00     0.055 A 
ATOM     82  C   UNL A   1      48.758  26.000  25.350  1.00  0.00     0.041 A 
ATOM     83  F   UNL A   1      47.483  25.998  27.317  1.00  0.00    -0.206 F 
ATOM     84  C   UNL A   1      48.956  26.423  24.041  1.00  0.00     0.022 A 
BRANCH  81  85
ATOM     85  S   UNL A   1      48.206  27.788  21.728  1.00  0.00     0.124 S 
ATOM     86  O   UNL A   1      46.916  28.418  21.476  1.00  0.00    -0.237 OA
ATOM     87  O   UNL A   1      49.364  28.677  21.745  1.00  0.00    -0.237 OA
ATOM     88  O   UNL A   1      48.417  26.505  21.059  1.00  0.00    -0.744 OA
ENDBRANCH  81  85
ENDBRANCH  54  78
BRANCH  66  89
ATOM     89  C   UNL A   1      40.807  24.266  27.423  1.00  0.00     0.023 A 
ATOM     90  C   UNL A   1      39.691  24.095  26.585  1.00  0.00     0.031 A 
ATOM     91  C   UNL A   1      41.389  23.119  27.990  1.00  0.00     0.131 A 
ATOM     92  C   UNL A   1      39.156  22.813  26.386  1.00  0.00     0.055 A 
ATOM     93  C   UNL A   1      40.896  21.839  27.732  1.00  0.00     0.041 A 
ATOM     94  F   UNL A   1      42.455  23.221  28.801  1.00  0.00    -0.206 F 
ATOM     95  C   UNL A   1      39.764  21.682  26.938  1.00  0.00     0.022 A 
BRANCH  92  96
ATOM     96  S   UNL A   1      37.593  22.652  25.480  1.00  0.00     0.124 S 
ATOM     97  O   UNL A   1      37.646  21.266  25.028  1.00  0.00    -0.237 OA
ATOM     98  O   UNL A   1      36.603  22.949  26.509  1.00  0.00    -0.237 OA
ATOM     99  O   UNL A   1      37.706  23.655  24.422  1.00  0.00    -0.744 OA
ENDBRANCH  92  96
ENDBRANCH  66  89
ENDBRANCH  40  41
ENDBRANCH  32  35
ENDBRANCH  30  31
ENDBRANCH  29  30
ENDBRANCH  28  29
ENDBRANCH   1  28
TORSDOF 19
ENDMDL
