MODEL 1
REMARK VINA RESULT:     -11.7      0.000      0.000
REMARK SMILES [NH3+][C@@]1(C(=O)NCCCCCCNC(=O)c2ccc(-c3c4nc(c(-c5cc(S(=O)(=O)[O-])ccc5F)c5ccc([nH]5)c(-c5cc(S(=O)(=O)[O-])ccc5F)c5nc(c(-c6cc(S(=O)(=O)[O-])ccc6F)c6ccc3[nH]6)C=C5)C=C4)cc2)CCC[C@@H](Oc2ccccc2[N+](=O)[O-])C1
REMARK SMILES IDX 8 1 7 2 6 3 5 4 3 5 4 6 2 8 78 9 92 10 79 11 81 12 80 13
REMARK SMILES IDX 1 14 82 18 83 19 84 20 88 21 85 22 87 23 86 24 89 25 90 26
REMARK SMILES IDX 91 27 9 28 10 29 11 30 12 31 13 32 14 34 15 35 16 36 77 37
REMARK SMILES IDX 17 38 76 39 18 40 19 41 20 42 70 43 21 44 75 45 69 46 71 47
REMARK SMILES IDX 22 48 74 49 68 50 67 51 23 53 55 54 35 55 54 56 36 57 39 58
REMARK SMILES IDX 53 59 72 60 37 61 38 62 52 64 73 65 40 66 24 67 25 68 33 69
REMARK SMILES IDX 26 70 32 71 34 72 31 73 27 74 28 75 29 76 30 77 56 78 57 79
REMARK SMILES IDX 65 80 58 81 64 82 66 83 63 84 59 85 60 86 61 87 62 88 41 89
REMARK SMILES IDX 42 90 50 91 43 92 49 93 51 94 48 95 44 96 45 97 46 98 47 99
REMARK H PARENT 5 7 1 15 1 16 1 17 12 33 71 52 39 63
REMARK Flexibility Score: inf
ROOT
ATOM      1  C   UNL A   1      30.323  29.496  23.877  1.00  0.00     0.002 C 
ENDROOT
BRANCH   1   2
ATOM      2  C   UNL A   1      31.092  28.886  22.698  1.00  0.00     0.021 C 
BRANCH   2   3
ATOM      3  C   UNL A   1      30.667  27.449  22.363  1.00  0.00     0.116 C 
BRANCH   3   4
ATOM      4  N   UNL A   1      31.664  26.747  21.573  1.00  0.00    -0.351 N 
ATOM      5  C   UNL A   1      32.611  25.820  21.893  1.00  0.00     0.281 C 
ATOM      6  O   UNL A   1      33.301  25.409  20.949  1.00  0.00    -0.268 OA
ATOM      7  H   UNL A   1      31.655  26.990  20.619  1.00  0.00     0.163 HD
BRANCH   5   8
ATOM      8  C   UNL A   1      32.762  25.189  23.327  1.00  0.00     0.177 C 
ATOM      9  C   UNL A   1      33.349  26.258  24.277  1.00  0.00     0.079 C 
ATOM     10  C   UNL A   1      33.771  24.023  23.216  1.00  0.00     0.124 C 
ATOM     11  C   UNL A   1      33.682  25.715  25.666  1.00  0.00     0.011 C 
ATOM     12  C   UNL A   1      34.407  23.504  24.522  1.00  0.00     0.180 C 
ATOM     13  C   UNL A   1      34.667  24.553  25.615  1.00  0.00     0.046 C 
BRANCH   8  14
ATOM     14  N   UNL A   1      31.439  24.817  23.858  1.00  0.00    -0.345 N 
ATOM     15  H   UNL A   1      30.724  25.410  23.437  1.00  0.00     0.345 HD
ATOM     16  H   UNL A   1      31.431  24.942  24.870  1.00  0.00     0.345 HD
ATOM     17  H   UNL A   1      31.245  23.841  23.634  1.00  0.00     0.345 HD
ENDBRANCH   8  14
BRANCH  12  18
ATOM     18  O   UNL A   1      33.920  22.242  25.031  1.00  0.00    -0.483 OA
BRANCH  18  19
ATOM     19  C   UNL A   1      34.735  21.161  24.926  1.00  0.00     0.197 A 
ATOM     20  C   UNL A   1      36.117  21.352  24.988  1.00  0.00     0.054 A 
ATOM     21  C   UNL A   1      34.244  19.875  24.674  1.00  0.00     0.310 A 
ATOM     22  C   UNL A   1      36.981  20.255  24.946  1.00  0.00     0.004 A 
ATOM     23  C   UNL A   1      35.102  18.765  24.655  1.00  0.00     0.090 A 
ATOM     24  C   UNL A   1      36.473  18.963  24.810  1.00  0.00     0.007 A 
BRANCH  21  25
ATOM     25  N   UNL A   1      32.821  19.641  24.480  1.00  0.00     0.066 N 
ATOM     26  O   UNL A   1      32.317  20.115  23.450  1.00  0.00    -0.258 OA
ATOM     27  O   UNL A   1      32.209  18.997  25.339  1.00  0.00    -0.258 OA
ENDBRANCH  21  25
ENDBRANCH  18  19
ENDBRANCH  12  18
ENDBRANCH   5   8
ENDBRANCH   3   4
ENDBRANCH   2   3
ENDBRANCH   1   2
BRANCH   1  28
ATOM     28  C   UNL A   1      31.198  30.073  24.998  1.00  0.00     0.002 C 
BRANCH  28  29
ATOM     29  C   UNL A   1      31.740  29.056  26.009  1.00  0.00     0.021 C 
BRANCH  29  30
ATOM     30  C   UNL A   1      32.969  29.505  26.801  1.00  0.00     0.116 C 
BRANCH  30  31
ATOM     31  N   UNL A   1      33.047  30.951  26.923  1.00  0.00    -0.352 N 
ATOM     32  C   UNL A   1      33.918  31.749  27.613  1.00  0.00     0.251 C 
ATOM     33  H   UNL A   1      32.355  31.440  26.422  1.00  0.00     0.163 HD
ATOM     34  O   UNL A   1      33.647  32.946  27.739  1.00  0.00    -0.269 OA
BRANCH  32  35
ATOM     35  C   UNL A   1      35.161  31.211  28.211  1.00  0.00     0.039 A 
ATOM     36  C   UNL A   1      36.310  32.007  28.182  1.00  0.00     0.014 A 
ATOM     37  C   UNL A   1      35.232  29.915  28.731  1.00  0.00     0.014 A 
ATOM     38  C   UNL A   1      37.510  31.524  28.709  1.00  0.00     0.010 A 
ATOM     39  C   UNL A   1      36.414  29.459  29.320  1.00  0.00     0.010 A 
ATOM     40  C   UNL A   1      37.568  30.255  29.308  1.00  0.00    -0.014 A 
BRANCH  40  41
ATOM     41  C   UNL A   1      38.833  29.777  29.926  1.00  0.00     0.031 A 
ATOM     42  C   UNL A   1      39.266  30.272  31.280  1.00  0.00     0.074 A 
ATOM     43  C   UNL A   1      39.600  28.899  29.250  1.00  0.00     0.049 A 
ATOM     44  N   UNL A   1      40.315  29.934  31.987  1.00  0.00    -0.248 NA
ATOM     45  C   UNL A   1      38.425  31.299  31.910  1.00  0.00     0.031 C 
ATOM     46  C   UNL A   1      39.312  28.391  27.906  1.00  0.00     0.029 A 
ATOM     47  N   UNL A   1      40.769  28.272  29.597  1.00  0.00    -0.354 N 
ATOM     48  C   UNL A   1      40.260  30.705  33.144  1.00  0.00     0.074 A 
ATOM     49  C   UNL A   1      39.111  31.575  33.009  1.00  0.00     0.031 C 
ATOM     50  C   UNL A   1      40.254  27.499  27.562  1.00  0.00     0.029 A 
ATOM     51  C   UNL A   1      41.232  27.396  28.640  1.00  0.00     0.049 A 
ATOM     52  H   UNL A   1      41.234  28.431  30.450  1.00  0.00     0.167 HD
ATOM     53  C   UNL A   1      41.078  30.672  34.227  1.00  0.00     0.034 A 
ATOM     54  C   UNL A   1      42.317  26.599  28.634  1.00  0.00     0.034 A 
ATOM     55  C   UNL A   1      42.219  29.793  34.345  1.00  0.00     0.049 A 
ATOM     56  C   UNL A   1      43.210  26.580  29.847  1.00  0.00     0.074 A 
ATOM     57  C   UNL A   1      43.081  29.637  35.417  1.00  0.00     0.029 A 
ATOM     58  N   UNL A   1      42.664  28.928  33.352  1.00  0.00    -0.354 N 
ATOM     59  N   UNL A   1      43.104  27.267  30.961  1.00  0.00    -0.248 NA
ATOM     60  C   UNL A   1      44.356  25.665  29.806  1.00  0.00     0.031 C 
ATOM     61  C   UNL A   1      44.084  28.732  35.048  1.00  0.00     0.029 A 
ATOM     62  C   UNL A   1      43.807  28.262  33.774  1.00  0.00     0.049 A 
ATOM     63  H   UNL A   1      42.232  28.805  32.477  1.00  0.00     0.167 HD
ATOM     64  C   UNL A   1      44.163  26.849  31.764  1.00  0.00     0.074 A 
ATOM     65  C   UNL A   1      44.870  25.829  31.015  1.00  0.00     0.031 C 
ATOM     66  C   UNL A   1      44.522  27.270  33.005  1.00  0.00     0.034 A 
BRANCH  53  67
ATOM     67  C   UNL A   1      40.778  31.632  35.356  1.00  0.00     0.023 A 
ATOM     68  C   UNL A   1      39.644  31.480  36.175  1.00  0.00     0.031 A 
ATOM     69  C   UNL A   1      41.623  32.729  35.606  1.00  0.00     0.131 A 
ATOM     70  C   UNL A   1      39.345  32.446  37.149  1.00  0.00     0.055 A 
ATOM     71  C   UNL A   1      41.364  33.642  36.632  1.00  0.00     0.041 A 
ATOM     72  F   UNL A   1      42.709  32.941  34.847  1.00  0.00    -0.206 F 
ATOM     73  C   UNL A   1      40.211  33.512  37.400  1.00  0.00     0.022 A 
BRANCH  70  74
ATOM     74  S   UNL A   1      37.736  32.368  37.982  1.00  0.00     0.124 S 
ATOM     75  O   UNL A   1      38.035  33.003  39.263  1.00  0.00    -0.237 OA
ATOM     76  O   UNL A   1      36.877  33.127  37.078  1.00  0.00    -0.237 OA
ATOM     77  O   UNL A   1      37.456  30.937  38.055  1.00  0.00    -0.744 OA
ENDBRANCH  70  74
ENDBRANCH  53  67
BRANCH  54  78
ATOM     78  C   UNL A   1      42.620  25.747  27.448  1.00  0.00     0.023 A 
ATOM     79  C   UNL A   1      42.168  24.420  27.374  1.00  0.00     0.031 A 
ATOM     80  C   UNL A   1      43.401  26.238  26.386  1.00  0.00     0.131 A 
ATOM     81  C   UNL A   1      42.539  23.614  26.285  1.00  0.00     0.055 A 
ATOM     82  C   UNL A   1      43.722  25.449  25.280  1.00  0.00     0.041 A 
ATOM     83  F   UNL A   1      43.853  27.503  26.403  1.00  0.00    -0.206 F 
ATOM     84  C   UNL A   1      43.301  24.124  25.233  1.00  0.00     0.022 A 
BRANCH  81  85
ATOM     85  S   UNL A   1      42.079  21.859  26.307  1.00  0.00     0.124 S 
ATOM     86  O   UNL A   1      42.430  21.476  27.670  1.00  0.00    -0.237 OA
ATOM     87  O   UNL A   1      40.653  21.918  26.005  1.00  0.00    -0.237 OA
ATOM     88  O   UNL A   1      42.912  21.277  25.259  1.00  0.00    -0.744 OA
ENDBRANCH  81  85
ENDBRANCH  54  78
BRANCH  66  89
ATOM     89  C   UNL A   1      45.729  26.603  33.621  1.00  0.00     0.023 A 
ATOM     90  C   UNL A   1      45.596  25.558  34.553  1.00  0.00     0.031 A 
ATOM     91  C   UNL A   1      47.026  27.051  33.313  1.00  0.00     0.131 A 
ATOM     92  C   UNL A   1      46.730  25.050  35.202  1.00  0.00     0.055 A 
ATOM     93  C   UNL A   1      48.157  26.492  33.911  1.00  0.00     0.041 A 
ATOM     94  F   UNL A   1      47.215  28.047  32.433  1.00  0.00    -0.206 F 
ATOM     95  C   UNL A   1      48.012  25.500  34.876  1.00  0.00     0.022 A 
BRANCH  92  96
ATOM     96  S   UNL A   1      46.495  23.887  36.574  1.00  0.00     0.124 S 
ATOM     97  O   UNL A   1      47.573  22.928  36.346  1.00  0.00    -0.237 OA
ATOM     98  O   UNL A   1      46.645  24.748  37.742  1.00  0.00    -0.237 OA
ATOM     99  O   UNL A   1      45.147  23.367  36.356  1.00  0.00    -0.744 OA
ENDBRANCH  92  96
ENDBRANCH  66  89
ENDBRANCH  40  41
ENDBRANCH  32  35
ENDBRANCH  30  31
ENDBRANCH  29  30
ENDBRANCH  28  29
ENDBRANCH   1  28
TORSDOF 20
ENDMDL
MODEL 2
REMARK VINA RESULT:     -11.6      1.311      1.490
REMARK SMILES [NH3+][C@@]1(C(=O)NCCCCCCNC(=O)c2ccc(-c3c4nc(c(-c5cc(S(=O)(=O)[O-])ccc5F)c5ccc([nH]5)c(-c5cc(S(=O)(=O)[O-])ccc5F)c5nc(c(-c6cc(S(=O)(=O)[O-])ccc6F)c6ccc3[nH]6)C=C5)C=C4)cc2)CCC[C@@H](Oc2ccccc2[N+](=O)[O-])C1
REMARK SMILES IDX 8 1 7 2 6 3 5 4 3 5 4 6 2 8 78 9 92 10 79 11 81 12 80 13
REMARK SMILES IDX 1 14 82 18 83 19 84 20 88 21 85 22 87 23 86 24 89 25 90 26
REMARK SMILES IDX 91 27 9 28 10 29 11 30 12 31 13 32 14 34 15 35 16 36 77 37
REMARK SMILES IDX 17 38 76 39 18 40 19 41 20 42 70 43 21 44 75 45 69 46 71 47
REMARK SMILES IDX 22 48 74 49 68 50 67 51 23 53 55 54 35 55 54 56 36 57 39 58
REMARK SMILES IDX 53 59 72 60 37 61 38 62 52 64 73 65 40 66 24 67 25 68 33 69
REMARK SMILES IDX 26 70 32 71 34 72 31 73 27 74 28 75 29 76 30 77 56 78 57 79
REMARK SMILES IDX 65 80 58 81 64 82 66 83 63 84 59 85 60 86 61 87 62 88 41 89
REMARK SMILES IDX 42 90 50 91 43 92 49 93 51 94 48 95 44 96 45 97 46 98 47 99
REMARK H PARENT 5 7 1 15 1 16 1 17 12 33 71 52 39 63
REMARK Flexibility Score: inf
ROOT
ATOM      1  C   UNL A   1      30.321  29.496  23.874  1.00  0.00     0.002 C 
ENDROOT
BRANCH   1   2
ATOM      2  C   UNL A   1      31.097  28.887  22.699  1.00  0.00     0.021 C 
BRANCH   2   3
ATOM      3  C   UNL A   1      30.672  27.451  22.359  1.00  0.00     0.116 C 
BRANCH   3   4
ATOM      4  N   UNL A   1      31.672  26.750  21.572  1.00  0.00    -0.351 N 
ATOM      5  C   UNL A   1      32.616  25.820  21.894  1.00  0.00     0.281 C 
ATOM      6  O   UNL A   1      33.309  25.411  20.953  1.00  0.00    -0.268 OA
ATOM      7  H   UNL A   1      31.668  26.995  20.619  1.00  0.00     0.163 HD
BRANCH   5   8
ATOM      8  C   UNL A   1      32.758  25.185  23.326  1.00  0.00     0.177 C 
ATOM      9  C   UNL A   1      33.352  26.248  24.281  1.00  0.00     0.079 C 
ATOM     10  C   UNL A   1      33.759  24.011  23.216  1.00  0.00     0.124 C 
ATOM     11  C   UNL A   1      33.677  25.699  25.669  1.00  0.00     0.011 C 
ATOM     12  C   UNL A   1      34.388  23.484  24.522  1.00  0.00     0.180 C 
ATOM     13  C   UNL A   1      34.654  24.530  25.618  1.00  0.00     0.046 C 
BRANCH   8  14
ATOM     14  N   UNL A   1      31.432  24.822  23.854  1.00  0.00    -0.345 N 
ATOM     15  H   UNL A   1      31.507  24.615  24.850  1.00  0.00     0.345 HD
ATOM     16  H   UNL A   1      31.083  24.000  23.362  1.00  0.00     0.345 HD
ATOM     17  H   UNL A   1      30.786  25.600  23.716  1.00  0.00     0.345 HD
ENDBRANCH   8  14
BRANCH  12  18
ATOM     18  O   UNL A   1      33.890  22.226  25.027  1.00  0.00    -0.483 OA
BRANCH  18  19
ATOM     19  C   UNL A   1      34.696  21.138  24.919  1.00  0.00     0.197 A 
ATOM     20  C   UNL A   1      36.079  21.317  24.982  1.00  0.00     0.054 A 
ATOM     21  C   UNL A   1      34.194  19.857  24.664  1.00  0.00     0.310 A 
ATOM     22  C   UNL A   1      36.934  20.213  24.936  1.00  0.00     0.004 A 
ATOM     23  C   UNL A   1      35.042  18.740  24.642  1.00  0.00     0.090 A 
ATOM     24  C   UNL A   1      36.415  18.925  24.798  1.00  0.00     0.007 A 
BRANCH  21  25
ATOM     25  N   UNL A   1      32.769  19.636  24.469  1.00  0.00     0.066 N 
ATOM     26  O   UNL A   1      32.269  20.115  23.440  1.00  0.00    -0.258 OA
ATOM     27  O   UNL A   1      32.152  18.995  25.328  1.00  0.00    -0.258 OA
ENDBRANCH  21  25
ENDBRANCH  18  19
ENDBRANCH  12  18
ENDBRANCH   5   8
ENDBRANCH   3   4
ENDBRANCH   2   3
ENDBRANCH   1   2
BRANCH   1  28
ATOM     28  C   UNL A   1      31.191  30.076  24.998  1.00  0.00     0.002 C 
BRANCH  28  29
ATOM     29  C   UNL A   1      31.733  29.061  26.011  1.00  0.00     0.021 C 
BRANCH  29  30
ATOM     30  C   UNL A   1      32.955  29.515  26.811  1.00  0.00     0.116 C 
BRANCH  30  31
ATOM     31  N   UNL A   1      33.023  30.962  26.937  1.00  0.00    -0.352 N 
ATOM     32  C   UNL A   1      33.889  31.763  27.629  1.00  0.00     0.251 C 
ATOM     33  H   UNL A   1      32.326  31.448  26.439  1.00  0.00     0.163 HD
ATOM     34  O   UNL A   1      33.609  32.958  27.760  1.00  0.00    -0.269 OA
BRANCH  32  35
ATOM     35  C   UNL A   1      35.136  31.233  28.225  1.00  0.00     0.039 A 
ATOM     36  C   UNL A   1      36.280  32.036  28.196  1.00  0.00     0.014 A 
ATOM     37  C   UNL A   1      35.216  29.936  28.742  1.00  0.00     0.014 A 
ATOM     38  C   UNL A   1      37.483  31.560  28.720  1.00  0.00     0.010 A 
ATOM     39  C   UNL A   1      36.402  29.486  29.328  1.00  0.00     0.010 A 
ATOM     40  C   UNL A   1      37.550  30.290  29.316  1.00  0.00    -0.014 A 
BRANCH  40  41
ATOM     41  C   UNL A   1      38.819  29.818  29.932  1.00  0.00     0.031 A 
ATOM     42  C   UNL A   1      39.251  30.314  31.286  1.00  0.00     0.074 A 
ATOM     43  C   UNL A   1      39.591  28.947  29.253  1.00  0.00     0.049 A 
ATOM     44  N   UNL A   1      40.303  29.981  31.991  1.00  0.00    -0.248 NA
ATOM     45  C   UNL A   1      38.404  31.335  31.919  1.00  0.00     0.031 C 
ATOM     46  C   UNL A   1      39.304  28.439  27.909  1.00  0.00     0.029 A 
ATOM     47  N   UNL A   1      40.765  28.326  29.597  1.00  0.00    -0.354 N 
ATOM     48  C   UNL A   1      40.245  30.749  33.149  1.00  0.00     0.074 A 
ATOM     49  C   UNL A   1      39.091  31.612  33.017  1.00  0.00     0.031 C 
ATOM     50  C   UNL A   1      40.252  27.554  27.561  1.00  0.00     0.029 A 
ATOM     51  C   UNL A   1      41.232  27.456  28.638  1.00  0.00     0.049 A 
ATOM     52  H   UNL A   1      41.230  28.487  30.450  1.00  0.00     0.167 HD
ATOM     53  C   UNL A   1      41.065  30.720  34.231  1.00  0.00     0.034 A 
ATOM     54  C   UNL A   1      42.321  26.665  28.628  1.00  0.00     0.034 A 
ATOM     55  C   UNL A   1      42.212  29.848  34.346  1.00  0.00     0.049 A 
ATOM     56  C   UNL A   1      43.217  26.650  29.840  1.00  0.00     0.074 A 
ATOM     57  C   UNL A   1      43.076  29.696  35.416  1.00  0.00     0.029 A 
ATOM     58  N   UNL A   1      42.661  28.988  33.351  1.00  0.00    -0.354 N 
ATOM     59  N   UNL A   1      43.108  27.334  30.956  1.00  0.00    -0.248 NA
ATOM     60  C   UNL A   1      44.368  25.742  29.796  1.00  0.00     0.031 C 
ATOM     61  C   UNL A   1      44.085  28.797  35.044  1.00  0.00     0.029 A 
ATOM     62  C   UNL A   1      43.808  28.328  33.769  1.00  0.00     0.049 A 
ATOM     63  H   UNL A   1      42.228  28.863  32.475  1.00  0.00     0.167 HD
ATOM     64  C   UNL A   1      44.170  26.921  31.756  1.00  0.00     0.074 A 
ATOM     65  C   UNL A   1      44.883  25.907  31.005  1.00  0.00     0.031 C 
ATOM     66  C   UNL A   1      44.528  27.342  32.997  1.00  0.00     0.034 A 
BRANCH  53  67
ATOM     67  C   UNL A   1      40.760  31.676  35.362  1.00  0.00     0.023 A 
ATOM     68  C   UNL A   1      39.629  31.514  36.184  1.00  0.00     0.031 A 
ATOM     69  C   UNL A   1      41.598  32.778  35.612  1.00  0.00     0.131 A 
ATOM     70  C   UNL A   1      39.326  32.476  37.160  1.00  0.00     0.055 A 
ATOM     71  C   UNL A   1      41.334  33.688  36.640  1.00  0.00     0.041 A 
ATOM     72  F   UNL A   1      42.681  33.000  34.851  1.00  0.00    -0.206 F 
ATOM     73  C   UNL A   1      40.184  33.548  37.410  1.00  0.00     0.022 A 
BRANCH  70  74
ATOM     74  S   UNL A   1      37.719  32.386  37.996  1.00  0.00     0.124 S 
ATOM     75  O   UNL A   1      38.017  33.019  39.278  1.00  0.00    -0.237 OA
ATOM     76  O   UNL A   1      36.853  33.142  37.097  1.00  0.00    -0.237 OA
ATOM     77  O   UNL A   1      37.448  30.952  38.065  1.00  0.00    -0.744 OA
ENDBRANCH  70  74
ENDBRANCH  53  67
BRANCH  54  78
ATOM     78  C   UNL A   1      42.629  25.817  27.441  1.00  0.00     0.023 A 
ATOM     79  C   UNL A   1      42.184  24.488  27.364  1.00  0.00     0.031 A 
ATOM     80  C   UNL A   1      43.405  26.315  26.378  1.00  0.00     0.131 A 
ATOM     81  C   UNL A   1      42.559  23.686  26.274  1.00  0.00     0.055 A 
ATOM     82  C   UNL A   1      43.729  25.531  25.270  1.00  0.00     0.041 A 
ATOM     83  F   UNL A   1      43.849  27.583  26.397  1.00  0.00    -0.206 F 
ATOM     84  C   UNL A   1      43.316  24.203  25.221  1.00  0.00     0.022 A 
BRANCH  81  85
ATOM     85  S   UNL A   1      42.110  21.928  26.293  1.00  0.00     0.124 S 
ATOM     86  O   UNL A   1      42.465  21.545  27.655  1.00  0.00    -0.237 OA
ATOM     87  O   UNL A   1      40.683  21.979  25.992  1.00  0.00    -0.237 OA
ATOM     88  O   UNL A   1      42.946  21.353  25.243  1.00  0.00    -0.744 OA
ENDBRANCH  81  85
ENDBRANCH  54  78
BRANCH  66  89
ATOM     89  C   UNL A   1      45.740  26.682  33.611  1.00  0.00     0.023 A 
ATOM     90  C   UNL A   1      47.036  27.191  33.410  1.00  0.00     0.031 A 
ATOM     91  C   UNL A   1      45.605  25.503  34.365  1.00  0.00     0.131 A 
ATOM     92  C   UNL A   1      48.148  26.482  33.884  1.00  0.00     0.055 A 
ATOM     93  C   UNL A   1      46.713  24.839  34.896  1.00  0.00     0.041 A 
ATOM     94  F   UNL A   1      44.394  24.969  34.588  1.00  0.00    -0.206 F 
ATOM     95  C   UNL A   1      47.995  25.317  34.640  1.00  0.00     0.022 A 
BRANCH  92  96
ATOM     96  S   UNL A   1      49.804  27.033  33.389  1.00  0.00     0.124 S 
ATOM     97  O   UNL A   1      50.277  27.700  34.598  1.00  0.00    -0.237 OA
ATOM     98  O   UNL A   1      50.464  25.774  33.055  1.00  0.00    -0.237 OA
ATOM     99  O   UNL A   1      49.546  27.917  32.254  1.00  0.00    -0.744 OA
ENDBRANCH  92  96
ENDBRANCH  66  89
ENDBRANCH  40  41
ENDBRANCH  32  35
ENDBRANCH  30  31
ENDBRANCH  29  30
ENDBRANCH  28  29
ENDBRANCH   1  28
TORSDOF 20
ENDMDL
MODEL 3
REMARK VINA RESULT:     -11.3      2.018      2.407
REMARK SMILES [NH3+][C@@]1(C(=O)NCCCCCCNC(=O)c2ccc(-c3c4nc(c(-c5cc(S(=O)(=O)[O-])ccc5F)c5ccc([nH]5)c(-c5cc(S(=O)(=O)[O-])ccc5F)c5nc(c(-c6cc(S(=O)(=O)[O-])ccc6F)c6ccc3[nH]6)C=C5)C=C4)cc2)CCC[C@@H](Oc2ccccc2[N+](=O)[O-])C1
REMARK SMILES IDX 8 1 7 2 6 3 5 4 3 5 4 6 2 8 78 9 92 10 79 11 81 12 80 13
REMARK SMILES IDX 1 14 82 18 83 19 84 20 88 21 85 22 87 23 86 24 89 25 90 26
REMARK SMILES IDX 91 27 9 28 10 29 11 30 12 31 13 32 14 34 15 35 16 36 77 37
REMARK SMILES IDX 17 38 76 39 18 40 19 41 20 42 70 43 21 44 75 45 69 46 71 47
REMARK SMILES IDX 22 48 74 49 68 50 67 51 23 53 55 54 35 55 54 56 36 57 39 58
REMARK SMILES IDX 53 59 72 60 37 61 38 62 52 64 73 65 40 66 24 67 25 68 33 69
REMARK SMILES IDX 26 70 32 71 34 72 31 73 27 74 28 75 29 76 30 77 56 78 57 79
REMARK SMILES IDX 65 80 58 81 64 82 66 83 63 84 59 85 60 86 61 87 62 88 41 89
REMARK SMILES IDX 42 90 50 91 43 92 49 93 51 94 48 95 44 96 45 97 46 98 47 99
REMARK H PARENT 5 7 1 15 1 16 1 17 12 33 71 52 39 63
REMARK Flexibility Score: inf
ROOT
ATOM      1  C   UNL A   1      30.675  29.330  24.270  1.00  0.00     0.002 C 
ENDROOT
BRANCH   1   2
ATOM      2  C   UNL A   1      31.222  28.991  22.877  1.00  0.00     0.021 C 
BRANCH   2   3
ATOM      3  C   UNL A   1      30.565  27.759  22.239  1.00  0.00     0.116 C 
BRANCH   3   4
ATOM      4  N   UNL A   1      31.488  27.008  21.406  1.00  0.00    -0.351 N 
ATOM      5  C   UNL A   1      32.406  26.038  21.686  1.00  0.00     0.281 C 
ATOM      6  O   UNL A   1      33.028  25.591  20.713  1.00  0.00    -0.268 OA
ATOM      7  H   UNL A   1      31.444  27.246  20.452  1.00  0.00     0.163 HD
BRANCH   5   8
ATOM      8  C   UNL A   1      32.596  25.408  23.115  1.00  0.00     0.177 C 
ATOM      9  C   UNL A   1      33.695  26.199  23.862  1.00  0.00     0.079 C 
ATOM     10  C   UNL A   1      33.085  23.954  22.919  1.00  0.00     0.124 C 
ATOM     11  C   UNL A   1      34.075  25.583  25.208  1.00  0.00     0.011 C 
ATOM     12  C   UNL A   1      33.734  23.250  24.128  1.00  0.00     0.180 C 
ATOM     13  C   UNL A   1      34.555  24.143  25.073  1.00  0.00     0.046 C 
BRANCH   8  14
ATOM     14  N   UNL A   1      31.356  25.544  23.899  1.00  0.00    -0.345 N 
ATOM     15  H   UNL A   1      30.556  25.302  23.314  1.00  0.00     0.345 HD
ATOM     16  H   UNL A   1      31.262  26.507  24.221  1.00  0.00     0.345 HD
ATOM     17  H   UNL A   1      31.391  24.918  24.703  1.00  0.00     0.345 HD
ENDBRANCH   8  14
BRANCH  12  18
ATOM     18  O   UNL A   1      32.940  22.255  24.811  1.00  0.00    -0.483 OA
BRANCH  18  19
ATOM     19  C   UNL A   1      33.209  20.948  24.557  1.00  0.00     0.197 A 
ATOM     20  C   UNL A   1      32.303  20.211  23.793  1.00  0.00     0.054 A 
ATOM     21  C   UNL A   1      34.319  20.293  25.103  1.00  0.00     0.310 A 
ATOM     22  C   UNL A   1      32.579  18.882  23.462  1.00  0.00     0.004 A 
ATOM     23  C   UNL A   1      34.618  18.967  24.756  1.00  0.00     0.090 A 
ATOM     24  C   UNL A   1      33.749  18.271  23.916  1.00  0.00     0.007 A 
BRANCH  21  25
ATOM     25  N   UNL A   1      35.228  20.984  26.004  1.00  0.00     0.066 N 
ATOM     26  O   UNL A   1      36.392  21.142  25.604  1.00  0.00    -0.258 OA
ATOM     27  O   UNL A   1      34.794  21.364  27.098  1.00  0.00    -0.258 OA
ENDBRANCH  21  25
ENDBRANCH  18  19
ENDBRANCH  12  18
ENDBRANCH   5   8
ENDBRANCH   3   4
ENDBRANCH   2   3
ENDBRANCH   1   2
BRANCH   1  28
ATOM     28  C   UNL A   1      31.725  29.792  25.288  1.00  0.00     0.002 C 
BRANCH  28  29
ATOM     29  C   UNL A   1      32.375  28.683  26.125  1.00  0.00     0.021 C 
BRANCH  29  30
ATOM     30  C   UNL A   1      33.549  29.121  27.001  1.00  0.00     0.116 C 
BRANCH  30  31
ATOM     31  N   UNL A   1      33.548  30.553  27.249  1.00  0.00    -0.352 N 
ATOM     32  C   UNL A   1      34.405  31.341  27.966  1.00  0.00     0.251 C 
ATOM     33  H   UNL A   1      32.803  31.039  26.827  1.00  0.00     0.163 HD
ATOM     34  O   UNL A   1      34.070  32.503  28.213  1.00  0.00    -0.269 OA
BRANCH  32  35
ATOM     35  C   UNL A   1      35.707  30.834  28.455  1.00  0.00     0.039 A 
ATOM     36  C   UNL A   1      35.707  29.777  29.371  1.00  0.00     0.014 A 
ATOM     37  C   UNL A   1      36.919  31.426  28.085  1.00  0.00     0.014 A 
ATOM     38  C   UNL A   1      36.913  29.291  29.878  1.00  0.00     0.010 A 
ATOM     39  C   UNL A   1      38.128  30.894  28.540  1.00  0.00     0.010 A 
ATOM     40  C   UNL A   1      38.138  29.826  29.447  1.00  0.00    -0.014 A 
BRANCH  40  41
ATOM     41  C   UNL A   1      39.419  29.256  29.943  1.00  0.00     0.031 A 
ATOM     42  C   UNL A   1      40.081  29.804  31.178  1.00  0.00     0.074 A 
ATOM     43  C   UNL A   1      39.992  28.245  29.260  1.00  0.00     0.049 A 
ATOM     44  N   UNL A   1      41.176  29.405  31.776  1.00  0.00    -0.248 NA
ATOM     45  C   UNL A   1      39.445  30.968  31.811  1.00  0.00     0.031 C 
ATOM     46  C   UNL A   1      39.473  27.668  28.018  1.00  0.00     0.029 A 
ATOM     47  N   UNL A   1      41.126  27.517  29.513  1.00  0.00    -0.354 N 
ATOM     48  C   UNL A   1      41.359  30.266  32.852  1.00  0.00     0.074 A 
ATOM     49  C   UNL A   1      40.299  31.249  32.783  1.00  0.00     0.031 C 
ATOM     50  C   UNL A   1      40.262  26.649  27.642  1.00  0.00     0.029 A 
ATOM     51  C   UNL A   1      41.361  26.521  28.592  1.00  0.00     0.049 A 
ATOM     52  H   UNL A   1      41.717  27.689  30.283  1.00  0.00     0.167 HD
ATOM     53  C   UNL A   1      42.310  30.226  33.821  1.00  0.00     0.034 A 
ATOM     54  C   UNL A   1      42.347  25.606  28.524  1.00  0.00     0.034 A 
ATOM     55  C   UNL A   1      43.359  29.234  33.876  1.00  0.00     0.049 A 
ATOM     56  C   UNL A   1      43.391  25.581  29.610  1.00  0.00     0.074 A 
ATOM     57  C   UNL A   1      44.338  29.065  34.840  1.00  0.00     0.029 A 
ATOM     58  N   UNL A   1      43.573  28.248  32.921  1.00  0.00    -0.354 N 
ATOM     59  N   UNL A   1      43.509  26.362  30.660  1.00  0.00    -0.248 NA
ATOM     60  C   UNL A   1      44.419  24.540  29.510  1.00  0.00     0.031 C 
ATOM     61  C   UNL A   1      45.182  28.024  34.433  1.00  0.00     0.029 A 
ATOM     62  C   UNL A   1      44.687  27.490  33.255  1.00  0.00     0.049 A 
ATOM     63  H   UNL A   1      43.014  28.105  32.122  1.00  0.00     0.167 HD
ATOM     64  C   UNL A   1      44.618  25.890  31.357  1.00  0.00     0.074 A 
ATOM     65  C   UNL A   1      45.107  24.739  30.624  1.00  0.00     0.031 C 
ATOM     66  C   UNL A   1      45.184  26.364  32.498  1.00  0.00     0.034 A 
BRANCH  53  67
ATOM     67  C   UNL A   1      42.266  31.301  34.884  1.00  0.00     0.023 A 
ATOM     68  C   UNL A   1      42.994  32.499  34.756  1.00  0.00     0.031 A 
ATOM     69  C   UNL A   1      41.505  31.120  36.053  1.00  0.00     0.131 A 
ATOM     70  C   UNL A   1      43.007  33.429  35.807  1.00  0.00     0.055 A 
ATOM     71  C   UNL A   1      41.457  32.088  37.060  1.00  0.00     0.041 A 
ATOM     72  F   UNL A   1      40.805  29.990  36.245  1.00  0.00    -0.206 F 
ATOM     73  C   UNL A   1      42.223  33.243  36.947  1.00  0.00     0.022 A 
BRANCH  70  74
ATOM     74  S   UNL A   1      44.175  34.814  35.724  1.00  0.00     0.124 S 
ATOM     75  O   UNL A   1      45.100  34.358  34.690  1.00  0.00    -0.237 OA
ATOM     76  O   UNL A   1      43.313  35.934  35.362  1.00  0.00    -0.237 OA
ATOM     77  O   UNL A   1      44.737  34.869  37.072  1.00  0.00    -0.744 OA
ENDBRANCH  70  74
ENDBRANCH  53  67
BRANCH  54  78
ATOM     78  C   UNL A   1      42.396  24.634  27.394  1.00  0.00     0.023 A 
ATOM     79  C   UNL A   1      41.619  23.465  27.409  1.00  0.00     0.031 A 
ATOM     80  C   UNL A   1      43.252  24.842  26.298  1.00  0.00     0.131 A 
ATOM     81  C   UNL A   1      41.747  22.525  26.374  1.00  0.00     0.055 A 
ATOM     82  C   UNL A   1      43.336  23.931  25.244  1.00  0.00     0.041 A 
ATOM     83  F   UNL A   1      44.013  25.948  26.230  1.00  0.00    -0.206 F 
ATOM     84  C   UNL A   1      42.590  22.757  25.286  1.00  0.00     0.022 A 
BRANCH  81  85
ATOM     85  S   UNL A   1      40.855  20.952  26.513  1.00  0.00     0.124 S 
ATOM     86  O   UNL A   1      41.709  20.056  25.740  1.00  0.00    -0.237 OA
ATOM     87  O   UNL A   1      40.842  20.740  27.956  1.00  0.00    -0.237 OA
ATOM     88  O   UNL A   1      39.554  21.246  25.916  1.00  0.00    -0.744 OA
ENDBRANCH  81  85
ENDBRANCH  54  78
BRANCH  66  89
ATOM     89  C   UNL A   1      46.388  25.615  33.016  1.00  0.00     0.023 A 
ATOM     90  C   UNL A   1      46.254  24.529  33.900  1.00  0.00     0.031 A 
ATOM     91  C   UNL A   1      47.687  26.021  32.664  1.00  0.00     0.131 A 
ATOM     92  C   UNL A   1      47.394  23.939  34.463  1.00  0.00     0.055 A 
ATOM     93  C   UNL A   1      48.820  25.383  33.173  1.00  0.00     0.041 A 
ATOM     94  F   UNL A   1      47.878  27.052  31.826  1.00  0.00    -0.206 F 
ATOM     95  C   UNL A   1      48.678  24.348  34.094  1.00  0.00     0.022 A 
BRANCH  92  96
ATOM     96  S   UNL A   1      47.175  22.716  35.785  1.00  0.00     0.124 S 
ATOM     97  O   UNL A   1      47.665  21.495  35.153  1.00  0.00    -0.237 OA
ATOM     98  O   UNL A   1      48.008  23.260  36.853  1.00  0.00    -0.237 OA
ATOM     99  O   UNL A   1      45.737  22.745  36.045  1.00  0.00    -0.744 OA
ENDBRANCH  92  96
ENDBRANCH  66  89
ENDBRANCH  40  41
ENDBRANCH  32  35
ENDBRANCH  30  31
ENDBRANCH  29  30
ENDBRANCH  28  29
ENDBRANCH   1  28
TORSDOF 20
ENDMDL
