MODEL 1
REMARK VINA RESULT:     -11.8      0.000      0.000
REMARK SMILES COc1cc(Cl)c2c(c1)C=C(C(=O)NCCCCCCNC(=O)c1ccc(-c3c4nc(c(-c5cc(S(=O)(=O)[O-])ccc5F)c5ccc([nH]5)c(-c5cc(S(=O)(=O)[O-])ccc5F)c5nc(c(-c6cc(S(=O)(=O)[O-])ccc6F)c6ccc3[nH]6)C=C5)C=C4)cc1)[C@@H](C(F)(F)F)O2
REMARK SMILES IDX 18 1 17 2 16 3 15 4 14 5 12 6 13 7 11 9 3 10 4 11 9 12 5 13
REMARK SMILES IDX 8 14 6 15 7 16 10 17 92 18 87 19 2 20 1 21 88 22 89 23 90 24
REMARK SMILES IDX 91 25 19 26 20 27 21 28 22 29 23 31 24 32 25 33 86 34 26 35
REMARK SMILES IDX 85 36 27 37 28 38 29 39 79 40 30 41 84 42 78 43 80 44 31 45
REMARK SMILES IDX 83 46 77 47 76 48 32 50 64 51 44 52 63 53 45 54 48 55 62 56
REMARK SMILES IDX 81 57 46 58 47 59 61 61 82 62 49 63 33 64 34 65 42 66 35 67
REMARK SMILES IDX 41 68 43 69 40 70 36 71 37 72 38 73 39 74 65 75 66 76 74 77
REMARK SMILES IDX 67 78 73 79 75 80 72 81 68 82 69 83 70 84 71 85 50 86 51 87
REMARK SMILES IDX 59 88 52 89 58 90 60 91 57 92 53 93 54 94 55 95 56 96
REMARK H PARENT 14 8 21 30 80 49 48 60
REMARK Flexibility Score: inf
ROOT
ATOM      1  C   UNL A   1      35.060  22.743  23.721  1.00  0.00     0.002 C 
ENDROOT
BRANCH   1   2
ATOM      2  C   UNL A   1      34.652  21.643  24.711  1.00  0.00     0.002 C 
BRANCH   2   3
ATOM      3  C   UNL A   1      33.178  21.230  24.658  1.00  0.00     0.021 C 
BRANCH   3   4
ATOM      4  C   UNL A   1      32.219  22.396  24.444  1.00  0.00     0.116 C 
BRANCH   4   5
ATOM      5  N   UNL A   1      31.366  22.604  25.601  1.00  0.00    -0.352 N 
ATOM      6  C   UNL A   1      30.822  23.656  26.255  1.00  0.00     0.251 C 
ATOM      7  O   UNL A   1      30.117  23.360  27.227  1.00  0.00    -0.270 OA
ATOM      8  H   UNL A   1      31.115  21.750  26.021  1.00  0.00     0.163 HD
BRANCH   6   9
ATOM      9  C   UNL A   1      31.009  25.094  25.893  1.00  0.00     0.067 C 
ATOM     10  C   UNL A   1      29.739  28.741  22.981  1.00  0.00     0.121 A 
ATOM     11  C   UNL A   1      30.539  29.622  23.707  1.00  0.00     0.070 A 
ATOM     12  C   UNL A   1      29.598  27.416  23.397  1.00  0.00     0.058 A 
ATOM     13  C   UNL A   1      31.238  29.157  24.820  1.00  0.00     0.087 A 
ATOM     14  C   UNL A   1      30.308  26.946  24.505  1.00  0.00     0.022 A 
ATOM     15  Cl  UNL A   1      32.220  30.276  25.697  1.00  0.00    -0.080 Cl
ATOM     16  C   UNL A   1      31.142  27.817  25.207  1.00  0.00     0.146 A 
ATOM     17  C   UNL A   1      30.166  25.566  24.954  1.00  0.00     0.025 C 
ATOM     18  O   UNL A   1      31.835  27.410  26.311  1.00  0.00    -0.474 OA
ATOM     19  C   UNL A   1      32.079  25.987  26.456  1.00  0.00     0.314 C 
BRANCH  10  20
ATOM     20  O   UNL A   1      29.011  29.113  21.883  1.00  0.00    -0.497 OA
ATOM     21  C   UNL A   1      27.809  29.808  22.213  1.00  0.00     0.278 C 
ENDBRANCH  10  20
BRANCH  19  22
ATOM     22  C   UNL A   1      33.478  25.644  25.910  1.00  0.00     0.429 C 
ATOM     23  F   UNL A   1      33.434  25.428  24.575  1.00  0.00    -0.167 F 
ATOM     24  F   UNL A   1      34.368  26.646  26.110  1.00  0.00    -0.167 F 
ATOM     25  F   UNL A   1      33.997  24.538  26.493  1.00  0.00    -0.167 F 
ENDBRANCH  19  22
ENDBRANCH   6   9
ENDBRANCH   4   5
ENDBRANCH   3   4
ENDBRANCH   2   3
ENDBRANCH   1   2
BRANCH   1  26
ATOM     26  C   UNL A   1      36.495  23.260  23.867  1.00  0.00     0.021 C 
BRANCH  26  27
ATOM     27  C   UNL A   1      36.926  23.527  25.306  1.00  0.00     0.116 C 
BRANCH  27  28
ATOM     28  N   UNL A   1      37.803  22.481  25.804  1.00  0.00    -0.352 N 
ATOM     29  C   UNL A   1      39.020  22.610  26.420  1.00  0.00     0.251 C 
ATOM     30  H   UNL A   1      37.481  21.559  25.683  1.00  0.00     0.163 HD
ATOM     31  O   UNL A   1      39.744  21.633  26.583  1.00  0.00    -0.269 OA
BRANCH  29  32
ATOM     32  C   UNL A   1      39.450  23.944  26.882  1.00  0.00     0.039 A 
ATOM     33  C   UNL A   1      39.997  24.840  25.963  1.00  0.00     0.014 A 
ATOM     34  C   UNL A   1      39.308  24.297  28.229  1.00  0.00     0.014 A 
ATOM     35  C   UNL A   1      40.374  26.115  26.389  1.00  0.00     0.010 A 
ATOM     36  C   UNL A   1      39.637  25.584  28.641  1.00  0.00     0.010 A 
ATOM     37  C   UNL A   1      40.187  26.497  27.728  1.00  0.00    -0.014 A 
BRANCH  37  38
ATOM     38  C   UNL A   1      40.599  27.837  28.202  1.00  0.00     0.031 A 
ATOM     39  C   UNL A   1      42.055  28.200  28.227  1.00  0.00     0.074 A 
ATOM     40  C   UNL A   1      39.673  28.702  28.653  1.00  0.00     0.049 A 
ATOM     41  N   UNL A   1      42.621  29.305  28.634  1.00  0.00    -0.248 NA
ATOM     42  C   UNL A   1      43.002  27.179  27.749  1.00  0.00     0.031 C 
ATOM     43  C   UNL A   1      38.235  28.438  28.716  1.00  0.00     0.029 A 
ATOM     44  N   UNL A   1      39.802  29.972  29.158  1.00  0.00    -0.354 N 
ATOM     45  C   UNL A   1      43.985  29.117  28.454  1.00  0.00     0.074 A 
ATOM     46  C   UNL A   1      44.167  27.770  27.964  1.00  0.00     0.031 C 
ATOM     47  C   UNL A   1      37.615  29.512  29.228  1.00  0.00     0.029 A 
ATOM     48  C   UNL A   1      38.611  30.534  29.550  1.00  0.00     0.049 A 
ATOM     49  H   UNL A   1      40.668  30.437  29.232  1.00  0.00     0.167 HD
ATOM     50  C   UNL A   1      44.991  30.000  28.650  1.00  0.00     0.034 A 
ATOM     51  C   UNL A   1      38.349  31.733  30.110  1.00  0.00     0.034 A 
ATOM     52  C   UNL A   1      44.796  31.341  29.134  1.00  0.00     0.049 A 
ATOM     53  C   UNL A   1      39.483  32.702  30.326  1.00  0.00     0.074 A 
ATOM     54  C   UNL A   1      45.748  32.323  29.335  1.00  0.00     0.029 A 
ATOM     55  N   UNL A   1      43.571  31.887  29.488  1.00  0.00    -0.354 N 
ATOM     56  N   UNL A   1      40.761  32.540  30.074  1.00  0.00    -0.248 NA
ATOM     57  C   UNL A   1      39.146  34.019  30.883  1.00  0.00     0.031 C 
ATOM     58  C   UNL A   1      45.105  33.451  29.848  1.00  0.00     0.029 A 
ATOM     59  C   UNL A   1      43.745  33.192  29.918  1.00  0.00     0.049 A 
ATOM     60  H   UNL A   1      42.707  31.418  29.441  1.00  0.00     0.167 HD
ATOM     61  C   UNL A   1      41.377  33.740  30.419  1.00  0.00     0.074 A 
ATOM     62  C   UNL A   1      40.328  34.625  30.883  1.00  0.00     0.031 C 
ATOM     63  C   UNL A   1      42.690  34.073  30.359  1.00  0.00     0.034 A 
BRANCH  50  64
ATOM     64  C   UNL A   1      46.390  29.568  28.306  1.00  0.00     0.023 A 
ATOM     65  C   UNL A   1      47.220  28.993  29.284  1.00  0.00     0.031 A 
ATOM     66  C   UNL A   1      46.932  29.819  27.031  1.00  0.00     0.131 A 
ATOM     67  C   UNL A   1      48.555  28.706  28.978  1.00  0.00     0.055 A 
ATOM     68  C   UNL A   1      48.254  29.499  26.721  1.00  0.00     0.041 A 
ATOM     69  F   UNL A   1      46.175  30.363  26.064  1.00  0.00    -0.206 F 
ATOM     70  C   UNL A   1      49.074  28.949  27.701  1.00  0.00     0.022 A 
BRANCH  67  71
ATOM     71  S   UNL A   1      49.681  28.036  30.230  1.00  0.00     0.124 S 
ATOM     72  O   UNL A   1      50.966  28.594  29.813  1.00  0.00    -0.237 OA
ATOM     73  O   UNL A   1      49.130  28.593  31.463  1.00  0.00    -0.237 OA
ATOM     74  O   UNL A   1      49.556  26.591  30.076  1.00  0.00    -0.744 OA
ENDBRANCH  67  71
ENDBRANCH  50  64
BRANCH  51  75
ATOM     75  C   UNL A   1      36.938  32.083  30.431  1.00  0.00     0.023 A 
ATOM     76  C   UNL A   1      36.102  32.667  29.463  1.00  0.00     0.031 A 
ATOM     77  C   UNL A   1      36.446  31.949  31.740  1.00  0.00     0.131 A 
ATOM     78  C   UNL A   1      34.841  33.151  29.836  1.00  0.00     0.055 A 
ATOM     79  C   UNL A   1      35.166  32.378  32.093  1.00  0.00     0.041 A 
ATOM     80  F   UNL A   1      37.216  31.410  32.698  1.00  0.00    -0.206 F 
ATOM     81  C   UNL A   1      34.361  32.995  31.140  1.00  0.00     0.022 A 
BRANCH  78  82
ATOM     82  S   UNL A   1      33.823  34.088  28.663  1.00  0.00     0.124 S 
ATOM     83  O   UNL A   1      32.844  34.722  29.541  1.00  0.00    -0.237 OA
ATOM     84  O   UNL A   1      34.812  34.985  28.069  1.00  0.00    -0.237 OA
ATOM     85  O   UNL A   1      33.295  33.063  27.770  1.00  0.00    -0.744 OA
ENDBRANCH  78  82
ENDBRANCH  51  75
BRANCH  63  86
ATOM     86  C   UNL A   1      43.107  35.456  30.790  1.00  0.00     0.023 A 
ATOM     87  C   UNL A   1      43.290  36.465  29.825  1.00  0.00     0.031 A 
ATOM     88  C   UNL A   1      43.487  35.722  32.116  1.00  0.00     0.131 A 
ATOM     89  C   UNL A   1      43.882  37.679  30.193  1.00  0.00     0.055 A 
ATOM     90  C   UNL A   1      44.038  36.949  32.485  1.00  0.00     0.041 A 
ATOM     91  F   UNL A   1      43.339  34.785  33.067  1.00  0.00    -0.206 F 
ATOM     92  C   UNL A   1      44.250  37.929  31.519  1.00  0.00     0.022 A 
BRANCH  89  93
ATOM     93  S   UNL A   1      44.263  38.948  28.953  1.00  0.00     0.124 S 
ATOM     94  O   UNL A   1      44.649  38.139  27.799  1.00  0.00    -0.237 OA
ATOM     95  O   UNL A   1      42.987  39.645  28.827  1.00  0.00    -0.237 OA
ATOM     96  O   UNL A   1      45.344  39.718  29.559  1.00  0.00    -0.744 OA
ENDBRANCH  89  93
ENDBRANCH  63  86
ENDBRANCH  37  38
ENDBRANCH  29  32
ENDBRANCH  27  28
ENDBRANCH  26  27
ENDBRANCH   1  26
TORSDOF 18
ENDMDL
MODEL 2
REMARK VINA RESULT:     -11.7      2.435      2.839
REMARK SMILES COc1cc(Cl)c2c(c1)C=C(C(=O)NCCCCCCNC(=O)c1ccc(-c3c4nc(c(-c5cc(S(=O)(=O)[O-])ccc5F)c5ccc([nH]5)c(-c5cc(S(=O)(=O)[O-])ccc5F)c5nc(c(-c6cc(S(=O)(=O)[O-])ccc6F)c6ccc3[nH]6)C=C5)C=C4)cc1)[C@@H](C(F)(F)F)O2
REMARK SMILES IDX 18 1 17 2 16 3 15 4 14 5 12 6 13 7 11 9 3 10 4 11 9 12 5 13
REMARK SMILES IDX 8 14 6 15 7 16 10 17 92 18 87 19 2 20 1 21 88 22 89 23 90 24
REMARK SMILES IDX 91 25 19 26 20 27 21 28 22 29 23 31 24 32 25 33 86 34 26 35
REMARK SMILES IDX 85 36 27 37 28 38 29 39 79 40 30 41 84 42 78 43 80 44 31 45
REMARK SMILES IDX 83 46 77 47 76 48 32 50 64 51 44 52 63 53 45 54 48 55 62 56
REMARK SMILES IDX 81 57 46 58 47 59 61 61 82 62 49 63 33 64 34 65 42 66 35 67
REMARK SMILES IDX 41 68 43 69 40 70 36 71 37 72 38 73 39 74 65 75 66 76 74 77
REMARK SMILES IDX 67 78 73 79 75 80 72 81 68 82 69 83 70 84 71 85 50 86 51 87
REMARK SMILES IDX 59 88 52 89 58 90 60 91 57 92 53 93 54 94 55 95 56 96
REMARK H PARENT 14 8 21 30 80 49 48 60
REMARK Flexibility Score: inf
ROOT
ATOM      1  C   UNL A   1      35.188  20.678  25.017  1.00  0.00     0.002 C 
ENDROOT
BRANCH   1   2
ATOM      2  C   UNL A   1      33.798  20.381  24.438  1.00  0.00     0.002 C 
BRANCH   2   3
ATOM      3  C   UNL A   1      32.624  20.655  25.384  1.00  0.00     0.021 C 
BRANCH   3   4
ATOM      4  C   UNL A   1      31.792  21.873  24.996  1.00  0.00     0.116 C 
BRANCH   4   5
ATOM      5  N   UNL A   1      30.903  22.276  26.072  1.00  0.00    -0.352 N 
ATOM      6  C   UNL A   1      30.456  23.435  26.606  1.00  0.00     0.251 C 
ATOM      7  O   UNL A   1      29.662  23.306  27.546  1.00  0.00    -0.270 OA
ATOM      8  H   UNL A   1      30.523  21.495  26.537  1.00  0.00     0.163 HD
BRANCH   6   9
ATOM      9  C   UNL A   1      30.842  24.806  26.152  1.00  0.00     0.067 C 
ATOM     10  C   UNL A   1      29.954  28.476  23.130  1.00  0.00     0.121 A 
ATOM     11  C   UNL A   1      30.936  29.247  23.750  1.00  0.00     0.070 A 
ATOM     12  C   UNL A   1      29.635  27.212  23.628  1.00  0.00     0.058 A 
ATOM     13  C   UNL A   1      31.634  28.725  24.838  1.00  0.00     0.087 A 
ATOM     14  C   UNL A   1      30.343  26.683  24.711  1.00  0.00     0.022 A 
ATOM     15  Cl  UNL A   1      32.844  29.707  25.583  1.00  0.00    -0.080 Cl
ATOM     16  C   UNL A   1      31.355  27.438  25.306  1.00  0.00     0.146 A 
ATOM     17  C   UNL A   1      30.017  25.366  25.247  1.00  0.00     0.025 C 
ATOM     18  O   UNL A   1      32.055  26.973  26.383  1.00  0.00    -0.474 OA
ATOM     19  C   UNL A   1      32.080  25.537  26.592  1.00  0.00     0.314 C 
BRANCH  10  20
ATOM     20  O   UNL A   1      29.214  28.913  22.064  1.00  0.00    -0.497 OA
ATOM     21  C   UNL A   1      27.908  29.357  22.429  1.00  0.00     0.278 C 
ENDBRANCH  10  20
BRANCH  19  22
ATOM     22  C   UNL A   1      33.361  24.947  25.973  1.00  0.00     0.429 C 
ATOM     23  F   UNL A   1      33.146  24.561  24.695  1.00  0.00    -0.167 F 
ATOM     24  F   UNL A   1      34.376  25.843  25.940  1.00  0.00    -0.167 F 
ATOM     25  F   UNL A   1      33.811  23.871  26.661  1.00  0.00    -0.167 F 
ENDBRANCH  19  22
ENDBRANCH   6   9
ENDBRANCH   4   5
ENDBRANCH   3   4
ENDBRANCH   2   3
ENDBRANCH   1   2
BRANCH   1  26
ATOM     26  C   UNL A   1      35.707  22.101  24.783  1.00  0.00     0.021 C 
BRANCH  26  27
ATOM     27  C   UNL A   1      36.833  22.525  25.721  1.00  0.00     0.116 C 
BRANCH  27  28
ATOM     28  N   UNL A   1      37.786  21.448  25.932  1.00  0.00    -0.352 N 
ATOM     29  C   UNL A   1      39.121  21.537  26.229  1.00  0.00     0.251 C 
ATOM     30  H   UNL A   1      37.426  20.535  25.850  1.00  0.00     0.163 HD
ATOM     31  O   UNL A   1      39.843  20.548  26.158  1.00  0.00    -0.269 OA
BRANCH  29  32
ATOM     32  C   UNL A   1      39.678  22.842  26.634  1.00  0.00     0.039 A 
ATOM     33  C   UNL A   1      39.278  23.994  25.957  1.00  0.00     0.014 A 
ATOM     34  C   UNL A   1      40.598  22.914  27.687  1.00  0.00     0.014 A 
ATOM     35  C   UNL A   1      39.777  25.234  26.359  1.00  0.00     0.010 A 
ATOM     36  C   UNL A   1      41.055  24.154  28.118  1.00  0.00     0.010 A 
ATOM     37  C   UNL A   1      40.660  25.322  27.447  1.00  0.00    -0.014 A 
BRANCH  37  38
ATOM     38  C   UNL A   1      41.215  26.626  27.875  1.00  0.00     0.031 A 
ATOM     39  C   UNL A   1      42.661  26.937  27.617  1.00  0.00     0.074 A 
ATOM     40  C   UNL A   1      40.436  27.502  28.535  1.00  0.00     0.049 A 
ATOM     41  N   UNL A   1      43.343  28.004  27.939  1.00  0.00    -0.248 NA
ATOM     42  C   UNL A   1      43.448  25.906  26.921  1.00  0.00     0.031 C 
ATOM     43  C   UNL A   1      39.031  27.284  28.879  1.00  0.00     0.029 A 
ATOM     44  N   UNL A   1      40.718  28.743  29.048  1.00  0.00    -0.354 N 
ATOM     45  C   UNL A   1      44.633  27.777  27.479  1.00  0.00     0.074 A 
ATOM     46  C   UNL A   1      44.657  26.448  26.915  1.00  0.00     0.031 C 
ATOM     47  C   UNL A   1      38.573  28.356  29.543  1.00  0.00     0.029 A 
ATOM     48  C   UNL A   1      39.655  29.328  29.692  1.00  0.00     0.049 A 
ATOM     49  H   UNL A   1      41.599  29.175  28.960  1.00  0.00     0.167 HD
ATOM     50  C   UNL A   1      45.694  28.617  27.497  1.00  0.00     0.034 A 
ATOM     51  C   UNL A   1      39.562  30.511  30.335  1.00  0.00     0.034 A 
ATOM     52  C   UNL A   1      45.657  29.941  28.058  1.00  0.00     0.049 A 
ATOM     53  C   UNL A   1      40.755  31.430  30.351  1.00  0.00     0.074 A 
ATOM     54  C   UNL A   1      46.670  30.882  28.096  1.00  0.00     0.029 A 
ATOM     55  N   UNL A   1      44.553  30.513  28.672  1.00  0.00    -0.354 N 
ATOM     56  N   UNL A   1      41.948  31.236  29.840  1.00  0.00    -0.248 NA
ATOM     57  C   UNL A   1      40.593  32.732  31.011  1.00  0.00     0.031 C 
ATOM     58  C   UNL A   1      46.192  32.008  28.768  1.00  0.00     0.029 A 
ATOM     59  C   UNL A   1      44.864  31.792  29.104  1.00  0.00     0.049 A 
ATOM     60  H   UNL A   1      43.678  30.077  28.785  1.00  0.00     0.167 HD
ATOM     61  C   UNL A   1      42.671  32.398  30.094  1.00  0.00     0.074 A 
ATOM     62  C   UNL A   1      41.776  33.297  30.792  1.00  0.00     0.031 C 
ATOM     63  C   UNL A   1      43.958  32.689  29.780  1.00  0.00     0.034 A 
BRANCH  50  64
ATOM     64  C   UNL A   1      46.976  28.153  26.861  1.00  0.00     0.023 A 
ATOM     65  C   UNL A   1      47.104  28.110  25.462  1.00  0.00     0.031 A 
ATOM     66  C   UNL A   1      48.035  27.659  27.646  1.00  0.00     0.131 A 
ATOM     67  C   UNL A   1      48.258  27.565  24.889  1.00  0.00     0.055 A 
ATOM     68  C   UNL A   1      49.198  27.149  27.069  1.00  0.00     0.041 A 
ATOM     69  F   UNL A   1      47.960  27.684  28.987  1.00  0.00    -0.206 F 
ATOM     70  C   UNL A   1      49.308  27.091  25.683  1.00  0.00     0.022 A 
BRANCH  67  71
ATOM     71  S   UNL A   1      48.432  27.419  23.090  1.00  0.00     0.124 S 
ATOM     72  O   UNL A   1      49.760  27.988  22.867  1.00  0.00    -0.237 OA
ATOM     73  O   UNL A   1      48.331  25.976  22.891  1.00  0.00    -0.237 OA
ATOM     74  O   UNL A   1      47.324  28.211  22.566  1.00  0.00    -0.744 OA
ENDBRANCH  67  71
ENDBRANCH  50  64
BRANCH  51  75
ATOM     75  C   UNL A   1      38.260  30.894  30.949  1.00  0.00     0.023 A 
ATOM     76  C   UNL A   1      37.269  31.541  30.190  1.00  0.00     0.031 A 
ATOM     77  C   UNL A   1      38.040  30.727  32.326  1.00  0.00     0.131 A 
ATOM     78  C   UNL A   1      36.130  32.052  30.827  1.00  0.00     0.055 A 
ATOM     79  C   UNL A   1      36.876  31.183  32.946  1.00  0.00     0.041 A 
ATOM     80  F   UNL A   1      38.966  30.127  33.090  1.00  0.00    -0.206 F 
ATOM     81  C   UNL A   1      35.919  31.863  32.196  1.00  0.00     0.022 A 
BRANCH  78  82
ATOM     82  S   UNL A   1      34.933  33.065  29.915  1.00  0.00     0.124 S 
ATOM     83  O   UNL A   1      35.795  34.042  29.256  1.00  0.00    -0.237 OA
ATOM     84  O   UNL A   1      34.318  32.072  29.038  1.00  0.00    -0.237 OA
ATOM     85  O   UNL A   1      34.065  33.596  30.960  1.00  0.00    -0.744 OA
ENDBRANCH  78  82
ENDBRANCH  51  75
BRANCH  63  86
ATOM     86  C   UNL A   1      44.511  34.037  30.166  1.00  0.00     0.023 A 
ATOM     87  C   UNL A   1      45.049  34.232  31.451  1.00  0.00     0.031 A 
ATOM     88  C   UNL A   1      44.345  35.157  29.333  1.00  0.00     0.131 A 
ATOM     89  C   UNL A   1      45.363  35.525  31.886  1.00  0.00     0.055 A 
ATOM     90  C   UNL A   1      44.698  36.439  29.756  1.00  0.00     0.041 A 
ATOM     91  F   UNL A   1      43.825  35.019  28.102  1.00  0.00    -0.206 F 
ATOM     92  C   UNL A   1      45.196  36.628  31.042  1.00  0.00     0.022 A 
BRANCH  89  93
ATOM     93  S   UNL A   1      45.927  35.832  33.582  1.00  0.00     0.124 S 
ATOM     94  O   UNL A   1      44.667  35.853  34.322  1.00  0.00    -0.237 OA
ATOM     95  O   UNL A   1      46.780  34.675  33.835  1.00  0.00    -0.237 OA
ATOM     96  O   UNL A   1      46.615  37.116  33.497  1.00  0.00    -0.744 OA
ENDBRANCH  89  93
ENDBRANCH  63  86
ENDBRANCH  37  38
ENDBRANCH  29  32
ENDBRANCH  27  28
ENDBRANCH  26  27
ENDBRANCH   1  26
TORSDOF 18
ENDMDL
MODEL 3
REMARK VINA RESULT:     -11.6      4.538      9.703
REMARK SMILES COc1cc(Cl)c2c(c1)C=C(C(=O)NCCCCCCNC(=O)c1ccc(-c3c4nc(c(-c5cc(S(=O)(=O)[O-])ccc5F)c5ccc([nH]5)c(-c5cc(S(=O)(=O)[O-])ccc5F)c5nc(c(-c6cc(S(=O)(=O)[O-])ccc6F)c6ccc3[nH]6)C=C5)C=C4)cc1)[C@@H](C(F)(F)F)O2
REMARK SMILES IDX 18 1 17 2 16 3 15 4 14 5 12 6 13 7 11 9 3 10 4 11 9 12 5 13
REMARK SMILES IDX 8 14 6 15 7 16 10 17 92 18 87 19 2 20 1 21 88 22 89 23 90 24
REMARK SMILES IDX 91 25 19 26 20 27 21 28 22 29 23 31 24 32 25 33 86 34 26 35
REMARK SMILES IDX 85 36 27 37 28 38 29 39 79 40 30 41 84 42 78 43 80 44 31 45
REMARK SMILES IDX 83 46 77 47 76 48 32 50 64 51 44 52 63 53 45 54 48 55 62 56
REMARK SMILES IDX 81 57 46 58 47 59 61 61 82 62 49 63 33 64 34 65 42 66 35 67
REMARK SMILES IDX 41 68 43 69 40 70 36 71 37 72 38 73 39 74 65 75 66 76 74 77
REMARK SMILES IDX 67 78 73 79 75 80 72 81 68 82 69 83 70 84 71 85 50 86 51 87
REMARK SMILES IDX 59 88 52 89 58 90 60 91 57 92 53 93 54 94 55 95 56 96
REMARK H PARENT 14 8 21 30 80 49 48 60
REMARK Flexibility Score: inf
ROOT
ATOM      1  C   UNL A   1      31.643  28.722  25.553  1.00  0.00     0.002 C 
ENDROOT
BRANCH   1   2
ATOM      2  C   UNL A   1      31.513  27.784  24.344  1.00  0.00     0.002 C 
BRANCH   2   3
ATOM      3  C   UNL A   1      30.875  26.423  24.639  1.00  0.00     0.021 C 
BRANCH   3   4
ATOM      4  C   UNL A   1      30.485  25.641  23.388  1.00  0.00     0.116 C 
BRANCH   4   5
ATOM      5  N   UNL A   1      31.488  25.769  22.346  1.00  0.00    -0.352 N 
ATOM      6  C   UNL A   1      32.656  25.170  22.015  1.00  0.00     0.251 C 
ATOM      7  O   UNL A   1      33.196  25.607  20.992  1.00  0.00    -0.270 OA
ATOM      8  H   UNL A   1      31.257  26.482  21.708  1.00  0.00     0.163 HD
BRANCH   6   9
ATOM      9  C   UNL A   1      33.306  24.059  22.774  1.00  0.00     0.067 C 
ATOM     10  C   UNL A   1      32.927  19.551  24.485  1.00  0.00     0.121 A 
ATOM     11  C   UNL A   1      34.244  19.595  24.941  1.00  0.00     0.070 A 
ATOM     12  C   UNL A   1      32.398  20.622  23.764  1.00  0.00     0.058 A 
ATOM     13  C   UNL A   1      35.012  20.737  24.716  1.00  0.00     0.087 A 
ATOM     14  C   UNL A   1      33.162  21.773  23.548  1.00  0.00     0.022 A 
ATOM     15  Cl  UNL A   1      36.639  20.757  25.292  1.00  0.00    -0.080 Cl
ATOM     16  C   UNL A   1      34.467  21.833  24.040  1.00  0.00     0.146 A 
ATOM     17  C   UNL A   1      32.625  22.897  22.791  1.00  0.00     0.025 C 
ATOM     18  O   UNL A   1      35.260  22.926  23.831  1.00  0.00    -0.474 OA
ATOM     19  C   UNL A   1      34.598  24.182  23.533  1.00  0.00     0.314 C 
BRANCH  10  20
ATOM     20  O   UNL A   1      32.106  18.468  24.653  1.00  0.00    -0.497 OA
ATOM     21  C   UNL A   1      32.561  17.569  25.664  1.00  0.00     0.278 C 
ENDBRANCH  10  20
BRANCH  19  22
ATOM     22  C   UNL A   1      34.443  25.004  24.826  1.00  0.00     0.429 C 
ATOM     23  F   UNL A   1      33.305  24.670  25.477  1.00  0.00    -0.167 F 
ATOM     24  F   UNL A   1      35.461  24.793  25.695  1.00  0.00    -0.167 F 
ATOM     25  F   UNL A   1      34.406  26.335  24.584  1.00  0.00    -0.167 F 
ENDBRANCH  19  22
ENDBRANCH   6   9
ENDBRANCH   4   5
ENDBRANCH   3   4
ENDBRANCH   2   3
ENDBRANCH   1   2
BRANCH   1  26
ATOM     26  C   UNL A   1      32.673  28.298  26.606  1.00  0.00     0.021 C 
BRANCH  26  27
ATOM     27  C   UNL A   1      34.020  29.003  26.490  1.00  0.00     0.116 C 
BRANCH  27  28
ATOM     28  N   UNL A   1      33.918  30.410  26.838  1.00  0.00    -0.352 N 
ATOM     29  C   UNL A   1      34.675  31.126  27.728  1.00  0.00     0.251 C 
ATOM     30  H   UNL A   1      33.212  30.916  26.373  1.00  0.00     0.163 HD
ATOM     31  O   UNL A   1      34.328  32.250  28.080  1.00  0.00    -0.269 OA
BRANCH  29  32
ATOM     32  C   UNL A   1      35.913  30.525  28.259  1.00  0.00     0.039 A 
ATOM     33  C   UNL A   1      35.856  29.772  29.433  1.00  0.00     0.014 A 
ATOM     34  C   UNL A   1      37.127  30.713  27.588  1.00  0.00     0.014 A 
ATOM     35  C   UNL A   1      37.019  29.174  29.921  1.00  0.00     0.010 A 
ATOM     36  C   UNL A   1      38.273  30.074  28.048  1.00  0.00     0.010 A 
ATOM     37  C   UNL A   1      38.231  29.313  29.225  1.00  0.00    -0.014 A 
BRANCH  37  38
ATOM     38  C   UNL A   1      39.479  28.702  29.738  1.00  0.00     0.031 A 
ATOM     39  C   UNL A   1      40.172  29.314  30.921  1.00  0.00     0.074 A 
ATOM     40  C   UNL A   1      40.008  27.636  29.114  1.00  0.00     0.049 A 
ATOM     41  N   UNL A   1      41.285  28.951  31.500  1.00  0.00    -0.248 NA
ATOM     42  C   UNL A   1      39.541  30.501  31.520  1.00  0.00     0.031 C 
ATOM     43  C   UNL A   1      39.443  26.988  27.930  1.00  0.00     0.029 A 
ATOM     44  N   UNL A   1      41.148  26.917  29.377  1.00  0.00    -0.354 N 
ATOM     45  C   UNL A   1      41.483  29.856  32.534  1.00  0.00     0.074 A 
ATOM     46  C   UNL A   1      40.413  30.824  32.463  1.00  0.00     0.031 C 
ATOM     47  C   UNL A   1      40.235  25.967  27.570  1.00  0.00     0.029 A 
ATOM     48  C   UNL A   1      41.376  25.899  28.482  1.00  0.00     0.049 A 
ATOM     49  H   UNL A   1      41.744  27.111  30.136  1.00  0.00     0.167 HD
ATOM     50  C   UNL A   1      42.454  29.860  33.477  1.00  0.00     0.034 A 
ATOM     51  C   UNL A   1      42.391  25.013  28.402  1.00  0.00     0.034 A 
ATOM     52  C   UNL A   1      43.512  28.887  33.540  1.00  0.00     0.049 A 
ATOM     53  C   UNL A   1      43.466  25.036  29.457  1.00  0.00     0.074 A 
ATOM     54  C   UNL A   1      44.525  28.786  34.476  1.00  0.00     0.029 A 
ATOM     55  N   UNL A   1      43.693  27.850  32.638  1.00  0.00    -0.354 N 
ATOM     56  N   UNL A   1      43.597  25.850  30.479  1.00  0.00    -0.248 NA
ATOM     57  C   UNL A   1      44.521  24.017  29.365  1.00  0.00     0.031 C 
ATOM     58  C   UNL A   1      45.341  27.712  34.118  1.00  0.00     0.029 A 
ATOM     59  C   UNL A   1      44.809  27.109  32.989  1.00  0.00     0.049 A 
ATOM     60  H   UNL A   1      43.114  27.666  31.863  1.00  0.00     0.167 HD
ATOM     61  C   UNL A   1      44.732  25.428  31.165  1.00  0.00     0.074 A 
ATOM     62  C   UNL A   1      45.243  24.276  30.450  1.00  0.00     0.031 C 
ATOM     63  C   UNL A   1      45.298  25.950  32.281  1.00  0.00     0.034 A 
BRANCH  50  64
ATOM     64  C   UNL A   1      42.402  30.920  34.543  1.00  0.00     0.023 A 
ATOM     65  C   UNL A   1      43.028  32.162  34.345  1.00  0.00     0.031 A 
ATOM     66  C   UNL A   1      41.814  30.658  35.795  1.00  0.00     0.131 A 
ATOM     67  C   UNL A   1      43.071  33.091  35.391  1.00  0.00     0.055 A 
ATOM     68  C   UNL A   1      41.829  31.601  36.823  1.00  0.00     0.041 A 
ATOM     69  F   UNL A   1      41.199  29.487  36.028  1.00  0.00    -0.206 F 
ATOM     70  C   UNL A   1      42.469  32.820  36.625  1.00  0.00     0.022 A 
BRANCH  67  71
ATOM     71  S   UNL A   1      43.935  34.673  35.205  1.00  0.00     0.124 S 
ATOM     72  O   UNL A   1      44.668  34.473  33.956  1.00  0.00    -0.237 OA
ATOM     73  O   UNL A   1      42.825  35.619  35.132  1.00  0.00    -0.237 OA
ATOM     74  O   UNL A   1      44.766  34.762  36.401  1.00  0.00    -0.744 OA
ENDBRANCH  67  71
ENDBRANCH  50  64
BRANCH  51  75
ATOM     75  C   UNL A   1      42.376  24.001  27.310  1.00  0.00     0.023 A 
ATOM     76  C   UNL A   1      41.820  22.726  27.517  1.00  0.00     0.031 A 
ATOM     77  C   UNL A   1      43.022  24.253  26.089  1.00  0.00     0.131 A 
ATOM     78  C   UNL A   1      41.977  21.733  26.541  1.00  0.00     0.055 A 
ATOM     79  C   UNL A   1      43.123  23.279  25.094  1.00  0.00     0.041 A 
ATOM     80  F   UNL A   1      43.579  25.452  25.855  1.00  0.00    -0.206 F 
ATOM     81  C   UNL A   1      42.609  22.006  25.324  1.00  0.00     0.022 A 
BRANCH  78  82
ATOM     82  S   UNL A   1      41.451  20.027  26.860  1.00  0.00     0.124 S 
ATOM     83  O   UNL A   1      40.827  20.138  28.175  1.00  0.00    -0.237 OA
ATOM     84  O   UNL A   1      40.536  19.789  25.746  1.00  0.00    -0.237 OA
ATOM     85  O   UNL A   1      42.696  19.269  26.817  1.00  0.00    -0.744 OA
ENDBRANCH  78  82
ENDBRANCH  51  75
BRANCH  63  86
ATOM     86  C   UNL A   1      46.537  25.297  32.838  1.00  0.00     0.023 A 
ATOM     87  C   UNL A   1      46.424  24.339  33.863  1.00  0.00     0.031 A 
ATOM     88  C   UNL A   1      47.820  25.747  32.482  1.00  0.00     0.131 A 
ATOM     89  C   UNL A   1      47.572  23.894  34.529  1.00  0.00     0.055 A 
ATOM     90  C   UNL A   1      48.964  25.269  33.120  1.00  0.00     0.041 A 
ATOM     91  F   UNL A   1      47.974  26.669  31.517  1.00  0.00    -0.206 F 
ATOM     92  C   UNL A   1      48.842  24.348  34.158  1.00  0.00     0.022 A 
BRANCH  89  93
ATOM     93  S   UNL A   1      47.455  22.767  35.945  1.00  0.00     0.124 S 
ATOM     94  O   UNL A   1      47.943  21.512  35.377  1.00  0.00    -0.237 OA
ATOM     95  O   UNL A   1      48.345  23.401  36.914  1.00  0.00    -0.237 OA
ATOM     96  O   UNL A   1      46.038  22.780  36.289  1.00  0.00    -0.744 OA
ENDBRANCH  89  93
ENDBRANCH  63  86
ENDBRANCH  37  38
ENDBRANCH  29  32
ENDBRANCH  27  28
ENDBRANCH  26  27
ENDBRANCH   1  26
TORSDOF 18
ENDMDL
