MODEL 1
REMARK VINA RESULT:     -10.9      0.000      0.000
REMARK SMILES C[C@H](Sc1ccnc(C(=O)NCCCCCCNC(=O)c2ccc(-c3c4nc(c(-c5cc(S(=O)(=O)[O-])ccc5F)c5ccc([nH]5)c(-c5cc(S(=O)(=O)[O-])ccc5F)c5nc(c(-c6cc(S(=O)(=O)[O-])ccc6F)c6ccc3[nH]6)C=C5)C=C4)cc2)c1)[C@@H](C)O
REMARK SMILES IDX 14 1 13 2 12 3 11 4 9 5 10 6 8 8 4 9 5 10 84 11 6 12 7 13
REMARK SMILES IDX 3 14 2 15 1 16 85 17 86 18 87 19 15 21 16 22 17 23 18 24
REMARK SMILES IDX 19 25 20 27 21 28 22 29 83 30 23 31 82 32 24 33 25 34 26 35
REMARK SMILES IDX 76 36 27 37 81 38 75 39 77 40 28 41 80 42 74 43 73 44 29 46
REMARK SMILES IDX 61 47 41 48 60 49 42 50 45 51 59 52 78 53 43 54 44 55 58 57
REMARK SMILES IDX 79 58 46 59 30 60 31 61 39 62 32 63 38 64 40 65 37 66 33 67
REMARK SMILES IDX 34 68 35 69 36 70 62 71 63 72 71 73 64 74 70 75 72 76 69 77
REMARK SMILES IDX 65 78 66 79 67 80 68 81 47 82 48 83 56 84 49 85 55 86 57 87
REMARK SMILES IDX 54 88 50 89 51 90 52 91 53 92
REMARK H PARENT 11 7 87 20 18 26 77 45 45 56
REMARK Flexibility Score: inf
ROOT
ATOM      1  C   UNL A   1      36.980  22.233  24.078  1.00  0.00     0.002 C 
ENDROOT
BRANCH   1   2
ATOM      2  C   UNL A   1      36.794  23.553  24.841  1.00  0.00     0.021 C 
BRANCH   2   3
ATOM      3  C   UNL A   1      35.708  23.479  25.919  1.00  0.00     0.116 C 
BRANCH   3   4
ATOM      4  N   UNL A   1      34.506  24.168  25.488  1.00  0.00    -0.351 N 
ATOM      5  C   UNL A   1      33.335  23.792  24.872  1.00  0.00     0.269 C 
ATOM      6  O   UNL A   1      32.512  24.701  24.715  1.00  0.00    -0.268 OA
ATOM      7  H   UNL A   1      34.535  25.132  25.684  1.00  0.00     0.163 HD
BRANCH   5   8
ATOM      8  C   UNL A   1      32.993  22.397  24.406  1.00  0.00     0.129 A 
ATOM      9  C   UNL A   1      32.734  20.006  24.646  1.00  0.00     0.011 A 
ATOM     10  C   UNL A   1      32.321  19.944  23.323  1.00  0.00     0.035 A 
ATOM     11  C   UNL A   1      33.123  21.249  25.167  1.00  0.00     0.049 A 
ATOM     12  C   UNL A   1      32.265  21.124  22.604  1.00  0.00     0.113 A 
ATOM     13  N   UNL A   1      32.563  22.333  23.117  1.00  0.00    -0.251 NA
BRANCH   9  14
ATOM     14  S   UNL A   1      32.908  18.632  25.774  1.00  0.00    -0.120 SA
BRANCH  14  15
ATOM     15  C   UNL A   1      33.588  17.228  24.797  1.00  0.00     0.077 C 
ATOM     16  C   UNL A   1      35.002  17.666  24.391  1.00  0.00     0.022 C 
BRANCH  15  17
ATOM     17  C   UNL A   1      33.643  15.900  25.594  1.00  0.00     0.124 C 
ATOM     18  C   UNL A   1      32.403  15.023  25.453  1.00  0.00     0.039 C 
BRANCH  17  19
ATOM     19  O   UNL A   1      34.767  15.125  25.150  1.00  0.00    -0.392 OA
ATOM     20  H   UNL A   1      35.423  15.069  25.861  1.00  0.00     0.210 HD
ENDBRANCH  17  19
ENDBRANCH  15  17
ENDBRANCH  14  15
ENDBRANCH   9  14
ENDBRANCH   5   8
ENDBRANCH   3   4
ENDBRANCH   2   3
ENDBRANCH   1   2
BRANCH   1  21
ATOM     21  C   UNL A   1      36.780  20.964  24.920  1.00  0.00     0.002 C 
BRANCH  21  22
ATOM     22  C   UNL A   1      37.980  20.011  24.948  1.00  0.00     0.021 C 
BRANCH  22  23
ATOM     23  C   UNL A   1      39.126  20.475  25.842  1.00  0.00     0.116 C 
BRANCH  23  24
ATOM     24  N   UNL A   1      40.142  19.444  25.980  1.00  0.00    -0.352 N 
ATOM     25  C   UNL A   1      41.504  19.572  26.083  1.00  0.00     0.251 C 
ATOM     26  H   UNL A   1      39.803  18.520  26.005  1.00  0.00     0.163 HD
ATOM     27  O   UNL A   1      42.220  18.590  25.922  1.00  0.00    -0.269 OA
BRANCH  25  28
ATOM     28  C   UNL A   1      42.099  20.894  26.373  1.00  0.00     0.039 A 
ATOM     29  C   UNL A   1      42.484  21.714  25.310  1.00  0.00     0.014 A 
ATOM     30  C   UNL A   1      42.298  21.313  27.692  1.00  0.00     0.014 A 
ATOM     31  C   UNL A   1      43.019  22.977  25.571  1.00  0.00     0.010 A 
ATOM     32  C   UNL A   1      42.762  22.600  27.949  1.00  0.00     0.010 A 
ATOM     33  C   UNL A   1      43.135  23.442  26.891  1.00  0.00    -0.014 A 
BRANCH  33  34
ATOM     34  C   UNL A   1      43.653  24.804  27.184  1.00  0.00     0.031 A 
ATOM     35  C   UNL A   1      42.728  25.863  27.717  1.00  0.00     0.074 A 
ATOM     36  C   UNL A   1      44.939  25.099  26.912  1.00  0.00     0.049 A 
ATOM     37  N   UNL A   1      42.971  27.123  27.972  1.00  0.00    -0.248 NA
ATOM     38  C   UNL A   1      41.338  25.457  27.967  1.00  0.00     0.031 C 
ATOM     39  C   UNL A   1      45.921  24.163  26.359  1.00  0.00     0.029 A 
ATOM     40  N   UNL A   1      45.642  26.267  27.059  1.00  0.00    -0.354 N 
ATOM     41  C   UNL A   1      41.763  27.665  28.399  1.00  0.00     0.074 A 
ATOM     42  C   UNL A   1      40.776  26.608  28.303  1.00  0.00     0.031 C 
ATOM     43  C   UNL A   1      47.104  24.786  26.241  1.00  0.00     0.029 A 
ATOM     44  C   UNL A   1      46.956  26.175  26.662  1.00  0.00     0.049 A 
ATOM     45  H   UNL A   1      45.244  27.094  27.414  1.00  0.00     0.167 HD
ATOM     46  C   UNL A   1      41.506  28.917  28.849  1.00  0.00     0.034 A 
ATOM     47  C   UNL A   1      47.929  27.108  26.629  1.00  0.00     0.034 A 
ATOM     48  C   UNL A   1      42.506  29.954  28.943  1.00  0.00     0.049 A 
ATOM     49  C   UNL A   1      47.613  28.504  27.101  1.00  0.00     0.074 A 
ATOM     50  C   UNL A   1      42.373  31.240  29.438  1.00  0.00     0.029 A 
ATOM     51  N   UNL A   1      43.824  29.828  28.518  1.00  0.00    -0.354 N 
ATOM     52  N   UNL A   1      46.478  28.987  27.554  1.00  0.00    -0.248 NA
ATOM     53  C   UNL A   1      48.711  29.478  27.066  1.00  0.00     0.031 C 
ATOM     54  C   UNL A   1      43.583  31.913  29.242  1.00  0.00     0.029 A 
ATOM     55  C   UNL A   1      44.502  31.025  28.706  1.00  0.00     0.049 A 
ATOM     56  H   UNL A   1      44.220  29.010  28.141  1.00  0.00     0.167 HD
ATOM     57  C   UNL A   1      46.737  30.313  27.888  1.00  0.00     0.074 A 
ATOM     58  C   UNL A   1      48.137  30.547  27.597  1.00  0.00     0.031 C 
ATOM     59  C   UNL A   1      45.896  31.250  28.396  1.00  0.00     0.034 A 
BRANCH  46  60
ATOM     60  C   UNL A   1      40.080  29.237  29.240  1.00  0.00     0.023 A 
ATOM     61  C   UNL A   1      39.685  29.337  30.586  1.00  0.00     0.031 A 
ATOM     62  C   UNL A   1      39.091  29.407  28.254  1.00  0.00     0.131 A 
ATOM     63  C   UNL A   1      38.330  29.508  30.910  1.00  0.00     0.055 A 
ATOM     64  C   UNL A   1      37.759  29.669  28.582  1.00  0.00     0.041 A 
ATOM     65  F   UNL A   1      39.398  29.303  26.951  1.00  0.00    -0.206 F 
ATOM     66  C   UNL A   1      37.369  29.702  29.918  1.00  0.00     0.022 A 
BRANCH  63  67
ATOM     67  S   UNL A   1      37.823  29.305  32.640  1.00  0.00     0.124 S 
ATOM     68  O   UNL A   1      38.963  29.883  33.350  1.00  0.00    -0.237 OA
ATOM     69  O   UNL A   1      36.582  30.066  32.697  1.00  0.00    -0.237 OA
ATOM     70  O   UNL A   1      37.679  27.858  32.787  1.00  0.00    -0.744 OA
ENDBRANCH  63  67
ENDBRANCH  46  60
BRANCH  47  71
ATOM     71  C   UNL A   1      49.290  26.759  26.129  1.00  0.00     0.023 A 
ATOM     72  C   UNL A   1      49.731  27.199  24.870  1.00  0.00     0.031 A 
ATOM     73  C   UNL A   1      50.158  25.955  26.888  1.00  0.00     0.131 A 
ATOM     74  C   UNL A   1      50.987  26.798  24.390  1.00  0.00     0.055 A 
ATOM     75  C   UNL A   1      51.429  25.603  26.429  1.00  0.00     0.041 A 
ATOM     76  F   UNL A   1      49.788  25.512  28.100  1.00  0.00    -0.206 F 
ATOM     77  C   UNL A   1      51.845  26.014  25.166  1.00  0.00     0.022 A 
BRANCH  74  78
ATOM     78  S   UNL A   1      51.454  27.248  22.697  1.00  0.00     0.124 S 
ATOM     79  O   UNL A   1      51.652  28.688  22.817  1.00  0.00    -0.237 OA
ATOM     80  O   UNL A   1      52.658  26.449  22.493  1.00  0.00    -0.237 OA
ATOM     81  O   UNL A   1      50.297  26.839  21.904  1.00  0.00    -0.744 OA
ENDBRANCH  74  78
ENDBRANCH  47  71
BRANCH  59  82
ATOM     82  C   UNL A   1      46.487  32.604  28.710  1.00  0.00     0.023 A 
ATOM     83  C   UNL A   1      46.515  33.641  27.761  1.00  0.00     0.031 A 
ATOM     84  C   UNL A   1      47.041  32.856  29.979  1.00  0.00     0.131 A 
ATOM     85  C   UNL A   1      47.136  34.860  28.076  1.00  0.00     0.055 A 
ATOM     86  C   UNL A   1      47.598  34.091  30.307  1.00  0.00     0.041 A 
ATOM     87  F   UNL A   1      47.046  31.901  30.923  1.00  0.00    -0.206 F 
ATOM     88  C   UNL A   1      47.661  35.098  29.348  1.00  0.00     0.022 A 
BRANCH  85  89
ATOM     89  S   UNL A   1      47.340  36.097  26.765  1.00  0.00     0.124 S 
ATOM     90  O   UNL A   1      48.264  37.043  27.381  1.00  0.00    -0.237 OA
ATOM     91  O   UNL A   1      47.880  35.302  25.667  1.00  0.00    -0.237 OA
ATOM     92  O   UNL A   1      45.984  36.601  26.555  1.00  0.00    -0.744 OA
ENDBRANCH  85  89
ENDBRANCH  59  82
ENDBRANCH  33  34
ENDBRANCH  25  28
ENDBRANCH  23  24
ENDBRANCH  22  23
ENDBRANCH  21  22
ENDBRANCH   1  21
TORSDOF 20
ENDMDL
MODEL 2
REMARK VINA RESULT:     -10.8      6.072     11.827
REMARK SMILES C[C@H](Sc1ccnc(C(=O)NCCCCCCNC(=O)c2ccc(-c3c4nc(c(-c5cc(S(=O)(=O)[O-])ccc5F)c5ccc([nH]5)c(-c5cc(S(=O)(=O)[O-])ccc5F)c5nc(c(-c6cc(S(=O)(=O)[O-])ccc6F)c6ccc3[nH]6)C=C5)C=C4)cc2)c1)[C@@H](C)O
REMARK SMILES IDX 14 1 13 2 12 3 11 4 9 5 10 6 8 8 4 9 5 10 84 11 6 12 7 13
REMARK SMILES IDX 3 14 2 15 1 16 85 17 86 18 87 19 15 21 16 22 17 23 18 24
REMARK SMILES IDX 19 25 20 27 21 28 22 29 83 30 23 31 82 32 24 33 25 34 26 35
REMARK SMILES IDX 76 36 27 37 81 38 75 39 77 40 28 41 80 42 74 43 73 44 29 46
REMARK SMILES IDX 61 47 41 48 60 49 42 50 45 51 59 52 78 53 43 54 44 55 58 57
REMARK SMILES IDX 79 58 46 59 30 60 31 61 39 62 32 63 38 64 40 65 37 66 33 67
REMARK SMILES IDX 34 68 35 69 36 70 62 71 63 72 71 73 64 74 70 75 72 76 69 77
REMARK SMILES IDX 65 78 66 79 67 80 68 81 47 82 48 83 56 84 49 85 55 86 57 87
REMARK SMILES IDX 54 88 50 89 51 90 52 91 53 92
REMARK H PARENT 11 7 87 20 18 26 77 45 45 56
REMARK Flexibility Score: inf
ROOT
ATOM      1  C   UNL A   1      32.154  29.769  27.160  1.00  0.00     0.002 C 
ENDROOT
BRANCH   1   2
ATOM      2  C   UNL A   1      32.426  28.358  26.618  1.00  0.00     0.021 C 
BRANCH   2   3
ATOM      3  C   UNL A   1      33.892  28.131  26.235  1.00  0.00     0.116 C 
BRANCH   3   4
ATOM      4  N   UNL A   1      34.172  28.675  24.920  1.00  0.00    -0.351 N 
ATOM      5  C   UNL A   1      34.051  28.216  23.628  1.00  0.00     0.269 C 
ATOM      6  O   UNL A   1      34.365  29.030  22.753  1.00  0.00    -0.268 OA
ATOM      7  H   UNL A   1      34.534  29.589  24.961  1.00  0.00     0.163 HD
BRANCH   5   8
ATOM      8  C   UNL A   1      33.566  26.844  23.223  1.00  0.00     0.129 A 
ATOM      9  C   UNL A   1      32.898  24.553  23.604  1.00  0.00     0.011 A 
ATOM     10  C   UNL A   1      32.684  24.416  22.240  1.00  0.00     0.035 A 
ATOM     11  C   UNL A   1      33.397  25.773  24.083  1.00  0.00     0.049 A 
ATOM     12  C   UNL A   1      32.924  25.512  21.431  1.00  0.00     0.113 A 
ATOM     13  N   UNL A   1      33.330  26.711  21.890  1.00  0.00    -0.251 NA
BRANCH   9  14
ATOM     14  S   UNL A   1      32.680  23.291  24.849  1.00  0.00    -0.120 SA
BRANCH  14  15
ATOM     15  C   UNL A   1      33.221  21.702  24.093  1.00  0.00     0.077 C 
ATOM     16  C   UNL A   1      34.684  21.527  24.522  1.00  0.00     0.022 C 
BRANCH  15  17
ATOM     17  C   UNL A   1      32.375  20.489  24.553  1.00  0.00     0.124 C 
ATOM     18  C   UNL A   1      33.188  19.306  25.069  1.00  0.00     0.039 C 
BRANCH  17  19
ATOM     19  O   UNL A   1      31.496  20.897  25.612  1.00  0.00    -0.392 OA
ATOM     20  H   UNL A   1      30.636  21.149  25.240  1.00  0.00     0.210 HD
ENDBRANCH  17  19
ENDBRANCH  15  17
ENDBRANCH  14  15
ENDBRANCH   9  14
ENDBRANCH   5   8
ENDBRANCH   3   4
ENDBRANCH   2   3
ENDBRANCH   1   2
BRANCH   1  21
ATOM     21  C   UNL A   1      31.599  30.763  26.129  1.00  0.00     0.002 C 
BRANCH  21  22
ATOM     22  C   UNL A   1      31.436  32.199  26.638  1.00  0.00     0.021 C 
BRANCH  22  23
ATOM     23  C   UNL A   1      32.674  32.763  27.328  1.00  0.00     0.116 C 
BRANCH  23  24
ATOM     24  N   UNL A   1      32.504  34.169  27.659  1.00  0.00    -0.352 N 
ATOM     25  C   UNL A   1      33.073  34.899  28.672  1.00  0.00     0.251 C 
ATOM     26  H   UNL A   1      31.894  34.668  27.071  1.00  0.00     0.163 HD
ATOM     27  O   UNL A   1      32.610  35.997  28.962  1.00  0.00    -0.269 OA
BRANCH  25  28
ATOM     28  C   UNL A   1      34.230  34.353  29.414  1.00  0.00     0.039 A 
ATOM     29  C   UNL A   1      34.011  33.710  30.634  1.00  0.00     0.014 A 
ATOM     30  C   UNL A   1      35.528  34.496  28.916  1.00  0.00     0.014 A 
ATOM     31  C   UNL A   1      35.092  33.164  31.330  1.00  0.00     0.010 A 
ATOM     32  C   UNL A   1      36.594  33.887  29.573  1.00  0.00     0.010 A 
ATOM     33  C   UNL A   1      36.388  33.222  30.791  1.00  0.00    -0.014 A 
BRANCH  33  34
ATOM     34  C   UNL A   1      37.541  32.599  31.492  1.00  0.00     0.031 A 
ATOM     35  C   UNL A   1      38.274  31.448  30.861  1.00  0.00     0.074 A 
ATOM     36  C   UNL A   1      37.884  33.032  32.721  1.00  0.00     0.049 A 
ATOM     37  N   UNL A   1      39.258  30.731  31.338  1.00  0.00    -0.248 NA
ATOM     38  C   UNL A   1      37.819  31.031  29.526  1.00  0.00     0.031 C 
ATOM     39  C   UNL A   1      37.222  34.117  33.449  1.00  0.00     0.029 A 
ATOM     40  N   UNL A   1      38.870  32.613  33.576  1.00  0.00    -0.354 N 
ATOM     41  C   UNL A   1      39.532  29.768  30.372  1.00  0.00     0.074 A 
ATOM     42  C   UNL A   1      38.563  29.957  29.311  1.00  0.00     0.031 C 
ATOM     43  C   UNL A   1      37.839  34.295  34.627  1.00  0.00     0.029 A 
ATOM     44  C   UNL A   1      38.907  33.310  34.762  1.00  0.00     0.049 A 
ATOM     45  H   UNL A   1      39.494  31.881  33.363  1.00  0.00     0.167 HD
ATOM     46  C   UNL A   1      40.512  28.832  30.360  1.00  0.00     0.034 A 
ATOM     47  C   UNL A   1      39.702  33.163  35.841  1.00  0.00     0.034 A 
ATOM     48  C   UNL A   1      41.472  28.665  31.426  1.00  0.00     0.049 A 
ATOM     49  C   UNL A   1      40.762  32.093  35.821  1.00  0.00     0.074 A 
ATOM     50  C   UNL A   1      42.542  27.790  31.494  1.00  0.00     0.029 A 
ATOM     51  N   UNL A   1      41.469  29.381  32.618  1.00  0.00    -0.354 N 
ATOM     52  N   UNL A   1      41.044  31.225  34.876  1.00  0.00    -0.248 NA
ATOM     53  C   UNL A   1      41.617  31.988  37.011  1.00  0.00     0.031 C 
ATOM     54  C   UNL A   1      43.135  27.921  32.754  1.00  0.00     0.029 A 
ATOM     55  C   UNL A   1      42.495  28.939  33.442  1.00  0.00     0.049 A 
ATOM     56  H   UNL A   1      40.833  30.097  32.844  1.00  0.00     0.167 HD
ATOM     57  C   UNL A   1      42.132  30.493  35.345  1.00  0.00     0.074 A 
ATOM     58  C   UNL A   1      42.460  31.031  36.649  1.00  0.00     0.031 C 
ATOM     59  C   UNL A   1      42.802  29.474  34.749  1.00  0.00     0.034 A 
BRANCH  46  60
ATOM     60  C   UNL A   1      40.567  27.898  29.171  1.00  0.00     0.023 A 
ATOM     61  C   UNL A   1      41.508  28.065  28.140  1.00  0.00     0.031 A 
ATOM     62  C   UNL A   1      39.640  26.847  29.047  1.00  0.00     0.131 A 
ATOM     63  C   UNL A   1      41.446  27.258  26.994  1.00  0.00     0.055 A 
ATOM     64  C   UNL A   1      39.642  25.989  27.945  1.00  0.00     0.041 A 
ATOM     65  F   UNL A   1      38.702  26.647  29.985  1.00  0.00    -0.206 F 
ATOM     66  C   UNL A   1      40.537  26.203  26.901  1.00  0.00     0.022 A 
BRANCH  63  67
ATOM     67  S   UNL A   1      42.458  27.715  25.559  1.00  0.00     0.124 S 
ATOM     68  O   UNL A   1      42.256  26.566  24.678  1.00  0.00    -0.237 OA
ATOM     69  O   UNL A   1      41.849  28.967  25.129  1.00  0.00    -0.237 OA
ATOM     70  O   UNL A   1      43.805  27.832  26.114  1.00  0.00    -0.744 OA
ENDBRANCH  63  67
ENDBRANCH  46  60
BRANCH  47  71
ATOM     71  C   UNL A   1      39.527  34.046  37.030  1.00  0.00     0.023 A 
ATOM     72  C   UNL A   1      38.953  33.556  38.214  1.00  0.00     0.031 A 
ATOM     73  C   UNL A   1      39.903  35.400  36.991  1.00  0.00     0.131 A 
ATOM     74  C   UNL A   1      38.732  34.423  39.295  1.00  0.00     0.055 A 
ATOM     75  C   UNL A   1      39.730  36.247  38.088  1.00  0.00     0.041 A 
ATOM     76  F   UNL A   1      40.460  35.918  35.884  1.00  0.00    -0.206 F 
ATOM     77  C   UNL A   1      39.129  35.762  39.245  1.00  0.00     0.022 A 
BRANCH  74  78
ATOM     78  S   UNL A   1      37.842  33.795  40.744  1.00  0.00     0.124 S 
ATOM     79  O   UNL A   1      38.859  32.966  41.381  1.00  0.00    -0.237 OA
ATOM     80  O   UNL A   1      37.489  35.029  41.440  1.00  0.00    -0.237 OA
ATOM     81  O   UNL A   1      36.715  33.068  40.163  1.00  0.00    -0.744 OA
ENDBRANCH  74  78
ENDBRANCH  47  71
BRANCH  59  82
ATOM     82  C   UNL A   1      43.989  28.907  35.491  1.00  0.00     0.023 A 
ATOM     83  C   UNL A   1      43.864  27.813  36.366  1.00  0.00     0.031 A 
ATOM     84  C   UNL A   1      45.263  29.478  35.327  1.00  0.00     0.131 A 
ATOM     85  C   UNL A   1      44.982  27.364  37.087  1.00  0.00     0.055 A 
ATOM     86  C   UNL A   1      46.383  28.985  35.996  1.00  0.00     0.041 A 
ATOM     87  F   UNL A   1      45.441  30.528  34.507  1.00  0.00    -0.206 F 
ATOM     88  C   UNL A   1      46.244  27.930  36.893  1.00  0.00     0.022 A 
BRANCH  85  89
ATOM     89  S   UNL A   1      44.744  26.092  38.358  1.00  0.00     0.124 S 
ATOM     90  O   UNL A   1      43.799  25.188  37.711  1.00  0.00    -0.237 OA
ATOM     91  O   UNL A   1      46.097  25.576  38.540  1.00  0.00    -0.237 OA
ATOM     92  O   UNL A   1      44.209  26.839  39.495  1.00  0.00    -0.744 OA
ENDBRANCH  85  89
ENDBRANCH  59  82
ENDBRANCH  33  34
ENDBRANCH  25  28
ENDBRANCH  23  24
ENDBRANCH  22  23
ENDBRANCH  21  22
ENDBRANCH   1  21
TORSDOF 20
ENDMDL
MODEL 3
REMARK VINA RESULT:     -10.6      5.107      8.207
REMARK SMILES C[C@H](Sc1ccnc(C(=O)NCCCCCCNC(=O)c2ccc(-c3c4nc(c(-c5cc(S(=O)(=O)[O-])ccc5F)c5ccc([nH]5)c(-c5cc(S(=O)(=O)[O-])ccc5F)c5nc(c(-c6cc(S(=O)(=O)[O-])ccc6F)c6ccc3[nH]6)C=C5)C=C4)cc2)c1)[C@@H](C)O
REMARK SMILES IDX 14 1 13 2 12 3 11 4 9 5 10 6 8 8 4 9 5 10 84 11 6 12 7 13
REMARK SMILES IDX 3 14 2 15 1 16 85 17 86 18 87 19 15 21 16 22 17 23 18 24
REMARK SMILES IDX 19 25 20 27 21 28 22 29 83 30 23 31 82 32 24 33 25 34 26 35
REMARK SMILES IDX 76 36 27 37 81 38 75 39 77 40 28 41 80 42 74 43 73 44 29 46
REMARK SMILES IDX 61 47 41 48 60 49 42 50 45 51 59 52 78 53 43 54 44 55 58 57
REMARK SMILES IDX 79 58 46 59 30 60 31 61 39 62 32 63 38 64 40 65 37 66 33 67
REMARK SMILES IDX 34 68 35 69 36 70 62 71 63 72 71 73 64 74 70 75 72 76 69 77
REMARK SMILES IDX 65 78 66 79 67 80 68 81 47 82 48 83 56 84 49 85 55 86 57 87
REMARK SMILES IDX 54 88 50 89 51 90 52 91 53 92
REMARK H PARENT 11 7 87 20 18 26 77 45 45 56
REMARK Flexibility Score: inf
ROOT
ATOM      1  C   UNL A   1      30.895  29.418  24.253  1.00  0.00     0.002 C 
ENDROOT
BRANCH   1   2
ATOM      2  C   UNL A   1      31.639  28.753  23.085  1.00  0.00     0.021 C 
BRANCH   2   3
ATOM      3  C   UNL A   1      30.834  27.635  22.415  1.00  0.00     0.116 C 
BRANCH   3   4
ATOM      4  N   UNL A   1      31.648  26.920  21.451  1.00  0.00    -0.351 N 
ATOM      5  C   UNL A   1      32.538  25.873  21.511  1.00  0.00     0.269 C 
ATOM      6  O   UNL A   1      33.001  25.517  20.422  1.00  0.00    -0.268 OA
ATOM      7  H   UNL A   1      31.536  27.266  20.536  1.00  0.00     0.163 HD
BRANCH   5   8
ATOM      8  C   UNL A   1      32.960  25.147  22.766  1.00  0.00     0.129 A 
ATOM      9  C   UNL A   1      32.883  23.371  24.404  1.00  0.00     0.011 A 
ATOM     10  C   UNL A   1      33.894  24.011  25.107  1.00  0.00     0.035 A 
ATOM     11  C   UNL A   1      32.382  23.985  23.248  1.00  0.00     0.049 A 
ATOM     12  C   UNL A   1      34.391  25.197  24.597  1.00  0.00     0.113 A 
ATOM     13  N   UNL A   1      33.969  25.756  23.446  1.00  0.00    -0.251 NA
BRANCH   9  14
ATOM     14  S   UNL A   1      32.068  21.849  24.859  1.00  0.00    -0.120 SA
BRANCH  14  15
ATOM     15  C   UNL A   1      33.394  20.603  25.143  1.00  0.00     0.077 C 
ATOM     16  C   UNL A   1      33.711  20.684  26.643  1.00  0.00     0.022 C 
BRANCH  15  17
ATOM     17  C   UNL A   1      32.971  19.163  24.758  1.00  0.00     0.124 C 
ATOM     18  C   UNL A   1      34.127  18.231  24.412  1.00  0.00     0.039 C 
BRANCH  17  19
ATOM     19  O   UNL A   1      32.257  18.569  25.854  1.00  0.00    -0.392 OA
ATOM     20  H   UNL A   1      32.873  18.065  26.406  1.00  0.00     0.210 HD
ENDBRANCH  17  19
ENDBRANCH  15  17
ENDBRANCH  14  15
ENDBRANCH   9  14
ENDBRANCH   5   8
ENDBRANCH   3   4
ENDBRANCH   2   3
ENDBRANCH   1   2
BRANCH   1  21
ATOM     21  C   UNL A   1      31.574  29.269  25.623  1.00  0.00     0.002 C 
BRANCH  21  22
ATOM     22  C   UNL A   1      32.767  28.308  25.653  1.00  0.00     0.021 C 
BRANCH  22  23
ATOM     23  C   UNL A   1      34.051  28.921  26.203  1.00  0.00     0.116 C 
BRANCH  23  24
ATOM     24  N   UNL A   1      33.847  30.302  26.611  1.00  0.00    -0.352 N 
ATOM     25  C   UNL A   1      34.493  31.028  27.579  1.00  0.00     0.251 C 
ATOM     26  H   UNL A   1      33.144  30.786  26.121  1.00  0.00     0.163 HD
ATOM     27  O   UNL A   1      34.010  32.086  27.969  1.00  0.00    -0.269 OA
BRANCH  25  28
ATOM     28  C   UNL A   1      35.758  30.525  28.156  1.00  0.00     0.039 A 
ATOM     29  C   UNL A   1      35.712  29.724  29.299  1.00  0.00     0.014 A 
ATOM     30  C   UNL A   1      36.987  30.861  27.582  1.00  0.00     0.014 A 
ATOM     31  C   UNL A   1      36.897  29.218  29.836  1.00  0.00     0.010 A 
ATOM     32  C   UNL A   1      38.161  30.295  28.073  1.00  0.00     0.010 A 
ATOM     33  C   UNL A   1      38.129  29.475  29.210  1.00  0.00    -0.014 A 
BRANCH  33  34
ATOM     34  C   UNL A   1      39.394  28.900  29.737  1.00  0.00     0.031 A 
ATOM     35  C   UNL A   1      40.084  29.543  30.908  1.00  0.00     0.074 A 
ATOM     36  C   UNL A   1      39.949  27.837  29.121  1.00  0.00     0.049 A 
ATOM     37  N   UNL A   1      41.223  29.233  31.471  1.00  0.00    -0.248 NA
ATOM     38  C   UNL A   1      39.415  30.708  31.506  1.00  0.00     0.031 C 
ATOM     39  C   UNL A   1      39.390  27.152  27.954  1.00  0.00     0.029 A 
ATOM     40  N   UNL A   1      41.105  27.150  29.386  1.00  0.00    -0.354 N 
ATOM     41  C   UNL A   1      41.417  30.172  32.480  1.00  0.00     0.074 A 
ATOM     42  C   UNL A   1      40.307  31.100  32.403  1.00  0.00     0.031 C 
ATOM     43  C   UNL A   1      40.189  26.126  27.623  1.00  0.00     0.029 A 
ATOM     44  C   UNL A   1      41.340  26.108  28.519  1.00  0.00     0.049 A 
ATOM     45  H   UNL A   1      41.711  27.381  30.127  1.00  0.00     0.167 HD
ATOM     46  C   UNL A   1      42.414  30.241  33.396  1.00  0.00     0.034 A 
ATOM     47  C   UNL A   1      42.372  25.244  28.446  1.00  0.00     0.034 A 
ATOM     48  C   UNL A   1      43.509  29.301  33.457  1.00  0.00     0.049 A 
ATOM     49  C   UNL A   1      43.488  25.359  29.453  1.00  0.00     0.074 A 
ATOM     50  C   UNL A   1      44.541  29.239  34.377  1.00  0.00     0.029 A 
ATOM     51  N   UNL A   1      43.721  28.266  32.553  1.00  0.00    -0.354 N 
ATOM     52  N   UNL A   1      43.630  26.219  30.435  1.00  0.00    -0.248 NA
ATOM     53  C   UNL A   1      44.578  24.382  29.346  1.00  0.00     0.031 C 
ATOM     54  C   UNL A   1      45.416  28.220  33.986  1.00  0.00     0.029 A 
ATOM     55  C   UNL A   1      44.888  27.585  32.873  1.00  0.00     0.049 A 
ATOM     56  H   UNL A   1      43.129  28.047  31.798  1.00  0.00     0.167 HD
ATOM     57  C   UNL A   1      44.810  25.864  31.083  1.00  0.00     0.074 A 
ATOM     58  C   UNL A   1      45.330  24.705  30.388  1.00  0.00     0.031 C 
ATOM     59  C   UNL A   1      45.405  26.439  32.160  1.00  0.00     0.034 A 
BRANCH  46  60
ATOM     60  C   UNL A   1      42.378  31.390  34.378  1.00  0.00     0.023 A 
ATOM     61  C   UNL A   1      41.487  31.408  35.466  1.00  0.00     0.031 A 
ATOM     62  C   UNL A   1      43.221  32.503  34.205  1.00  0.00     0.131 A 
ATOM     63  C   UNL A   1      41.394  32.547  36.280  1.00  0.00     0.055 A 
ATOM     64  C   UNL A   1      43.188  33.595  35.074  1.00  0.00     0.041 A 
ATOM     65  F   UNL A   1      44.079  32.558  33.174  1.00  0.00    -0.206 F 
ATOM     66  C   UNL A   1      42.257  33.630  36.109  1.00  0.00     0.022 A 
BRANCH  63  67
ATOM     67  S   UNL A   1      40.018  32.659  37.457  1.00  0.00     0.124 S 
ATOM     68  O   UNL A   1      40.709  32.497  38.734  1.00  0.00    -0.237 OA
ATOM     69  O   UNL A   1      39.477  33.985  37.185  1.00  0.00    -0.237 OA
ATOM     70  O   UNL A   1      39.155  31.541  37.081  1.00  0.00    -0.744 OA
ENDBRANCH  63  67
ENDBRANCH  46  60
BRANCH  47  71
ATOM     71  C   UNL A   1      42.405  24.198  27.384  1.00  0.00     0.023 A 
ATOM     72  C   UNL A   1      41.778  22.956  27.575  1.00  0.00     0.031 A 
ATOM     73  C   UNL A   1      43.089  24.412  26.175  1.00  0.00     0.131 A 
ATOM     74  C   UNL A   1      41.883  21.961  26.591  1.00  0.00     0.055 A 
ATOM     75  C   UNL A   1      43.146  23.438  25.176  1.00  0.00     0.041 A 
ATOM     76  F   UNL A   1      43.702  25.584  25.939  1.00  0.00    -0.206 F 
ATOM     77  C   UNL A   1      42.551  22.198  25.387  1.00  0.00     0.022 A 
BRANCH  74  78
ATOM     78  S   UNL A   1      41.201  20.318  26.942  1.00  0.00     0.124 S 
ATOM     79  O   UNL A   1      40.093  20.249  25.997  1.00  0.00    -0.237 OA
ATOM     80  O   UNL A   1      42.342  19.451  26.659  1.00  0.00    -0.237 OA
ATOM     81  O   UNL A   1      40.820  20.401  28.350  1.00  0.00    -0.744 OA
ENDBRANCH  74  78
ENDBRANCH  47  71
BRANCH  59  82
ATOM     82  C   UNL A   1      46.667  25.789  32.675  1.00  0.00     0.023 A 
ATOM     83  C   UNL A   1      47.924  26.049  32.103  1.00  0.00     0.031 A 
ATOM     84  C   UNL A   1      46.606  24.885  33.751  1.00  0.00     0.131 A 
ATOM     85  C   UNL A   1      49.059  25.369  32.570  1.00  0.00     0.055 A 
ATOM     86  C   UNL A   1      47.748  24.261  34.254  1.00  0.00     0.041 A 
ATOM     87  F   UNL A   1      45.431  24.594  34.334  1.00  0.00    -0.206 F 
ATOM     88  C   UNL A   1      48.983  24.491  33.653  1.00  0.00     0.022 A 
BRANCH  85  89
ATOM     89  S   UNL A   1      50.625  25.571  31.675  1.00  0.00     0.124 S 
ATOM     90  O   UNL A   1      51.193  26.750  32.320  1.00  0.00    -0.237 OA
ATOM     91  O   UNL A   1      51.303  24.307  31.946  1.00  0.00    -0.237 OA
ATOM     92  O   UNL A   1      50.205  25.763  30.289  1.00  0.00    -0.744 OA
ENDBRANCH  85  89
ENDBRANCH  59  82
ENDBRANCH  33  34
ENDBRANCH  25  28
ENDBRANCH  23  24
ENDBRANCH  22  23
ENDBRANCH  21  22
ENDBRANCH   1  21
TORSDOF 20
ENDMDL
