MODEL 1
REMARK VINA RESULT:     -11.3      0.000      0.000
REMARK SMILES C[C@H](CC(=O)NCCCCCCNC(=O)c1ccc(-c2c3nc(c(-c4cc(S(=O)(=O)[O-])ccc4F)c4ccc([nH]4)c(-c4cc(S(=O)(=O)[O-])ccc4F)c4nc(c(-c5cc(S(=O)(=O)[O-])ccc5F)c5ccc2[nH]5)C=C4)C=C3)cc1)NC(=O)Cn1nc2ccccn2c1=O
REMARK SMILES IDX 9 1 8 2 7 3 6 4 4 5 5 6 3 8 2 9 1 10 79 11 80 12 81 14 82 15
REMARK SMILES IDX 83 16 84 17 91 18 85 19 90 20 92 21 86 22 89 23 87 24 88 25
REMARK SMILES IDX 10 26 11 27 12 28 13 29 14 30 15 32 16 33 17 34 78 35 18 36
REMARK SMILES IDX 77 37 19 38 20 39 21 40 71 41 22 42 76 43 70 44 72 45 23 46
REMARK SMILES IDX 75 47 69 48 68 49 24 51 56 52 36 53 55 54 37 55 40 56 54 57
REMARK SMILES IDX 73 58 38 59 39 60 53 62 74 63 41 64 25 65 26 66 34 67 27 68
REMARK SMILES IDX 33 69 35 70 32 71 28 72 29 73 30 74 31 75 57 76 58 77 66 78
REMARK SMILES IDX 59 79 65 80 67 81 64 82 60 83 61 84 62 85 63 86 42 87 43 88
REMARK SMILES IDX 51 89 44 90 50 91 52 92 49 93 45 94 46 95 47 96 48 97
REMARK H PARENT 6 7 79 13 13 31 72 50 40 61
REMARK Flexibility Score: inf
ROOT
ATOM      1  C   UNL A   1      30.955  29.601  24.583  1.00  0.00     0.002 C 
ENDROOT
BRANCH   1   2
ATOM      2  C   UNL A   1      30.974  29.270  23.089  1.00  0.00     0.021 C 
BRANCH   2   3
ATOM      3  C   UNL A   1      30.677  27.804  22.766  1.00  0.00     0.116 C 
BRANCH   3   4
ATOM      4  N   UNL A   1      31.653  27.287  21.829  1.00  0.00    -0.356 N 
ATOM      5  C   UNL A   1      32.772  26.551  22.068  1.00  0.00     0.222 C 
ATOM      6  O   UNL A   1      33.508  26.282  21.116  1.00  0.00    -0.275 OA
ATOM      7  H   UNL A   1      31.482  27.498  20.883  1.00  0.00     0.163 HD
BRANCH   5   8
ATOM      8  C   UNL A   1      33.087  26.042  23.462  1.00  0.00     0.124 C 
BRANCH   8   9
ATOM      9  C   UNL A   1      33.127  24.516  23.656  1.00  0.00     0.088 C 
ATOM     10  C   UNL A   1      31.884  23.790  23.139  1.00  0.00     0.031 C 
BRANCH   9  11
ATOM     11  N   UNL A   1      34.330  23.918  23.079  1.00  0.00    -0.352 N 
ATOM     12  C   UNL A   1      35.327  23.150  23.597  1.00  0.00     0.242 C 
ATOM     13  H   UNL A   1      34.441  24.109  22.120  1.00  0.00     0.163 HD
ATOM     14  O   UNL A   1      36.255  22.894  22.820  1.00  0.00    -0.273 OA
BRANCH  12  15
ATOM     15  C   UNL A   1      35.230  22.430  24.942  1.00  0.00     0.249 C 
BRANCH  15  16
ATOM     16  N   UNL A   1      34.759  21.074  24.896  1.00  0.00    -0.203 N 
ATOM     17  N   UNL A   1      35.590  19.985  24.710  1.00  0.00    -0.149 NA
ATOM     18  C   UNL A   1      33.439  20.659  25.122  1.00  0.00     0.350 A 
ATOM     19  C   UNL A   1      34.775  18.978  24.740  1.00  0.00     0.161 A 
ATOM     20  N   UNL A   1      33.476  19.295  24.972  1.00  0.00    -0.250 N 
ATOM     21  O   UNL A   1      32.467  21.365  25.344  1.00  0.00    -0.246 OA
ATOM     22  C   UNL A   1      35.120  17.540  24.541  1.00  0.00     0.050 A 
ATOM     23  C   UNL A   1      32.450  18.397  24.969  1.00  0.00     0.098 A 
ATOM     24  C   UNL A   1      34.067  16.777  24.178  1.00  0.00     0.005 A 
ATOM     25  C   UNL A   1      32.711  17.140  24.582  1.00  0.00     0.019 A 
ENDBRANCH  15  16
ENDBRANCH  12  15
ENDBRANCH   9  11
ENDBRANCH   8   9
ENDBRANCH   5   8
ENDBRANCH   3   4
ENDBRANCH   2   3
ENDBRANCH   1   2
BRANCH   1  26
ATOM     26  C   UNL A   1      31.397  28.456  25.497  1.00  0.00     0.002 C 
BRANCH  26  27
ATOM     27  C   UNL A   1      32.291  28.872  26.669  1.00  0.00     0.021 C 
BRANCH  27  28
ATOM     28  C   UNL A   1      33.528  29.676  26.273  1.00  0.00     0.116 C 
BRANCH  28  29
ATOM     29  N   UNL A   1      33.428  31.059  26.712  1.00  0.00    -0.352 N 
ATOM     30  C   UNL A   1      34.156  31.728  27.664  1.00  0.00     0.251 C 
ATOM     31  H   UNL A   1      32.736  31.594  26.259  1.00  0.00     0.163 HD
ATOM     32  O   UNL A   1      33.749  32.806  28.087  1.00  0.00    -0.269 OA
BRANCH  30  33
ATOM     33  C   UNL A   1      35.413  31.146  28.183  1.00  0.00     0.039 A 
ATOM     34  C   UNL A   1      36.584  31.905  28.121  1.00  0.00     0.014 A 
ATOM     35  C   UNL A   1      35.447  29.848  28.703  1.00  0.00     0.014 A 
ATOM     36  C   UNL A   1      37.773  31.385  28.633  1.00  0.00     0.010 A 
ATOM     37  C   UNL A   1      36.618  29.360  29.280  1.00  0.00     0.010 A 
ATOM     38  C   UNL A   1      37.795  30.121  29.249  1.00  0.00    -0.014 A 
BRANCH  38  39
ATOM     39  C   UNL A   1      39.038  29.600  29.874  1.00  0.00     0.031 A 
ATOM     40  C   UNL A   1      39.507  30.132  31.202  1.00  0.00     0.074 A 
ATOM     41  C   UNL A   1      39.766  28.671  29.224  1.00  0.00     0.049 A 
ATOM     42  N   UNL A   1      40.574  29.815  31.890  1.00  0.00    -0.248 NA
ATOM     43  C   UNL A   1      38.680  31.175  31.826  1.00  0.00     0.031 C 
ATOM     44  C   UNL A   1      39.434  28.110  27.911  1.00  0.00     0.029 A 
ATOM     45  N   UNL A   1      40.930  28.032  29.570  1.00  0.00    -0.354 N 
ATOM     46  C   UNL A   1      40.549  30.620  33.024  1.00  0.00     0.074 A 
ATOM     47  C   UNL A   1      39.395  31.484  32.897  1.00  0.00     0.031 C 
ATOM     48  C   UNL A   1      40.352  27.189  27.581  1.00  0.00     0.029 A 
ATOM     49  C   UNL A   1      41.365  27.126  28.630  1.00  0.00     0.049 A 
ATOM     50  H   UNL A   1      41.409  28.206  30.411  1.00  0.00     0.167 HD
ATOM     51  C   UNL A   1      41.397  30.620  34.084  1.00  0.00     0.034 A 
ATOM     52  C   UNL A   1      42.460  26.340  28.608  1.00  0.00     0.034 A 
ATOM     53  C   UNL A   1      42.545  29.751  34.192  1.00  0.00     0.049 A 
ATOM     54  C   UNL A   1      43.409  26.388  29.779  1.00  0.00     0.074 A 
ATOM     55  C   UNL A   1      43.440  29.633  35.241  1.00  0.00     0.029 A 
ATOM     56  N   UNL A   1      42.967  28.861  33.212  1.00  0.00    -0.354 N 
ATOM     57  N   UNL A   1      43.338  27.112  30.873  1.00  0.00    -0.248 NA
ATOM     58  C   UNL A   1      44.578  25.504  29.718  1.00  0.00     0.031 C 
ATOM     59  C   UNL A   1      44.444  28.733  34.864  1.00  0.00     0.029 A 
ATOM     60  C   UNL A   1      44.130  28.221  33.616  1.00  0.00     0.049 A 
ATOM     61  H   UNL A   1      42.508  28.708  32.354  1.00  0.00     0.167 HD
ATOM     62  C   UNL A   1      44.439  26.748  31.642  1.00  0.00     0.074 A 
ATOM     63  C   UNL A   1      45.143  25.723  30.896  1.00  0.00     0.031 C 
ATOM     64  C   UNL A   1      44.834  27.214  32.854  1.00  0.00     0.034 A 
BRANCH  51  65
ATOM     65  C   UNL A   1      41.126  31.611  35.194  1.00  0.00     0.023 A 
ATOM     66  C   UNL A   1      40.052  31.445  36.088  1.00  0.00     0.031 A 
ATOM     67  C   UNL A   1      41.942  32.746  35.353  1.00  0.00     0.131 A 
ATOM     68  C   UNL A   1      39.778  32.432  37.047  1.00  0.00     0.055 A 
ATOM     69  C   UNL A   1      41.715  33.680  36.365  1.00  0.00     0.041 A 
ATOM     70  F   UNL A   1      42.969  32.971  34.520  1.00  0.00    -0.206 F 
ATOM     71  C   UNL A   1      40.619  33.535  37.210  1.00  0.00     0.022 A 
BRANCH  68  72
ATOM     72  S   UNL A   1      38.227  32.327  37.981  1.00  0.00     0.124 S 
ATOM     73  O   UNL A   1      37.567  33.574  37.596  1.00  0.00    -0.237 OA
ATOM     74  O   UNL A   1      37.628  31.102  37.464  1.00  0.00    -0.237 OA
ATOM     75  O   UNL A   1      38.666  32.269  39.373  1.00  0.00    -0.744 OA
ENDBRANCH  68  72
ENDBRANCH  51  65
BRANCH  52  76
ATOM     76  C   UNL A   1      42.732  25.452  27.441  1.00  0.00     0.023 A 
ATOM     77  C   UNL A   1      42.194  24.157  27.375  1.00  0.00     0.031 A 
ATOM     78  C   UNL A   1      43.572  25.869  26.393  1.00  0.00     0.131 A 
ATOM     79  C   UNL A   1      42.541  23.308  26.314  1.00  0.00     0.055 A 
ATOM     80  C   UNL A   1      43.866  25.043  25.308  1.00  0.00     0.041 A 
ATOM     81  F   UNL A   1      44.114  27.099  26.405  1.00  0.00    -0.206 F 
ATOM     82  C   UNL A   1      43.361  23.747  25.271  1.00  0.00     0.022 A 
BRANCH  79  83
ATOM     83  S   UNL A   1      41.983  21.583  26.362  1.00  0.00     0.124 S 
ATOM     84  O   UNL A   1      40.569  21.719  26.035  1.00  0.00    -0.237 OA
ATOM     85  O   UNL A   1      42.823  20.964  25.342  1.00  0.00    -0.237 OA
ATOM     86  O   UNL A   1      42.269  21.171  27.735  1.00  0.00    -0.744 OA
ENDBRANCH  79  83
ENDBRANCH  52  76
BRANCH  64  87
ATOM     87  C   UNL A   1      46.067  26.586  33.461  1.00  0.00     0.023 A 
ATOM     88  C   UNL A   1      46.008  25.373  34.170  1.00  0.00     0.031 A 
ATOM     89  C   UNL A   1      47.315  27.224  33.349  1.00  0.00     0.131 A 
ATOM     90  C   UNL A   1      47.159  24.871  34.795  1.00  0.00     0.055 A 
ATOM     91  C   UNL A   1      48.471  26.683  33.913  1.00  0.00     0.041 A 
ATOM     92  F   UNL A   1      47.433  28.387  32.689  1.00  0.00    -0.206 F 
ATOM     93  C   UNL A   1      48.395  25.508  34.655  1.00  0.00     0.022 A 
BRANCH  90  94
ATOM     94  S   UNL A   1      46.999  23.434  35.890  1.00  0.00     0.124 S 
ATOM     95  O   UNL A   1      45.668  23.630  36.456  1.00  0.00    -0.237 OA
ATOM     96  O   UNL A   1      47.139  22.316  34.963  1.00  0.00    -0.237 OA
ATOM     97  O   UNL A   1      48.104  23.597  36.835  1.00  0.00    -0.744 OA
ENDBRANCH  90  94
ENDBRANCH  64  87
ENDBRANCH  38  39
ENDBRANCH  30  33
ENDBRANCH  28  29
ENDBRANCH  27  28
ENDBRANCH  26  27
ENDBRANCH   1  26
TORSDOF 20
ENDMDL
MODEL 2
REMARK VINA RESULT:     -10.9      2.127      8.115
REMARK SMILES C[C@H](CC(=O)NCCCCCCNC(=O)c1ccc(-c2c3nc(c(-c4cc(S(=O)(=O)[O-])ccc4F)c4ccc([nH]4)c(-c4cc(S(=O)(=O)[O-])ccc4F)c4nc(c(-c5cc(S(=O)(=O)[O-])ccc5F)c5ccc2[nH]5)C=C4)C=C3)cc1)NC(=O)Cn1nc2ccccn2c1=O
REMARK SMILES IDX 9 1 8 2 7 3 6 4 4 5 5 6 3 8 2 9 1 10 79 11 80 12 81 14 82 15
REMARK SMILES IDX 83 16 84 17 91 18 85 19 90 20 92 21 86 22 89 23 87 24 88 25
REMARK SMILES IDX 10 26 11 27 12 28 13 29 14 30 15 32 16 33 17 34 78 35 18 36
REMARK SMILES IDX 77 37 19 38 20 39 21 40 71 41 22 42 76 43 70 44 72 45 23 46
REMARK SMILES IDX 75 47 69 48 68 49 24 51 56 52 36 53 55 54 37 55 40 56 54 57
REMARK SMILES IDX 73 58 38 59 39 60 53 62 74 63 41 64 25 65 26 66 34 67 27 68
REMARK SMILES IDX 33 69 35 70 32 71 28 72 29 73 30 74 31 75 57 76 58 77 66 78
REMARK SMILES IDX 59 79 65 80 67 81 64 82 60 83 61 84 62 85 63 86 42 87 43 88
REMARK SMILES IDX 51 89 44 90 50 91 52 92 49 93 45 94 46 95 47 96 48 97
REMARK H PARENT 6 7 79 13 13 31 72 50 40 61
REMARK Flexibility Score: inf
ROOT
ATOM      1  C   UNL A   1      31.135  27.027  27.073  1.00  0.00     0.002 C 
ENDROOT
BRANCH   1   2
ATOM      2  C   UNL A   1      30.699  26.967  25.608  1.00  0.00     0.021 C 
BRANCH   2   3
ATOM      3  C   UNL A   1      30.520  25.548  25.064  1.00  0.00     0.116 C 
BRANCH   3   4
ATOM      4  N   UNL A   1      29.899  24.701  26.062  1.00  0.00    -0.356 N 
ATOM      5  C   UNL A   1      30.456  23.731  26.836  1.00  0.00     0.222 C 
ATOM      6  O   UNL A   1      29.716  23.074  27.572  1.00  0.00    -0.275 OA
ATOM      7  H   UNL A   1      28.936  24.850  26.202  1.00  0.00     0.163 HD
BRANCH   5   8
ATOM      8  C   UNL A   1      31.953  23.485  26.821  1.00  0.00     0.124 C 
BRANCH   8   9
ATOM      9  C   UNL A   1      32.422  22.034  26.615  1.00  0.00     0.088 C 
ATOM     10  C   UNL A   1      31.823  21.356  25.380  1.00  0.00     0.031 C 
BRANCH   9  11
ATOM     11  N   UNL A   1      33.879  21.924  26.586  1.00  0.00    -0.352 N 
ATOM     12  C   UNL A   1      34.785  21.829  25.575  1.00  0.00     0.242 C 
ATOM     13  H   UNL A   1      34.290  21.918  27.481  1.00  0.00     0.163 HD
ATOM     14  O   UNL A   1      35.958  21.655  25.930  1.00  0.00    -0.273 OA
BRANCH  12  15
ATOM     15  C   UNL A   1      34.464  22.156  24.117  1.00  0.00     0.249 C 
BRANCH  15  16
ATOM     16  N   UNL A   1      34.229  23.542  23.820  1.00  0.00    -0.203 N 
ATOM     17  N   UNL A   1      34.477  24.564  24.717  1.00  0.00    -0.149 NA
ATOM     18  C   UNL A   1      33.816  24.054  22.583  1.00  0.00     0.350 A 
ATOM     19  C   UNL A   1      34.141  25.628  24.057  1.00  0.00     0.161 A 
ATOM     20  N   UNL A   1      33.729  25.409  22.783  1.00  0.00    -0.250 N 
ATOM     21  O   UNL A   1      33.542  23.425  21.573  1.00  0.00    -0.246 OA
ATOM     22  C   UNL A   1      34.156  27.034  24.557  1.00  0.00     0.050 A 
ATOM     23  C   UNL A   1      33.262  26.380  21.945  1.00  0.00     0.098 A 
ATOM     24  C   UNL A   1      33.356  27.866  23.855  1.00  0.00     0.005 A 
ATOM     25  C   UNL A   1      33.068  27.608  22.446  1.00  0.00     0.019 A 
ENDBRANCH  15  16
ENDBRANCH  12  15
ENDBRANCH   9  11
ENDBRANCH   8   9
ENDBRANCH   5   8
ENDBRANCH   3   4
ENDBRANCH   2   3
ENDBRANCH   1   2
BRANCH   1  26
ATOM     26  C   UNL A   1      32.075  28.186  27.414  1.00  0.00     0.002 C 
BRANCH  26  27
ATOM     27  C   UNL A   1      31.528  29.579  27.091  1.00  0.00     0.021 C 
BRANCH  27  28
ATOM     28  C   UNL A   1      32.452  30.443  26.234  1.00  0.00     0.116 C 
BRANCH  28  29
ATOM     29  N   UNL A   1      32.265  31.858  26.510  1.00  0.00    -0.352 N 
ATOM     30  C   UNL A   1      32.933  32.672  27.392  1.00  0.00     0.251 C 
ATOM     31  H   UNL A   1      31.555  32.298  25.988  1.00  0.00     0.163 HD
ATOM     32  O   UNL A   1      32.457  33.766  27.683  1.00  0.00    -0.269 OA
BRANCH  30  33
ATOM     33  C   UNL A   1      34.207  32.226  27.995  1.00  0.00     0.039 A 
ATOM     34  C   UNL A   1      35.280  33.120  28.044  1.00  0.00     0.014 A 
ATOM     35  C   UNL A   1      34.358  30.925  28.486  1.00  0.00     0.014 A 
ATOM     36  C   UNL A   1      36.481  32.727  28.636  1.00  0.00     0.010 A 
ATOM     37  C   UNL A   1      35.532  30.560  29.142  1.00  0.00     0.010 A 
ATOM     38  C   UNL A   1      36.608  31.455  29.222  1.00  0.00    -0.014 A 
BRANCH  38  39
ATOM     39  C   UNL A   1      37.854  31.065  29.932  1.00  0.00     0.031 A 
ATOM     40  C   UNL A   1      38.876  30.190  29.257  1.00  0.00     0.074 A 
ATOM     41  C   UNL A   1      38.045  31.472  31.202  1.00  0.00     0.049 A 
ATOM     42  N   UNL A   1      40.009  29.731  29.724  1.00  0.00    -0.248 NA
ATOM     43  C   UNL A   1      38.571  29.754  27.887  1.00  0.00     0.031 C 
ATOM     44  C   UNL A   1      37.105  32.288  31.976  1.00  0.00     0.029 A 
ATOM     45  N   UNL A   1      39.086  31.259  32.070  1.00  0.00    -0.354 N 
ATOM     46  C   UNL A   1      40.551  28.951  28.708  1.00  0.00     0.074 A 
ATOM     47  C   UNL A   1      39.589  28.948  27.626  1.00  0.00     0.031 C 
ATOM     48  C   UNL A   1      37.629  32.535  33.185  1.00  0.00     0.029 A 
ATOM     49  C   UNL A   1      38.916  31.857  33.298  1.00  0.00     0.049 A 
ATOM     50  H   UNL A   1      39.882  30.729  31.836  1.00  0.00     0.167 HD
ATOM     51  C   UNL A   1      41.750  28.316  28.673  1.00  0.00     0.034 A 
ATOM     52  C   UNL A   1      39.699  31.850  34.394  1.00  0.00     0.034 A 
ATOM     53  C   UNL A   1      42.696  28.329  29.764  1.00  0.00     0.049 A 
ATOM     54  C   UNL A   1      41.009  31.104  34.345  1.00  0.00     0.074 A 
ATOM     55  C   UNL A   1      43.958  27.763  29.817  1.00  0.00     0.029 A 
ATOM     56  N   UNL A   1      42.480  28.926  31.001  1.00  0.00    -0.354 N 
ATOM     57  N   UNL A   1      41.534  30.420  33.354  1.00  0.00    -0.248 NA
ATOM     58  C   UNL A   1      41.835  31.139  35.557  1.00  0.00     0.031 C 
ATOM     59  C   UNL A   1      44.470  27.949  31.107  1.00  0.00     0.029 A 
ATOM     60  C   UNL A   1      43.568  28.707  31.834  1.00  0.00     0.049 A 
ATOM     61  H   UNL A   1      41.671  29.430  31.249  1.00  0.00     0.167 HD
ATOM     62  C   UNL A   1      42.767  29.969  33.817  1.00  0.00     0.074 A 
ATOM     63  C   UNL A   1      42.914  30.478  35.165  1.00  0.00     0.031 C 
ATOM     64  C   UNL A   1      43.695  29.204  33.185  1.00  0.00     0.034 A 
BRANCH  51  65
ATOM     65  C   UNL A   1      42.089  27.533  27.425  1.00  0.00     0.023 A 
ATOM     66  C   UNL A   1      41.939  26.135  27.365  1.00  0.00     0.031 A 
ATOM     67  C   UNL A   1      42.583  28.188  26.282  1.00  0.00     0.131 A 
ATOM     68  C   UNL A   1      42.349  25.433  26.221  1.00  0.00     0.055 A 
ATOM     69  C   UNL A   1      42.908  27.493  25.116  1.00  0.00     0.041 A 
ATOM     70  F   UNL A   1      42.767  29.518  26.283  1.00  0.00    -0.206 F 
ATOM     71  C   UNL A   1      42.807  26.105  25.086  1.00  0.00     0.022 A 
BRANCH  68  72
ATOM     72  S   UNL A   1      42.414  23.622  26.291  1.00  0.00     0.124 S 
ATOM     73  O   UNL A   1      42.870  23.291  24.943  1.00  0.00    -0.237 OA
ATOM     74  O   UNL A   1      43.369  23.381  27.366  1.00  0.00    -0.237 OA
ATOM     75  O   UNL A   1      41.034  23.240  26.584  1.00  0.00    -0.744 OA
ENDBRANCH  68  72
ENDBRANCH  51  65
BRANCH  52  76
ATOM     76  C   UNL A   1      39.270  32.558  35.636  1.00  0.00     0.023 A 
ATOM     77  C   UNL A   1      38.596  31.876  36.662  1.00  0.00     0.031 A 
ATOM     78  C   UNL A   1      39.490  33.937  35.797  1.00  0.00     0.131 A 
ATOM     79  C   UNL A   1      38.119  32.583  37.776  1.00  0.00     0.055 A 
ATOM     80  C   UNL A   1      39.068  34.624  36.936  1.00  0.00     0.041 A 
ATOM     81  F   UNL A   1      40.131  34.639  34.847  1.00  0.00    -0.206 F 
ATOM     82  C   UNL A   1      38.364  33.950  37.928  1.00  0.00     0.022 A 
BRANCH  79  83
ATOM     83  S   UNL A   1      37.087  31.708  38.984  1.00  0.00     0.124 S 
ATOM     84  O   UNL A   1      37.891  31.817  40.195  1.00  0.00    -0.237 OA
ATOM     85  O   UNL A   1      35.857  32.493  38.956  1.00  0.00    -0.237 OA
ATOM     86  O   UNL A   1      36.977  30.362  38.426  1.00  0.00    -0.744 OA
ENDBRANCH  79  83
ENDBRANCH  52  76
BRANCH  64  87
ATOM     87  C   UNL A   1      44.968  28.909  33.942  1.00  0.00     0.023 A 
ATOM     88  C   UNL A   1      45.111  27.754  34.730  1.00  0.00     0.031 A 
ATOM     89  C   UNL A   1      46.047  29.811  33.893  1.00  0.00     0.131 A 
ATOM     90  C   UNL A   1      46.276  27.563  35.490  1.00  0.00     0.055 A 
ATOM     91  C   UNL A   1      47.231  29.581  34.595  1.00  0.00     0.041 A 
ATOM     92  F   UNL A   1      45.967  30.934  33.162  1.00  0.00    -0.206 F 
ATOM     93  C   UNL A   1      47.344  28.460  35.412  1.00  0.00     0.022 A 
BRANCH  90  94
ATOM     94  S   UNL A   1      46.331  26.187  36.669  1.00  0.00     0.124 S 
ATOM     95  O   UNL A   1      44.974  25.654  36.578  1.00  0.00    -0.237 OA
ATOM     96  O   UNL A   1      47.384  25.343  36.116  1.00  0.00    -0.237 OA
ATOM     97  O   UNL A   1      46.658  26.835  37.938  1.00  0.00    -0.744 OA
ENDBRANCH  90  94
ENDBRANCH  64  87
ENDBRANCH  38  39
ENDBRANCH  30  33
ENDBRANCH  28  29
ENDBRANCH  27  28
ENDBRANCH  26  27
ENDBRANCH   1  26
TORSDOF 20
ENDMDL
MODEL 3
REMARK VINA RESULT:     -10.9      2.530      3.669
REMARK SMILES C[C@H](CC(=O)NCCCCCCNC(=O)c1ccc(-c2c3nc(c(-c4cc(S(=O)(=O)[O-])ccc4F)c4ccc([nH]4)c(-c4cc(S(=O)(=O)[O-])ccc4F)c4nc(c(-c5cc(S(=O)(=O)[O-])ccc5F)c5ccc2[nH]5)C=C4)C=C3)cc1)NC(=O)Cn1nc2ccccn2c1=O
REMARK SMILES IDX 9 1 8 2 7 3 6 4 4 5 5 6 3 8 2 9 1 10 79 11 80 12 81 14 82 15
REMARK SMILES IDX 83 16 84 17 91 18 85 19 90 20 92 21 86 22 89 23 87 24 88 25
REMARK SMILES IDX 10 26 11 27 12 28 13 29 14 30 15 32 16 33 17 34 78 35 18 36
REMARK SMILES IDX 77 37 19 38 20 39 21 40 71 41 22 42 76 43 70 44 72 45 23 46
REMARK SMILES IDX 75 47 69 48 68 49 24 51 56 52 36 53 55 54 37 55 40 56 54 57
REMARK SMILES IDX 73 58 38 59 39 60 53 62 74 63 41 64 25 65 26 66 34 67 27 68
REMARK SMILES IDX 33 69 35 70 32 71 28 72 29 73 30 74 31 75 57 76 58 77 66 78
REMARK SMILES IDX 59 79 65 80 67 81 64 82 60 83 61 84 62 85 63 86 42 87 43 88
REMARK SMILES IDX 51 89 44 90 50 91 52 92 49 93 45 94 46 95 47 96 48 97
REMARK H PARENT 6 7 79 13 13 31 72 50 40 61
REMARK Flexibility Score: inf
ROOT
ATOM      1  C   UNL A   1      35.178  30.501  27.857  1.00  0.00     0.002 C 
ENDROOT
BRANCH   1   2
ATOM      2  C   UNL A   1      33.880  29.961  27.253  1.00  0.00     0.021 C 
BRANCH   2   3
ATOM      3  C   UNL A   1      34.065  28.725  26.369  1.00  0.00     0.116 C 
BRANCH   3   4
ATOM      4  N   UNL A   1      34.031  29.098  24.969  1.00  0.00    -0.356 N 
ATOM      5  C   UNL A   1      33.016  28.984  24.072  1.00  0.00     0.222 C 
ATOM      6  O   UNL A   1      33.235  29.296  22.899  1.00  0.00    -0.275 OA
ATOM      7  H   UNL A   1      34.862  29.491  24.618  1.00  0.00     0.163 HD
BRANCH   5   8
ATOM      8  C   UNL A   1      31.639  28.519  24.506  1.00  0.00     0.124 C 
BRANCH   8   9
ATOM      9  C   UNL A   1      31.036  27.319  23.754  1.00  0.00     0.088 C 
ATOM     10  C   UNL A   1      29.828  27.674  22.883  1.00  0.00     0.031 C 
BRANCH   9  11
ATOM     11  N   UNL A   1      32.035  26.610  22.955  1.00  0.00    -0.352 N 
ATOM     12  C   UNL A   1      33.114  25.848  23.280  1.00  0.00     0.242 C 
ATOM     13  H   UNL A   1      31.898  26.703  21.985  1.00  0.00     0.163 HD
ATOM     14  O   UNL A   1      33.804  25.474  22.322  1.00  0.00    -0.273 OA
BRANCH  12  15
ATOM     15  C   UNL A   1      33.353  25.267  24.673  1.00  0.00     0.249 C 
BRANCH  15  16
ATOM     16  N   UNL A   1      33.383  23.833  24.758  1.00  0.00    -0.203 N 
ATOM     17  N   UNL A   1      34.542  23.108  24.965  1.00  0.00    -0.149 NA
ATOM     18  C   UNL A   1      32.265  22.989  24.739  1.00  0.00     0.350 A 
ATOM     19  C   UNL A   1      34.127  21.880  24.982  1.00  0.00     0.161 A 
ATOM     20  N   UNL A   1      32.786  21.724  24.845  1.00  0.00    -0.250 N 
ATOM     21  O   UNL A   1      31.094  23.310  24.601  1.00  0.00    -0.246 OA
ATOM     22  C   UNL A   1      34.964  20.654  25.125  1.00  0.00     0.050 A 
ATOM     23  C   UNL A   1      32.154  20.518  24.762  1.00  0.00     0.098 A 
ATOM     24  C   UNL A   1      34.365  19.533  24.667  1.00  0.00     0.005 A 
ATOM     25  C   UNL A   1      32.909  19.413  24.673  1.00  0.00     0.019 A 
ENDBRANCH  15  16
ENDBRANCH  12  15
ENDBRANCH   9  11
ENDBRANCH   8   9
ENDBRANCH   5   8
ENDBRANCH   3   4
ENDBRANCH   2   3
ENDBRANCH   1   2
BRANCH   1  26
ATOM     26  C   UNL A   1      35.219  32.021  28.030  1.00  0.00     0.002 C 
BRANCH  26  27
ATOM     27  C   UNL A   1      33.849  32.703  28.091  1.00  0.00     0.021 C 
BRANCH  27  28
ATOM     28  C   UNL A   1      33.885  34.220  27.922  1.00  0.00     0.116 C 
BRANCH  28  29
ATOM     29  N   UNL A   1      33.194  34.895  29.009  1.00  0.00    -0.352 N 
ATOM     30  C   UNL A   1      33.370  34.773  30.365  1.00  0.00     0.251 C 
ATOM     31  H   UNL A   1      32.496  35.532  28.732  1.00  0.00     0.163 HD
ATOM     32  O   UNL A   1      32.514  35.214  31.127  1.00  0.00    -0.269 OA
BRANCH  30  33
ATOM     33  C   UNL A   1      34.575  34.105  30.901  1.00  0.00     0.039 A 
ATOM     34  C   UNL A   1      34.419  32.971  31.702  1.00  0.00     0.014 A 
ATOM     35  C   UNL A   1      35.855  34.605  30.639  1.00  0.00     0.014 A 
ATOM     36  C   UNL A   1      35.545  32.309  32.192  1.00  0.00     0.010 A 
ATOM     37  C   UNL A   1      36.979  33.901  31.067  1.00  0.00     0.010 A 
ATOM     38  C   UNL A   1      36.837  32.747  31.851  1.00  0.00    -0.014 A 
BRANCH  38  39
ATOM     39  C   UNL A   1      38.039  31.994  32.297  1.00  0.00     0.031 A 
ATOM     40  C   UNL A   1      38.714  32.333  33.599  1.00  0.00     0.074 A 
ATOM     41  C   UNL A   1      38.543  31.027  31.505  1.00  0.00     0.049 A 
ATOM     42  N   UNL A   1      39.780  31.801  34.140  1.00  0.00    -0.248 NA
ATOM     43  C   UNL A   1      38.127  33.429  34.382  1.00  0.00     0.031 C 
ATOM     44  C   UNL A   1      37.999  30.638  30.201  1.00  0.00     0.029 A 
ATOM     45  N   UNL A   1      39.620  30.194  31.674  1.00  0.00    -0.354 N 
ATOM     46  C   UNL A   1      39.994  32.499  35.324  1.00  0.00     0.074 A 
ATOM     47  C   UNL A   1      38.984  33.534  35.386  1.00  0.00     0.031 C 
ATOM     48  C   UNL A   1      38.723  29.623  29.708  1.00  0.00     0.029 A 
ATOM     49  C   UNL A   1      39.811  29.318  30.631  1.00  0.00     0.049 A 
ATOM     50  H   UNL A   1      40.201  30.220  32.468  1.00  0.00     0.167 HD
ATOM     51  C   UNL A   1      40.931  32.280  36.281  1.00  0.00     0.034 A 
ATOM     52  C   UNL A   1      40.762  28.383  30.432  1.00  0.00     0.034 A 
ATOM     53  C   UNL A   1      41.934  31.244  36.199  1.00  0.00     0.049 A 
ATOM     54  C   UNL A   1      41.817  28.186  31.491  1.00  0.00     0.074 A 
ATOM     55  C   UNL A   1      42.897  30.902  37.131  1.00  0.00     0.029 A 
ATOM     56  N   UNL A   1      42.111  30.389  35.118  1.00  0.00    -0.354 N 
ATOM     57  N   UNL A   1      41.969  28.815  32.634  1.00  0.00    -0.248 NA
ATOM     58  C   UNL A   1      42.821  27.146  31.238  1.00  0.00     0.031 C 
ATOM     59  C   UNL A   1      43.705  29.899  36.583  1.00  0.00     0.029 A 
ATOM     60  C   UNL A   1      43.193  29.550  35.344  1.00  0.00     0.049 A 
ATOM     61  H   UNL A   1      41.551  30.381  34.308  1.00  0.00     0.167 HD
ATOM     62  C   UNL A   1      43.070  28.224  33.248  1.00  0.00     0.074 A 
ATOM     63  C   UNL A   1      43.526  27.175  32.359  1.00  0.00     0.031 C 
ATOM     64  C   UNL A   1      43.650  28.520  34.440  1.00  0.00     0.034 A 
BRANCH  51  65
ATOM     65  C   UNL A   1      40.931  33.200  37.481  1.00  0.00     0.023 A 
ATOM     66  C   UNL A   1      40.113  32.956  38.600  1.00  0.00     0.031 A 
ATOM     67  C   UNL A   1      41.747  34.346  37.504  1.00  0.00     0.131 A 
ATOM     68  C   UNL A   1      40.073  33.880  39.655  1.00  0.00     0.055 A 
ATOM     69  C   UNL A   1      41.766  35.216  38.595  1.00  0.00     0.041 A 
ATOM     70  F   UNL A   1      42.534  34.645  36.458  1.00  0.00    -0.206 F 
ATOM     71  C   UNL A   1      40.914  34.994  39.673  1.00  0.00     0.022 A 
BRANCH  68  72
ATOM     72  S   UNL A   1      38.802  33.682  40.933  1.00  0.00     0.124 S 
ATOM     73  O   UNL A   1      37.682  33.153  40.156  1.00  0.00    -0.237 OA
ATOM     74  O   UNL A   1      39.430  32.751  41.863  1.00  0.00    -0.237 OA
ATOM     75  O   UNL A   1      38.611  35.038  41.441  1.00  0.00    -0.744 OA
ENDBRANCH  68  72
ENDBRANCH  51  65
BRANCH  52  76
ATOM     76  C   UNL A   1      40.774  27.569  29.182  1.00  0.00     0.023 A 
ATOM     77  C   UNL A   1      41.670  27.857  28.139  1.00  0.00     0.031 A 
ATOM     78  C   UNL A   1      39.861  26.517  28.992  1.00  0.00     0.131 A 
ATOM     79  C   UNL A   1      41.597  27.138  26.936  1.00  0.00     0.055 A 
ATOM     80  C   UNL A   1      39.834  25.765  27.817  1.00  0.00     0.041 A 
ATOM     81  F   UNL A   1      38.982  26.198  29.958  1.00  0.00    -0.206 F 
ATOM     82  C   UNL A   1      40.696  26.084  26.774  1.00  0.00     0.022 A 
BRANCH  79  83
ATOM     83  S   UNL A   1      42.635  27.665  25.545  1.00  0.00     0.124 S 
ATOM     84  O   UNL A   1      43.944  27.780  26.179  1.00  0.00    -0.237 OA
ATOM     85  O   UNL A   1      42.470  26.559  24.608  1.00  0.00    -0.237 OA
ATOM     86  O   UNL A   1      42.031  28.928  25.128  1.00  0.00    -0.744 OA
ENDBRANCH  79  83
ENDBRANCH  52  76
BRANCH  64  87
ATOM     87  C   UNL A   1      44.823  27.664  34.861  1.00  0.00     0.023 A 
ATOM     88  C   UNL A   1      44.644  26.425  35.500  1.00  0.00     0.031 A 
ATOM     89  C   UNL A   1      46.139  28.107  34.640  1.00  0.00     0.131 A 
ATOM     90  C   UNL A   1      45.758  25.704  35.956  1.00  0.00     0.055 A 
ATOM     91  C   UNL A   1      47.246  27.353  35.032  1.00  0.00     0.041 A 
ATOM     92  F   UNL A   1      46.372  29.285  34.038  1.00  0.00    -0.206 F 
ATOM     93  C   UNL A   1      47.059  26.151  35.708  1.00  0.00     0.022 A 
BRANCH  90  94
ATOM     94  S   UNL A   1      45.485  24.231  36.978  1.00  0.00     0.124 S 
ATOM     95  O   UNL A   1      44.885  24.802  38.180  1.00  0.00    -0.237 OA
ATOM     96  O   UNL A   1      44.597  23.431  36.141  1.00  0.00    -0.237 OA
ATOM     97  O   UNL A   1      46.829  23.682  37.156  1.00  0.00    -0.744 OA
ENDBRANCH  90  94
ENDBRANCH  64  87
ENDBRANCH  38  39
ENDBRANCH  30  33
ENDBRANCH  28  29
ENDBRANCH  27  28
ENDBRANCH  26  27
ENDBRANCH   1  26
TORSDOF 20
ENDMDL
