MODEL 1
REMARK VINA RESULT:     -11.9      0.000      0.000
REMARK SMILES Cc1cccc(Cl)c1Nc1ccccc1CC(=O)NCCCCCCNC(=O)c1ccc(-c2c3nc(c(-c4cc(S(=O)(=O)[O-])ccc4F)c4ccc([nH]4)c(-c4cc(S(=O)(=O)[O-])ccc4F)c4nc(c(-c5cc(S(=O)(=O)[O-])ccc5F)c5ccc2[nH]5)C=C4)C=C3)cc1
REMARK SMILES IDX 22 1 21 2 20 3 19 4 17 5 18 6 16 8 15 9 10 10 11 11 12 12
REMARK SMILES IDX 14 13 13 14 9 15 8 17 1 18 2 19 3 20 4 21 6 22 5 23 7 24
REMARK SMILES IDX 23 25 24 26 25 27 26 28 27 29 28 31 29 32 30 33 91 34 31 35
REMARK SMILES IDX 90 36 32 37 33 38 34 39 84 40 35 41 89 42 83 43 85 44 36 45
REMARK SMILES IDX 88 46 82 47 81 48 37 50 69 51 49 52 68 53 50 54 53 55 67 56
REMARK SMILES IDX 86 57 51 58 52 59 66 61 87 62 54 63 38 64 39 65 47 66 40 67
REMARK SMILES IDX 46 68 48 69 45 70 41 71 42 72 43 73 44 74 70 75 71 76 79 77
REMARK SMILES IDX 72 78 78 79 80 80 77 81 73 82 74 83 75 84 76 85 55 86 56 87
REMARK SMILES IDX 64 88 57 89 63 90 65 91 62 92 58 93 59 94 60 95 61 96
REMARK H PARENT 19 7 9 16 26 30 85 49 53 60
REMARK Flexibility Score: inf
ROOT
ATOM      1  C   UNL A   1      34.476  23.851  23.478  1.00  0.00     0.002 C 
ENDROOT
BRANCH   1   2
ATOM      2  C   UNL A   1      33.109  23.236  23.804  1.00  0.00     0.021 C 
BRANCH   2   3
ATOM      3  C   UNL A   1      32.003  24.276  23.984  1.00  0.00     0.116 C 
BRANCH   3   4
ATOM      4  N   UNL A   1      31.884  25.113  22.805  1.00  0.00    -0.356 N 
ATOM      5  C   UNL A   1      31.108  26.224  22.635  1.00  0.00     0.224 C 
ATOM      6  O   UNL A   1      31.022  26.715  21.507  1.00  0.00    -0.275 OA
ATOM      7  H   UNL A   1      32.430  24.846  22.031  1.00  0.00     0.163 HD
BRANCH   5   8
ATOM      8  C   UNL A   1      30.435  26.864  23.837  1.00  0.00     0.137 C 
BRANCH   8   9
ATOM      9  C   UNL A   1      29.640  28.117  23.528  1.00  0.00    -0.015 A 
ATOM     10  C   UNL A   1      30.189  29.417  23.593  1.00  0.00     0.042 A 
ATOM     11  C   UNL A   1      29.337  30.519  23.388  1.00  0.00     0.026 A 
ATOM     12  C   UNL A   1      27.986  30.351  23.089  1.00  0.00     0.002 A 
ATOM     13  C   UNL A   1      28.277  27.964  23.195  1.00  0.00     0.006 A 
ATOM     14  C   UNL A   1      27.458  29.072  22.978  1.00  0.00     0.000 A 
BRANCH  10  15
ATOM     15  N   UNL A   1      31.553  29.703  23.808  1.00  0.00    -0.354 N 
ATOM     16  H   UNL A   1      31.995  30.127  23.037  1.00  0.00     0.167 HD
BRANCH  15  17
ATOM     17  C   UNL A   1      32.415  29.501  24.913  1.00  0.00     0.060 A 
ATOM     18  C   UNL A   1      31.094  31.301  26.169  1.00  0.00     0.046 C 
ATOM     19  C   UNL A   1      32.181  30.258  26.094  1.00  0.00    -0.026 A 
ATOM     20  C   UNL A   1      32.945  30.018  27.251  1.00  0.00     0.005 A 
ATOM     21  C   UNL A   1      33.942  29.050  27.258  1.00  0.00     0.002 A 
ATOM     22  C   UNL A   1      33.459  28.547  24.939  1.00  0.00     0.064 A 
ATOM     23  C   UNL A   1      34.204  28.323  26.104  1.00  0.00     0.023 A 
ATOM     24  Cl  UNL A   1      33.977  27.668  23.538  1.00  0.00    -0.082 Cl
ENDBRANCH  15  17
ENDBRANCH  10  15
ENDBRANCH   8   9
ENDBRANCH   5   8
ENDBRANCH   3   4
ENDBRANCH   2   3
ENDBRANCH   1   2
BRANCH   1  25
ATOM     25  C   UNL A   1      35.632  22.846  23.422  1.00  0.00     0.002 C 
BRANCH  25  26
ATOM     26  C   UNL A   1      35.736  21.919  24.636  1.00  0.00     0.021 C 
BRANCH  26  27
ATOM     27  C   UNL A   1      36.753  22.365  25.683  1.00  0.00     0.116 C 
BRANCH  27  28
ATOM     28  N   UNL A   1      37.783  21.359  25.893  1.00  0.00    -0.352 N 
ATOM     29  C   UNL A   1      39.104  21.521  26.215  1.00  0.00     0.251 C 
ATOM     30  H   UNL A   1      37.486  20.426  25.787  1.00  0.00     0.163 HD
ATOM     31  O   UNL A   1      39.874  20.563  26.109  1.00  0.00    -0.269 OA
BRANCH  29  32
ATOM     32  C   UNL A   1      39.606  22.834  26.670  1.00  0.00     0.039 A 
ATOM     33  C   UNL A   1      40.584  22.874  27.665  1.00  0.00     0.014 A 
ATOM     34  C   UNL A   1      39.098  24.023  26.136  1.00  0.00     0.014 A 
ATOM     35  C   UNL A   1      41.089  24.105  28.090  1.00  0.00     0.010 A 
ATOM     36  C   UNL A   1      39.656  25.245  26.506  1.00  0.00     0.010 A 
ATOM     37  C   UNL A   1      40.651  25.300  27.493  1.00  0.00    -0.014 A 
BRANCH  37  38
ATOM     38  C   UNL A   1      41.228  26.609  27.898  1.00  0.00     0.031 A 
ATOM     39  C   UNL A   1      42.656  26.945  27.566  1.00  0.00     0.074 A 
ATOM     40  C   UNL A   1      40.472  27.475  28.602  1.00  0.00     0.049 A 
ATOM     41  N   UNL A   1      43.342  28.023  27.855  1.00  0.00    -0.248 NA
ATOM     42  C   UNL A   1      43.425  25.924  26.839  1.00  0.00     0.031 C 
ATOM     43  C   UNL A   1      39.091  27.237  29.025  1.00  0.00     0.029 A 
ATOM     44  N   UNL A   1      40.755  28.727  29.087  1.00  0.00    -0.354 N 
ATOM     45  C   UNL A   1      44.621  27.807  27.353  1.00  0.00     0.074 A 
ATOM     46  C   UNL A   1      44.632  26.468  26.803  1.00  0.00     0.031 C 
ATOM     47  C   UNL A   1      38.638  28.320  29.678  1.00  0.00     0.029 A 
ATOM     48  C   UNL A   1      39.707  29.310  29.760  1.00  0.00     0.049 A 
ATOM     49  H   UNL A   1      41.628  29.167  28.965  1.00  0.00     0.167 HD
ATOM     50  C   UNL A   1      45.680  28.655  27.332  1.00  0.00     0.034 A 
ATOM     51  C   UNL A   1      39.616  30.505  30.377  1.00  0.00     0.034 A 
ATOM     52  C   UNL A   1      45.646  29.990  27.880  1.00  0.00     0.049 A 
ATOM     53  C   UNL A   1      40.809  31.426  30.349  1.00  0.00     0.074 A 
ATOM     54  C   UNL A   1      46.639  30.954  27.863  1.00  0.00     0.029 A 
ATOM     55  N   UNL A   1      44.566  30.549  28.554  1.00  0.00    -0.354 N 
ATOM     56  N   UNL A   1      41.993  31.231  29.816  1.00  0.00    -0.248 NA
ATOM     57  C   UNL A   1      40.646  32.734  30.994  1.00  0.00     0.031 C 
ATOM     58  C   UNL A   1      46.188  32.063  28.588  1.00  0.00     0.029 A 
ATOM     59  C   UNL A   1      44.882  31.828  28.987  1.00  0.00     0.049 A 
ATOM     60  H   UNL A   1      43.702  30.101  28.703  1.00  0.00     0.167 HD
ATOM     61  C   UNL A   1      42.707  32.407  30.036  1.00  0.00     0.074 A 
ATOM     62  C   UNL A   1      41.810  33.309  30.730  1.00  0.00     0.031 C 
ATOM     63  C   UNL A   1      43.986  32.712  29.696  1.00  0.00     0.034 A 
BRANCH  50  64
ATOM     64  C   UNL A   1      46.966  28.148  26.722  1.00  0.00     0.023 A 
ATOM     65  C   UNL A   1      47.199  28.197  25.336  1.00  0.00     0.031 A 
ATOM     66  C   UNL A   1      47.967  27.584  27.533  1.00  0.00     0.131 A 
ATOM     67  C   UNL A   1      48.360  27.621  24.797  1.00  0.00     0.055 A 
ATOM     68  C   UNL A   1      49.160  27.091  26.999  1.00  0.00     0.041 A 
ATOM     69  F   UNL A   1      47.797  27.488  28.861  1.00  0.00    -0.206 F 
ATOM     70  C   UNL A   1      49.355  27.093  25.622  1.00  0.00     0.022 A 
BRANCH  67  71
ATOM     71  S   UNL A   1      48.481  27.437  22.996  1.00  0.00     0.124 S 
ATOM     72  O   UNL A   1      48.375  25.988  22.840  1.00  0.00    -0.237 OA
ATOM     73  O   UNL A   1      47.343  28.216  22.523  1.00  0.00    -0.237 OA
ATOM     74  O   UNL A   1      49.795  27.996  22.682  1.00  0.00    -0.744 OA
ENDBRANCH  67  71
ENDBRANCH  50  64
BRANCH  51  75
ATOM     75  C   UNL A   1      38.360  30.900  31.077  1.00  0.00     0.023 A 
ATOM     76  C   UNL A   1      37.342  31.596  30.405  1.00  0.00     0.031 A 
ATOM     77  C   UNL A   1      38.175  30.620  32.442  1.00  0.00     0.131 A 
ATOM     78  C   UNL A   1      36.210  32.033  31.110  1.00  0.00     0.055 A 
ATOM     79  C   UNL A   1      37.022  31.007  33.126  1.00  0.00     0.041 A 
ATOM     80  F   UNL A   1      39.114  29.951  33.132  1.00  0.00    -0.206 F 
ATOM     81  C   UNL A   1      36.036  31.731  32.462  1.00  0.00     0.022 A 
BRANCH  78  82
ATOM     82  S   UNL A   1      35.003  33.080  30.253  1.00  0.00     0.124 S 
ATOM     83  O   UNL A   1      35.845  34.168  29.766  1.00  0.00    -0.237 OA
ATOM     84  O   UNL A   1      34.480  32.171  29.239  1.00  0.00    -0.237 OA
ATOM     85  O   UNL A   1      34.059  33.444  31.308  1.00  0.00    -0.744 OA
ENDBRANCH  78  82
ENDBRANCH  51  75
BRANCH  63  86
ATOM     86  C   UNL A   1      44.469  34.101  30.044  1.00  0.00     0.023 A 
ATOM     87  C   UNL A   1      44.322  35.180  29.154  1.00  0.00     0.031 A 
ATOM     88  C   UNL A   1      45.115  34.340  31.270  1.00  0.00     0.131 A 
ATOM     89  C   UNL A   1      44.880  36.428  29.470  1.00  0.00     0.055 A 
ATOM     90  C   UNL A   1      45.604  35.603  31.610  1.00  0.00     0.041 A 
ATOM     91  F   UNL A   1      45.287  33.348  32.158  1.00  0.00    -0.206 F 
ATOM     92  C   UNL A   1      45.504  36.652  30.700  1.00  0.00     0.022 A 
BRANCH  89  93
ATOM     93  S   UNL A   1      44.887  37.724  28.201  1.00  0.00     0.124 S 
ATOM     94  O   UNL A   1      43.876  38.647  28.705  1.00  0.00    -0.237 OA
ATOM     95  O   UNL A   1      46.266  38.201  28.249  1.00  0.00    -0.237 OA
ATOM     96  O   UNL A   1      44.520  37.010  26.979  1.00  0.00    -0.744 OA
ENDBRANCH  89  93
ENDBRANCH  63  86
ENDBRANCH  37  38
ENDBRANCH  29  32
ENDBRANCH  27  28
ENDBRANCH  26  27
ENDBRANCH  25  26
ENDBRANCH   1  25
TORSDOF 19
ENDMDL
MODEL 2
REMARK VINA RESULT:     -11.9      1.384      2.571
REMARK SMILES Cc1cccc(Cl)c1Nc1ccccc1CC(=O)NCCCCCCNC(=O)c1ccc(-c2c3nc(c(-c4cc(S(=O)(=O)[O-])ccc4F)c4ccc([nH]4)c(-c4cc(S(=O)(=O)[O-])ccc4F)c4nc(c(-c5cc(S(=O)(=O)[O-])ccc5F)c5ccc2[nH]5)C=C4)C=C3)cc1
REMARK SMILES IDX 22 1 21 2 20 3 19 4 17 5 18 6 16 8 15 9 10 10 11 11 12 12
REMARK SMILES IDX 14 13 13 14 9 15 8 17 1 18 2 19 3 20 4 21 6 22 5 23 7 24
REMARK SMILES IDX 23 25 24 26 25 27 26 28 27 29 28 31 29 32 30 33 91 34 31 35
REMARK SMILES IDX 90 36 32 37 33 38 34 39 84 40 35 41 89 42 83 43 85 44 36 45
REMARK SMILES IDX 88 46 82 47 81 48 37 50 69 51 49 52 68 53 50 54 53 55 67 56
REMARK SMILES IDX 86 57 51 58 52 59 66 61 87 62 54 63 38 64 39 65 47 66 40 67
REMARK SMILES IDX 46 68 48 69 45 70 41 71 42 72 43 73 44 74 70 75 71 76 79 77
REMARK SMILES IDX 72 78 78 79 80 80 77 81 73 82 74 83 75 84 76 85 55 86 56 87
REMARK SMILES IDX 64 88 57 89 63 90 65 91 62 92 58 93 59 94 60 95 61 96
REMARK H PARENT 19 7 9 16 26 30 85 49 53 60
REMARK Flexibility Score: inf
ROOT
ATOM      1  C   UNL A   1      35.199  22.729  25.934  1.00  0.00     0.002 C 
ENDROOT
BRANCH   1   2
ATOM      2  C   UNL A   1      34.657  21.922  27.120  1.00  0.00     0.021 C 
BRANCH   2   3
ATOM      3  C   UNL A   1      33.174  21.573  26.990  1.00  0.00     0.116 C 
BRANCH   3   4
ATOM      4  N   UNL A   1      32.344  22.679  27.428  1.00  0.00    -0.356 N 
ATOM      5  C   UNL A   1      31.374  23.333  26.725  1.00  0.00     0.224 C 
ATOM      6  O   UNL A   1      30.880  24.353  27.213  1.00  0.00    -0.275 OA
ATOM      7  H   UNL A   1      32.501  22.998  28.346  1.00  0.00     0.163 HD
BRANCH   5   8
ATOM      8  C   UNL A   1      30.879  22.759  25.409  1.00  0.00     0.137 C 
BRANCH   8   9
ATOM      9  C   UNL A   1      31.628  23.242  24.183  1.00  0.00    -0.015 A 
ATOM     10  C   UNL A   1      31.604  24.583  23.741  1.00  0.00     0.042 A 
ATOM     11  C   UNL A   1      32.249  24.906  22.532  1.00  0.00     0.026 A 
ATOM     12  C   UNL A   1      32.935  23.944  21.792  1.00  0.00     0.002 A 
ATOM     13  C   UNL A   1      32.351  22.288  23.436  1.00  0.00     0.006 A 
ATOM     14  C   UNL A   1      32.997  22.636  22.251  1.00  0.00     0.000 A 
BRANCH  10  15
ATOM     15  N   UNL A   1      31.012  25.652  24.447  1.00  0.00    -0.354 N 
ATOM     16  H   UNL A   1      30.134  25.432  24.835  1.00  0.00     0.167 HD
BRANCH  15  17
ATOM     17  C   UNL A   1      31.430  26.979  24.710  1.00  0.00     0.060 A 
ATOM     18  C   UNL A   1      29.435  27.795  23.326  1.00  0.00     0.046 C 
ATOM     19  C   UNL A   1      30.645  28.044  24.191  1.00  0.00    -0.026 A 
ATOM     20  C   UNL A   1      30.961  29.377  24.512  1.00  0.00     0.005 A 
ATOM     21  C   UNL A   1      32.045  29.676  25.329  1.00  0.00     0.002 A 
ATOM     22  C   UNL A   1      32.548  27.314  25.510  1.00  0.00     0.064 A 
ATOM     23  C   UNL A   1      32.841  28.648  25.819  1.00  0.00     0.023 A 
ATOM     24  Cl  UNL A   1      33.695  26.144  26.075  1.00  0.00    -0.082 Cl
ENDBRANCH  15  17
ENDBRANCH  10  15
ENDBRANCH   8   9
ENDBRANCH   5   8
ENDBRANCH   3   4
ENDBRANCH   2   3
ENDBRANCH   1   2
BRANCH   1  25
ATOM     25  C   UNL A   1      35.611  21.886  24.721  1.00  0.00     0.002 C 
BRANCH  25  26
ATOM     26  C   UNL A   1      36.727  20.874  24.993  1.00  0.00     0.021 C 
BRANCH  26  27
ATOM     27  C   UNL A   1      38.087  21.500  25.288  1.00  0.00     0.116 C 
BRANCH  27  28
ATOM     28  N   UNL A   1      38.971  20.565  25.967  1.00  0.00    -0.352 N 
ATOM     29  C   UNL A   1      40.138  20.806  26.641  1.00  0.00     0.251 C 
ATOM     30  H   UNL A   1      38.689  19.622  25.935  1.00  0.00     0.163 HD
ATOM     31  O   UNL A   1      40.872  19.860  26.938  1.00  0.00    -0.269 OA
BRANCH  29  32
ATOM     32  C   UNL A   1      40.523  22.187  26.999  1.00  0.00     0.039 A 
ATOM     33  C   UNL A   1      41.370  22.391  28.090  1.00  0.00     0.014 A 
ATOM     34  C   UNL A   1      40.032  23.280  26.277  1.00  0.00     0.014 A 
ATOM     35  C   UNL A   1      41.764  23.687  28.427  1.00  0.00     0.010 A 
ATOM     36  C   UNL A   1      40.487  24.565  26.568  1.00  0.00     0.010 A 
ATOM     37  C   UNL A   1      41.350  24.783  27.650  1.00  0.00    -0.014 A 
BRANCH  37  38
ATOM     38  C   UNL A   1      41.815  26.159  27.968  1.00  0.00     0.031 A 
ATOM     39  C   UNL A   1      43.214  26.589  27.615  1.00  0.00     0.074 A 
ATOM     40  C   UNL A   1      40.987  27.005  28.610  1.00  0.00     0.049 A 
ATOM     41  N   UNL A   1      43.806  27.736  27.832  1.00  0.00    -0.248 NA
ATOM     42  C   UNL A   1      44.068  25.588  26.960  1.00  0.00     0.031 C 
ATOM     43  C   UNL A   1      39.626  26.684  29.047  1.00  0.00     0.029 A 
ATOM     44  N   UNL A   1      41.163  28.306  29.010  1.00  0.00    -0.354 N 
ATOM     45  C   UNL A   1      45.103  27.593  27.349  1.00  0.00     0.074 A 
ATOM     46  C   UNL A   1      45.227  26.225  26.889  1.00  0.00     0.031 C 
ATOM     47  C   UNL A   1      39.082  27.767  29.624  1.00  0.00     0.029 A 
ATOM     48  C   UNL A   1      40.065  28.845  29.641  1.00  0.00     0.049 A 
ATOM     49  H   UNL A   1      41.997  28.807  28.861  1.00  0.00     0.167 HD
ATOM     50  C   UNL A   1      46.089  28.522  27.272  1.00  0.00     0.034 A 
ATOM     51  C   UNL A   1      39.873  30.067  30.176  1.00  0.00     0.034 A 
ATOM     52  C   UNL A   1      45.942  29.883  27.729  1.00  0.00     0.049 A 
ATOM     53  C   UNL A   1      40.987  31.079  30.088  1.00  0.00     0.074 A 
ATOM     54  C   UNL A   1      46.853  30.922  27.649  1.00  0.00     0.029 A 
ATOM     55  N   UNL A   1      44.816  30.396  28.362  1.00  0.00    -0.354 N 
ATOM     56  N   UNL A   1      42.186  30.946  29.571  1.00  0.00    -0.248 NA
ATOM     57  C   UNL A   1      40.713  32.409  30.644  1.00  0.00     0.031 C 
ATOM     58  C   UNL A   1      46.308  32.037  28.297  1.00  0.00     0.029 A 
ATOM     59  C   UNL A   1      45.023  31.722  28.709  1.00  0.00     0.049 A 
ATOM     60  H   UNL A   1      43.990  29.888  28.539  1.00  0.00     0.167 HD
ATOM     61  C   UNL A   1      42.800  32.189  29.713  1.00  0.00     0.074 A 
ATOM     62  C   UNL A   1      41.828  33.059  30.343  1.00  0.00     0.031 C 
ATOM     63  C   UNL A   1      44.052  32.575  29.355  1.00  0.00     0.034 A 
BRANCH  50  64
ATOM     64  C   UNL A   1      47.417  28.082  26.700  1.00  0.00     0.023 A 
ATOM     65  C   UNL A   1      47.643  28.023  25.313  1.00  0.00     0.031 A 
ATOM     66  C   UNL A   1      48.466  27.692  27.550  1.00  0.00     0.131 A 
ATOM     67  C   UNL A   1      48.852  27.511  24.818  1.00  0.00     0.055 A 
ATOM     68  C   UNL A   1      49.700  27.265  27.052  1.00  0.00     0.041 A 
ATOM     69  F   UNL A   1      48.307  27.705  28.883  1.00  0.00    -0.206 F 
ATOM     70  C   UNL A   1      49.893  27.156  25.680  1.00  0.00     0.022 A 
BRANCH  67  71
ATOM     71  S   UNL A   1      48.988  27.172  23.041  1.00  0.00     0.124 S 
ATOM     72  O   UNL A   1      50.437  27.168  22.852  1.00  0.00    -0.237 OA
ATOM     73  O   UNL A   1      48.324  25.881  22.915  1.00  0.00    -0.237 OA
ATOM     74  O   UNL A   1      48.290  28.298  22.423  1.00  0.00    -0.744 OA
ENDBRANCH  67  71
ENDBRANCH  50  64
BRANCH  51  75
ATOM     75  C   UNL A   1      38.584  30.404  30.846  1.00  0.00     0.023 A 
ATOM     76  C   UNL A   1      37.569  31.095  30.164  1.00  0.00     0.031 A 
ATOM     77  C   UNL A   1      38.362  30.072  32.194  1.00  0.00     0.131 A 
ATOM     78  C   UNL A   1      36.402  31.476  30.844  1.00  0.00     0.055 A 
ATOM     79  C   UNL A   1      37.176  30.404  32.851  1.00  0.00     0.041 A 
ATOM     80  F   UNL A   1      39.296  29.405  32.893  1.00  0.00    -0.206 F 
ATOM     81  C   UNL A   1      36.193  31.123  32.178  1.00  0.00     0.022 A 
BRANCH  78  82
ATOM     82  S   UNL A   1      35.195  32.519  29.982  1.00  0.00     0.124 S 
ATOM     83  O   UNL A   1      34.757  31.638  28.904  1.00  0.00    -0.237 OA
ATOM     84  O   UNL A   1      34.218  32.781  31.033  1.00  0.00    -0.237 OA
ATOM     85  O   UNL A   1      35.984  33.676  29.564  1.00  0.00    -0.744 OA
ENDBRANCH  78  82
ENDBRANCH  51  75
BRANCH  63  86
ATOM     86  C   UNL A   1      44.418  34.019  29.610  1.00  0.00     0.023 A 
ATOM     87  C   UNL A   1      44.309  34.997  28.606  1.00  0.00     0.031 A 
ATOM     88  C   UNL A   1      44.913  34.414  30.865  1.00  0.00     0.131 A 
ATOM     89  C   UNL A   1      44.760  36.304  28.850  1.00  0.00     0.055 A 
ATOM     90  C   UNL A   1      45.292  35.732  31.125  1.00  0.00     0.041 A 
ATOM     91  F   UNL A   1      45.042  33.523  31.862  1.00  0.00    -0.206 F 
ATOM     92  C   UNL A   1      45.233  36.682  30.109  1.00  0.00     0.022 A 
BRANCH  89  93
ATOM     93  S   UNL A   1      44.833  37.472  27.465  1.00  0.00     0.124 S 
ATOM     94  O   UNL A   1      43.444  37.499  27.018  1.00  0.00    -0.237 OA
ATOM     95  O   UNL A   1      45.319  38.689  28.108  1.00  0.00    -0.237 OA
ATOM     96  O   UNL A   1      45.771  36.845  26.536  1.00  0.00    -0.744 OA
ENDBRANCH  89  93
ENDBRANCH  63  86
ENDBRANCH  37  38
ENDBRANCH  29  32
ENDBRANCH  27  28
ENDBRANCH  26  27
ENDBRANCH  25  26
ENDBRANCH   1  25
TORSDOF 19
ENDMDL
MODEL 3
REMARK VINA RESULT:     -11.9      4.824     10.002
REMARK SMILES Cc1cccc(Cl)c1Nc1ccccc1CC(=O)NCCCCCCNC(=O)c1ccc(-c2c3nc(c(-c4cc(S(=O)(=O)[O-])ccc4F)c4ccc([nH]4)c(-c4cc(S(=O)(=O)[O-])ccc4F)c4nc(c(-c5cc(S(=O)(=O)[O-])ccc5F)c5ccc2[nH]5)C=C4)C=C3)cc1
REMARK SMILES IDX 22 1 21 2 20 3 19 4 17 5 18 6 16 8 15 9 10 10 11 11 12 12
REMARK SMILES IDX 14 13 13 14 9 15 8 17 1 18 2 19 3 20 4 21 6 22 5 23 7 24
REMARK SMILES IDX 23 25 24 26 25 27 26 28 27 29 28 31 29 32 30 33 91 34 31 35
REMARK SMILES IDX 90 36 32 37 33 38 34 39 84 40 35 41 89 42 83 43 85 44 36 45
REMARK SMILES IDX 88 46 82 47 81 48 37 50 69 51 49 52 68 53 50 54 53 55 67 56
REMARK SMILES IDX 86 57 51 58 52 59 66 61 87 62 54 63 38 64 39 65 47 66 40 67
REMARK SMILES IDX 46 68 48 69 45 70 41 71 42 72 43 73 44 74 70 75 71 76 79 77
REMARK SMILES IDX 72 78 78 79 80 80 77 81 73 82 74 83 75 84 76 85 55 86 56 87
REMARK SMILES IDX 64 88 57 89 63 90 65 91 62 92 58 93 59 94 60 95 61 96
REMARK H PARENT 19 7 9 16 26 30 85 49 53 60
REMARK Flexibility Score: inf
ROOT
ATOM      1  C   UNL A   1      33.866  29.095  23.160  1.00  0.00     0.002 C 
ENDROOT
BRANCH   1   2
ATOM      2  C   UNL A   1      33.767  28.004  22.086  1.00  0.00     0.021 C 
BRANCH   2   3
ATOM      3  C   UNL A   1      32.815  26.868  22.460  1.00  0.00     0.116 C 
BRANCH   3   4
ATOM      4  N   UNL A   1      33.468  25.581  22.320  1.00  0.00    -0.356 N 
ATOM      5  C   UNL A   1      34.176  24.889  23.261  1.00  0.00     0.224 C 
ATOM      6  O   UNL A   1      34.791  23.879  22.910  1.00  0.00    -0.275 OA
ATOM      7  H   UNL A   1      33.392  25.152  21.437  1.00  0.00     0.163 HD
BRANCH   5   8
ATOM      8  C   UNL A   1      34.134  25.333  24.714  1.00  0.00     0.137 C 
BRANCH   8   9
ATOM      9  C   UNL A   1      33.042  24.687  25.543  1.00  0.00    -0.015 A 
ATOM     10  C   UNL A   1      33.267  23.577  26.388  1.00  0.00     0.042 A 
ATOM     11  C   UNL A   1      32.163  22.989  27.035  1.00  0.00     0.026 A 
ATOM     12  C   UNL A   1      30.874  23.498  26.888  1.00  0.00     0.002 A 
ATOM     13  C   UNL A   1      31.735  25.207  25.429  1.00  0.00     0.006 A 
ATOM     14  C   UNL A   1      30.661  24.617  26.095  1.00  0.00     0.000 A 
BRANCH  10  15
ATOM     15  N   UNL A   1      34.535  23.029  26.674  1.00  0.00    -0.354 N 
ATOM     16  H   UNL A   1      34.889  23.291  27.554  1.00  0.00     0.167 HD
BRANCH  15  17
ATOM     17  C   UNL A   1      35.400  22.177  25.947  1.00  0.00     0.060 A 
ATOM     18  C   UNL A   1      37.190  24.003  26.091  1.00  0.00     0.046 C 
ATOM     19  C   UNL A   1      36.720  22.630  25.680  1.00  0.00    -0.026 A 
ATOM     20  C   UNL A   1      37.647  21.778  25.052  1.00  0.00     0.005 A 
ATOM     21  C   UNL A   1      37.289  20.489  24.674  1.00  0.00     0.002 A 
ATOM     22  C   UNL A   1      35.052  20.873  25.520  1.00  0.00     0.064 A 
ATOM     23  C   UNL A   1      35.993  20.041  24.900  1.00  0.00     0.023 A 
ATOM     24  Cl  UNL A   1      33.442  20.239  25.621  1.00  0.00    -0.082 Cl
ENDBRANCH  15  17
ENDBRANCH  10  15
ENDBRANCH   8   9
ENDBRANCH   5   8
ENDBRANCH   3   4
ENDBRANCH   2   3
ENDBRANCH   1   2
BRANCH   1  25
ATOM     25  C   UNL A   1      32.959  28.877  24.377  1.00  0.00     0.002 C 
BRANCH  25  26
ATOM     26  C   UNL A   1      33.695  28.772  25.715  1.00  0.00     0.021 C 
BRANCH  26  27
ATOM     27  C   UNL A   1      32.911  29.308  26.909  1.00  0.00     0.116 C 
BRANCH  27  28
ATOM     28  N   UNL A   1      32.930  30.762  26.954  1.00  0.00    -0.352 N 
ATOM     29  C   UNL A   1      33.801  31.600  27.597  1.00  0.00     0.251 C 
ATOM     30  H   UNL A   1      32.212  31.207  26.449  1.00  0.00     0.163 HD
ATOM     31  O   UNL A   1      33.513  32.794  27.720  1.00  0.00    -0.269 OA
BRANCH  29  32
ATOM     32  C   UNL A   1      35.068  31.080  28.150  1.00  0.00     0.039 A 
ATOM     33  C   UNL A   1      36.225  31.852  28.032  1.00  0.00     0.014 A 
ATOM     34  C   UNL A   1      35.123  29.824  28.763  1.00  0.00     0.014 A 
ATOM     35  C   UNL A   1      37.426  31.387  28.572  1.00  0.00     0.010 A 
ATOM     36  C   UNL A   1      36.303  29.395  29.368  1.00  0.00     0.010 A 
ATOM     37  C   UNL A   1      37.469  30.168  29.271  1.00  0.00    -0.014 A 
BRANCH  37  38
ATOM     38  C   UNL A   1      38.731  29.697  29.900  1.00  0.00     0.031 A 
ATOM     39  C   UNL A   1      39.155  30.226  31.243  1.00  0.00     0.074 A 
ATOM     40  C   UNL A   1      39.512  28.821  29.238  1.00  0.00     0.049 A 
ATOM     41  N   UNL A   1      40.230  29.953  31.939  1.00  0.00    -0.248 NA
ATOM     42  C   UNL A   1      38.269  31.216  31.874  1.00  0.00     0.031 C 
ATOM     43  C   UNL A   1      39.229  28.276  27.908  1.00  0.00     0.029 A 
ATOM     44  N   UNL A   1      40.702  28.235  29.588  1.00  0.00    -0.354 N 
ATOM     45  C   UNL A   1      40.154  30.741  33.083  1.00  0.00     0.074 A 
ATOM     46  C   UNL A   1      38.960  31.550  32.953  1.00  0.00     0.031 C 
ATOM     47  C   UNL A   1      40.201  27.413  27.570  1.00  0.00     0.029 A 
ATOM     48  C   UNL A   1      41.198  27.375  28.635  1.00  0.00     0.049 A 
ATOM     49  H   UNL A   1      41.160  28.413  30.442  1.00  0.00     0.167 HD
ATOM     50  C   UNL A   1      40.987  30.768  34.153  1.00  0.00     0.034 A 
ATOM     51  C   UNL A   1      42.328  26.642  28.618  1.00  0.00     0.034 A 
ATOM     52  C   UNL A   1      42.169  29.947  34.267  1.00  0.00     0.049 A 
ATOM     53  C   UNL A   1      43.245  26.696  29.814  1.00  0.00     0.074 A 
ATOM     54  C   UNL A   1      43.053  29.851  35.328  1.00  0.00     0.029 A 
ATOM     55  N   UNL A   1      42.641  29.085  33.283  1.00  0.00    -0.354 N 
ATOM     56  N   UNL A   1      43.126  27.400  30.916  1.00  0.00    -0.248 NA
ATOM     57  C   UNL A   1      44.439  25.845  29.768  1.00  0.00     0.031 C 
ATOM     58  C   UNL A   1      44.094  28.992  34.957  1.00  0.00     0.029 A 
ATOM     59  C   UNL A   1      43.819  28.484  33.697  1.00  0.00     0.049 A 
ATOM     60  H   UNL A   1      42.201  28.927  32.416  1.00  0.00     0.167 HD
ATOM     61  C   UNL A   1      44.218  27.052  31.708  1.00  0.00     0.074 A 
ATOM     62  C   UNL A   1      44.967  26.060  30.963  1.00  0.00     0.031 C 
ATOM     63  C   UNL A   1      44.569  27.510  32.938  1.00  0.00     0.034 A 
BRANCH  50  64
ATOM     64  C   UNL A   1      40.661  31.738  35.265  1.00  0.00     0.023 A 
ATOM     65  C   UNL A   1      39.593  31.516  36.153  1.00  0.00     0.031 A 
ATOM     66  C   UNL A   1      41.413  32.915  35.428  1.00  0.00     0.131 A 
ATOM     67  C   UNL A   1      39.257  32.489  37.106  1.00  0.00     0.055 A 
ATOM     68  C   UNL A   1      41.127  33.840  36.436  1.00  0.00     0.041 A 
ATOM     69  F   UNL A   1      42.431  33.197  34.600  1.00  0.00    -0.206 F 
ATOM     70  C   UNL A   1      40.034  33.638  37.271  1.00  0.00     0.022 A 
BRANCH  67  71
ATOM     71  S   UNL A   1      37.703  32.304  38.024  1.00  0.00     0.124 S 
ATOM     72  O   UNL A   1      37.459  30.869  37.902  1.00  0.00    -0.237 OA
ATOM     73  O   UNL A   1      38.063  32.781  39.353  1.00  0.00    -0.237 OA
ATOM     74  O   UNL A   1      36.767  33.152  37.287  1.00  0.00    -0.744 OA
ENDBRANCH  67  71
ENDBRANCH  50  64
BRANCH  51  75
ATOM     75  C   UNL A   1      42.664  25.800  27.434  1.00  0.00     0.023 A 
ATOM     76  C   UNL A   1      42.248  24.461  27.353  1.00  0.00     0.031 A 
ATOM     77  C   UNL A   1      43.442  26.312  26.381  1.00  0.00     0.131 A 
ATOM     78  C   UNL A   1      42.653  23.666  26.269  1.00  0.00     0.055 A 
ATOM     79  C   UNL A   1      43.795  25.534  25.277  1.00  0.00     0.041 A 
ATOM     80  F   UNL A   1      43.862  27.588  26.403  1.00  0.00    -0.206 F 
ATOM     81  C   UNL A   1      43.411  24.197  25.224  1.00  0.00     0.022 A 
BRANCH  78  82
ATOM     82  S   UNL A   1      42.246  21.899  26.287  1.00  0.00     0.124 S 
ATOM     83  O   UNL A   1      43.133  21.379  25.252  1.00  0.00    -0.237 OA
ATOM     84  O   UNL A   1      42.574  21.528  27.659  1.00  0.00    -0.237 OA
ATOM     85  O   UNL A   1      40.822  21.875  25.961  1.00  0.00    -0.744 OA
ENDBRANCH  78  82
ENDBRANCH  51  75
BRANCH  63  86
ATOM     86  C   UNL A   1      45.805  26.905  33.562  1.00  0.00     0.023 A 
ATOM     87  C   UNL A   1      45.743  25.736  34.341  1.00  0.00     0.031 A 
ATOM     88  C   UNL A   1      47.056  27.526  33.402  1.00  0.00     0.131 A 
ATOM     89  C   UNL A   1      46.895  25.268  34.992  1.00  0.00     0.055 A 
ATOM     90  C   UNL A   1      48.213  27.014  33.992  1.00  0.00     0.041 A 
ATOM     91  F   UNL A   1      47.176  28.647  32.671  1.00  0.00    -0.206 F 
ATOM     92  C   UNL A   1      48.133  25.888  34.807  1.00  0.00     0.022 A 
BRANCH  89  93
ATOM     93  S   UNL A   1      46.730  23.907  36.180  1.00  0.00     0.124 S 
ATOM     94  O   UNL A   1      47.019  24.574  37.446  1.00  0.00    -0.237 OA
ATOM     95  O   UNL A   1      45.346  23.487  35.982  1.00  0.00    -0.237 OA
ATOM     96  O   UNL A   1      47.739  22.945  35.743  1.00  0.00    -0.744 OA
ENDBRANCH  89  93
ENDBRANCH  63  86
ENDBRANCH  37  38
ENDBRANCH  29  32
ENDBRANCH  27  28
ENDBRANCH  26  27
ENDBRANCH  25  26
ENDBRANCH   1  25
TORSDOF 19
ENDMDL
