MODEL 1
REMARK VINA RESULT:      -9.8      0.000      0.000
REMARK SMILES CC(C)[C@H](C(=O)NCCCCCCNC(=O)c1ccc(-c2c3nc(c(-c4cc(S(=O)(=O)[O-])ccc4F)c4ccc([nH]4)c(-c4cc(S(=O)(=O)[O-])ccc4F)c4nc(c(-c5cc(S(=O)(=O)[O-])ccc5F)c5ccc2[nH]5)C=C4)C=C3)cc1)[C@H](C)[C@@H](C)O
REMARK SMILES IDX 10 1 9 2 8 3 7 4 5 5 6 6 4 8 2 9 1 10 3 11 80 12 81 13 82 14
REMARK SMILES IDX 83 15 84 16 11 18 12 19 13 20 14 21 15 22 16 24 17 25 18 26
REMARK SMILES IDX 79 27 19 28 78 29 20 30 21 31 22 32 72 33 23 34 77 35 71 36
REMARK SMILES IDX 73 37 24 38 76 39 70 40 69 41 25 43 57 44 37 45 56 46 38 47
REMARK SMILES IDX 41 48 55 49 74 50 39 51 40 52 54 54 75 55 42 56 26 57 27 58
REMARK SMILES IDX 35 59 28 60 34 61 36 62 33 63 29 64 30 65 31 66 32 67 58 68
REMARK SMILES IDX 59 69 67 70 60 71 66 72 68 73 65 74 61 75 62 76 63 77 64 78
REMARK SMILES IDX 43 79 44 80 52 81 45 82 51 83 53 84 50 85 46 86 47 87 48 88
REMARK SMILES IDX 49 89
REMARK H PARENT 7 7 84 17 14 23 73 42 41 53
REMARK Flexibility Score: inf
ROOT
ATOM      1  C   UNL A   1      32.729  26.934  25.733  1.00  0.00     0.002 C 
ENDROOT
BRANCH   1   2
ATOM      2  C   UNL A   1      32.991  26.229  24.406  1.00  0.00     0.021 C 
BRANCH   2   3
ATOM      3  C   UNL A   1      34.156  25.251  24.366  1.00  0.00     0.116 C 
BRANCH   3   4
ATOM      4  N   UNL A   1      34.402  24.568  25.595  1.00  0.00    -0.356 N 
ATOM      5  C   UNL A   1      33.933  23.378  26.017  1.00  0.00     0.223 C 
ATOM      6  O   UNL A   1      33.976  23.277  27.252  1.00  0.00    -0.275 OA
ATOM      7  H   UNL A   1      35.001  25.034  26.223  1.00  0.00     0.163 HD
BRANCH   5   8
ATOM      8  C   UNL A   1      33.267  22.261  25.156  1.00  0.00     0.086 C 
BRANCH   8   9
ATOM      9  C   UNL A   1      33.552  20.708  25.328  1.00  0.00    -0.005 C 
ATOM     10  C   UNL A   1      32.553  19.677  24.794  1.00  0.00     0.008 C 
ATOM     11  C   UNL A   1      34.986  20.282  25.002  1.00  0.00     0.008 C 
ENDBRANCH   8   9
BRANCH   8  12
ATOM     12  C   UNL A   1      31.654  22.401  25.112  1.00  0.00     0.027 C 
ATOM     13  C   UNL A   1      31.251  23.112  23.802  1.00  0.00     0.011 C 
BRANCH  12  14
ATOM     14  C   UNL A   1      30.844  22.941  26.326  1.00  0.00     0.115 C 
ATOM     15  C   UNL A   1      30.281  24.350  26.124  1.00  0.00     0.038 C 
BRANCH  14  16
ATOM     16  O   UNL A   1      29.664  22.143  26.502  1.00  0.00    -0.393 OA
ATOM     17  H   UNL A   1      29.262  21.967  25.637  1.00  0.00     0.210 HD
ENDBRANCH  14  16
ENDBRANCH  12  14
ENDBRANCH   8  12
ENDBRANCH   5   8
ENDBRANCH   3   4
ENDBRANCH   2   3
ENDBRANCH   1   2
BRANCH   1  18
ATOM     18  C   UNL A   1      31.478  27.811  25.799  1.00  0.00     0.002 C 
BRANCH  18  19
ATOM     19  C   UNL A   1      31.630  29.169  26.492  1.00  0.00     0.021 C 
BRANCH  19  20
ATOM     20  C   UNL A   1      32.691  30.099  25.911  1.00  0.00     0.116 C 
BRANCH  20  21
ATOM     21  N   UNL A   1      32.485  31.482  26.296  1.00  0.00    -0.352 N 
ATOM     22  C   UNL A   1      33.125  32.230  27.254  1.00  0.00     0.251 C 
ATOM     23  H   UNL A   1      31.781  31.955  25.797  1.00  0.00     0.163 HD
ATOM     24  O   UNL A   1      32.673  33.326  27.563  1.00  0.00    -0.269 OA
BRANCH  22  25
ATOM     25  C   UNL A   1      34.339  31.706  27.918  1.00  0.00     0.039 A 
ATOM     26  C   UNL A   1      35.436  32.556  28.078  1.00  0.00     0.014 A 
ATOM     27  C   UNL A   1      34.411  30.381  28.357  1.00  0.00     0.014 A 
ATOM     28  C   UNL A   1      36.587  32.089  28.718  1.00  0.00     0.010 A 
ATOM     29  C   UNL A   1      35.527  29.941  29.064  1.00  0.00     0.010 A 
ATOM     30  C   UNL A   1      36.633  30.788  29.241  1.00  0.00    -0.014 A 
BRANCH  30  31
ATOM     31  C   UNL A   1      37.840  30.284  29.948  1.00  0.00     0.031 A 
ATOM     32  C   UNL A   1      38.130  30.739  31.354  1.00  0.00     0.074 A 
ATOM     33  C   UNL A   1      38.693  29.456  29.314  1.00  0.00     0.049 A 
ATOM     34  N   UNL A   1      39.161  30.477  32.115  1.00  0.00    -0.248 NA
ATOM     35  C   UNL A   1      37.140  31.634  31.974  1.00  0.00     0.031 C 
ATOM     36  C   UNL A   1      38.531  28.967  27.944  1.00  0.00     0.029 A 
ATOM     37  N   UNL A   1      39.868  28.883  29.733  1.00  0.00    -0.354 N 
ATOM     38  C   UNL A   1      38.949  31.179  33.297  1.00  0.00     0.074 A 
ATOM     39  C   UNL A   1      37.727  31.933  33.123  1.00  0.00     0.031 C 
ATOM     40  C   UNL A   1      39.551  28.145  27.647  1.00  0.00     0.029 A 
ATOM     41  C   UNL A   1      40.467  28.088  28.783  1.00  0.00     0.049 A 
ATOM     42  H   UNL A   1      40.246  29.027  30.631  1.00  0.00     0.167 HD
ATOM     43  C   UNL A   1      39.691  31.172  34.433  1.00  0.00     0.034 A 
ATOM     44  C   UNL A   1      41.628  27.403  28.818  1.00  0.00     0.034 A 
ATOM     45  C   UNL A   1      40.904  30.408  34.592  1.00  0.00     0.049 A 
ATOM     46  C   UNL A   1      42.459  27.449  30.077  1.00  0.00     0.074 A 
ATOM     47  C   UNL A   1      41.715  30.300  35.708  1.00  0.00     0.029 A 
ATOM     48  N   UNL A   1      41.486  29.624  33.603  1.00  0.00    -0.354 N 
ATOM     49  N   UNL A   1      42.226  28.089  31.199  1.00  0.00    -0.248 NA
ATOM     50  C   UNL A   1      43.705  26.670  30.075  1.00  0.00     0.031 C 
ATOM     51  C   UNL A   1      42.823  29.514  35.372  1.00  0.00     0.029 A 
ATOM     52  C   UNL A   1      42.659  29.055  34.075  1.00  0.00     0.049 A 
ATOM     53  H   UNL A   1      41.119  29.491  32.699  1.00  0.00     0.167 HD
ATOM     54  C   UNL A   1      43.276  27.755  32.052  1.00  0.00     0.074 A 
ATOM     55  C   UNL A   1      44.134  26.849  31.316  1.00  0.00     0.031 C 
ATOM     56  C   UNL A   1      43.507  28.155  33.328  1.00  0.00     0.034 A 
BRANCH  43  57
ATOM     57  C   UNL A   1      39.218  32.039  35.578  1.00  0.00     0.023 A 
ATOM     58  C   UNL A   1      39.616  33.383  35.700  1.00  0.00     0.031 A 
ATOM     59  C   UNL A   1      38.378  31.512  36.575  1.00  0.00     0.131 A 
ATOM     60  C   UNL A   1      39.243  34.126  36.829  1.00  0.00     0.055 A 
ATOM     61  C   UNL A   1      37.937  32.284  37.652  1.00  0.00     0.041 A 
ATOM     62  F   UNL A   1      37.982  30.230  36.527  1.00  0.00    -0.206 F 
ATOM     63  C   UNL A   1      38.383  33.595  37.793  1.00  0.00     0.022 A 
BRANCH  60  64
ATOM     64  S   UNL A   1      40.023  35.741  37.099  1.00  0.00     0.124 S 
ATOM     65  O   UNL A   1      39.653  36.453  35.877  1.00  0.00    -0.237 OA
ATOM     66  O   UNL A   1      39.383  36.201  38.325  1.00  0.00    -0.237 OA
ATOM     67  O   UNL A   1      41.444  35.420  37.216  1.00  0.00    -0.744 OA
ENDBRANCH  60  64
ENDBRANCH  43  57
BRANCH  44  68
ATOM     68  C   UNL A   1      42.085  26.622  27.631  1.00  0.00     0.023 A 
ATOM     69  C   UNL A   1      41.768  25.261  27.497  1.00  0.00     0.031 A 
ATOM     70  C   UNL A   1      42.894  27.209  26.642  1.00  0.00     0.131 A 
ATOM     71  C   UNL A   1      42.303  24.518  26.433  1.00  0.00     0.055 A 
ATOM     72  C   UNL A   1      43.373  26.481  25.551  1.00  0.00     0.041 A 
ATOM     73  F   UNL A   1      43.229  28.507  26.719  1.00  0.00    -0.206 F 
ATOM     74  C   UNL A   1      43.091  25.122  25.451  1.00  0.00     0.022 A 
BRANCH  71  75
ATOM     75  S   UNL A   1      42.041  22.723  26.412  1.00  0.00     0.124 S 
ATOM     76  O   UNL A   1      42.628  22.355  25.129  1.00  0.00    -0.237 OA
ATOM     77  O   UNL A   1      42.774  22.296  27.600  1.00  0.00    -0.237 OA
ATOM     78  O   UNL A   1      40.588  22.591  26.497  1.00  0.00    -0.744 OA
ENDBRANCH  71  75
ENDBRANCH  44  68
BRANCH  56  79
ATOM     79  C   UNL A   1      44.708  27.564  34.029  1.00  0.00     0.023 A 
ATOM     80  C   UNL A   1      44.628  26.369  34.765  1.00  0.00     0.031 A 
ATOM     81  C   UNL A   1      45.953  28.216  33.964  1.00  0.00     0.131 A 
ATOM     82  C   UNL A   1      45.754  25.896  35.455  1.00  0.00     0.055 A 
ATOM     83  C   UNL A   1      47.086  27.704  34.595  1.00  0.00     0.041 A 
ATOM     84  F   UNL A   1      46.088  29.363  33.279  1.00  0.00    -0.206 F 
ATOM     85  C   UNL A   1      46.988  26.545  35.359  1.00  0.00     0.022 A 
BRANCH  82  86
ATOM     86  S   UNL A   1      45.562  24.474  36.565  1.00  0.00     0.124 S 
ATOM     87  O   UNL A   1      46.874  24.406  37.201  1.00  0.00    -0.237 OA
ATOM     88  O   UNL A   1      44.459  24.895  37.423  1.00  0.00    -0.237 OA
ATOM     89  O   UNL A   1      45.255  23.370  35.658  1.00  0.00    -0.744 OA
ENDBRANCH  82  86
ENDBRANCH  56  79
ENDBRANCH  30  31
ENDBRANCH  22  25
ENDBRANCH  20  21
ENDBRANCH  19  20
ENDBRANCH  18  19
ENDBRANCH   1  18
TORSDOF 20
ENDMDL
MODEL 2
REMARK VINA RESULT:      -9.7      5.378     10.590
REMARK SMILES CC(C)[C@H](C(=O)NCCCCCCNC(=O)c1ccc(-c2c3nc(c(-c4cc(S(=O)(=O)[O-])ccc4F)c4ccc([nH]4)c(-c4cc(S(=O)(=O)[O-])ccc4F)c4nc(c(-c5cc(S(=O)(=O)[O-])ccc5F)c5ccc2[nH]5)C=C4)C=C3)cc1)[C@H](C)[C@@H](C)O
REMARK SMILES IDX 10 1 9 2 8 3 7 4 5 5 6 6 4 8 2 9 1 10 3 11 80 12 81 13 82 14
REMARK SMILES IDX 83 15 84 16 11 18 12 19 13 20 14 21 15 22 16 24 17 25 18 26
REMARK SMILES IDX 79 27 19 28 78 29 20 30 21 31 22 32 72 33 23 34 77 35 71 36
REMARK SMILES IDX 73 37 24 38 76 39 70 40 69 41 25 43 57 44 37 45 56 46 38 47
REMARK SMILES IDX 41 48 55 49 74 50 39 51 40 52 54 54 75 55 42 56 26 57 27 58
REMARK SMILES IDX 35 59 28 60 34 61 36 62 33 63 29 64 30 65 31 66 32 67 58 68
REMARK SMILES IDX 59 69 67 70 60 71 66 72 68 73 65 74 61 75 62 76 63 77 64 78
REMARK SMILES IDX 43 79 44 80 52 81 45 82 51 83 53 84 50 85 46 86 47 87 48 88
REMARK SMILES IDX 49 89
REMARK H PARENT 7 7 84 17 14 23 73 42 41 53
REMARK Flexibility Score: inf
ROOT
ATOM      1  C   UNL A   1      34.771  19.746  24.771  1.00  0.00     0.002 C 
ENDROOT
BRANCH   1   2
ATOM      2  C   UNL A   1      33.521  20.415  25.336  1.00  0.00     0.021 C 
BRANCH   2   3
ATOM      3  C   UNL A   1      32.564  21.039  24.334  1.00  0.00     0.116 C 
BRANCH   3   4
ATOM      4  N   UNL A   1      33.192  21.612  23.187  1.00  0.00    -0.356 N 
ATOM      5  C   UNL A   1      33.550  22.891  22.961  1.00  0.00     0.223 C 
ATOM      6  O   UNL A   1      33.661  23.132  21.750  1.00  0.00    -0.275 OA
ATOM      7  H   UNL A   1      33.392  20.982  22.457  1.00  0.00     0.163 HD
BRANCH   5   8
ATOM      8  C   UNL A   1      33.689  24.037  24.010  1.00  0.00     0.086 C 
BRANCH   8   9
ATOM      9  C   UNL A   1      34.863  24.135  25.076  1.00  0.00    -0.005 C 
ATOM     10  C   UNL A   1      34.649  23.625  26.505  1.00  0.00     0.008 C 
ATOM     11  C   UNL A   1      36.237  23.708  24.556  1.00  0.00     0.008 C 
ENDBRANCH   8   9
BRANCH   8  12
ATOM     12  C   UNL A   1      33.599  25.504  23.331  1.00  0.00     0.027 C 
ATOM     13  C   UNL A   1      33.561  26.569  24.450  1.00  0.00     0.011 C 
BRANCH  12  14
ATOM     14  C   UNL A   1      32.576  25.826  22.205  1.00  0.00     0.115 C 
ATOM     15  C   UNL A   1      31.819  27.142  22.405  1.00  0.00     0.038 C 
BRANCH  14  16
ATOM     16  O   UNL A   1      33.278  26.040  20.972  1.00  0.00    -0.393 OA
ATOM     17  H   UNL A   1      34.222  26.164  21.156  1.00  0.00     0.210 HD
ENDBRANCH  14  16
ENDBRANCH  12  14
ENDBRANCH   8  12
ENDBRANCH   5   8
ENDBRANCH   3   4
ENDBRANCH   2   3
ENDBRANCH   1   2
BRANCH   1  18
ATOM     18  C   UNL A   1      36.084  20.512  24.938  1.00  0.00     0.002 C 
BRANCH  18  19
ATOM     19  C   UNL A   1      37.363  19.670  25.000  1.00  0.00     0.021 C 
BRANCH  19  20
ATOM     20  C   UNL A   1      38.596  20.371  25.561  1.00  0.00     0.116 C 
BRANCH  20  21
ATOM     21  N   UNL A   1      39.684  19.449  25.828  1.00  0.00    -0.352 N 
ATOM     22  C   UNL A   1      40.997  19.706  26.138  1.00  0.00     0.251 C 
ATOM     23  H   UNL A   1      39.445  18.495  25.778  1.00  0.00     0.163 HD
ATOM     24  O   UNL A   1      41.807  18.789  26.135  1.00  0.00    -0.269 OA
BRANCH  22  25
ATOM     25  C   UNL A   1      41.428  21.086  26.455  1.00  0.00     0.039 A 
ATOM     26  C   UNL A   1      41.624  21.986  25.403  1.00  0.00     0.014 A 
ATOM     27  C   UNL A   1      41.666  21.488  27.772  1.00  0.00     0.014 A 
ATOM     28  C   UNL A   1      42.013  23.299  25.677  1.00  0.00     0.010 A 
ATOM     29  C   UNL A   1      41.978  22.817  28.049  1.00  0.00     0.010 A 
ATOM     30  C   UNL A   1      42.167  23.734  27.003  1.00  0.00    -0.014 A 
BRANCH  30  31
ATOM     31  C   UNL A   1      42.555  25.135  27.313  1.00  0.00     0.031 A 
ATOM     32  C   UNL A   1      43.929  25.632  26.950  1.00  0.00     0.074 A 
ATOM     33  C   UNL A   1      41.690  25.944  27.958  1.00  0.00     0.049 A 
ATOM     34  N   UNL A   1      44.485  26.789  27.198  1.00  0.00    -0.248 NA
ATOM     35  C   UNL A   1      44.804  24.686  26.239  1.00  0.00     0.031 C 
ATOM     36  C   UNL A   1      40.340  25.567  28.383  1.00  0.00     0.029 A 
ATOM     37  N   UNL A   1      41.816  27.246  28.372  1.00  0.00    -0.354 N 
ATOM     38  C   UNL A   1      45.775  26.709  26.682  1.00  0.00     0.074 A 
ATOM     39  C   UNL A   1      45.939  25.366  26.172  1.00  0.00     0.031 C 
ATOM     40  C   UNL A   1      39.754  26.623  28.970  1.00  0.00     0.029 A 
ATOM     41  C   UNL A   1      40.700  27.734  29.012  1.00  0.00     0.049 A 
ATOM     42  H   UNL A   1      42.629  27.781  28.224  1.00  0.00     0.167 HD
ATOM     43  C   UNL A   1      46.724  27.677  26.615  1.00  0.00     0.034 A 
ATOM     44  C   UNL A   1      40.470  28.936  29.579  1.00  0.00     0.034 A 
ATOM     45  C   UNL A   1      46.540  29.014  27.122  1.00  0.00     0.049 A 
ATOM     46  C   UNL A   1      41.559  29.980  29.532  1.00  0.00     0.074 A 
ATOM     47  C   UNL A   1      47.420  30.082  27.076  1.00  0.00     0.029 A 
ATOM     48  N   UNL A   1      45.400  29.468  27.774  1.00  0.00    -0.354 N 
ATOM     49  N   UNL A   1      42.760  29.900  29.009  1.00  0.00    -0.248 NA
ATOM     50  C   UNL A   1      41.255  31.281  30.145  1.00  0.00     0.031 C 
ATOM     51  C   UNL A   1      46.843  31.155  27.764  1.00  0.00     0.029 A 
ATOM     52  C   UNL A   1      45.567  30.790  28.161  1.00  0.00     0.049 A 
ATOM     53  H   UNL A   1      44.592  28.931  27.938  1.00  0.00     0.167 HD
ATOM     54  C   UNL A   1      43.339  31.154  29.192  1.00  0.00     0.074 A 
ATOM     55  C   UNL A   1      42.349  31.972  29.863  1.00  0.00     0.031 C 
ATOM     56  C   UNL A   1      44.573  31.592  28.833  1.00  0.00     0.034 A 
BRANCH  43  57
ATOM     57  C   UNL A   1      48.051  27.306  25.991  1.00  0.00     0.023 A 
ATOM     58  C   UNL A   1      48.324  27.555  24.634  1.00  0.00     0.031 A 
ATOM     59  C   UNL A   1      49.048  26.674  26.755  1.00  0.00     0.131 A 
ATOM     60  C   UNL A   1      49.524  27.103  24.065  1.00  0.00     0.055 A 
ATOM     61  C   UNL A   1      50.277  26.307  26.204  1.00  0.00     0.041 A 
ATOM     62  F   UNL A   1      48.840  26.389  28.050  1.00  0.00    -0.206 F 
ATOM     63  C   UNL A   1      50.515  26.506  24.847  1.00  0.00     0.022 A 
BRANCH  60  64
ATOM     64  S   UNL A   1      49.705  27.168  22.262  1.00  0.00     0.124 S 
ATOM     65  O   UNL A   1      49.478  28.587  21.996  1.00  0.00    -0.237 OA
ATOM     66  O   UNL A   1      51.067  26.691  22.063  1.00  0.00    -0.237 OA
ATOM     67  O   UNL A   1      48.652  26.277  21.780  1.00  0.00    -0.744 OA
ENDBRANCH  60  64
ENDBRANCH  43  57
BRANCH  44  68
ATOM     68  C   UNL A   1      39.167  29.224  30.247  1.00  0.00     0.023 A 
ATOM     69  C   UNL A   1      38.190  30.009  29.615  1.00  0.00     0.031 A 
ATOM     70  C   UNL A   1      38.902  28.768  31.551  1.00  0.00     0.131 A 
ATOM     71  C   UNL A   1      37.019  30.362  30.305  1.00  0.00     0.055 A 
ATOM     72  C   UNL A   1      37.709  29.070  32.211  1.00  0.00     0.041 A 
ATOM     73  F   UNL A   1      39.800  28.014  32.204  1.00  0.00    -0.206 F 
ATOM     74  C   UNL A   1      36.766  29.886  31.593  1.00  0.00     0.022 A 
BRANCH  71  75
ATOM     75  S   UNL A   1      35.881  31.545  29.534  1.00  0.00     0.124 S 
ATOM     76  O   UNL A   1      35.228  30.714  28.529  1.00  0.00    -0.237 OA
ATOM     77  O   UNL A   1      35.056  31.953  30.666  1.00  0.00    -0.237 OA
ATOM     78  O   UNL A   1      36.771  32.578  29.009  1.00  0.00    -0.744 OA
ENDBRANCH  71  75
ENDBRANCH  44  68
BRANCH  56  79
ATOM     79  C   UNL A   1      44.895  33.042  29.107  1.00  0.00     0.023 A 
ATOM     80  C   UNL A   1      44.506  34.071  28.232  1.00  0.00     0.031 A 
ATOM     81  C   UNL A   1      45.614  33.397  30.264  1.00  0.00     0.131 A 
ATOM     82  C   UNL A   1      44.889  35.395  28.495  1.00  0.00     0.055 A 
ATOM     83  C   UNL A   1      45.932  34.724  30.555  1.00  0.00     0.041 A 
ATOM     84  F   UNL A   1      46.015  32.456  31.134  1.00  0.00    -0.206 F 
ATOM     85  C   UNL A   1      45.582  35.731  29.661  1.00  0.00     0.022 A 
BRANCH  82  86
ATOM     86  S   UNL A   1      44.558  36.663  27.241  1.00  0.00     0.124 S 
ATOM     87  O   UNL A   1      45.887  37.225  27.019  1.00  0.00    -0.237 OA
ATOM     88  O   UNL A   1      44.007  35.878  26.141  1.00  0.00    -0.237 OA
ATOM     89  O   UNL A   1      43.609  37.558  27.900  1.00  0.00    -0.744 OA
ENDBRANCH  82  86
ENDBRANCH  56  79
ENDBRANCH  30  31
ENDBRANCH  22  25
ENDBRANCH  20  21
ENDBRANCH  19  20
ENDBRANCH  18  19
ENDBRANCH   1  18
TORSDOF 20
ENDMDL
MODEL 3
REMARK VINA RESULT:      -9.6      4.840     10.232
REMARK SMILES CC(C)[C@H](C(=O)NCCCCCCNC(=O)c1ccc(-c2c3nc(c(-c4cc(S(=O)(=O)[O-])ccc4F)c4ccc([nH]4)c(-c4cc(S(=O)(=O)[O-])ccc4F)c4nc(c(-c5cc(S(=O)(=O)[O-])ccc5F)c5ccc2[nH]5)C=C4)C=C3)cc1)[C@H](C)[C@@H](C)O
REMARK SMILES IDX 10 1 9 2 8 3 7 4 5 5 6 6 4 8 2 9 1 10 3 11 80 12 81 13 82 14
REMARK SMILES IDX 83 15 84 16 11 18 12 19 13 20 14 21 15 22 16 24 17 25 18 26
REMARK SMILES IDX 79 27 19 28 78 29 20 30 21 31 22 32 72 33 23 34 77 35 71 36
REMARK SMILES IDX 73 37 24 38 76 39 70 40 69 41 25 43 57 44 37 45 56 46 38 47
REMARK SMILES IDX 41 48 55 49 74 50 39 51 40 52 54 54 75 55 42 56 26 57 27 58
REMARK SMILES IDX 35 59 28 60 34 61 36 62 33 63 29 64 30 65 31 66 32 67 58 68
REMARK SMILES IDX 59 69 67 70 60 71 66 72 68 73 65 74 61 75 62 76 63 77 64 78
REMARK SMILES IDX 43 79 44 80 52 81 45 82 51 83 53 84 50 85 46 86 47 87 48 88
REMARK SMILES IDX 49 89
REMARK H PARENT 7 7 84 17 14 23 73 42 41 53
REMARK Flexibility Score: inf
ROOT
ATOM      1  C   UNL A   1      35.194  23.646  25.818  1.00  0.00     0.002 C 
ENDROOT
BRANCH   1   2
ATOM      2  C   UNL A   1      34.108  24.477  25.141  1.00  0.00     0.021 C 
BRANCH   2   3
ATOM      3  C   UNL A   1      33.772  25.816  25.778  1.00  0.00     0.116 C 
BRANCH   3   4
ATOM      4  N   UNL A   1      34.010  26.949  24.944  1.00  0.00    -0.356 N 
ATOM      5  C   UNL A   1      33.198  27.524  24.035  1.00  0.00     0.223 C 
ATOM      6  O   UNL A   1      33.834  28.185  23.201  1.00  0.00    -0.275 OA
ATOM      7  H   UNL A   1      34.894  27.372  25.048  1.00  0.00     0.163 HD
BRANCH   5   8
ATOM      8  C   UNL A   1      31.659  27.327  23.878  1.00  0.00     0.086 C 
BRANCH   8   9
ATOM      9  C   UNL A   1      30.613  28.515  23.749  1.00  0.00    -0.005 C 
ATOM     10  C   UNL A   1      30.777  29.781  24.597  1.00  0.00     0.008 C 
ATOM     11  C   UNL A   1      30.234  28.879  22.312  1.00  0.00     0.008 C 
ENDBRANCH   8   9
BRANCH   8  12
ATOM     12  C   UNL A   1      31.291  26.296  22.685  1.00  0.00     0.027 C 
ATOM     13  C   UNL A   1      30.656  25.029  23.298  1.00  0.00     0.011 C 
BRANCH  12  14
ATOM     14  C   UNL A   1      32.312  25.937  21.567  1.00  0.00     0.115 C 
ATOM     15  C   UNL A   1      32.906  24.531  21.691  1.00  0.00     0.038 C 
BRANCH  14  16
ATOM     16  O   UNL A   1      31.635  25.892  20.303  1.00  0.00    -0.393 OA
ATOM     17  H   UNL A   1      31.543  24.969  20.019  1.00  0.00     0.210 HD
ENDBRANCH  14  16
ENDBRANCH  12  14
ENDBRANCH   8  12
ENDBRANCH   5   8
ENDBRANCH   3   4
ENDBRANCH   2   3
ENDBRANCH   1   2
BRANCH   1  18
ATOM     18  C   UNL A   1      34.972  22.132  25.842  1.00  0.00     0.002 C 
BRANCH  18  19
ATOM     19  C   UNL A   1      35.640  21.326  24.723  1.00  0.00     0.021 C 
BRANCH  19  20
ATOM     20  C   UNL A   1      37.136  21.558  24.536  1.00  0.00     0.116 C 
BRANCH  20  21
ATOM     21  N   UNL A   1      37.936  20.487  25.100  1.00  0.00    -0.352 N 
ATOM     22  C   UNL A   1      39.134  20.546  25.770  1.00  0.00     0.251 C 
ATOM     23  H   UNL A   1      37.566  19.583  24.984  1.00  0.00     0.163 HD
ATOM     24  O   UNL A   1      39.748  19.512  25.997  1.00  0.00    -0.269 OA
BRANCH  22  25
ATOM     25  C   UNL A   1      39.683  21.853  26.196  1.00  0.00     0.039 A 
ATOM     26  C   UNL A   1      41.008  21.913  26.634  1.00  0.00     0.014 A 
ATOM     27  C   UNL A   1      38.894  23.008  26.192  1.00  0.00     0.014 A 
ATOM     28  C   UNL A   1      41.555  23.138  27.024  1.00  0.00     0.010 A 
ATOM     29  C   UNL A   1      39.463  24.239  26.506  1.00  0.00     0.010 A 
ATOM     30  C   UNL A   1      40.796  24.316  26.938  1.00  0.00    -0.014 A 
BRANCH  30  31
ATOM     31  C   UNL A   1      41.371  25.632  27.323  1.00  0.00     0.031 A 
ATOM     32  C   UNL A   1      42.787  25.973  26.941  1.00  0.00     0.074 A 
ATOM     33  C   UNL A   1      40.637  26.497  28.051  1.00  0.00     0.049 A 
ATOM     34  N   UNL A   1      43.496  27.031  27.243  1.00  0.00    -0.248 NA
ATOM     35  C   UNL A   1      43.511  24.975  26.139  1.00  0.00     0.031 C 
ATOM     36  C   UNL A   1      39.263  26.267  28.501  1.00  0.00     0.029 A 
ATOM     37  N   UNL A   1      40.943  27.741  28.543  1.00  0.00    -0.354 N 
ATOM     38  C   UNL A   1      44.749  26.823  26.675  1.00  0.00     0.074 A 
ATOM     39  C   UNL A   1      44.722  25.507  26.073  1.00  0.00     0.031 C 
ATOM     40  C   UNL A   1      38.836  27.346  29.177  1.00  0.00     0.029 A 
ATOM     41  C   UNL A   1      39.918  28.322  29.255  1.00  0.00     0.049 A 
ATOM     42  H   UNL A   1      41.814  28.178  28.401  1.00  0.00     0.167 HD
ATOM     43  C   UNL A   1      45.813  27.664  26.635  1.00  0.00     0.034 A 
ATOM     44  C   UNL A   1      39.862  29.502  29.907  1.00  0.00     0.034 A 
ATOM     45  C   UNL A   1      45.818  28.976  27.234  1.00  0.00     0.049 A 
ATOM     46  C   UNL A   1      41.075  30.399  29.887  1.00  0.00     0.074 A 
ATOM     47  C   UNL A   1      46.827  29.923  27.225  1.00  0.00     0.029 A 
ATOM     48  N   UNL A   1      44.766  29.525  27.957  1.00  0.00    -0.354 N 
ATOM     49  N   UNL A   1      42.241  30.203  29.315  1.00  0.00    -0.248 NA
ATOM     50  C   UNL A   1      40.960  31.682  30.593  1.00  0.00     0.031 C 
ATOM     51  C   UNL A   1      46.415  31.011  28.002  1.00  0.00     0.029 A 
ATOM     52  C   UNL A   1      45.113  30.785  28.422  1.00  0.00     0.049 A 
ATOM     53  H   UNL A   1      43.900  29.085  28.116  1.00  0.00     0.167 HD
ATOM     54  C   UNL A   1      42.982  31.358  29.557  1.00  0.00     0.074 A 
ATOM     55  C   UNL A   1      42.126  32.246  30.317  1.00  0.00     0.031 C 
ATOM     56  C   UNL A   1      44.251  31.659  29.181  1.00  0.00     0.034 A 
BRANCH  43  57
ATOM     57  C   UNL A   1      47.062  27.171  25.940  1.00  0.00     0.023 A 
ATOM     58  C   UNL A   1      48.077  26.494  26.639  1.00  0.00     0.031 A 
ATOM     59  C   UNL A   1      47.254  27.403  24.566  1.00  0.00     0.131 A 
ATOM     60  C   UNL A   1      49.268  26.145  25.984  1.00  0.00     0.055 A 
ATOM     61  C   UNL A   1      48.404  26.974  23.900  1.00  0.00     0.041 A 
ATOM     62  F   UNL A   1      46.333  28.064  23.848  1.00  0.00    -0.206 F 
ATOM     63  C   UNL A   1      49.427  26.354  24.613  1.00  0.00     0.022 A 
BRANCH  60  64
ATOM     64  S   UNL A   1      50.663  25.556  26.982  1.00  0.00     0.124 S 
ATOM     65  O   UNL A   1      50.122  24.317  27.539  1.00  0.00    -0.237 OA
ATOM     66  O   UNL A   1      51.719  25.403  25.990  1.00  0.00    -0.237 OA
ATOM     67  O   UNL A   1      50.866  26.628  27.953  1.00  0.00    -0.744 OA
ENDBRANCH  60  64
ENDBRANCH  43  57
BRANCH  44  68
ATOM     68  C   UNL A   1      38.628  29.906  30.641  1.00  0.00     0.023 A 
ATOM     69  C   UNL A   1      37.634  30.675  30.013  1.00  0.00     0.031 A 
ATOM     70  C   UNL A   1      38.448  29.580  31.997  1.00  0.00     0.131 A 
ATOM     71  C   UNL A   1      36.536  31.140  30.753  1.00  0.00     0.055 A 
ATOM     72  C   UNL A   1      37.322  29.993  32.713  1.00  0.00     0.041 A 
ATOM     73  F   UNL A   1      39.365  28.847  32.648  1.00  0.00    -0.206 F 
ATOM     74  C   UNL A   1      36.366  30.792  32.095  1.00  0.00     0.022 A 
BRANCH  71  75
ATOM     75  S   UNL A   1      35.387  32.300  29.963  1.00  0.00     0.124 S 
ATOM     76  O   UNL A   1      36.250  33.448  29.714  1.00  0.00    -0.237 OA
ATOM     77  O   UNL A   1      34.961  31.548  28.786  1.00  0.00    -0.237 OA
ATOM     78  O   UNL A   1      34.356  32.500  30.979  1.00  0.00    -0.744 OA
ENDBRANCH  71  75
ENDBRANCH  44  68
BRANCH  56  79
ATOM     79  C   UNL A   1      44.767  33.034  29.537  1.00  0.00     0.023 A 
ATOM     80  C   UNL A   1      44.544  34.150  28.711  1.00  0.00     0.031 A 
ATOM     81  C   UNL A   1      45.502  33.225  30.721  1.00  0.00     0.131 A 
ATOM     82  C   UNL A   1      45.102  35.392  29.049  1.00  0.00     0.055 A 
ATOM     83  C   UNL A   1      45.996  34.478  31.086  1.00  0.00     0.041 A 
ATOM     84  F   UNL A   1      45.750  32.195  31.546  1.00  0.00    -0.206 F 
ATOM     85  C   UNL A   1      45.810  35.567  30.241  1.00  0.00     0.022 A 
BRANCH  82  86
ATOM     86  S   UNL A   1      44.978  36.755  27.860  1.00  0.00     0.124 S 
ATOM     87  O   UNL A   1      44.950  36.044  26.586  1.00  0.00    -0.237 OA
ATOM     88  O   UNL A   1      43.732  37.403  28.256  1.00  0.00    -0.237 OA
ATOM     89  O   UNL A   1      46.188  37.538  28.107  1.00  0.00    -0.744 OA
ENDBRANCH  82  86
ENDBRANCH  56  79
ENDBRANCH  30  31
ENDBRANCH  22  25
ENDBRANCH  20  21
ENDBRANCH  19  20
ENDBRANCH  18  19
ENDBRANCH   1  18
TORSDOF 20
ENDMDL
