MODEL 1
REMARK VINA RESULT:     -10.7      0.000      0.000
REMARK SMILES [NH3+][C@H](C(=O)NCCCCCCNC(=O)c1ccc(-c2c3nc(c(-c4cc(S(=O)(=O)[O-])ccc4F)c4ccc([nH]4)c(-c4cc(S(=O)(=O)[O-])ccc4F)c4nc(c(-c5cc(S(=O)(=O)[O-])ccc5F)c5ccc2[nH]5)C=C4)C=C3)cc1)[C@H](O)c1ccc(F)cc1
REMARK SMILES IDX 9 1 8 2 7 3 6 4 5 5 3 6 4 7 2 9 1 10 78 14 80 15 81 16 86 17
REMARK SMILES IDX 82 18 85 19 83 20 84 21 79 22 10 24 11 25 12 26 13 27 14 29
REMARK SMILES IDX 15 30 16 31 77 32 17 33 76 34 18 35 19 36 20 37 70 38 21 39
REMARK SMILES IDX 75 40 69 41 71 42 22 43 74 44 68 45 67 46 23 48 55 49 35 50
REMARK SMILES IDX 54 51 36 52 39 53 53 54 72 55 37 56 38 57 52 59 73 60 40 61
REMARK SMILES IDX 24 62 25 63 33 64 26 65 32 66 34 67 31 68 27 69 28 70 29 71
REMARK SMILES IDX 30 72 56 73 57 74 65 75 58 76 64 77 66 78 63 79 59 80 60 81
REMARK SMILES IDX 61 82 62 83 41 84 42 85 50 86 43 87 49 88 51 89 48 90 44 91
REMARK SMILES IDX 45 92 46 93 47 94
REMARK H PARENT 5 8 1 11 1 12 1 13 79 23 12 28 71 47 39 58
REMARK Flexibility Score: inf
ROOT
ATOM      1  C   UNL A   1      31.636  30.557  26.562  1.00  0.00     0.002 C 
ENDROOT
BRANCH   1   2
ATOM      2  C   UNL A   1      33.028  29.974  26.301  1.00  0.00     0.002 C 
BRANCH   2   3
ATOM      3  C   UNL A   1      33.226  28.525  26.754  1.00  0.00     0.021 C 
BRANCH   3   4
ATOM      4  C   UNL A   1      33.318  27.510  25.613  1.00  0.00     0.116 C 
BRANCH   4   5
ATOM      5  N   UNL A   1      33.706  28.176  24.385  1.00  0.00    -0.351 N 
ATOM      6  C   UNL A   1      33.140  28.291  23.167  1.00  0.00     0.281 C 
ATOM      7  O   UNL A   1      33.908  28.716  22.282  1.00  0.00    -0.268 OA
ATOM      8  H   UNL A   1      34.569  28.645  24.455  1.00  0.00     0.163 HD
BRANCH   6   9
ATOM      9  C   UNL A   1      31.654  28.047  22.770  1.00  0.00     0.304 C 
BRANCH   9  10
ATOM     10  N   UNL A   1      31.497  26.581  22.490  1.00  0.00    -0.345 N 
ATOM     11  H   UNL A   1      30.988  26.455  21.615  1.00  0.00     0.345 HD
ATOM     12  H   UNL A   1      30.977  26.144  23.252  1.00  0.00     0.345 HD
ATOM     13  H   UNL A   1      32.417  26.149  22.415  1.00  0.00     0.345 HD
ENDBRANCH   9  10
BRANCH   9  14
ATOM     14  C   UNL A   1      30.422  28.596  23.528  1.00  0.00     0.212 C 
BRANCH  14  15
ATOM     15  C   UNL A   1      29.682  29.835  23.048  1.00  0.00    -0.013 A 
ATOM     16  C   UNL A   1      29.386  30.940  23.860  1.00  0.00     0.009 A 
ATOM     17  C   UNL A   1      29.268  29.878  21.700  1.00  0.00     0.009 A 
ATOM     18  C   UNL A   1      28.738  32.062  23.334  1.00  0.00     0.039 A 
ATOM     19  C   UNL A   1      28.603  30.990  21.179  1.00  0.00     0.039 A 
ATOM     20  C   UNL A   1      28.352  32.076  22.001  1.00  0.00     0.123 A 
ATOM     21  F   UNL A   1      27.733  33.154  21.505  1.00  0.00    -0.207 F 
ENDBRANCH  14  15
BRANCH  14  22
ATOM     22  O   UNL A   1      29.475  27.549  23.788  1.00  0.00    -0.382 OA
ATOM     23  H   UNL A   1      29.388  26.989  23.000  1.00  0.00     0.211 HD
ENDBRANCH  14  22
ENDBRANCH   9  14
ENDBRANCH   6   9
ENDBRANCH   4   5
ENDBRANCH   3   4
ENDBRANCH   2   3
ENDBRANCH   1   2
BRANCH   1  24
ATOM     24  C   UNL A   1      31.577  32.076  26.748  1.00  0.00     0.021 C 
BRANCH  24  25
ATOM     25  C   UNL A   1      32.872  32.728  27.228  1.00  0.00     0.116 C 
BRANCH  25  26
ATOM     26  N   UNL A   1      32.660  34.082  27.710  1.00  0.00    -0.352 N 
ATOM     27  C   UNL A   1      33.233  34.734  28.770  1.00  0.00     0.251 C 
ATOM     28  H   UNL A   1      32.006  34.611  27.197  1.00  0.00     0.163 HD
ATOM     29  O   UNL A   1      32.767  35.815  29.136  1.00  0.00    -0.269 OA
BRANCH  27  30
ATOM     30  C   UNL A   1      34.383  34.142  29.486  1.00  0.00     0.039 A 
ATOM     31  C   UNL A   1      34.138  33.323  30.593  1.00  0.00     0.014 A 
ATOM     32  C   UNL A   1      35.699  34.414  29.097  1.00  0.00     0.014 A 
ATOM     33  C   UNL A   1      35.206  32.739  31.277  1.00  0.00     0.010 A 
ATOM     34  C   UNL A   1      36.761  33.780  29.740  1.00  0.00     0.010 A 
ATOM     35  C   UNL A   1      36.526  32.943  30.842  1.00  0.00    -0.014 A 
BRANCH  35  36
ATOM     36  C   UNL A   1      37.671  32.303  31.543  1.00  0.00     0.031 A 
ATOM     37  C   UNL A   1      38.422  31.176  30.885  1.00  0.00     0.074 A 
ATOM     38  C   UNL A   1      38.001  32.702  32.786  1.00  0.00     0.049 A 
ATOM     39  N   UNL A   1      39.405  30.450  31.354  1.00  0.00    -0.248 NA
ATOM     40  C   UNL A   1      37.989  30.800  29.531  1.00  0.00     0.031 C 
ATOM     41  C   UNL A   1      37.324  33.758  33.542  1.00  0.00     0.029 A 
ATOM     42  N   UNL A   1      38.982  32.262  33.639  1.00  0.00    -0.354 N 
ATOM     43  C   UNL A   1      39.700  29.522  30.360  1.00  0.00     0.074 A 
ATOM     44  C   UNL A   1      38.751  29.744  29.288  1.00  0.00     0.031 C 
ATOM     45  C   UNL A   1      37.922  33.897  34.736  1.00  0.00     0.029 A 
ATOM     46  C   UNL A   1      38.997  32.916  34.849  1.00  0.00     0.049 A 
ATOM     47  H   UNL A   1      39.616  31.546  33.406  1.00  0.00     0.167 HD
ATOM     48  C   UNL A   1      40.682  28.587  30.334  1.00  0.00     0.034 A 
ATOM     49  C   UNL A   1      39.782  32.740  35.930  1.00  0.00     0.034 A 
ATOM     50  C   UNL A   1      41.627  28.388  31.405  1.00  0.00     0.049 A 
ATOM     51  C   UNL A   1      40.860  31.687  35.884  1.00  0.00     0.074 A 
ATOM     52  C   UNL A   1      42.693  27.505  31.465  1.00  0.00     0.029 A 
ATOM     53  N   UNL A   1      41.618  29.075  32.613  1.00  0.00    -0.354 N 
ATOM     54  N   UNL A   1      41.157  30.849  34.917  1.00  0.00    -0.248 NA
ATOM     55  C   UNL A   1      41.718  31.567  37.069  1.00  0.00     0.031 C 
ATOM     56  C   UNL A   1      43.289  27.617  32.726  1.00  0.00     0.029 A 
ATOM     57  C   UNL A   1      42.641  28.619  33.431  1.00  0.00     0.049 A 
ATOM     58  H   UNL A   1      40.978  29.782  32.853  1.00  0.00     0.167 HD
ATOM     59  C   UNL A   1      42.254  30.123  35.369  1.00  0.00     0.074 A 
ATOM     60  C   UNL A   1      42.575  30.632  36.687  1.00  0.00     0.031 C 
ATOM     61  C   UNL A   1      42.941  29.128  34.749  1.00  0.00     0.034 A 
BRANCH  48  62
ATOM     62  C   UNL A   1      40.759  27.697  29.115  1.00  0.00     0.023 A 
ATOM     63  C   UNL A   1      41.702  27.920  28.096  1.00  0.00     0.031 A 
ATOM     64  C   UNL A   1      39.854  26.633  28.951  1.00  0.00     0.131 A 
ATOM     65  C   UNL A   1      41.668  27.145  26.927  1.00  0.00     0.055 A 
ATOM     66  C   UNL A   1      39.879  25.813  27.820  1.00  0.00     0.041 A 
ATOM     67  F   UNL A   1      38.918  26.382  29.880  1.00  0.00    -0.206 F 
ATOM     68  C   UNL A   1      40.779  26.078  26.792  1.00  0.00     0.022 A 
BRANCH  65  69
ATOM     69  S   UNL A   1      42.703  27.647  25.525  1.00  0.00     0.124 S 
ATOM     70  O   UNL A   1      43.985  27.899  26.181  1.00  0.00    -0.237 OA
ATOM     71  O   UNL A   1      42.648  26.477  24.656  1.00  0.00    -0.237 OA
ATOM     72  O   UNL A   1      42.031  28.839  25.012  1.00  0.00    -0.744 OA
ENDBRANCH  65  69
ENDBRANCH  48  62
BRANCH  49  73
ATOM     73  C   UNL A   1      39.583  33.569  37.151  1.00  0.00     0.023 A 
ATOM     74  C   UNL A   1      40.366  34.709  37.387  1.00  0.00     0.031 A 
ATOM     75  C   UNL A   1      38.628  33.212  38.120  1.00  0.00     0.131 A 
ATOM     76  C   UNL A   1      40.215  35.427  38.584  1.00  0.00     0.055 A 
ATOM     77  C   UNL A   1      38.446  33.958  39.286  1.00  0.00     0.041 A 
ATOM     78  F   UNL A   1      37.847  32.135  37.938  1.00  0.00    -0.206 F 
ATOM     79  C   UNL A   1      39.251  35.066  39.529  1.00  0.00     0.022 A 
BRANCH  76  80
ATOM     80  S   UNL A   1      41.349  36.801  38.922  1.00  0.00     0.124 S 
ATOM     81  O   UNL A   1      42.115  36.284  40.049  1.00  0.00    -0.237 OA
ATOM     82  O   UNL A   1      42.067  36.919  37.657  1.00  0.00    -0.237 OA
ATOM     83  O   UNL A   1      40.453  37.913  39.233  1.00  0.00    -0.744 OA
ENDBRANCH  76  80
ENDBRANCH  49  73
BRANCH  61  84
ATOM     84  C   UNL A   1      44.134  28.564  35.480  1.00  0.00     0.023 A 
ATOM     85  C   UNL A   1      44.004  27.517  36.411  1.00  0.00     0.031 A 
ATOM     86  C   UNL A   1      45.415  29.098  35.257  1.00  0.00     0.131 A 
ATOM     87  C   UNL A   1      45.129  27.077  37.125  1.00  0.00     0.055 A 
ATOM     88  C   UNL A   1      46.539  28.616  35.929  1.00  0.00     0.041 A 
ATOM     89  F   UNL A   1      45.595  30.099  34.381  1.00  0.00    -0.206 F 
ATOM     90  C   UNL A   1      46.397  27.608  36.879  1.00  0.00     0.022 A 
BRANCH  87  91
ATOM     91  S   UNL A   1      44.896  25.857  38.449  1.00  0.00     0.124 S 
ATOM     92  O   UNL A   1      44.208  24.777  37.749  1.00  0.00    -0.237 OA
ATOM     93  O   UNL A   1      46.267  25.579  38.861  1.00  0.00    -0.237 OA
ATOM     94  O   UNL A   1      44.086  26.572  39.434  1.00  0.00    -0.744 OA
ENDBRANCH  87  91
ENDBRANCH  61  84
ENDBRANCH  35  36
ENDBRANCH  27  30
ENDBRANCH  25  26
ENDBRANCH  24  25
ENDBRANCH   1  24
TORSDOF 20
ENDMDL
MODEL 2
REMARK VINA RESULT:     -10.6      6.763     12.268
REMARK SMILES [NH3+][C@H](C(=O)NCCCCCCNC(=O)c1ccc(-c2c3nc(c(-c4cc(S(=O)(=O)[O-])ccc4F)c4ccc([nH]4)c(-c4cc(S(=O)(=O)[O-])ccc4F)c4nc(c(-c5cc(S(=O)(=O)[O-])ccc5F)c5ccc2[nH]5)C=C4)C=C3)cc1)[C@H](O)c1ccc(F)cc1
REMARK SMILES IDX 9 1 8 2 7 3 6 4 5 5 3 6 4 7 2 9 1 10 78 14 80 15 81 16 86 17
REMARK SMILES IDX 82 18 85 19 83 20 84 21 79 22 10 24 11 25 12 26 13 27 14 29
REMARK SMILES IDX 15 30 16 31 77 32 17 33 76 34 18 35 19 36 20 37 70 38 21 39
REMARK SMILES IDX 75 40 69 41 71 42 22 43 74 44 68 45 67 46 23 48 55 49 35 50
REMARK SMILES IDX 54 51 36 52 39 53 53 54 72 55 37 56 38 57 52 59 73 60 40 61
REMARK SMILES IDX 24 62 25 63 33 64 26 65 32 66 34 67 31 68 27 69 28 70 29 71
REMARK SMILES IDX 30 72 56 73 57 74 65 75 58 76 64 77 66 78 63 79 59 80 60 81
REMARK SMILES IDX 61 82 62 83 41 84 42 85 50 86 43 87 49 88 51 89 48 90 44 91
REMARK SMILES IDX 45 92 46 93 47 94
REMARK H PARENT 5 8 1 11 1 12 1 13 79 23 12 28 71 47 39 58
REMARK Flexibility Score: inf
ROOT
ATOM      1  C   UNL A   1      37.380  20.909  24.553  1.00  0.00     0.002 C 
ENDROOT
BRANCH   1   2
ATOM      2  C   UNL A   1      36.648  21.659  25.670  1.00  0.00     0.002 C 
BRANCH   2   3
ATOM      3  C   UNL A   1      36.620  23.183  25.526  1.00  0.00     0.021 C 
BRANCH   3   4
ATOM      4  C   UNL A   1      35.907  23.688  24.270  1.00  0.00     0.116 C 
BRANCH   4   5
ATOM      5  N   UNL A   1      34.626  24.269  24.625  1.00  0.00    -0.351 N 
ATOM      6  C   UNL A   1      33.444  23.752  25.016  1.00  0.00     0.281 C 
ATOM      7  O   UNL A   1      32.492  24.555  24.967  1.00  0.00    -0.268 OA
ATOM      8  H   UNL A   1      34.618  25.251  24.567  1.00  0.00     0.163 HD
BRANCH   6   9
ATOM      9  C   UNL A   1      33.157  22.335  25.593  1.00  0.00     0.304 C 
BRANCH   9  10
ATOM     10  N   UNL A   1      32.799  22.501  27.041  1.00  0.00    -0.345 N 
ATOM     11  H   UNL A   1      32.371  23.416  27.182  1.00  0.00     0.345 HD
ATOM     12  H   UNL A   1      33.643  22.428  27.610  1.00  0.00     0.345 HD
ATOM     13  H   UNL A   1      32.141  21.771  27.314  1.00  0.00     0.345 HD
ENDBRANCH   9  10
BRANCH   9  14
ATOM     14  C   UNL A   1      32.267  21.259  24.928  1.00  0.00     0.212 C 
BRANCH  14  15
ATOM     15  C   UNL A   1      32.853  19.961  24.394  1.00  0.00    -0.013 A 
ATOM     16  C   UNL A   1      34.001  19.343  24.913  1.00  0.00     0.009 A 
ATOM     17  C   UNL A   1      32.200  19.336  23.311  1.00  0.00     0.009 A 
ATOM     18  C   UNL A   1      34.455  18.126  24.394  1.00  0.00     0.039 A 
ATOM     19  C   UNL A   1      32.665  18.131  22.780  1.00  0.00     0.039 A 
ATOM     20  C   UNL A   1      33.785  17.533  23.334  1.00  0.00     0.123 A 
ATOM     21  F   UNL A   1      34.226  16.368  22.843  1.00  0.00    -0.207 F 
ENDBRANCH  14  15
BRANCH  14  22
ATOM     22  O   UNL A   1      31.127  20.962  25.749  1.00  0.00    -0.382 OA
ATOM     23  H   UNL A   1      30.314  21.134  25.248  1.00  0.00     0.211 HD
ENDBRANCH  14  22
ENDBRANCH   9  14
ENDBRANCH   6   9
ENDBRANCH   4   5
ENDBRANCH   3   4
ENDBRANCH   2   3
ENDBRANCH   1   2
BRANCH   1  24
ATOM     24  C   UNL A   1      38.262  19.741  25.005  1.00  0.00     0.021 C 
BRANCH  24  25
ATOM     25  C   UNL A   1      39.292  20.076  26.081  1.00  0.00     0.116 C 
BRANCH  25  26
ATOM     26  N   UNL A   1      40.437  19.183  26.042  1.00  0.00    -0.352 N 
ATOM     27  C   UNL A   1      41.776  19.475  26.053  1.00  0.00     0.251 C 
ATOM     28  H   UNL A   1      40.218  18.224  26.002  1.00  0.00     0.163 HD
ATOM     29  O   UNL A   1      42.590  18.582  25.809  1.00  0.00    -0.269 OA
BRANCH  27  30
ATOM     30  C   UNL A   1      42.244  20.849  26.333  1.00  0.00     0.039 A 
ATOM     31  C   UNL A   1      42.509  21.213  27.658  1.00  0.00     0.014 A 
ATOM     32  C   UNL A   1      42.390  21.790  25.309  1.00  0.00     0.014 A 
ATOM     33  C   UNL A   1      42.968  22.500  27.948  1.00  0.00     0.010 A 
ATOM     34  C   UNL A   1      42.909  23.053  25.592  1.00  0.00     0.010 A 
ATOM     35  C   UNL A   1      43.195  23.424  26.916  1.00  0.00    -0.014 A 
BRANCH  35  36
ATOM     36  C   UNL A   1      43.712  24.787  27.207  1.00  0.00     0.031 A 
ATOM     37  C   UNL A   1      42.786  25.845  27.744  1.00  0.00     0.074 A 
ATOM     38  C   UNL A   1      44.999  25.085  26.941  1.00  0.00     0.049 A 
ATOM     39  N   UNL A   1      43.028  27.105  28.003  1.00  0.00    -0.248 NA
ATOM     40  C   UNL A   1      41.397  25.435  27.997  1.00  0.00     0.031 C 
ATOM     41  C   UNL A   1      45.983  24.155  26.385  1.00  0.00     0.029 A 
ATOM     42  N   UNL A   1      45.699  26.255  27.095  1.00  0.00    -0.354 N 
ATOM     43  C   UNL A   1      41.820  27.643  28.436  1.00  0.00     0.074 A 
ATOM     44  C   UNL A   1      40.837  26.583  28.348  1.00  0.00     0.031 C 
ATOM     45  C   UNL A   1      47.163  24.784  26.262  1.00  0.00     0.029 A 
ATOM     46  C   UNL A   1      47.012  26.170  26.693  1.00  0.00     0.049 A 
ATOM     47  H   UNL A   1      45.300  27.077  27.460  1.00  0.00     0.167 HD
ATOM     48  C   UNL A   1      41.560  28.896  28.884  1.00  0.00     0.034 A 
ATOM     49  C   UNL A   1      47.981  27.106  26.666  1.00  0.00     0.034 A 
ATOM     50  C   UNL A   1      42.554  29.937  28.978  1.00  0.00     0.049 A 
ATOM     51  C   UNL A   1      47.667  28.496  27.157  1.00  0.00     0.074 A 
ATOM     52  C   UNL A   1      42.413  31.227  29.463  1.00  0.00     0.029 A 
ATOM     53  N   UNL A   1      43.876  29.813  28.569  1.00  0.00    -0.354 N 
ATOM     54  N   UNL A   1      46.530  28.976  27.608  1.00  0.00    -0.248 NA
ATOM     55  C   UNL A   1      48.770  29.465  27.151  1.00  0.00     0.031 C 
ATOM     56  C   UNL A   1      43.630  31.897  29.294  1.00  0.00     0.029 A 
ATOM     57  C   UNL A   1      44.553  31.008  28.768  1.00  0.00     0.049 A 
ATOM     58  H   UNL A   1      44.275  28.996  28.192  1.00  0.00     0.167 HD
ATOM     59  C   UNL A   1      46.792  30.296  27.964  1.00  0.00     0.074 A 
ATOM     60  C   UNL A   1      48.195  30.529  27.691  1.00  0.00     0.031 C 
ATOM     61  C   UNL A   1      45.950  31.230  28.478  1.00  0.00     0.034 A 
BRANCH  48  62
ATOM     62  C   UNL A   1      40.135  29.208  29.281  1.00  0.00     0.023 A 
ATOM     63  C   UNL A   1      39.740  29.271  30.628  1.00  0.00     0.031 A 
ATOM     64  C   UNL A   1      39.149  29.409  28.297  1.00  0.00     0.131 A 
ATOM     65  C   UNL A   1      38.387  29.447  30.956  1.00  0.00     0.055 A 
ATOM     66  C   UNL A   1      37.817  29.666  28.632  1.00  0.00     0.041 A 
ATOM     67  F   UNL A   1      39.460  29.341  26.993  1.00  0.00    -0.206 F 
ATOM     68  C   UNL A   1      37.427  29.670  29.967  1.00  0.00     0.022 A 
BRANCH  65  69
ATOM     69  S   UNL A   1      37.879  29.235  32.684  1.00  0.00     0.124 S 
ATOM     70  O   UNL A   1      37.756  27.781  32.778  1.00  0.00    -0.237 OA
ATOM     71  O   UNL A   1      38.991  29.830  33.416  1.00  0.00    -0.237 OA
ATOM     72  O   UNL A   1      36.616  29.966  32.762  1.00  0.00    -0.744 OA
ENDBRANCH  65  69
ENDBRANCH  48  62
BRANCH  49  73
ATOM     73  C   UNL A   1      49.339  26.771  26.152  1.00  0.00     0.023 A 
ATOM     74  C   UNL A   1      49.767  27.220  24.893  1.00  0.00     0.031 A 
ATOM     75  C   UNL A   1      50.217  25.967  26.900  1.00  0.00     0.131 A 
ATOM     76  C   UNL A   1      51.018  26.823  24.397  1.00  0.00     0.055 A 
ATOM     77  C   UNL A   1      51.481  25.615  26.424  1.00  0.00     0.041 A 
ATOM     78  F   UNL A   1      49.859  25.519  28.114  1.00  0.00    -0.206 F 
ATOM     79  C   UNL A   1      51.883  26.034  25.159  1.00  0.00     0.022 A 
BRANCH  76  80
ATOM     80  S   UNL A   1      51.471  27.294  22.705  1.00  0.00     0.124 S 
ATOM     81  O   UNL A   1      51.562  28.745  22.815  1.00  0.00    -0.237 OA
ATOM     82  O   UNL A   1      52.733  26.583  22.520  1.00  0.00    -0.237 OA
ATOM     83  O   UNL A   1      50.356  26.796  21.903  1.00  0.00    -0.744 OA
ENDBRANCH  76  80
ENDBRANCH  49  73
BRANCH  61  84
ATOM     84  C   UNL A   1      46.547  32.573  28.816  1.00  0.00     0.023 A 
ATOM     85  C   UNL A   1      46.493  33.655  27.919  1.00  0.00     0.031 A 
ATOM     86  C   UNL A   1      47.197  32.766  30.048  1.00  0.00     0.131 A 
ATOM     87  C   UNL A   1      47.129  34.862  28.243  1.00  0.00     0.055 A 
ATOM     88  C   UNL A   1      47.778  33.988  30.388  1.00  0.00     0.041 A 
ATOM     89  F   UNL A   1      47.280  31.767  30.941  1.00  0.00    -0.206 F 
ATOM     90  C   UNL A   1      47.758  35.040  29.478  1.00  0.00     0.022 A 
BRANCH  87  91
ATOM     91  S   UNL A   1      47.202  36.172  26.989  1.00  0.00     0.124 S 
ATOM     92  O   UNL A   1      48.540  36.717  27.197  1.00  0.00    -0.237 OA
ATOM     93  O   UNL A   1      47.002  35.429  25.750  1.00  0.00    -0.237 OA
ATOM     94  O   UNL A   1      46.105  37.063  27.361  1.00  0.00    -0.744 OA
ENDBRANCH  87  91
ENDBRANCH  61  84
ENDBRANCH  35  36
ENDBRANCH  27  30
ENDBRANCH  25  26
ENDBRANCH  24  25
ENDBRANCH   1  24
TORSDOF 20
ENDMDL
MODEL 3
REMARK VINA RESULT:     -10.6      6.230      9.191
REMARK SMILES [NH3+][C@H](C(=O)NCCCCCCNC(=O)c1ccc(-c2c3nc(c(-c4cc(S(=O)(=O)[O-])ccc4F)c4ccc([nH]4)c(-c4cc(S(=O)(=O)[O-])ccc4F)c4nc(c(-c5cc(S(=O)(=O)[O-])ccc5F)c5ccc2[nH]5)C=C4)C=C3)cc1)[C@H](O)c1ccc(F)cc1
REMARK SMILES IDX 9 1 8 2 7 3 6 4 5 5 3 6 4 7 2 9 1 10 78 14 80 15 81 16 86 17
REMARK SMILES IDX 82 18 85 19 83 20 84 21 79 22 10 24 11 25 12 26 13 27 14 29
REMARK SMILES IDX 15 30 16 31 77 32 17 33 76 34 18 35 19 36 20 37 70 38 21 39
REMARK SMILES IDX 75 40 69 41 71 42 22 43 74 44 68 45 67 46 23 48 55 49 35 50
REMARK SMILES IDX 54 51 36 52 39 53 53 54 72 55 37 56 38 57 52 59 73 60 40 61
REMARK SMILES IDX 24 62 25 63 33 64 26 65 32 66 34 67 31 68 27 69 28 70 29 71
REMARK SMILES IDX 30 72 56 73 57 74 65 75 58 76 64 77 66 78 63 79 59 80 60 81
REMARK SMILES IDX 61 82 62 83 41 84 42 85 50 86 43 87 49 88 51 89 48 90 44 91
REMARK SMILES IDX 45 92 46 93 47 94
REMARK H PARENT 5 8 1 11 1 12 1 13 79 23 12 28 71 47 39 58
REMARK Flexibility Score: inf
ROOT
ATOM      1  C   UNL A   1      35.448  22.649  23.674  1.00  0.00     0.002 C 
ENDROOT
BRANCH   1   2
ATOM      2  C   UNL A   1      34.347  23.548  23.103  1.00  0.00     0.002 C 
BRANCH   2   3
ATOM      3  C   UNL A   1      33.362  22.855  22.158  1.00  0.00     0.021 C 
BRANCH   3   4
ATOM      4  C   UNL A   1      32.138  22.252  22.849  1.00  0.00     0.116 C 
BRANCH   4   5
ATOM      5  N   UNL A   1      32.266  20.809  22.920  1.00  0.00    -0.351 N 
ATOM      6  C   UNL A   1      32.582  19.948  23.908  1.00  0.00     0.281 C 
ATOM      7  O   UNL A   1      32.857  18.798  23.518  1.00  0.00    -0.268 OA
ATOM      8  H   UNL A   1      32.082  20.362  22.063  1.00  0.00     0.163 HD
BRANCH   6   9
ATOM      9  C   UNL A   1      32.555  20.196  25.446  1.00  0.00     0.304 C 
BRANCH   9  10
ATOM     10  N   UNL A   1      32.880  18.895  26.119  1.00  0.00    -0.345 N 
ATOM     11  H   UNL A   1      33.810  18.950  26.534  1.00  0.00     0.345 HD
ATOM     12  H   UNL A   1      32.859  18.142  25.430  1.00  0.00     0.345 HD
ATOM     13  H   UNL A   1      32.192  18.708  26.847  1.00  0.00     0.345 HD
ENDBRANCH   9  10
BRANCH   9  14
ATOM     14  C   UNL A   1      33.238  21.377  26.176  1.00  0.00     0.212 C 
BRANCH  14  15
ATOM     15  C   UNL A   1      32.582  22.746  26.259  1.00  0.00    -0.013 A 
ATOM     16  C   UNL A   1      33.287  23.951  26.406  1.00  0.00     0.009 A 
ATOM     17  C   UNL A   1      31.175  22.811  26.179  1.00  0.00     0.009 A 
ATOM     18  C   UNL A   1      32.614  25.175  26.433  1.00  0.00     0.039 A 
ATOM     19  C   UNL A   1      30.501  24.033  26.225  1.00  0.00     0.039 A 
ATOM     20  C   UNL A   1      31.229  25.206  26.343  1.00  0.00     0.123 A 
ATOM     21  F   UNL A   1      30.592  26.383  26.368  1.00  0.00    -0.207 F 
ENDBRANCH  14  15
BRANCH  14  22
ATOM     22  O   UNL A   1      33.678  20.981  27.484  1.00  0.00    -0.382 OA
ATOM     23  H   UNL A   1      33.849  21.772  28.020  1.00  0.00     0.211 HD
ENDBRANCH  14  22
ENDBRANCH   9  14
ENDBRANCH   6   9
ENDBRANCH   4   5
ENDBRANCH   3   4
ENDBRANCH   2   3
ENDBRANCH   1   2
BRANCH   1  24
ATOM     24  C   UNL A   1      36.597  23.376  24.381  1.00  0.00     0.021 C 
BRANCH  24  25
ATOM     25  C   UNL A   1      36.835  22.970  25.833  1.00  0.00     0.116 C 
BRANCH  25  26
ATOM     26  N   UNL A   1      37.918  22.011  25.966  1.00  0.00    -0.352 N 
ATOM     27  C   UNL A   1      39.238  22.217  26.271  1.00  0.00     0.251 C 
ATOM     28  H   UNL A   1      37.665  21.071  25.814  1.00  0.00     0.163 HD
ATOM     29  O   UNL A   1      40.040  21.291  26.135  1.00  0.00    -0.269 OA
BRANCH  27  30
ATOM     30  C   UNL A   1      39.705  23.540  26.739  1.00  0.00     0.039 A 
ATOM     31  C   UNL A   1      39.809  24.583  25.812  1.00  0.00     0.014 A 
ATOM     32  C   UNL A   1      40.073  23.752  28.071  1.00  0.00     0.014 A 
ATOM     33  C   UNL A   1      40.232  25.846  26.230  1.00  0.00     0.010 A 
ATOM     34  C   UNL A   1      40.434  25.028  28.500  1.00  0.00     0.010 A 
ATOM     35  C   UNL A   1      40.526  26.087  27.582  1.00  0.00    -0.014 A 
BRANCH  35  36
ATOM     36  C   UNL A   1      40.948  27.434  28.046  1.00  0.00     0.031 A 
ATOM     37  C   UNL A   1      42.408  27.801  28.065  1.00  0.00     0.074 A 
ATOM     38  C   UNL A   1      40.025  28.306  28.497  1.00  0.00     0.049 A 
ATOM     39  N   UNL A   1      42.982  28.898  28.490  1.00  0.00    -0.248 NA
ATOM     40  C   UNL A   1      43.347  26.787  27.564  1.00  0.00     0.031 C 
ATOM     41  C   UNL A   1      38.585  28.052  28.562  1.00  0.00     0.029 A 
ATOM     42  N   UNL A   1      40.160  29.578  28.993  1.00  0.00    -0.354 N 
ATOM     43  C   UNL A   1      44.349  28.702  28.321  1.00  0.00     0.074 A 
ATOM     44  C   UNL A   1      44.517  27.358  27.808  1.00  0.00     0.031 C 
ATOM     45  C   UNL A   1      37.968  29.140  29.051  1.00  0.00     0.029 A 
ATOM     46  C   UNL A   1      38.968  30.153  29.370  1.00  0.00     0.049 A 
ATOM     47  H   UNL A   1      41.027  30.037  29.071  1.00  0.00     0.167 HD
ATOM     48  C   UNL A   1      45.367  29.568  28.552  1.00  0.00     0.034 A 
ATOM     49  C   UNL A   1      38.712  31.357  29.919  1.00  0.00     0.034 A 
ATOM     50  C   UNL A   1      45.182  30.909  29.051  1.00  0.00     0.049 A 
ATOM     51  C   UNL A   1      39.860  32.300  30.178  1.00  0.00     0.074 A 
ATOM     52  C   UNL A   1      46.136  31.888  29.274  1.00  0.00     0.029 A 
ATOM     53  N   UNL A   1      43.959  31.460  29.414  1.00  0.00    -0.354 N 
ATOM     54  N   UNL A   1      41.143  32.116  29.969  1.00  0.00    -0.248 NA
ATOM     55  C   UNL A   1      39.522  33.616  30.733  1.00  0.00     0.031 C 
ATOM     56  C   UNL A   1      45.500  33.006  29.825  1.00  0.00     0.029 A 
ATOM     57  C   UNL A   1      44.138  32.753  29.882  1.00  0.00     0.049 A 
ATOM     58  H   UNL A   1      43.092  31.000  29.349  1.00  0.00     0.167 HD
ATOM     59  C   UNL A   1      41.761  33.306  30.341  1.00  0.00     0.074 A 
ATOM     60  C   UNL A   1      40.708  34.203  30.772  1.00  0.00     0.031 C 
ATOM     61  C   UNL A   1      43.079  33.632  30.322  1.00  0.00     0.034 A 
BRANCH  48  62
ATOM     62  C   UNL A   1      46.771  29.073  28.288  1.00  0.00     0.023 A 
ATOM     63  C   UNL A   1      47.240  28.844  26.983  1.00  0.00     0.031 A 
ATOM     64  C   UNL A   1      47.640  28.791  29.357  1.00  0.00     0.131 A 
ATOM     65  C   UNL A   1      48.507  28.274  26.782  1.00  0.00     0.055 A 
ATOM     66  C   UNL A   1      48.931  28.301  29.147  1.00  0.00     0.041 A 
ATOM     67  F   UNL A   1      47.243  28.970  30.627  1.00  0.00    -0.206 F 
ATOM     68  C   UNL A   1      49.365  28.025  27.854  1.00  0.00     0.022 A 
BRANCH  65  69
ATOM     69  S   UNL A   1      48.957  27.730  25.111  1.00  0.00     0.124 S 
ATOM     70  O   UNL A   1      48.980  26.277  25.272  1.00  0.00    -0.237 OA
ATOM     71  O   UNL A   1      47.870  28.266  24.301  1.00  0.00    -0.237 OA
ATOM     72  O   UNL A   1      50.264  28.345  24.891  1.00  0.00    -0.744 OA
ENDBRANCH  65  69
ENDBRANCH  48  62
BRANCH  49  73
ATOM     73  C   UNL A   1      37.316  31.746  30.269  1.00  0.00     0.023 A 
ATOM     74  C   UNL A   1      36.437  32.238  29.292  1.00  0.00     0.031 A 
ATOM     75  C   UNL A   1      36.854  31.664  31.594  1.00  0.00     0.131 A 
ATOM     76  C   UNL A   1      35.155  32.674  29.661  1.00  0.00     0.055 A 
ATOM     77  C   UNL A   1      35.561  32.052  31.948  1.00  0.00     0.041 A 
ATOM     78  F   UNL A   1      37.653  31.192  32.564  1.00  0.00    -0.206 F 
ATOM     79  C   UNL A   1      34.707  32.573  30.980  1.00  0.00     0.022 A 
BRANCH  76  80
ATOM     80  S   UNL A   1      34.104  33.446  28.401  1.00  0.00     0.124 S 
ATOM     81  O   UNL A   1      33.221  34.272  29.216  1.00  0.00    -0.237 OA
ATOM     82  O   UNL A   1      35.082  34.161  27.587  1.00  0.00    -0.237 OA
ATOM     83  O   UNL A   1      33.465  32.307  27.746  1.00  0.00    -0.744 OA
ENDBRANCH  76  80
ENDBRANCH  49  73
BRANCH  61  84
ATOM     84  C   UNL A   1      43.441  35.036  30.740  1.00  0.00     0.023 A 
ATOM     85  C   UNL A   1      43.432  36.106  29.827  1.00  0.00     0.031 A 
ATOM     86  C   UNL A   1      43.822  35.300  32.067  1.00  0.00     0.131 A 
ATOM     87  C   UNL A   1      43.851  37.379  30.241  1.00  0.00     0.055 A 
ATOM     88  C   UNL A   1      44.182  36.581  32.486  1.00  0.00     0.041 A 
ATOM     89  F   UNL A   1      43.851  34.315  32.979  1.00  0.00    -0.206 F 
ATOM     90  C   UNL A   1      44.211  37.627  31.568  1.00  0.00     0.022 A 
BRANCH  87  91
ATOM     91  S   UNL A   1      44.005  38.692  28.997  1.00  0.00     0.124 S 
ATOM     92  O   UNL A   1      42.792  39.471  29.227  1.00  0.00    -0.237 OA
ATOM     93  O   UNL A   1      45.258  39.334  29.376  1.00  0.00    -0.237 OA
ATOM     94  O   UNL A   1      44.041  37.961  27.731  1.00  0.00    -0.744 OA
ENDBRANCH  87  91
ENDBRANCH  61  84
ENDBRANCH  35  36
ENDBRANCH  27  30
ENDBRANCH  25  26
ENDBRANCH  24  25
ENDBRANCH   1  24
TORSDOF 20
ENDMDL
