MODEL 1
REMARK VINA RESULT:     -12.0      0.000      0.000
REMARK SMILES O=C(NCCCCCCNC(=O)[C@H]1CC=CC[C@@H]1C(=O)N[C@@H]1CCCN(c2ccccc2F)C1=O)c1ccc(-c2c3nc(c(-c4cc(S(=O)(=O)[O-])ccc4F)c4ccc([nH]4)c(-c4cc(S(=O)(=O)[O-])ccc4F)c4nc(c(-c5cc(S(=O)(=O)[O-])ccc5F)c5ccc2[nH]5)C=C4)C=C3)cc1
REMARK SMILES IDX 6 1 5 2 4 3 3 4 1 5 2 6 36 8 37 9 98 10 38 11 97 12 39 13
REMARK SMILES IDX 40 14 41 15 91 16 42 17 96 18 90 19 92 20 43 21 95 22 89 23
REMARK SMILES IDX 88 24 44 26 76 27 56 28 75 29 57 30 60 31 74 32 93 33 58 34
REMARK SMILES IDX 59 35 73 37 94 38 61 39 45 40 46 41 54 42 47 43 53 44 55 45
REMARK SMILES IDX 52 46 48 47 49 48 50 49 51 50 77 51 78 52 86 53 79 54 85 55
REMARK SMILES IDX 87 56 84 57 80 58 81 59 82 60 83 61 62 62 63 63 71 64 64 65
REMARK SMILES IDX 70 66 72 67 69 68 65 69 66 70 67 71 68 72 7 73 8 74 9 75
REMARK SMILES IDX 10 76 11 77 12 79 13 80 14 81 18 82 15 83 17 84 16 85 19 86
REMARK SMILES IDX 20 87 21 88 22 90 23 91 34 92 24 93 26 94 35 95 25 96 27 97
REMARK SMILES IDX 28 98 32 99 29 100 31 101 33 102 30 103
REMARK H PARENT 3 7 92 25 60 36 10 78 21 89
REMARK Flexibility Score: inf
ROOT
ATOM      1  C   UNL A   1      35.147  31.604  28.094  1.00  0.00     0.002 C 
ENDROOT
BRANCH   1   2
ATOM      2  C   UNL A   1      33.791  32.303  28.006  1.00  0.00     0.021 C 
BRANCH   2   3
ATOM      3  C   UNL A   1      33.853  33.803  27.762  1.00  0.00     0.116 C 
BRANCH   3   4
ATOM      4  N   UNL A   1      33.128  34.575  28.758  1.00  0.00    -0.352 N 
ATOM      5  O   UNL A   1      32.622  35.284  30.844  1.00  0.00    -0.269 OA
ATOM      6  C   UNL A   1      33.395  34.689  30.106  1.00  0.00     0.251 C 
ATOM      7  H   UNL A   1      32.350  35.081  28.429  1.00  0.00     0.163 HD
BRANCH   6   8
ATOM      8  C   UNL A   1      34.617  34.053  30.651  1.00  0.00     0.039 A 
ATOM      9  C   UNL A   1      35.878  34.525  30.283  1.00  0.00     0.014 A 
ATOM     10  C   UNL A   1      34.497  32.955  31.508  1.00  0.00     0.014 A 
ATOM     11  C   UNL A   1      37.011  33.811  30.649  1.00  0.00     0.010 A 
ATOM     12  C   UNL A   1      35.647  32.294  31.952  1.00  0.00     0.010 A 
ATOM     13  C   UNL A   1      36.913  32.699  31.503  1.00  0.00    -0.014 A 
BRANCH  13  14
ATOM     14  C   UNL A   1      38.165  32.042  31.958  1.00  0.00     0.031 A 
ATOM     15  C   UNL A   1      38.760  32.328  33.308  1.00  0.00     0.074 A 
ATOM     16  C   UNL A   1      38.720  31.115  31.154  1.00  0.00     0.049 A 
ATOM     17  N   UNL A   1      39.795  31.769  33.882  1.00  0.00    -0.248 NA
ATOM     18  C   UNL A   1      38.125  33.380  34.114  1.00  0.00     0.031 C 
ATOM     19  C   UNL A   1      38.228  30.766  29.817  1.00  0.00     0.029 A 
ATOM     20  N   UNL A   1      39.777  30.265  31.348  1.00  0.00    -0.354 N 
ATOM     21  C   UNL A   1      39.950  32.411  35.106  1.00  0.00     0.074 A 
ATOM     22  C   UNL A   1      38.913  33.419  35.181  1.00  0.00     0.031 C 
ATOM     23  C   UNL A   1      38.920  29.717  29.354  1.00  0.00     0.029 A 
ATOM     24  C   UNL A   1      39.952  29.366  30.323  1.00  0.00     0.049 A 
ATOM     25  H   UNL A   1      40.354  30.295  32.145  1.00  0.00     0.167 HD
ATOM     26  C   UNL A   1      40.870  32.174  36.072  1.00  0.00     0.034 A 
ATOM     27  C   UNL A   1      40.843  28.370  30.169  1.00  0.00     0.034 A 
ATOM     28  C   UNL A   1      41.885  31.150  35.985  1.00  0.00     0.049 A 
ATOM     29  C   UNL A   1      41.861  28.136  31.245  1.00  0.00     0.074 A 
ATOM     30  C   UNL A   1      42.838  30.801  36.928  1.00  0.00     0.029 A 
ATOM     31  N   UNL A   1      42.084  30.317  34.893  1.00  0.00    -0.354 N 
ATOM     32  N   UNL A   1      42.000  28.763  32.389  1.00  0.00    -0.248 NA
ATOM     33  C   UNL A   1      42.851  27.080  31.006  1.00  0.00     0.031 C 
ATOM     34  C   UNL A   1      43.648  29.799  36.383  1.00  0.00     0.029 A 
ATOM     35  C   UNL A   1      43.163  29.477  35.126  1.00  0.00     0.049 A 
ATOM     36  H   UNL A   1      41.540  30.321  34.074  1.00  0.00     0.167 HD
ATOM     37  C   UNL A   1      43.096  28.178  33.009  1.00  0.00     0.074 A 
ATOM     38  C   UNL A   1      43.576  27.141  32.116  1.00  0.00     0.031 C 
ATOM     39  C   UNL A   1      43.650  28.472  34.211  1.00  0.00     0.034 A 
BRANCH  26  40
ATOM     40  C   UNL A   1      40.856  33.064  37.290  1.00  0.00     0.023 A 
ATOM     41  C   UNL A   1      39.990  32.829  38.372  1.00  0.00     0.031 A 
ATOM     42  C   UNL A   1      41.735  34.159  37.373  1.00  0.00     0.131 A 
ATOM     43  C   UNL A   1      39.990  33.705  39.470  1.00  0.00     0.055 A 
ATOM     44  C   UNL A   1      41.773  34.989  38.494  1.00  0.00     0.041 A 
ATOM     45  F   UNL A   1      42.571  34.440  36.361  1.00  0.00    -0.206 F 
ATOM     46  C   UNL A   1      40.892  34.769  39.547  1.00  0.00     0.022 A 
BRANCH  43  47
ATOM     47  S   UNL A   1      38.730  33.488  40.756  1.00  0.00     0.124 S 
ATOM     48  O   UNL A   1      39.429  32.636  41.714  1.00  0.00    -0.237 OA
ATOM     49  O   UNL A   1      38.478  34.859  41.186  1.00  0.00    -0.237 OA
ATOM     50  O   UNL A   1      37.625  32.845  40.049  1.00  0.00    -0.744 OA
ENDBRANCH  43  47
ENDBRANCH  26  40
BRANCH  27  51
ATOM     51  C   UNL A   1      40.805  27.548  28.931  1.00  0.00     0.023 A 
ATOM     52  C   UNL A   1      41.710  27.773  27.883  1.00  0.00     0.031 A 
ATOM     53  C   UNL A   1      39.908  26.471  28.819  1.00  0.00     0.131 A 
ATOM     54  C   UNL A   1      41.701  26.925  26.765  1.00  0.00     0.055 A 
ATOM     55  C   UNL A   1      39.925  25.611  27.721  1.00  0.00     0.041 A 
ATOM     56  F   UNL A   1      39.038  26.208  29.807  1.00  0.00    -0.206 F 
ATOM     57  C   UNL A   1      40.827  25.836  26.685  1.00  0.00     0.022 A 
BRANCH  54  58
ATOM     58  S   UNL A   1      42.867  27.246  25.413  1.00  0.00     0.124 S 
ATOM     59  O   UNL A   1      44.084  27.582  26.145  1.00  0.00    -0.237 OA
ATOM     60  O   UNL A   1      42.875  25.971  24.703  1.00  0.00    -0.237 OA
ATOM     61  O   UNL A   1      42.248  28.353  24.687  1.00  0.00    -0.744 OA
ENDBRANCH  54  58
ENDBRANCH  27  51
BRANCH  39  62
ATOM     62  C   UNL A   1      44.837  27.653  34.637  1.00  0.00     0.023 A 
ATOM     63  C   UNL A   1      44.678  26.428  35.305  1.00  0.00     0.031 A 
ATOM     64  C   UNL A   1      46.138  28.086  34.328  1.00  0.00     0.131 A 
ATOM     65  C   UNL A   1      45.810  25.684  35.665  1.00  0.00     0.055 A 
ATOM     66  C   UNL A   1      47.258  27.322  34.654  1.00  0.00     0.041 A 
ATOM     67  F   UNL A   1      46.337  29.249  33.688  1.00  0.00    -0.206 F 
ATOM     68  C   UNL A   1      47.098  26.114  35.330  1.00  0.00     0.022 A 
BRANCH  65  69
ATOM     69  S   UNL A   1      45.586  24.141  36.593  1.00  0.00     0.124 S 
ATOM     70  O   UNL A   1      44.398  23.579  35.959  1.00  0.00    -0.237 OA
ATOM     71  O   UNL A   1      46.837  23.434  36.344  1.00  0.00    -0.237 OA
ATOM     72  O   UNL A   1      45.397  24.594  37.970  1.00  0.00    -0.744 OA
ENDBRANCH  65  69
ENDBRANCH  39  62
ENDBRANCH  13  14
ENDBRANCH   6   8
ENDBRANCH   3   4
ENDBRANCH   2   3
ENDBRANCH   1   2
BRANCH   1  73
ATOM     73  C   UNL A   1      35.135  30.100  27.806  1.00  0.00     0.002 C 
BRANCH  73  74
ATOM     74  C   UNL A   1      33.996  29.593  26.909  1.00  0.00     0.021 C 
BRANCH  74  75
ATOM     75  C   UNL A   1      33.889  28.075  26.784  1.00  0.00     0.116 C 
BRANCH  75  76
ATOM     76  N   UNL A   1      32.521  27.621  26.958  1.00  0.00    -0.356 N 
ATOM     77  C   UNL A   1      31.896  26.512  26.478  1.00  0.00     0.224 C 
ATOM     78  H   UNL A   1      31.957  28.207  27.513  1.00  0.00     0.163 HD
ATOM     79  O   UNL A   1      30.688  26.404  26.701  1.00  0.00    -0.275 OA
BRANCH  77  80
ATOM     80  C   UNL A   1      32.684  25.472  25.681  1.00  0.00     0.095 C 
ATOM     81  C   UNL A   1      33.033  24.254  26.562  1.00  0.00     0.041 C 
ATOM     82  C   UNL A   1      31.890  25.077  24.408  1.00  0.00     0.095 C 
ATOM     83  C   UNL A   1      31.891  23.308  26.756  1.00  0.00    -0.030 C 
ATOM     84  C   UNL A   1      30.719  24.120  24.709  1.00  0.00     0.041 C 
ATOM     85  C   UNL A   1      30.838  23.270  25.933  1.00  0.00    -0.030 C 
BRANCH  82  86
ATOM     86  C   UNL A   1      32.814  24.497  23.343  1.00  0.00     0.224 C 
ATOM     87  O   UNL A   1      33.137  23.309  23.329  1.00  0.00    -0.275 OA
ATOM     88  N   UNL A   1      33.311  25.289  22.354  1.00  0.00    -0.344 N 
ATOM     89  H   UNL A   1      33.780  24.795  21.642  1.00  0.00     0.164 HD
BRANCH  88  90
ATOM     90  C   UNL A   1      33.278  26.745  22.146  1.00  0.00     0.172 C 
ATOM     91  C   UNL A   1      34.049  27.496  23.227  1.00  0.00     0.037 C 
ATOM     92  C   UNL A   1      31.784  27.145  21.998  1.00  0.00     0.249 C 
ATOM     93  C   UNL A   1      33.604  28.938  23.350  1.00  0.00     0.025 C 
ATOM     94  N   UNL A   1      31.327  28.268  22.689  1.00  0.00    -0.308 N 
ATOM     95  O   UNL A   1      31.074  26.505  21.214  1.00  0.00    -0.272 OA
ATOM     96  C   UNL A   1      32.133  28.960  23.689  1.00  0.00     0.126 C 
BRANCH  94  97
ATOM     97  C   UNL A   1      29.944  28.620  22.640  1.00  0.00     0.080 A 
ATOM     98  C   UNL A   1      29.537  29.736  21.897  1.00  0.00     0.029 A 
ATOM     99  C   UNL A   1      28.970  27.884  23.329  1.00  0.00     0.146 A 
ATOM    100  C   UNL A   1      28.186  30.087  21.825  1.00  0.00     0.002 A 
ATOM    101  C   UNL A   1      27.623  28.236  23.268  1.00  0.00     0.041 A 
ATOM    102  F   UNL A   1      29.324  26.880  24.148  1.00  0.00    -0.205 F 
ATOM    103  C   UNL A   1      27.229  29.336  22.509  1.00  0.00     0.003 A 
ENDBRANCH  94  97
ENDBRANCH  88  90
ENDBRANCH  82  86
ENDBRANCH  77  80
ENDBRANCH  75  76
ENDBRANCH  74  75
ENDBRANCH  73  74
ENDBRANCH   1  73
TORSDOF 19
ENDMDL
MODEL 2
REMARK VINA RESULT:     -11.7      5.774     11.410
REMARK SMILES O=C(NCCCCCCNC(=O)[C@H]1CC=CC[C@@H]1C(=O)N[C@@H]1CCCN(c2ccccc2F)C1=O)c1ccc(-c2c3nc(c(-c4cc(S(=O)(=O)[O-])ccc4F)c4ccc([nH]4)c(-c4cc(S(=O)(=O)[O-])ccc4F)c4nc(c(-c5cc(S(=O)(=O)[O-])ccc5F)c5ccc2[nH]5)C=C4)C=C3)cc1
REMARK SMILES IDX 6 1 5 2 4 3 3 4 1 5 2 6 36 8 37 9 98 10 38 11 97 12 39 13
REMARK SMILES IDX 40 14 41 15 91 16 42 17 96 18 90 19 92 20 43 21 95 22 89 23
REMARK SMILES IDX 88 24 44 26 76 27 56 28 75 29 57 30 60 31 74 32 93 33 58 34
REMARK SMILES IDX 59 35 73 37 94 38 61 39 45 40 46 41 54 42 47 43 53 44 55 45
REMARK SMILES IDX 52 46 48 47 49 48 50 49 51 50 77 51 78 52 86 53 79 54 85 55
REMARK SMILES IDX 87 56 84 57 80 58 81 59 82 60 83 61 62 62 63 63 71 64 64 65
REMARK SMILES IDX 70 66 72 67 69 68 65 69 66 70 67 71 68 72 7 73 8 74 9 75
REMARK SMILES IDX 10 76 11 77 12 79 13 80 14 81 18 82 15 83 17 84 16 85 19 86
REMARK SMILES IDX 20 87 21 88 22 90 23 91 34 92 24 93 26 94 35 95 25 96 27 97
REMARK SMILES IDX 28 98 32 99 29 100 31 101 33 102 30 103
REMARK H PARENT 3 7 92 25 60 36 10 78 21 89
REMARK Flexibility Score: inf
ROOT
ATOM      1  C   UNL A   1      36.359  21.152  25.141  1.00  0.00     0.002 C 
ENDROOT
BRANCH   1   2
ATOM      2  C   UNL A   1      37.727  20.602  24.741  1.00  0.00     0.021 C 
BRANCH   2   3
ATOM      3  C   UNL A   1      38.841  20.845  25.748  1.00  0.00     0.116 C 
BRANCH   3   4
ATOM      4  N   UNL A   1      39.791  19.747  25.826  1.00  0.00    -0.352 N 
ATOM      5  O   UNL A   1      41.840  18.806  25.986  1.00  0.00    -0.269 OA
ATOM      6  C   UNL A   1      41.147  19.810  26.068  1.00  0.00     0.251 C 
ATOM      7  H   UNL A   1      39.419  18.846  25.690  1.00  0.00     0.163 HD
BRANCH   6   8
ATOM      8  C   UNL A   1      41.755  21.119  26.399  1.00  0.00     0.039 A 
ATOM      9  C   UNL A   1      41.862  21.528  27.730  1.00  0.00     0.014 A 
ATOM     10  C   UNL A   1      42.189  21.957  25.368  1.00  0.00     0.014 A 
ATOM     11  C   UNL A   1      42.260  22.826  28.019  1.00  0.00     0.010 A 
ATOM     12  C   UNL A   1      42.681  23.231  25.669  1.00  0.00     0.010 A 
ATOM     13  C   UNL A   1      42.694  23.688  26.996  1.00  0.00    -0.014 A 
BRANCH  13  14
ATOM     14  C   UNL A   1      43.220  25.025  27.371  1.00  0.00     0.031 A 
ATOM     15  C   UNL A   1      44.628  25.437  27.046  1.00  0.00     0.074 A 
ATOM     16  C   UNL A   1      42.372  25.898  27.949  1.00  0.00     0.049 A 
ATOM     17  N   UNL A   1      45.204  26.599  27.227  1.00  0.00    -0.248 NA
ATOM     18  C   UNL A   1      45.508  24.420  26.452  1.00  0.00     0.031 C 
ATOM     19  C   UNL A   1      40.985  25.597  28.318  1.00  0.00     0.029 A 
ATOM     20  N   UNL A   1      42.524  27.218  28.284  1.00  0.00    -0.354 N 
ATOM     21  C   UNL A   1      46.516  26.451  26.790  1.00  0.00     0.074 A 
ATOM     22  C   UNL A   1      46.656  25.077  26.355  1.00  0.00     0.031 C 
ATOM     23  C   UNL A   1      40.390  26.720  28.739  1.00  0.00     0.029 A 
ATOM     24  C   UNL A   1      41.366  27.802  28.742  1.00  0.00     0.049 A 
ATOM     25  H   UNL A   1      43.378  27.701  28.204  1.00  0.00     0.167 HD
ATOM     26  C   UNL A   1      47.503  27.378  26.755  1.00  0.00     0.034 A 
ATOM     27  C   UNL A   1      41.112  29.066  29.128  1.00  0.00     0.034 A 
ATOM     28  C   UNL A   1      47.336  28.750  27.177  1.00  0.00     0.049 A 
ATOM     29  C   UNL A   1      42.224  30.071  29.094  1.00  0.00     0.074 A 
ATOM     30  C   UNL A   1      48.262  29.779  27.141  1.00  0.00     0.029 A 
ATOM     31  N   UNL A   1      46.173  29.281  27.715  1.00  0.00    -0.354 N 
ATOM     32  N   UNL A   1      43.462  29.908  28.691  1.00  0.00    -0.248 NA
ATOM     33  C   UNL A   1      41.916  31.420  29.583  1.00  0.00     0.031 C 
ATOM     34  C   UNL A   1      47.677  30.915  27.712  1.00  0.00     0.029 A 
ATOM     35  C   UNL A   1      46.367  30.614  28.046  1.00  0.00     0.049 A 
ATOM     36  H   UNL A   1      45.333  28.785  27.844  1.00  0.00     0.167 HD
ATOM     37  C   UNL A   1      44.084  31.135  28.878  1.00  0.00     0.074 A 
ATOM     38  C   UNL A   1      43.083  32.033  29.421  1.00  0.00     0.031 C 
ATOM     39  C   UNL A   1      45.368  31.485  28.618  1.00  0.00     0.034 A 
BRANCH  26  40
ATOM     40  C   UNL A   1      48.867  26.935  26.287  1.00  0.00     0.023 A 
ATOM     41  C   UNL A   1      49.406  27.359  25.060  1.00  0.00     0.031 A 
ATOM     42  C   UNL A   1      49.646  26.084  27.092  1.00  0.00     0.131 A 
ATOM     43  C   UNL A   1      50.666  26.894  24.653  1.00  0.00     0.055 A 
ATOM     44  C   UNL A   1      50.924  25.675  26.709  1.00  0.00     0.041 A 
ATOM     45  F   UNL A   1      49.174  25.635  28.265  1.00  0.00    -0.206 F 
ATOM     46  C   UNL A   1      51.438  26.073  25.479  1.00  0.00     0.022 A 
BRANCH  43  47
ATOM     47  S   UNL A   1      51.247  27.302  22.984  1.00  0.00     0.124 S 
ATOM     48  O   UNL A   1      51.302  28.760  23.038  1.00  0.00    -0.237 OA
ATOM     49  O   UNL A   1      52.532  26.615  22.919  1.00  0.00    -0.237 OA
ATOM     50  O   UNL A   1      50.206  26.756  22.116  1.00  0.00    -0.744 OA
ENDBRANCH  43  47
ENDBRANCH  26  40
BRANCH  27  51
ATOM     51  C   UNL A   1      39.746  29.420  29.594  1.00  0.00     0.023 A 
ATOM     52  C   UNL A   1      39.438  29.473  30.962  1.00  0.00     0.031 A 
ATOM     53  C   UNL A   1      38.752  29.790  28.671  1.00  0.00     0.131 A 
ATOM     54  C   UNL A   1      38.162  29.892  31.369  1.00  0.00     0.055 A 
ATOM     55  C   UNL A   1      37.496  30.237  29.082  1.00  0.00     0.041 A 
ATOM     56  F   UNL A   1      39.011  29.772  27.354  1.00  0.00    -0.206 F 
ATOM     57  C   UNL A   1      37.196  30.291  30.440  1.00  0.00     0.022 A 
BRANCH  54  58
ATOM     58  S   UNL A   1      37.779  29.935  33.142  1.00  0.00     0.124 S 
ATOM     59  O   UNL A   1      37.205  28.611  33.352  1.00  0.00    -0.237 OA
ATOM     60  O   UNL A   1      39.092  30.168  33.735  1.00  0.00    -0.237 OA
ATOM     61  O   UNL A   1      36.842  31.050  33.259  1.00  0.00    -0.744 OA
ENDBRANCH  54  58
ENDBRANCH  27  51
BRANCH  39  62
ATOM     62  C   UNL A   1      45.763  32.906  28.910  1.00  0.00     0.023 A 
ATOM     63  C   UNL A   1      45.681  33.905  27.927  1.00  0.00     0.031 A 
ATOM     64  C   UNL A   1      46.182  33.269  30.202  1.00  0.00     0.131 A 
ATOM     65  C   UNL A   1      46.037  35.223  28.246  1.00  0.00     0.055 A 
ATOM     66  C   UNL A   1      46.497  34.589  30.523  1.00  0.00     0.041 A 
ATOM     67  F   UNL A   1      46.273  32.348  31.174  1.00  0.00    -0.206 F 
ATOM     68  C   UNL A   1      46.430  35.575  29.542  1.00  0.00     0.022 A 
BRANCH  65  69
ATOM     69  S   UNL A   1      45.995  36.483  26.941  1.00  0.00     0.124 S 
ATOM     70  O   UNL A   1      46.252  35.686  25.746  1.00  0.00    -0.237 OA
ATOM     71  O   UNL A   1      44.648  37.028  27.068  1.00  0.00    -0.237 OA
ATOM     72  O   UNL A   1      47.070  37.400  27.317  1.00  0.00    -0.744 OA
ENDBRANCH  65  69
ENDBRANCH  39  62
ENDBRANCH  13  14
ENDBRANCH   6   8
ENDBRANCH   3   4
ENDBRANCH   2   3
ENDBRANCH   1   2
BRANCH   1  73
ATOM     73  C   UNL A   1      36.223  22.678  25.106  1.00  0.00     0.002 C 
BRANCH  73  74
ATOM     74  C   UNL A   1      36.104  23.312  23.713  1.00  0.00     0.021 C 
BRANCH  74  75
ATOM     75  C   UNL A   1      34.676  23.528  23.214  1.00  0.00     0.116 C 
BRANCH  75  76
ATOM     76  N   UNL A   1      34.304  24.930  23.253  1.00  0.00    -0.356 N 
ATOM     77  C   UNL A   1      33.537  25.610  24.148  1.00  0.00     0.224 C 
ATOM     78  H   UNL A   1      34.664  25.476  22.517  1.00  0.00     0.163 HD
ATOM     79  O   UNL A   1      33.297  26.795  23.900  1.00  0.00    -0.275 OA
BRANCH  77  80
ATOM     80  C   UNL A   1      32.994  24.900  25.388  1.00  0.00     0.095 C 
ATOM     81  C   UNL A   1      33.039  25.831  26.617  1.00  0.00     0.041 C 
ATOM     82  C   UNL A   1      31.566  24.364  25.101  1.00  0.00     0.095 C 
ATOM     83  C   UNL A   1      31.931  26.835  26.650  1.00  0.00    -0.030 C 
ATOM     84  C   UNL A   1      30.496  25.472  25.131  1.00  0.00     0.041 C 
ATOM     85  C   UNL A   1      30.798  26.682  25.958  1.00  0.00    -0.030 C 
BRANCH  82  86
ATOM     86  C   UNL A   1      31.207  23.226  26.050  1.00  0.00     0.224 C 
ATOM     87  O   UNL A   1      30.597  23.415  27.101  1.00  0.00    -0.275 OA
ATOM     88  N   UNL A   1      31.550  21.942  25.750  1.00  0.00    -0.344 N 
ATOM     89  H   UNL A   1      31.153  21.271  26.352  1.00  0.00     0.164 HD
BRANCH  88  90
ATOM     90  C   UNL A   1      32.400  21.369  24.695  1.00  0.00     0.172 C 
ATOM     91  C   UNL A   1      31.718  21.397  23.332  1.00  0.00     0.037 C 
ATOM     92  C   UNL A   1      32.841  19.963  25.188  1.00  0.00     0.249 C 
ATOM     93  C   UNL A   1      32.304  20.377  22.378  1.00  0.00     0.025 C 
ATOM     94  N   UNL A   1      32.780  18.897  24.289  1.00  0.00    -0.308 N 
ATOM     95  O   UNL A   1      33.305  19.853  26.328  1.00  0.00    -0.272 OA
ATOM     96  C   UNL A   1      32.139  19.003  22.983  1.00  0.00     0.126 C 
BRANCH  94  97
ATOM     97  C   UNL A   1      33.102  17.577  24.728  1.00  0.00     0.080 A 
ATOM     98  C   UNL A   1      32.093  16.748  25.238  1.00  0.00     0.029 A 
ATOM     99  C   UNL A   1      34.413  17.082  24.679  1.00  0.00     0.146 A 
ATOM    100  C   UNL A   1      32.388  15.448  25.659  1.00  0.00     0.002 A 
ATOM    101  C   UNL A   1      34.712  15.790  25.107  1.00  0.00     0.041 A 
ATOM    102  F   UNL A   1      35.431  17.877  24.311  1.00  0.00    -0.205 F 
ATOM    103  C   UNL A   1      33.696  14.969  25.591  1.00  0.00     0.003 A 
ENDBRANCH  94  97
ENDBRANCH  88  90
ENDBRANCH  82  86
ENDBRANCH  77  80
ENDBRANCH  75  76
ENDBRANCH  74  75
ENDBRANCH  73  74
ENDBRANCH   1  73
TORSDOF 19
ENDMDL
MODEL 3
REMARK VINA RESULT:     -11.5      5.686      9.521
REMARK SMILES O=C(NCCCCCCNC(=O)[C@H]1CC=CC[C@@H]1C(=O)N[C@@H]1CCCN(c2ccccc2F)C1=O)c1ccc(-c2c3nc(c(-c4cc(S(=O)(=O)[O-])ccc4F)c4ccc([nH]4)c(-c4cc(S(=O)(=O)[O-])ccc4F)c4nc(c(-c5cc(S(=O)(=O)[O-])ccc5F)c5ccc2[nH]5)C=C4)C=C3)cc1
REMARK SMILES IDX 6 1 5 2 4 3 3 4 1 5 2 6 36 8 37 9 98 10 38 11 97 12 39 13
REMARK SMILES IDX 40 14 41 15 91 16 42 17 96 18 90 19 92 20 43 21 95 22 89 23
REMARK SMILES IDX 88 24 44 26 76 27 56 28 75 29 57 30 60 31 74 32 93 33 58 34
REMARK SMILES IDX 59 35 73 37 94 38 61 39 45 40 46 41 54 42 47 43 53 44 55 45
REMARK SMILES IDX 52 46 48 47 49 48 50 49 51 50 77 51 78 52 86 53 79 54 85 55
REMARK SMILES IDX 87 56 84 57 80 58 81 59 82 60 83 61 62 62 63 63 71 64 64 65
REMARK SMILES IDX 70 66 72 67 69 68 65 69 66 70 67 71 68 72 7 73 8 74 9 75
REMARK SMILES IDX 10 76 11 77 12 79 13 80 14 81 18 82 15 83 17 84 16 85 19 86
REMARK SMILES IDX 20 87 21 88 22 90 23 91 34 92 24 93 26 94 35 95 25 96 27 97
REMARK SMILES IDX 28 98 32 99 29 100 31 101 33 102 30 103
REMARK H PARENT 3 7 92 25 60 36 10 78 21 89
REMARK Flexibility Score: inf
ROOT
ATOM      1  C   UNL A   1      40.153  22.280  27.172  1.00  0.00     0.002 C 
ENDROOT
BRANCH   1   2
ATOM      2  C   UNL A   1      40.207  20.910  26.497  1.00  0.00     0.021 C 
BRANCH   2   3
ATOM      3  C   UNL A   1      41.132  19.900  27.159  1.00  0.00     0.116 C 
BRANCH   3   4
ATOM      4  N   UNL A   1      42.039  19.255  26.222  1.00  0.00    -0.352 N 
ATOM      5  O   UNL A   1      43.678  19.176  24.668  1.00  0.00    -0.269 OA
ATOM      6  C   UNL A   1      43.075  19.823  25.513  1.00  0.00     0.251 C 
ATOM      7  H   UNL A   1      41.895  18.292  26.077  1.00  0.00     0.163 HD
BRANCH   6   8
ATOM      8  C   UNL A   1      43.427  21.239  25.767  1.00  0.00     0.039 A 
ATOM      9  C   UNL A   1      43.937  21.624  27.009  1.00  0.00     0.014 A 
ATOM     10  C   UNL A   1      43.211  22.193  24.768  1.00  0.00     0.014 A 
ATOM     11  C   UNL A   1      44.088  22.973  27.300  1.00  0.00     0.010 A 
ATOM     12  C   UNL A   1      43.456  23.544  25.034  1.00  0.00     0.010 A 
ATOM     13  C   UNL A   1      43.869  23.949  26.313  1.00  0.00    -0.014 A 
BRANCH  13  14
ATOM     14  C   UNL A   1      44.158  25.368  26.641  1.00  0.00     0.031 A 
ATOM     15  C   UNL A   1      43.143  26.242  27.322  1.00  0.00     0.074 A 
ATOM     16  C   UNL A   1      45.393  25.838  26.381  1.00  0.00     0.049 A 
ATOM     17  N   UNL A   1      43.277  27.471  27.754  1.00  0.00    -0.248 NA
ATOM     18  C   UNL A   1      41.804  25.676  27.539  1.00  0.00     0.031 C 
ATOM     19  C   UNL A   1      46.454  25.076  25.713  1.00  0.00     0.029 A 
ATOM     20  N   UNL A   1      45.987  27.036  26.681  1.00  0.00    -0.354 N 
ATOM     21  C   UNL A   1      42.040  27.833  28.275  1.00  0.00     0.074 A 
ATOM     22  C   UNL A   1      41.160  26.699  28.084  1.00  0.00     0.031 C 
ATOM     23  C   UNL A   1      47.588  25.788  25.739  1.00  0.00     0.029 A 
ATOM     24  C   UNL A   1      47.321  27.082  26.354  1.00  0.00     0.049 A 
ATOM     25  H   UNL A   1      45.504  27.790  27.091  1.00  0.00     0.167 HD
ATOM     26  C   UNL A   1      41.680  29.002  28.858  1.00  0.00     0.034 A 
ATOM     27  C   UNL A   1      48.236  28.055  26.524  1.00  0.00     0.034 A 
ATOM     28  C   UNL A   1      42.579  30.115  29.056  1.00  0.00     0.049 A 
ATOM     29  C   UNL A   1      47.810  29.345  27.159  1.00  0.00     0.074 A 
ATOM     30  C   UNL A   1      42.325  31.327  29.676  1.00  0.00     0.029 A 
ATOM     31  N   UNL A   1      43.901  30.155  28.634  1.00  0.00    -0.354 N 
ATOM     32  N   UNL A   1      46.632  29.674  27.632  1.00  0.00    -0.248 NA
ATOM     33  C   UNL A   1      48.825  30.400  27.266  1.00  0.00     0.031 C 
ATOM     34  C   UNL A   1      43.472  32.121  29.575  1.00  0.00     0.029 A 
ATOM     35  C   UNL A   1      44.464  31.382  28.950  1.00  0.00     0.049 A 
ATOM     36  H   UNL A   1      44.370  29.421  28.177  1.00  0.00     0.167 HD
ATOM     37  C   UNL A   1      46.762  30.977  28.094  1.00  0.00     0.074 A 
ATOM     38  C   UNL A   1      48.136  31.371  27.852  1.00  0.00     0.031 C 
ATOM     39  C   UNL A   1      45.827  31.771  28.671  1.00  0.00     0.034 A 
BRANCH  26  40
ATOM     40  C   UNL A   1      40.242  29.160  29.286  1.00  0.00     0.023 A 
ATOM     41  C   UNL A   1      39.851  29.053  30.632  1.00  0.00     0.031 A 
ATOM     42  C   UNL A   1      39.249  29.438  28.330  1.00  0.00     0.131 A 
ATOM     43  C   UNL A   1      38.496  29.176  30.978  1.00  0.00     0.055 A 
ATOM     44  C   UNL A   1      37.912  29.621  28.688  1.00  0.00     0.041 A 
ATOM     45  F   UNL A   1      39.563  29.534  27.029  1.00  0.00    -0.206 F 
ATOM     46  C   UNL A   1      37.528  29.481  30.018  1.00  0.00     0.022 A 
BRANCH  43  47
ATOM     47  S   UNL A   1      38.000  28.839  32.690  1.00  0.00     0.124 S 
ATOM     48  O   UNL A   1      36.643  29.377  32.715  1.00  0.00    -0.237 OA
ATOM     49  O   UNL A   1      38.113  27.387  32.771  1.00  0.00    -0.237 OA
ATOM     50  O   UNL A   1      38.975  29.585  33.482  1.00  0.00    -0.744 OA
ENDBRANCH  43  47
ENDBRANCH  26  40
BRANCH  27  51
ATOM     51  C   UNL A   1      49.629  27.829  26.058  1.00  0.00     0.023 A 
ATOM     52  C   UNL A   1      50.013  28.139  24.745  1.00  0.00     0.031 A 
ATOM     53  C   UNL A   1      50.614  27.375  26.953  1.00  0.00     0.131 A 
ATOM     54  C   UNL A   1      51.355  27.993  24.363  1.00  0.00     0.055 A 
ATOM     55  C   UNL A   1      51.953  27.262  26.578  1.00  0.00     0.041 A 
ATOM     56  F   UNL A   1      50.293  27.086  28.224  1.00  0.00    -0.206 F 
ATOM     57  C   UNL A   1      52.330  27.574  25.275  1.00  0.00     0.022 A 
BRANCH  54  58
ATOM     58  S   UNL A   1      51.827  28.380  22.655  1.00  0.00     0.124 S 
ATOM     59  O   UNL A   1      52.914  29.331  22.855  1.00  0.00    -0.237 OA
ATOM     60  O   UNL A   1      52.206  27.070  22.135  1.00  0.00    -0.237 OA
ATOM     61  O   UNL A   1      50.603  28.940  22.084  1.00  0.00    -0.744 OA
ENDBRANCH  54  58
ENDBRANCH  27  51
BRANCH  39  62
ATOM     62  C   UNL A   1      46.261  33.148  29.090  1.00  0.00     0.023 A 
ATOM     63  C   UNL A   1      46.118  34.252  28.233  1.00  0.00     0.031 A 
ATOM     64  C   UNL A   1      46.780  33.362  30.378  1.00  0.00     0.131 A 
ATOM     65  C   UNL A   1      46.514  35.524  28.669  1.00  0.00     0.055 A 
ATOM     66  C   UNL A   1      47.136  34.636  30.820  1.00  0.00     0.041 A 
ATOM     67  F   UNL A   1      46.932  32.337  31.232  1.00  0.00    -0.206 F 
ATOM     68  C   UNL A   1      47.007  35.726  29.963  1.00  0.00     0.022 A 
BRANCH  65  69
ATOM     69  S   UNL A   1      46.390  36.923  27.521  1.00  0.00     0.124 S 
ATOM     70  O   UNL A   1      46.834  36.322  26.267  1.00  0.00    -0.237 OA
ATOM     71  O   UNL A   1      44.976  37.272  27.596  1.00  0.00    -0.237 OA
ATOM     72  O   UNL A   1      47.302  37.914  28.090  1.00  0.00    -0.744 OA
ENDBRANCH  65  69
ENDBRANCH  39  62
ENDBRANCH  13  14
ENDBRANCH   6   8
ENDBRANCH   3   4
ENDBRANCH   2   3
ENDBRANCH   1   2
BRANCH   1  73
ATOM     73  C   UNL A   1      39.673  23.435  26.288  1.00  0.00     0.002 C 
BRANCH  73  74
ATOM     74  C   UNL A   1      38.234  23.913  26.525  1.00  0.00     0.021 C 
BRANCH  74  75
ATOM     75  C   UNL A   1      37.156  23.147  25.760  1.00  0.00     0.116 C 
BRANCH  75  76
ATOM     76  N   UNL A   1      36.110  22.670  26.645  1.00  0.00    -0.356 N 
ATOM     77  C   UNL A   1      34.865  22.200  26.360  1.00  0.00     0.224 C 
ATOM     78  H   UNL A   1      36.337  22.689  27.603  1.00  0.00     0.163 HD
ATOM     79  O   UNL A   1      34.128  21.940  27.315  1.00  0.00    -0.275 OA
BRANCH  77  80
ATOM     80  C   UNL A   1      34.422  22.033  24.907  1.00  0.00     0.095 C 
ATOM     81  C   UNL A   1      34.812  20.640  24.371  1.00  0.00     0.041 C 
ATOM     82  C   UNL A   1      32.901  22.310  24.788  1.00  0.00     0.095 C 
ATOM     83  C   UNL A   1      33.898  19.546  24.824  1.00  0.00    -0.030 C 
ATOM     84  C   UNL A   1      32.039  21.140  25.301  1.00  0.00     0.041 C 
ATOM     85  C   UNL A   1      32.659  19.779  25.267  1.00  0.00    -0.030 C 
BRANCH  82  86
ATOM     86  C   UNL A   1      32.522  22.688  23.360  1.00  0.00     0.224 C 
ATOM     87  O   UNL A   1      32.361  21.845  22.478  1.00  0.00    -0.275 OA
ATOM     88  N   UNL A   1      32.339  23.993  23.016  1.00  0.00    -0.344 N 
ATOM     89  H   UNL A   1      31.963  24.120  22.115  1.00  0.00     0.164 HD
BRANCH  88  90
ATOM     90  C   UNL A   1      32.596  25.249  23.738  1.00  0.00     0.172 C 
ATOM     91  C   UNL A   1      32.605  25.049  25.249  1.00  0.00     0.037 C 
ATOM     92  C   UNL A   1      31.567  26.288  23.211  1.00  0.00     0.249 C 
ATOM     93  C   UNL A   1      32.335  26.337  25.998  1.00  0.00     0.025 C 
ATOM     94  N   UNL A   1      30.902  27.090  24.140  1.00  0.00    -0.308 N 
ATOM     95  O   UNL A   1      31.434  26.424  21.991  1.00  0.00    -0.272 OA
ATOM     96  C   UNL A   1      30.982  26.863  25.579  1.00  0.00     0.126 C 
BRANCH  94  97
ATOM     97  C   UNL A   1      29.894  28.001  23.701  1.00  0.00     0.080 A 
ATOM     98  C   UNL A   1      30.217  29.351  23.499  1.00  0.00     0.029 A 
ATOM     99  C   UNL A   1      28.573  27.588  23.474  1.00  0.00     0.146 A 
ATOM    100  C   UNL A   1      29.247  30.253  23.055  1.00  0.00     0.002 A 
ATOM    101  C   UNL A   1      27.602  28.488  23.041  1.00  0.00     0.041 A 
ATOM    102  F   UNL A   1      28.190  26.335  23.767  1.00  0.00    -0.205 F 
ATOM    103  C   UNL A   1      27.940  29.822  22.824  1.00  0.00     0.003 A 
ENDBRANCH  94  97
ENDBRANCH  88  90
ENDBRANCH  82  86
ENDBRANCH  77  80
ENDBRANCH  75  76
ENDBRANCH  74  75
ENDBRANCH  73  74
ENDBRANCH   1  73
TORSDOF 19
ENDMDL
