MODEL 1
REMARK VINA RESULT:     -12.2      0.000      0.000
REMARK SMILES CC[C@]1(C(=O)NCCCCCCNC(=O)c2ccc(-c3c4nc(c(-c5cc(S(=O)(=O)[O-])ccc5F)c5ccc([nH]5)c(-c5cc(S(=O)(=O)[O-])ccc5F)c5nc(c(-c6cc(S(=O)(=O)[O-])ccc6F)c6ccc3[nH]6)C=C5)C=C4)cc2)CCC[N@@H+](Cc2cc(OC)ccc2F)C1
REMARK SMILES IDX 9 1 8 2 7 3 6 4 4 5 5 6 3 8 79 9 93 10 80 11 82 12 81 13
REMARK SMILES IDX 2 15 1 16 83 17 84 18 85 19 91 20 86 21 90 22 92 23 89 24
REMARK SMILES IDX 87 25 88 26 10 27 11 28 12 29 13 30 14 31 15 33 16 34 17 35
REMARK SMILES IDX 78 36 18 37 77 38 19 39 20 40 21 41 71 42 22 43 76 44 70 45
REMARK SMILES IDX 72 46 23 47 75 48 69 49 68 50 24 52 56 53 36 54 55 55 37 56
REMARK SMILES IDX 40 57 54 58 73 59 38 60 39 61 53 63 74 64 41 65 25 66 26 67
REMARK SMILES IDX 34 68 27 69 33 70 35 71 32 72 28 73 29 74 30 75 31 76 57 77
REMARK SMILES IDX 58 78 66 79 59 80 65 81 67 82 64 83 60 84 61 85 62 86 63 87
REMARK SMILES IDX 42 88 43 89 51 90 44 91 50 92 52 93 49 94 45 95 46 96 47 97
REMARK SMILES IDX 48 98
REMARK H PARENT 6 7 82 14 13 32 72 51 40 62
REMARK Flexibility Score: inf
ROOT
ATOM      1  C   UNL A   1      32.734  29.356  26.785  1.00  0.00     0.002 C 
ENDROOT
BRANCH   1   2
ATOM      2  C   UNL A   1      31.933  28.139  27.257  1.00  0.00     0.021 C 
BRANCH   2   3
ATOM      3  C   UNL A   1      31.721  27.092  26.171  1.00  0.00     0.116 C 
BRANCH   3   4
ATOM      4  N   UNL A   1      30.964  25.956  26.682  1.00  0.00    -0.355 N 
ATOM      5  C   UNL A   1      31.098  24.607  26.525  1.00  0.00     0.231 C 
ATOM      6  O   UNL A   1      30.241  23.913  27.080  1.00  0.00    -0.274 OA
ATOM      7  H   UNL A   1      30.206  26.212  27.255  1.00  0.00     0.163 HD
BRANCH   5   8
ATOM      8  C   UNL A   1      32.268  23.975  25.727  1.00  0.00     0.098 C 
ATOM      9  C   UNL A   1      33.622  24.560  26.186  1.00  0.00     0.028 C 
ATOM     10  C   UNL A   1      32.189  22.442  25.967  1.00  0.00     0.279 C 
ATOM     11  C   UNL A   1      34.796  23.696  25.738  1.00  0.00     0.063 C 
ATOM     12  N   UNL A   1      33.387  21.669  25.611  1.00  0.00    -0.330 N 
ATOM     13  C   UNL A   1      34.614  22.239  26.170  1.00  0.00     0.262 C 
ATOM     14  H   UNL A   1      33.490  21.739  24.598  1.00  0.00     0.348 HD
BRANCH   8  15
ATOM     15  C   UNL A   1      32.048  24.203  24.192  1.00  0.00     0.019 C 
ATOM     16  C   UNL A   1      30.668  23.848  23.650  1.00  0.00     0.005 C 
ENDBRANCH   8  15
BRANCH  12  17
ATOM     17  C   UNL A   1      33.227  20.226  25.915  1.00  0.00     0.302 C 
BRANCH  17  18
ATOM     18  C   UNL A   1      33.182  19.261  24.746  1.00  0.00     0.046 A 
ATOM     19  C   UNL A   1      33.854  18.028  24.806  1.00  0.00     0.059 A 
ATOM     20  C   UNL A   1      32.494  19.563  23.566  1.00  0.00     0.132 A 
ATOM     21  C   UNL A   1      33.807  17.124  23.736  1.00  0.00     0.119 A 
ATOM     22  C   UNL A   1      32.364  18.635  22.536  1.00  0.00     0.043 A 
ATOM     23  F   UNL A   1      31.928  20.767  23.399  1.00  0.00    -0.206 F 
ATOM     24  C   UNL A   1      33.011  17.406  22.625  1.00  0.00     0.049 A 
BRANCH  21  25
ATOM     25  O   UNL A   1      34.571  15.999  23.885  1.00  0.00    -0.497 OA
ATOM     26  C   UNL A   1      35.072  15.759  25.200  1.00  0.00     0.278 C 
ENDBRANCH  21  25
ENDBRANCH  17  18
ENDBRANCH  12  17
ENDBRANCH   5   8
ENDBRANCH   3   4
ENDBRANCH   2   3
ENDBRANCH   1   2
BRANCH   1  27
ATOM     27  C   UNL A   1      31.935  30.373  25.961  1.00  0.00     0.002 C 
BRANCH  27  28
ATOM     28  C   UNL A   1      31.647  31.700  26.669  1.00  0.00     0.021 C 
BRANCH  28  29
ATOM     29  C   UNL A   1      32.858  32.328  27.351  1.00  0.00     0.116 C 
BRANCH  29  30
ATOM     30  N   UNL A   1      32.663  33.746  27.606  1.00  0.00    -0.352 N 
ATOM     31  C   UNL A   1      33.247  34.544  28.557  1.00  0.00     0.251 C 
ATOM     32  H   UNL A   1      32.020  34.197  27.013  1.00  0.00     0.163 HD
ATOM     33  O   UNL A   1      32.796  35.668  28.768  1.00  0.00    -0.269 OA
BRANCH  31  34
ATOM     34  C   UNL A   1      34.396  34.039  29.338  1.00  0.00     0.039 A 
ATOM     35  C   UNL A   1      34.158  33.194  30.423  1.00  0.00     0.014 A 
ATOM     36  C   UNL A   1      35.704  34.398  28.998  1.00  0.00     0.014 A 
ATOM     37  C   UNL A   1      35.236  32.661  31.132  1.00  0.00     0.010 A 
ATOM     38  C   UNL A   1      36.778  33.805  29.657  1.00  0.00     0.010 A 
ATOM     39  C   UNL A   1      36.556  32.933  30.734  1.00  0.00    -0.014 A 
BRANCH  39  40
ATOM     40  C   UNL A   1      37.714  32.317  31.434  1.00  0.00     0.031 A 
ATOM     41  C   UNL A   1      38.474  31.190  30.788  1.00  0.00     0.074 A 
ATOM     42  C   UNL A   1      38.044  32.736  32.672  1.00  0.00     0.049 A 
ATOM     43  N   UNL A   1      39.463  30.479  31.266  1.00  0.00    -0.248 NA
ATOM     44  C   UNL A   1      38.045  30.792  29.440  1.00  0.00     0.031 C 
ATOM     45  C   UNL A   1      37.360  33.798  33.414  1.00  0.00     0.029 A 
ATOM     46  N   UNL A   1      39.031  32.319  33.530  1.00  0.00    -0.354 N 
ATOM     47  C   UNL A   1      39.769  29.544  30.282  1.00  0.00     0.074 A 
ATOM     48  C   UNL A   1      38.815  29.739  29.211  1.00  0.00     0.031 C 
ATOM     49  C   UNL A   1      37.966  33.968  34.600  1.00  0.00     0.029 A 
ATOM     50  C   UNL A   1      39.044  32.992  34.730  1.00  0.00     0.049 A 
ATOM     51  H   UNL A   1      39.672  31.605  33.307  1.00  0.00     0.167 HD
ATOM     52  C   UNL A   1      40.766  28.625  30.266  1.00  0.00     0.034 A 
ATOM     53  C   UNL A   1      39.824  32.833  35.819  1.00  0.00     0.034 A 
ATOM     54  C   UNL A   1      41.713  28.451  31.340  1.00  0.00     0.049 A 
ATOM     55  C   UNL A   1      40.901  31.778  35.791  1.00  0.00     0.074 A 
ATOM     56  C   UNL A   1      42.792  27.587  31.406  1.00  0.00     0.029 A 
ATOM     57  N   UNL A   1      41.688  29.143  32.545  1.00  0.00    -0.354 N 
ATOM     58  N   UNL A   1      41.209  30.934  34.832  1.00  0.00    -0.248 NA
ATOM     59  C   UNL A   1      41.744  31.660  36.987  1.00  0.00     0.031 C 
ATOM     60  C   UNL A   1      43.367  27.698  32.675  1.00  0.00     0.029 A 
ATOM     61  C   UNL A   1      42.707  28.698  33.372  1.00  0.00     0.049 A 
ATOM     62  H   UNL A   1      41.039  29.847  32.778  1.00  0.00     0.167 HD
ATOM     63  C   UNL A   1      42.303  30.211  35.299  1.00  0.00     0.074 A 
ATOM     64  C   UNL A   1      42.609  30.727  36.617  1.00  0.00     0.031 C 
ATOM     65  C   UNL A   1      42.997  29.214  34.691  1.00  0.00     0.034 A 
BRANCH  52  66
ATOM     66  C   UNL A   1      40.861  27.721  29.058  1.00  0.00     0.023 A 
ATOM     67  C   UNL A   1      41.856  27.892  28.079  1.00  0.00     0.031 A 
ATOM     68  C   UNL A   1      39.930  26.684  28.870  1.00  0.00     0.131 A 
ATOM     69  C   UNL A   1      41.853  27.093  26.926  1.00  0.00     0.055 A 
ATOM     70  C   UNL A   1      39.985  25.834  27.764  1.00  0.00     0.041 A 
ATOM     71  F   UNL A   1      38.942  26.484  29.756  1.00  0.00    -0.206 F 
ATOM     72  C   UNL A   1      40.940  26.046  26.775  1.00  0.00     0.022 A 
BRANCH  69  73
ATOM     73  S   UNL A   1      42.957  27.540  25.559  1.00  0.00     0.124 S 
ATOM     74  O   UNL A   1      44.016  28.263  26.262  1.00  0.00    -0.237 OA
ATOM     75  O   UNL A   1      43.325  26.240  25.013  1.00  0.00    -0.237 OA
ATOM     76  O   UNL A   1      42.118  28.367  24.696  1.00  0.00    -0.744 OA
ENDBRANCH  69  73
ENDBRANCH  52  66
BRANCH  53  77
ATOM     77  C   UNL A   1      39.611  33.676  37.031  1.00  0.00     0.023 A 
ATOM     78  C   UNL A   1      38.935  33.172  38.153  1.00  0.00     0.031 A 
ATOM     79  C   UNL A   1      40.041  35.015  37.068  1.00  0.00     0.131 A 
ATOM     80  C   UNL A   1      38.662  34.015  39.243  1.00  0.00     0.055 A 
ATOM     81  C   UNL A   1      39.819  35.832  38.178  1.00  0.00     0.041 A 
ATOM     82  F   UNL A   1      40.698  35.548  36.025  1.00  0.00    -0.206 F 
ATOM     83  C   UNL A   1      39.113  35.336  39.270  1.00  0.00     0.022 A 
BRANCH  80  84
ATOM     84  S   UNL A   1      37.621  33.385  40.589  1.00  0.00     0.124 S 
ATOM     85  O   UNL A   1      36.467  32.876  39.857  1.00  0.00    -0.237 OA
ATOM     86  O   UNL A   1      38.490  32.383  41.198  1.00  0.00    -0.237 OA
ATOM     87  O   UNL A   1      37.371  34.570  41.406  1.00  0.00    -0.744 OA
ENDBRANCH  80  84
ENDBRANCH  53  77
BRANCH  65  88
ATOM     88  C   UNL A   1      44.188  28.650  35.431  1.00  0.00     0.023 A 
ATOM     89  C   UNL A   1      44.064  27.584  36.338  1.00  0.00     0.031 A 
ATOM     90  C   UNL A   1      45.467  29.198  35.227  1.00  0.00     0.131 A 
ATOM     91  C   UNL A   1      45.187  27.137  37.050  1.00  0.00     0.055 A 
ATOM     92  C   UNL A   1      46.593  28.704  35.886  1.00  0.00     0.041 A 
ATOM     93  F   UNL A   1      45.645  30.222  34.378  1.00  0.00    -0.206 F 
ATOM     94  C   UNL A   1      46.454  27.676  36.815  1.00  0.00     0.022 A 
BRANCH  91  95
ATOM     95  S   UNL A   1      44.953  25.911  38.365  1.00  0.00     0.124 S 
ATOM     96  O   UNL A   1      44.551  24.730  37.609  1.00  0.00    -0.237 OA
ATOM     97  O   UNL A   1      46.277  25.854  38.978  1.00  0.00    -0.237 OA
ATOM     98  O   UNL A   1      43.909  26.499  39.202  1.00  0.00    -0.744 OA
ENDBRANCH  91  95
ENDBRANCH  65  88
ENDBRANCH  39  40
ENDBRANCH  31  34
ENDBRANCH  29  30
ENDBRANCH  28  29
ENDBRANCH  27  28
ENDBRANCH   1  27
TORSDOF 20
ENDMDL
MODEL 2
REMARK VINA RESULT:     -11.3      5.720      9.704
REMARK SMILES CC[C@]1(C(=O)NCCCCCCNC(=O)c2ccc(-c3c4nc(c(-c5cc(S(=O)(=O)[O-])ccc5F)c5ccc([nH]5)c(-c5cc(S(=O)(=O)[O-])ccc5F)c5nc(c(-c6cc(S(=O)(=O)[O-])ccc6F)c6ccc3[nH]6)C=C5)C=C4)cc2)CCC[N@@H+](Cc2cc(OC)ccc2F)C1
REMARK SMILES IDX 9 1 8 2 7 3 6 4 4 5 5 6 3 8 79 9 93 10 80 11 82 12 81 13
REMARK SMILES IDX 2 15 1 16 83 17 84 18 85 19 91 20 86 21 90 22 92 23 89 24
REMARK SMILES IDX 87 25 88 26 10 27 11 28 12 29 13 30 14 31 15 33 16 34 17 35
REMARK SMILES IDX 78 36 18 37 77 38 19 39 20 40 21 41 71 42 22 43 76 44 70 45
REMARK SMILES IDX 72 46 23 47 75 48 69 49 68 50 24 52 56 53 36 54 55 55 37 56
REMARK SMILES IDX 40 57 54 58 73 59 38 60 39 61 53 63 74 64 41 65 25 66 26 67
REMARK SMILES IDX 34 68 27 69 33 70 35 71 32 72 28 73 29 74 30 75 31 76 57 77
REMARK SMILES IDX 58 78 66 79 59 80 65 81 67 82 64 83 60 84 61 85 62 86 63 87
REMARK SMILES IDX 42 88 43 89 51 90 44 91 50 92 52 93 49 94 45 95 46 96 47 97
REMARK SMILES IDX 48 98
REMARK H PARENT 6 7 82 14 13 32 72 51 40 62
REMARK Flexibility Score: inf
ROOT
ATOM      1  C   UNL A   1      39.722  23.352  26.167  1.00  0.00     0.002 C 
ENDROOT
BRANCH   1   2
ATOM      2  C   UNL A   1      38.520  24.139  26.696  1.00  0.00     0.021 C 
BRANCH   2   3
ATOM      3  C   UNL A   1      37.183  23.639  26.164  1.00  0.00     0.116 C 
BRANCH   3   4
ATOM      4  N   UNL A   1      37.267  23.338  24.740  1.00  0.00    -0.355 N 
ATOM      5  C   UNL A   1      36.325  23.230  23.759  1.00  0.00     0.231 C 
ATOM      6  O   UNL A   1      36.747  22.917  22.641  1.00  0.00    -0.274 OA
ATOM      7  H   UNL A   1      38.186  23.181  24.424  1.00  0.00     0.163 HD
BRANCH   5   8
ATOM      8  C   UNL A   1      34.822  23.513  24.015  1.00  0.00     0.098 C 
ATOM      9  C   UNL A   1      34.136  24.034  22.732  1.00  0.00     0.028 C 
ATOM     10  C   UNL A   1      34.198  22.175  24.502  1.00  0.00     0.279 C 
ATOM     11  C   UNL A   1      32.618  23.933  22.819  1.00  0.00     0.063 C 
ATOM     12  N   UNL A   1      32.731  22.096  24.469  1.00  0.00    -0.330 N 
ATOM     13  C   UNL A   1      32.171  22.515  23.182  1.00  0.00     0.262 C 
ATOM     14  H   UNL A   1      32.386  22.772  25.150  1.00  0.00     0.348 HD
BRANCH   8  15
ATOM     15  C   UNL A   1      34.667  24.536  25.192  1.00  0.00     0.019 C 
ATOM     16  C   UNL A   1      34.082  25.896  24.830  1.00  0.00     0.005 C 
ENDBRANCH   8  15
BRANCH  12  17
ATOM     17  C   UNL A   1      32.237  20.769  24.912  1.00  0.00     0.302 C 
BRANCH  17  18
ATOM     18  C   UNL A   1      32.838  19.540  24.256  1.00  0.00     0.046 A 
ATOM     19  C   UNL A   1      33.857  18.812  24.894  1.00  0.00     0.059 A 
ATOM     20  C   UNL A   1      32.421  19.099  22.996  1.00  0.00     0.132 A 
ATOM     21  C   UNL A   1      34.407  17.667  24.302  1.00  0.00     0.119 A 
ATOM     22  C   UNL A   1      32.895  17.913  22.442  1.00  0.00     0.043 A 
ATOM     23  F   UNL A   1      31.535  19.811  22.285  1.00  0.00    -0.206 F 
ATOM     24  C   UNL A   1      33.883  17.186  23.102  1.00  0.00     0.049 A 
BRANCH  21  25
ATOM     25  O   UNL A   1      35.448  17.098  24.983  1.00  0.00    -0.497 OA
ATOM     26  C   UNL A   1      35.303  15.712  25.293  1.00  0.00     0.278 C 
ENDBRANCH  21  25
ENDBRANCH  17  18
ENDBRANCH  12  17
ENDBRANCH   5   8
ENDBRANCH   3   4
ENDBRANCH   2   3
ENDBRANCH   1   2
BRANCH   1  27
ATOM     27  C   UNL A   1      40.256  22.275  27.119  1.00  0.00     0.002 C 
BRANCH  27  28
ATOM     28  C   UNL A   1      40.314  20.861  26.532  1.00  0.00     0.021 C 
BRANCH  28  29
ATOM     29  C   UNL A   1      41.401  19.973  27.128  1.00  0.00     0.116 C 
BRANCH  29  30
ATOM     30  N   UNL A   1      42.315  19.478  26.113  1.00  0.00    -0.352 N 
ATOM     31  C   UNL A   1      43.242  20.167  25.372  1.00  0.00     0.251 C 
ATOM     32  H   UNL A   1      42.262  18.513  25.930  1.00  0.00     0.163 HD
ATOM     33  O   UNL A   1      43.771  19.625  24.403  1.00  0.00    -0.269 OA
BRANCH  31  34
ATOM     34  C   UNL A   1      43.578  21.562  25.725  1.00  0.00     0.039 A 
ATOM     35  C   UNL A   1      43.314  22.577  24.805  1.00  0.00     0.014 A 
ATOM     36  C   UNL A   1      44.153  21.867  26.964  1.00  0.00     0.014 A 
ATOM     37  C   UNL A   1      43.571  23.906  25.148  1.00  0.00     0.010 A 
ATOM     38  C   UNL A   1      44.335  23.197  27.333  1.00  0.00     0.010 A 
ATOM     39  C   UNL A   1      44.050  24.231  26.429  1.00  0.00    -0.014 A 
BRANCH  39  40
ATOM     40  C   UNL A   1      44.261  25.645  26.836  1.00  0.00     0.031 A 
ATOM     41  C   UNL A   1      45.627  26.266  26.726  1.00  0.00     0.074 A 
ATOM     42  C   UNL A   1      43.235  26.350  27.353  1.00  0.00     0.049 A 
ATOM     43  N   UNL A   1      46.026  27.457  27.092  1.00  0.00    -0.248 NA
ATOM     44  C   UNL A   1      46.690  25.426  26.155  1.00  0.00     0.031 C 
ATOM     45  C   UNL A   1      41.873  25.844  27.540  1.00  0.00     0.029 A 
ATOM     46  N   UNL A   1      43.175  27.638  27.825  1.00  0.00    -0.354 N 
ATOM     47  C   UNL A   1      47.387  27.507  26.806  1.00  0.00     0.074 A 
ATOM     48  C   UNL A   1      47.753  26.202  26.297  1.00  0.00     0.031 C 
ATOM     49  C   UNL A   1      41.108  26.819  28.057  1.00  0.00     0.029 A 
ATOM     50  C   UNL A   1      41.933  28.000  28.293  1.00  0.00     0.049 A 
ATOM     51  H   UNL A   1      43.950  28.246  27.827  1.00  0.00     0.167 HD
ATOM     52  C   UNL A   1      48.244  28.550  26.935  1.00  0.00     0.034 A 
ATOM     53  C   UNL A   1      41.509  29.147  28.862  1.00  0.00     0.034 A 
ATOM     54  C   UNL A   1      47.858  29.846  27.438  1.00  0.00     0.049 A 
ATOM     55  C   UNL A   1      42.490  30.280  29.030  1.00  0.00     0.074 A 
ATOM     56  C   UNL A   1      48.631  30.987  27.562  1.00  0.00     0.029 A 
ATOM     57  N   UNL A   1      46.593  30.172  27.913  1.00  0.00    -0.354 N 
ATOM     58  N   UNL A   1      43.763  30.326  28.708  1.00  0.00    -0.248 NA
ATOM     59  C   UNL A   1      41.976  31.518  29.628  1.00  0.00     0.031 C 
ATOM     60  C   UNL A   1      47.861  31.973  28.185  1.00  0.00     0.029 A 
ATOM     61  C   UNL A   1      46.577  31.483  28.366  1.00  0.00     0.049 A 
ATOM     62  H   UNL A   1      45.820  29.561  27.927  1.00  0.00     0.167 HD
ATOM     63  C   UNL A   1      44.189  31.611  29.033  1.00  0.00     0.074 A 
ATOM     64  C   UNL A   1      43.036  32.309  29.562  1.00  0.00     0.031 C 
ATOM     65  C   UNL A   1      45.422  32.166  28.902  1.00  0.00     0.034 A 
BRANCH  52  66
ATOM     66  C   UNL A   1      49.687  28.318  26.552  1.00  0.00     0.023 A 
ATOM     67  C   UNL A   1      50.150  28.525  25.241  1.00  0.00     0.031 A 
ATOM     68  C   UNL A   1      50.613  27.863  27.509  1.00  0.00     0.131 A 
ATOM     69  C   UNL A   1      51.475  28.207  24.905  1.00  0.00     0.055 A 
ATOM     70  C   UNL A   1      51.952  27.633  27.189  1.00  0.00     0.041 A 
ATOM     71  F   UNL A   1      50.228  27.623  28.773  1.00  0.00    -0.206 F 
ATOM     72  C   UNL A   1      52.387  27.789  25.877  1.00  0.00     0.022 A 
BRANCH  69  73
ATOM     73  S   UNL A   1      51.946  28.201  23.153  1.00  0.00     0.124 S 
ATOM     74  O   UNL A   1      53.373  27.898  23.234  1.00  0.00    -0.237 OA
ATOM     75  O   UNL A   1      51.099  27.150  22.603  1.00  0.00    -0.237 OA
ATOM     76  O   UNL A   1      51.630  29.556  22.709  1.00  0.00    -0.744 OA
ENDBRANCH  69  73
ENDBRANCH  52  66
BRANCH  53  77
ATOM     77  C   UNL A   1      40.098  29.281  29.329  1.00  0.00     0.023 A 
ATOM     78  C   UNL A   1      39.769  29.145  30.686  1.00  0.00     0.031 A 
ATOM     79  C   UNL A   1      39.050  29.504  28.417  1.00  0.00     0.131 A 
ATOM     80  C   UNL A   1      38.424  29.180  31.088  1.00  0.00     0.055 A 
ATOM     81  C   UNL A   1      37.719  29.597  28.828  1.00  0.00     0.041 A 
ATOM     82  F   UNL A   1      39.307  29.648  27.107  1.00  0.00    -0.206 F 
ATOM     83  C   UNL A   1      37.398  29.420  30.171  1.00  0.00     0.022 A 
BRANCH  80  84
ATOM     84  S   UNL A   1      38.024  28.809  32.818  1.00  0.00     0.124 S 
ATOM     85  O   UNL A   1      38.118  27.354  32.839  1.00  0.00    -0.237 OA
ATOM     86  O   UNL A   1      39.071  29.532  33.531  1.00  0.00    -0.237 OA
ATOM     87  O   UNL A   1      36.676  29.352  32.977  1.00  0.00    -0.744 OA
ENDBRANCH  80  84
ENDBRANCH  53  77
BRANCH  65  88
ATOM     88  C   UNL A   1      45.572  33.618  29.293  1.00  0.00     0.023 A 
ATOM     89  C   UNL A   1      45.338  34.662  28.382  1.00  0.00     0.031 A 
ATOM     90  C   UNL A   1      45.963  33.958  30.601  1.00  0.00     0.131 A 
ATOM     91  C   UNL A   1      45.553  35.992  28.772  1.00  0.00     0.055 A 
ATOM     92  C   UNL A   1      46.108  35.286  31.004  1.00  0.00     0.041 A 
ATOM     93  F   UNL A   1      46.206  33.003  31.512  1.00  0.00    -0.206 F 
ATOM     94  C   UNL A   1      45.916  36.312  30.083  1.00  0.00     0.022 A 
BRANCH  91  95
ATOM     95  S   UNL A   1      45.452  37.296  27.515  1.00  0.00     0.124 S 
ATOM     96  O   UNL A   1      46.620  37.010  26.689  1.00  0.00    -0.237 OA
ATOM     97  O   UNL A   1      44.156  37.035  26.899  1.00  0.00    -0.237 OA
ATOM     98  O   UNL A   1      45.530  38.530  28.294  1.00  0.00    -0.744 OA
ENDBRANCH  91  95
ENDBRANCH  65  88
ENDBRANCH  39  40
ENDBRANCH  31  34
ENDBRANCH  29  30
ENDBRANCH  28  29
ENDBRANCH  27  28
ENDBRANCH   1  27
TORSDOF 20
ENDMDL
MODEL 3
REMARK VINA RESULT:     -11.2      1.981      8.035
REMARK SMILES CC[C@]1(C(=O)NCCCCCCNC(=O)c2ccc(-c3c4nc(c(-c5cc(S(=O)(=O)[O-])ccc5F)c5ccc([nH]5)c(-c5cc(S(=O)(=O)[O-])ccc5F)c5nc(c(-c6cc(S(=O)(=O)[O-])ccc6F)c6ccc3[nH]6)C=C5)C=C4)cc2)CCC[N@@H+](Cc2cc(OC)ccc2F)C1
REMARK SMILES IDX 9 1 8 2 7 3 6 4 4 5 5 6 3 8 79 9 93 10 80 11 82 12 81 13
REMARK SMILES IDX 2 15 1 16 83 17 84 18 85 19 91 20 86 21 90 22 92 23 89 24
REMARK SMILES IDX 87 25 88 26 10 27 11 28 12 29 13 30 14 31 15 33 16 34 17 35
REMARK SMILES IDX 78 36 18 37 77 38 19 39 20 40 21 41 71 42 22 43 76 44 70 45
REMARK SMILES IDX 72 46 23 47 75 48 69 49 68 50 24 52 56 53 36 54 55 55 37 56
REMARK SMILES IDX 40 57 54 58 73 59 38 60 39 61 53 63 74 64 41 65 25 66 26 67
REMARK SMILES IDX 34 68 27 69 33 70 35 71 32 72 28 73 29 74 30 75 31 76 57 77
REMARK SMILES IDX 58 78 66 79 59 80 65 81 67 82 64 83 60 84 61 85 62 86 63 87
REMARK SMILES IDX 42 88 43 89 51 90 44 91 50 92 52 93 49 94 45 95 46 96 47 97
REMARK SMILES IDX 48 98
REMARK H PARENT 6 7 82 14 13 32 72 51 40 62
REMARK Flexibility Score: inf
ROOT
ATOM      1  C   UNL A   1      34.748  31.832  28.494  1.00  0.00     0.002 C 
ENDROOT
BRANCH   1   2
ATOM      2  C   UNL A   1      35.097  30.519  27.790  1.00  0.00     0.021 C 
BRANCH   2   3
ATOM      3  C   UNL A   1      33.991  30.005  26.875  1.00  0.00     0.116 C 
BRANCH   3   4
ATOM      4  N   UNL A   1      33.027  29.207  27.620  1.00  0.00    -0.355 N 
ATOM      5  C   UNL A   1      32.076  28.306  27.236  1.00  0.00     0.231 C 
ATOM      6  O   UNL A   1      31.389  27.830  28.145  1.00  0.00    -0.274 OA
ATOM      7  H   UNL A   1      33.068  29.344  28.594  1.00  0.00     0.163 HD
BRANCH   5   8
ATOM      8  C   UNL A   1      31.886  27.877  25.758  1.00  0.00     0.098 C 
ATOM      9  C   UNL A   1      32.052  29.086  24.812  1.00  0.00     0.028 C 
ATOM     10  C   UNL A   1      32.945  26.774  25.479  1.00  0.00     0.279 C 
ATOM     11  C   UNL A   1      32.281  28.652  23.368  1.00  0.00     0.063 C 
ATOM     12  N   UNL A   1      33.200  26.465  24.065  1.00  0.00    -0.330 N 
ATOM     13  C   UNL A   1      33.444  27.664  23.260  1.00  0.00     0.262 C 
ATOM     14  H   UNL A   1      32.340  26.058  23.695  1.00  0.00     0.348 HD
BRANCH   8  15
ATOM     15  C   UNL A   1      30.481  27.208  25.576  1.00  0.00     0.019 C 
ATOM     16  C   UNL A   1      30.437  25.689  25.699  1.00  0.00     0.005 C 
ENDBRANCH   8  15
BRANCH  12  17
ATOM     17  C   UNL A   1      34.252  25.433  23.904  1.00  0.00     0.302 C 
BRANCH  17  18
ATOM     18  C   UNL A   1      33.812  23.983  23.840  1.00  0.00     0.046 A 
ATOM     19  C   UNL A   1      34.575  22.973  24.454  1.00  0.00     0.059 A 
ATOM     20  C   UNL A   1      32.655  23.592  23.160  1.00  0.00     0.132 A 
ATOM     21  C   UNL A   1      34.169  21.633  24.413  1.00  0.00     0.119 A 
ATOM     22  C   UNL A   1      32.194  22.278  23.192  1.00  0.00     0.043 A 
ATOM     23  F   UNL A   1      31.944  24.488  22.459  1.00  0.00    -0.206 F 
ATOM     24  C   UNL A   1      32.946  21.296  23.830  1.00  0.00     0.049 A 
BRANCH  21  25
ATOM     25  O   UNL A   1      35.039  20.739  24.973  1.00  0.00    -0.497 OA
ATOM     26  C   UNL A   1      36.096  21.305  25.749  1.00  0.00     0.278 C 
ENDBRANCH  21  25
ENDBRANCH  17  18
ENDBRANCH  12  17
ENDBRANCH   5   8
ENDBRANCH   3   4
ENDBRANCH   2   3
ENDBRANCH   1   2
BRANCH   1  27
ATOM     27  C   UNL A   1      35.373  33.085  27.869  1.00  0.00     0.002 C 
BRANCH  27  28
ATOM     28  C   UNL A   1      34.529  34.358  27.985  1.00  0.00     0.021 C 
BRANCH  28  29
ATOM     29  C   UNL A   1      33.158  34.152  28.621  1.00  0.00     0.116 C 
BRANCH  29  30
ATOM     30  N   UNL A   1      32.924  35.077  29.718  1.00  0.00    -0.352 N 
ATOM     31  C   UNL A   1      33.490  35.101  30.967  1.00  0.00     0.251 C 
ATOM     32  H   UNL A   1      32.266  35.786  29.538  1.00  0.00     0.163 HD
ATOM     33  O   UNL A   1      33.009  35.822  31.839  1.00  0.00    -0.269 OA
BRANCH  31  34
ATOM     34  C   UNL A   1      34.656  34.243  31.264  1.00  0.00     0.039 A 
ATOM     35  C   UNL A   1      35.935  34.706  30.951  1.00  0.00     0.014 A 
ATOM     36  C   UNL A   1      34.487  32.985  31.850  1.00  0.00     0.014 A 
ATOM     37  C   UNL A   1      37.050  33.933  31.281  1.00  0.00     0.010 A 
ATOM     38  C   UNL A   1      35.602  32.251  32.248  1.00  0.00     0.010 A 
ATOM     39  C   UNL A   1      36.895  32.714  31.965  1.00  0.00    -0.014 A 
BRANCH  39  40
ATOM     40  C   UNL A   1      38.075  31.913  32.386  1.00  0.00     0.031 A 
ATOM     41  C   UNL A   1      38.769  32.219  33.685  1.00  0.00     0.074 A 
ATOM     42  C   UNL A   1      38.550  30.950  31.573  1.00  0.00     0.049 A 
ATOM     43  N   UNL A   1      39.850  31.682  34.192  1.00  0.00    -0.248 NA
ATOM     44  C   UNL A   1      38.188  33.289  34.509  1.00  0.00     0.031 C 
ATOM     45  C   UNL A   1      37.981  30.585  30.273  1.00  0.00     0.029 A 
ATOM     46  N   UNL A   1      39.623  30.104  31.711  1.00  0.00    -0.354 N 
ATOM     47  C   UNL A   1      40.083  32.354  35.388  1.00  0.00     0.074 A 
ATOM     48  C   UNL A   1      39.068  33.381  35.493  1.00  0.00     0.031 C 
ATOM     49  C   UNL A   1      38.691  29.573  29.750  1.00  0.00     0.029 A 
ATOM     50  C   UNL A   1      39.799  29.252  30.644  1.00  0.00     0.049 A 
ATOM     51  H   UNL A   1      40.212  30.106  32.500  1.00  0.00     0.167 HD
ATOM     52  C   UNL A   1      41.042  32.121  36.318  1.00  0.00     0.034 A 
ATOM     53  C   UNL A   1      40.752  28.328  30.406  1.00  0.00     0.034 A 
ATOM     54  C   UNL A   1      42.041  31.088  36.198  1.00  0.00     0.049 A 
ATOM     55  C   UNL A   1      41.830  28.114  31.439  1.00  0.00     0.074 A 
ATOM     56  C   UNL A   1      43.025  30.731  37.103  1.00  0.00     0.029 A 
ATOM     57  N   UNL A   1      42.195  30.252  35.098  1.00  0.00    -0.354 N 
ATOM     58  N   UNL A   1      42.007  28.726  32.588  1.00  0.00    -0.248 NA
ATOM     59  C   UNL A   1      42.829  27.079  31.149  1.00  0.00     0.031 C 
ATOM     60  C   UNL A   1      43.821  29.741  36.520  1.00  0.00     0.029 A 
ATOM     61  C   UNL A   1      43.280  29.410  35.288  1.00  0.00     0.049 A 
ATOM     62  H   UNL A   1      41.618  30.258  34.300  1.00  0.00     0.167 HD
ATOM     63  C   UNL A   1      43.118  28.122  33.171  1.00  0.00     0.074 A 
ATOM     64  C   UNL A   1      43.559  27.092  32.254  1.00  0.00     0.031 C 
ATOM     65  C   UNL A   1      43.717  28.392  34.360  1.00  0.00     0.034 A 
BRANCH  52  66
ATOM     66  C   UNL A   1      41.068  33.021  37.532  1.00  0.00     0.023 A 
ATOM     67  C   UNL A   1      40.354  32.710  38.703  1.00  0.00     0.031 A 
ATOM     68  C   UNL A   1      41.803  34.221  37.513  1.00  0.00     0.131 A 
ATOM     69  C   UNL A   1      40.327  33.618  39.772  1.00  0.00     0.055 A 
ATOM     70  C   UNL A   1      41.844  35.079  38.614  1.00  0.00     0.041 A 
ATOM     71  F   UNL A   1      42.487  34.586  36.418  1.00  0.00    -0.206 F 
ATOM     72  C   UNL A   1      41.090  34.788  39.747  1.00  0.00     0.022 A 
BRANCH  69  73
ATOM     73  S   UNL A   1      39.160  33.323  41.129  1.00  0.00     0.124 S 
ATOM     74  O   UNL A   1      37.997  34.090  40.689  1.00  0.00    -0.237 OA
ATOM     75  O   UNL A   1      39.015  31.873  41.110  1.00  0.00    -0.237 OA
ATOM     76  O   UNL A   1      39.849  33.868  42.297  1.00  0.00    -0.744 OA
ENDBRANCH  69  73
ENDBRANCH  52  66
BRANCH  53  77
ATOM     77  C   UNL A   1      40.745  27.547  29.135  1.00  0.00     0.023 A 
ATOM     78  C   UNL A   1      41.655  27.832  28.105  1.00  0.00     0.031 A 
ATOM     79  C   UNL A   1      39.798  26.531  28.913  1.00  0.00     0.131 A 
ATOM     80  C   UNL A   1      41.566  27.148  26.882  1.00  0.00     0.055 A 
ATOM     81  C   UNL A   1      39.751  25.812  27.717  1.00  0.00     0.041 A 
ATOM     82  F   UNL A   1      38.907  26.211  29.866  1.00  0.00    -0.206 F 
ATOM     83  C   UNL A   1      40.630  26.129  26.687  1.00  0.00     0.022 A 
BRANCH  80  84
ATOM     84  S   UNL A   1      42.630  27.675  25.511  1.00  0.00     0.124 S 
ATOM     85  O   UNL A   1      41.905  28.833  25.002  1.00  0.00    -0.237 OA
ATOM     86  O   UNL A   1      43.888  27.954  26.196  1.00  0.00    -0.237 OA
ATOM     87  O   UNL A   1      42.648  26.510  24.629  1.00  0.00    -0.744 OA
ENDBRANCH  80  84
ENDBRANCH  53  77
BRANCH  65  88
ATOM     88  C   UNL A   1      44.887  27.522  34.757  1.00  0.00     0.023 A 
ATOM     89  C   UNL A   1      44.711  26.289  35.410  1.00  0.00     0.031 A 
ATOM     90  C   UNL A   1      46.202  27.940  34.482  1.00  0.00     0.131 A 
ATOM     91  C   UNL A   1      45.829  25.547  35.818  1.00  0.00     0.055 A 
ATOM     92  C   UNL A   1      47.309  27.165  34.828  1.00  0.00     0.041 A 
ATOM     93  F   UNL A   1      46.432  29.111  33.867  1.00  0.00    -0.206 F 
ATOM     94  C   UNL A   1      47.127  25.967  35.512  1.00  0.00     0.022 A 
BRANCH  91  95
ATOM     95  S   UNL A   1      45.571  24.075  36.844  1.00  0.00     0.124 S 
ATOM     96  O   UNL A   1      46.888  23.450  36.814  1.00  0.00    -0.237 OA
ATOM     97  O   UNL A   1      45.169  24.653  38.123  1.00  0.00    -0.237 OA
ATOM     98  O   UNL A   1      44.520  23.344  36.138  1.00  0.00    -0.744 OA
ENDBRANCH  91  95
ENDBRANCH  65  88
ENDBRANCH  39  40
ENDBRANCH  31  34
ENDBRANCH  29  30
ENDBRANCH  28  29
ENDBRANCH  27  28
ENDBRANCH   1  27
TORSDOF 20
ENDMDL
