MODEL 1
REMARK VINA RESULT:     -11.9      0.000      0.000
REMARK SMILES O=C(NCCCCCCNC(=O)[C@@H]1CCCN(C(=O)Nc2ccccc2)C1)c1ccc(-c2c3nc(c(-c4cc(S(=O)(=O)[O-])ccc4F)c4ccc([nH]4)c(-c4cc(S(=O)(=O)[O-])ccc4F)c4nc(c(-c5cc(S(=O)(=O)[O-])ccc5F)c5ccc2[nH]5)C=C4)C=C3)cc1
REMARK SMILES IDX 6 1 5 2 4 3 3 4 1 5 2 6 28 8 29 9 90 10 30 11 89 12 31 13
REMARK SMILES IDX 32 14 33 15 83 16 34 17 88 18 82 19 84 20 35 21 87 22 81 23
REMARK SMILES IDX 80 24 36 26 68 27 48 28 67 29 49 30 52 31 66 32 85 33 50 34
REMARK SMILES IDX 51 35 65 37 86 38 53 39 37 40 38 41 46 42 39 43 45 44 47 45
REMARK SMILES IDX 44 46 40 47 41 48 42 49 43 50 69 51 70 52 78 53 71 54 77 55
REMARK SMILES IDX 79 56 76 57 72 58 73 59 74 60 75 61 54 62 55 63 63 64 56 65
REMARK SMILES IDX 62 66 64 67 61 68 57 69 58 70 59 71 60 72 7 73 8 74 9 75
REMARK SMILES IDX 10 76 11 77 12 79 13 80 14 81 27 82 15 83 17 84 16 85 18 86
REMARK SMILES IDX 19 87 20 88 21 90 22 91 26 92 23 93 25 94 24 95
REMARK H PARENT 3 7 84 25 52 36 10 78 20 89
REMARK Flexibility Score: inf
ROOT
ATOM      1  C   UNL A   1      31.724  27.520  26.144  1.00  0.00     0.002 C 
ENDROOT
BRANCH   1   2
ATOM      2  C   UNL A   1      32.330  28.129  24.879  1.00  0.00     0.021 C 
BRANCH   2   3
ATOM      3  C   UNL A   1      33.373  29.208  25.138  1.00  0.00     0.116 C 
BRANCH   3   4
ATOM      4  N   UNL A   1      32.769  30.454  25.588  1.00  0.00    -0.352 N 
ATOM      5  O   UNL A   1      32.253  32.082  27.062  1.00  0.00    -0.269 OA
ATOM      6  C   UNL A   1      33.017  31.178  26.727  1.00  0.00     0.251 C 
ATOM      7  H   UNL A   1      32.083  30.831  24.990  1.00  0.00     0.163 HD
BRANCH   6   8
ATOM      8  C   UNL A   1      34.206  30.865  27.544  1.00  0.00     0.039 A 
ATOM      9  C   UNL A   1      34.390  29.573  28.040  1.00  0.00     0.014 A 
ATOM     10  C   UNL A   1      35.153  31.860  27.801  1.00  0.00     0.014 A 
ATOM     11  C   UNL A   1      35.444  29.309  28.904  1.00  0.00     0.010 A 
ATOM     12  C   UNL A   1      36.270  31.565  28.590  1.00  0.00     0.010 A 
ATOM     13  C   UNL A   1      36.415  30.292  29.162  1.00  0.00    -0.014 A 
BRANCH  13  14
ATOM     14  C   UNL A   1      37.617  29.921  29.952  1.00  0.00     0.031 A 
ATOM     15  C   UNL A   1      38.690  29.042  29.378  1.00  0.00     0.074 A 
ATOM     16  C   UNL A   1      37.739  30.427  31.196  1.00  0.00     0.049 A 
ATOM     17  N   UNL A   1      39.806  28.640  29.933  1.00  0.00    -0.248 NA
ATOM     18  C   UNL A   1      38.486  28.543  28.011  1.00  0.00     0.031 C 
ATOM     19  C   UNL A   1      36.749  31.289  31.852  1.00  0.00     0.029 A 
ATOM     20  N   UNL A   1      38.741  30.314  32.124  1.00  0.00    -0.354 N 
ATOM     21  C   UNL A   1      40.434  27.833  28.990  1.00  0.00     0.074 A 
ATOM     22  C   UNL A   1      39.554  27.776  27.841  1.00  0.00     0.031 C 
ATOM     23  C   UNL A   1      37.218  31.667  33.048  1.00  0.00     0.029 A 
ATOM     24  C   UNL A   1      38.495  31.010  33.285  1.00  0.00     0.049 A 
ATOM     25  H   UNL A   1      39.558  29.786  31.973  1.00  0.00     0.167 HD
ATOM     26  C   UNL A   1      41.634  27.207  29.079  1.00  0.00     0.034 A 
ATOM     27  C   UNL A   1      39.202  31.087  34.428  1.00  0.00     0.034 A 
ATOM     28  C   UNL A   1      42.489  27.273  30.243  1.00  0.00     0.049 A 
ATOM     29  C   UNL A   1      40.502  30.332  34.519  1.00  0.00     0.074 A 
ATOM     30  C   UNL A   1      43.736  26.697  30.430  1.00  0.00     0.029 A 
ATOM     31  N   UNL A   1      42.186  27.942  31.422  1.00  0.00    -0.354 N 
ATOM     32  N   UNL A   1      41.091  29.592  33.608  1.00  0.00    -0.248 NA
ATOM     33  C   UNL A   1      41.230  30.427  35.787  1.00  0.00     0.031 C 
ATOM     34  C   UNL A   1      44.147  26.953  31.742  1.00  0.00     0.029 A 
ATOM     35  C   UNL A   1      43.202  27.764  32.351  1.00  0.00     0.049 A 
ATOM     36  H   UNL A   1      41.368  28.468  31.577  1.00  0.00     0.167 HD
ATOM     37  C   UNL A   1      42.275  29.151  34.190  1.00  0.00     0.074 A 
ATOM     38  C   UNL A   1      42.325  29.733  35.516  1.00  0.00     0.031 C 
ATOM     39  C   UNL A   1      43.232  28.336  33.677  1.00  0.00     0.034 A 
BRANCH  26  40
ATOM     40  C   UNL A   1      42.075  26.362  27.907  1.00  0.00     0.023 A 
ATOM     41  C   UNL A   1      41.716  25.007  27.792  1.00  0.00     0.031 A 
ATOM     42  C   UNL A   1      42.864  26.920  26.885  1.00  0.00     0.131 A 
ATOM     43  C   UNL A   1      42.193  24.244  26.716  1.00  0.00     0.055 A 
ATOM     44  C   UNL A   1      43.272  26.175  25.776  1.00  0.00     0.041 A 
ATOM     45  F   UNL A   1      43.257  28.202  26.948  1.00  0.00    -0.206 F 
ATOM     46  C   UNL A   1      42.947  24.824  25.693  1.00  0.00     0.022 A 
BRANCH  43  47
ATOM     47  S   UNL A   1      41.922  22.450  26.737  1.00  0.00     0.124 S 
ATOM     48  O   UNL A   1      42.283  22.080  25.370  1.00  0.00    -0.237 OA
ATOM     49  O   UNL A   1      42.838  22.003  27.779  1.00  0.00    -0.237 OA
ATOM     50  O   UNL A   1      40.502  22.321  27.054  1.00  0.00    -0.744 OA
ENDBRANCH  43  47
ENDBRANCH  26  40
BRANCH  27  51
ATOM     51  C   UNL A   1      38.681  31.865  35.588  1.00  0.00     0.023 A 
ATOM     52  C   UNL A   1      38.150  31.219  36.714  1.00  0.00     0.031 A 
ATOM     53  C   UNL A   1      38.664  33.272  35.567  1.00  0.00     0.131 A 
ATOM     54  C   UNL A   1      37.577  31.975  37.748  1.00  0.00     0.055 A 
ATOM     55  C   UNL A   1      38.155  34.022  36.628  1.00  0.00     0.041 A 
ATOM     56  F   UNL A   1      39.160  33.942  34.514  1.00  0.00    -0.206 F 
ATOM     57  C   UNL A   1      37.591  33.372  37.720  1.00  0.00     0.022 A 
BRANCH  54  58
ATOM     58  S   UNL A   1      36.711  31.102  39.080  1.00  0.00     0.124 S 
ATOM     59  O   UNL A   1      36.538  29.775  38.501  1.00  0.00    -0.237 OA
ATOM     60  O   UNL A   1      37.667  31.202  40.178  1.00  0.00    -0.237 OA
ATOM     61  O   UNL A   1      35.483  31.875  39.251  1.00  0.00    -0.744 OA
ENDBRANCH  54  58
ENDBRANCH  27  51
BRANCH  39  62
ATOM     62  C   UNL A   1      44.432  28.067  34.552  1.00  0.00     0.023 A 
ATOM     63  C   UNL A   1      44.394  27.116  35.587  1.00  0.00     0.031 A 
ATOM     64  C   UNL A   1      45.618  28.799  34.371  1.00  0.00     0.131 A 
ATOM     65  C   UNL A   1      45.494  26.972  36.445  1.00  0.00     0.055 A 
ATOM     66  C   UNL A   1      46.736  28.600  35.183  1.00  0.00     0.041 A 
ATOM     67  F   UNL A   1      45.711  29.724  33.402  1.00  0.00    -0.206 F 
ATOM     68  C   UNL A   1      46.672  27.694  36.237  1.00  0.00     0.022 A 
BRANCH  65  69
ATOM     69  S   UNL A   1      45.323  25.911  37.906  1.00  0.00     0.124 S 
ATOM     70  O   UNL A   1      44.869  24.656  37.317  1.00  0.00    -0.237 OA
ATOM     71  O   UNL A   1      46.677  25.908  38.450  1.00  0.00    -0.237 OA
ATOM     72  O   UNL A   1      44.330  26.608  38.722  1.00  0.00    -0.744 OA
ENDBRANCH  65  69
ENDBRANCH  39  62
ENDBRANCH  13  14
ENDBRANCH   6   8
ENDBRANCH   3   4
ENDBRANCH   2   3
ENDBRANCH   1   2
BRANCH   1  73
ATOM     73  C   UNL A   1      30.681  26.422  25.908  1.00  0.00     0.002 C 
BRANCH  73  74
ATOM     74  C   UNL A   1      29.885  26.544  24.607  1.00  0.00     0.021 C 
BRANCH  74  75
ATOM     75  C   UNL A   1      30.267  25.535  23.530  1.00  0.00     0.116 C 
BRANCH  75  76
ATOM     76  N   UNL A   1      30.425  24.196  24.054  1.00  0.00    -0.356 N 
ATOM     77  C   UNL A   1      31.498  23.531  24.546  1.00  0.00     0.224 C 
ATOM     78  H   UNL A   1      29.595  23.668  24.052  1.00  0.00     0.163 HD
ATOM     79  O   UNL A   1      31.277  22.391  24.978  1.00  0.00    -0.275 OA
BRANCH  77  80
ATOM     80  C   UNL A   1      32.935  24.064  24.572  1.00  0.00     0.098 C 
ATOM     81  C   UNL A   1      33.724  24.106  23.271  1.00  0.00     0.017 C 
ATOM     82  C   UNL A   1      33.736  23.512  25.743  1.00  0.00     0.134 C 
ATOM     83  C   UNL A   1      34.851  23.087  23.122  1.00  0.00     0.022 C 
ATOM     84  N   UNL A   1      34.308  22.200  25.471  1.00  0.00    -0.324 N 
ATOM     85  C   UNL A   1      35.137  22.122  24.275  1.00  0.00     0.121 C 
BRANCH  84  86
ATOM     86  C   UNL A   1      34.088  21.212  26.414  1.00  0.00     0.321 C 
ATOM     87  O   UNL A   1      34.206  21.435  27.626  1.00  0.00    -0.248 OA
ATOM     88  N   UNL A   1      33.574  19.994  26.103  1.00  0.00    -0.308 N 
ATOM     89  H   UNL A   1      33.169  19.540  26.877  1.00  0.00     0.171 HD
BRANCH  88  90
ATOM     90  C   UNL A   1      33.492  19.241  24.931  1.00  0.00     0.042 A 
ATOM     91  C   UNL A   1      34.421  18.212  24.760  1.00  0.00     0.026 A 
ATOM     92  C   UNL A   1      32.525  19.473  23.954  1.00  0.00     0.026 A 
ATOM     93  C   UNL A   1      34.274  17.313  23.704  1.00  0.00     0.002 A 
ATOM     94  C   UNL A   1      32.384  18.579  22.892  1.00  0.00     0.002 A 
ATOM     95  C   UNL A   1      33.239  17.482  22.787  1.00  0.00     0.000 A 
ENDBRANCH  88  90
ENDBRANCH  84  86
ENDBRANCH  77  80
ENDBRANCH  75  76
ENDBRANCH  74  75
ENDBRANCH  73  74
ENDBRANCH   1  73
TORSDOF 18
ENDMDL
MODEL 2
REMARK VINA RESULT:     -11.9      2.295      3.317
REMARK SMILES O=C(NCCCCCCNC(=O)[C@@H]1CCCN(C(=O)Nc2ccccc2)C1)c1ccc(-c2c3nc(c(-c4cc(S(=O)(=O)[O-])ccc4F)c4ccc([nH]4)c(-c4cc(S(=O)(=O)[O-])ccc4F)c4nc(c(-c5cc(S(=O)(=O)[O-])ccc5F)c5ccc2[nH]5)C=C4)C=C3)cc1
REMARK SMILES IDX 6 1 5 2 4 3 3 4 1 5 2 6 28 8 29 9 90 10 30 11 89 12 31 13
REMARK SMILES IDX 32 14 33 15 83 16 34 17 88 18 82 19 84 20 35 21 87 22 81 23
REMARK SMILES IDX 80 24 36 26 68 27 48 28 67 29 49 30 52 31 66 32 85 33 50 34
REMARK SMILES IDX 51 35 65 37 86 38 53 39 37 40 38 41 46 42 39 43 45 44 47 45
REMARK SMILES IDX 44 46 40 47 41 48 42 49 43 50 69 51 70 52 78 53 71 54 77 55
REMARK SMILES IDX 79 56 76 57 72 58 73 59 74 60 75 61 54 62 55 63 63 64 56 65
REMARK SMILES IDX 62 66 64 67 61 68 57 69 58 70 59 71 60 72 7 73 8 74 9 75
REMARK SMILES IDX 10 76 11 77 12 79 13 80 14 81 27 82 15 83 17 84 16 85 18 86
REMARK SMILES IDX 19 87 20 88 21 90 22 91 26 92 23 93 25 94 24 95
REMARK H PARENT 3 7 84 25 52 36 10 78 20 89
REMARK Flexibility Score: inf
ROOT
ATOM      1  C   UNL A   1      31.554  30.936  26.828  1.00  0.00     0.002 C 
ENDROOT
BRANCH   1   2
ATOM      2  C   UNL A   1      31.581  32.466  26.804  1.00  0.00     0.021 C 
BRANCH   2   3
ATOM      3  C   UNL A   1      32.917  33.077  27.207  1.00  0.00     0.116 C 
BRANCH   3   4
ATOM      4  N   UNL A   1      32.756  34.400  27.793  1.00  0.00    -0.352 N 
ATOM      5  O   UNL A   1      32.884  35.972  29.406  1.00  0.00    -0.269 OA
ATOM      6  C   UNL A   1      33.309  34.917  28.937  1.00  0.00     0.251 C 
ATOM      7  H   UNL A   1      32.165  35.013  27.297  1.00  0.00     0.163 HD
BRANCH   6   8
ATOM      8  C   UNL A   1      34.416  34.199  29.599  1.00  0.00     0.039 A 
ATOM      9  C   UNL A   1      35.733  34.418  29.190  1.00  0.00     0.014 A 
ATOM     10  C   UNL A   1      34.143  33.316  30.648  1.00  0.00     0.014 A 
ATOM     11  C   UNL A   1      36.760  33.658  29.731  1.00  0.00     0.010 A 
ATOM     12  C   UNL A   1      35.192  32.624  31.261  1.00  0.00     0.010 A 
ATOM     13  C   UNL A   1      36.507  32.777  30.796  1.00  0.00    -0.014 A 
BRANCH  13  14
ATOM     14  C   UNL A   1      37.655  32.109  31.461  1.00  0.00     0.031 A 
ATOM     15  C   UNL A   1      38.407  30.994  30.792  1.00  0.00     0.074 A 
ATOM     16  C   UNL A   1      38.031  32.556  32.676  1.00  0.00     0.049 A 
ATOM     17  N   UNL A   1      39.438  30.319  31.234  1.00  0.00    -0.248 NA
ATOM     18  C   UNL A   1      37.940  30.575  29.463  1.00  0.00     0.031 C 
ATOM     19  C   UNL A   1      37.365  33.632  33.418  1.00  0.00     0.029 A 
ATOM     20  N   UNL A   1      39.066  32.186  33.495  1.00  0.00    -0.354 N 
ATOM     21  C   UNL A   1      39.740  29.389  30.244  1.00  0.00     0.074 A 
ATOM     22  C   UNL A   1      38.757  29.567  29.195  1.00  0.00     0.031 C 
ATOM     23  C   UNL A   1      38.038  33.869  34.551  1.00  0.00     0.029 A 
ATOM     24  C   UNL A   1      39.127  32.910  34.664  1.00  0.00     0.049 A 
ATOM     25  H   UNL A   1      39.704  31.471  33.268  1.00  0.00     0.167 HD
ATOM     26  C   UNL A   1      40.748  28.481  30.217  1.00  0.00     0.034 A 
ATOM     27  C   UNL A   1      39.949  32.796  35.724  1.00  0.00     0.034 A 
ATOM     28  C   UNL A   1      41.711  28.319  31.283  1.00  0.00     0.049 A 
ATOM     29  C   UNL A   1      41.019  31.738  35.691  1.00  0.00     0.074 A 
ATOM     30  C   UNL A   1      42.786  27.448  31.348  1.00  0.00     0.029 A 
ATOM     31  N   UNL A   1      41.712  29.032  32.476  1.00  0.00    -0.354 N 
ATOM     32  N   UNL A   1      41.304  30.883  34.735  1.00  0.00    -0.248 NA
ATOM     33  C   UNL A   1      41.879  31.635  36.873  1.00  0.00     0.031 C 
ATOM     34  C   UNL A   1      43.385  27.579  32.605  1.00  0.00     0.029 A 
ATOM     35  C   UNL A   1      42.743  28.595  33.295  1.00  0.00     0.049 A 
ATOM     36  H   UNL A   1      41.073  29.744  32.707  1.00  0.00     0.167 HD
ATOM     37  C   UNL A   1      42.394  30.153  35.197  1.00  0.00     0.074 A 
ATOM     38  C   UNL A   1      42.730  30.691  36.500  1.00  0.00     0.031 C 
ATOM     39  C   UNL A   1      43.056  29.129  34.601  1.00  0.00     0.034 A 
BRANCH  26  40
ATOM     40  C   UNL A   1      40.835  27.564  29.020  1.00  0.00     0.023 A 
ATOM     41  C   UNL A   1      41.775  27.770  27.995  1.00  0.00     0.031 A 
ATOM     42  C   UNL A   1      39.965  26.464  28.902  1.00  0.00     0.131 A 
ATOM     43  C   UNL A   1      41.784  26.927  26.872  1.00  0.00     0.055 A 
ATOM     44  C   UNL A   1      40.031  25.583  27.819  1.00  0.00     0.041 A 
ATOM     45  F   UNL A   1      39.032  26.228  29.837  1.00  0.00    -0.206 F 
ATOM     46  C   UNL A   1      40.937  25.820  26.789  1.00  0.00     0.022 A 
BRANCH  43  47
ATOM     47  S   UNL A   1      42.834  27.373  25.461  1.00  0.00     0.124 S 
ATOM     48  O   UNL A   1      42.879  26.117  24.717  1.00  0.00    -0.237 OA
ATOM     49  O   UNL A   1      42.082  28.456  24.837  1.00  0.00    -0.237 OA
ATOM     50  O   UNL A   1      44.097  27.766  26.083  1.00  0.00    -0.744 OA
ENDBRANCH  43  47
ENDBRANCH  26  40
BRANCH  27  51
ATOM     51  C   UNL A   1      39.765  33.669  36.918  1.00  0.00     0.023 A 
ATOM     52  C   UNL A   1      39.131  33.190  38.074  1.00  0.00     0.031 A 
ATOM     53  C   UNL A   1      40.183  35.013  36.904  1.00  0.00     0.131 A 
ATOM     54  C   UNL A   1      38.884  34.062  39.147  1.00  0.00     0.055 A 
ATOM     55  C   UNL A   1      39.996  35.857  37.999  1.00  0.00     0.041 A 
ATOM     56  F   UNL A   1      40.795  35.523  35.823  1.00  0.00    -0.206 F 
ATOM     57  C   UNL A   1      39.327  35.386  39.124  1.00  0.00     0.022 A 
BRANCH  54  58
ATOM     58  S   UNL A   1      37.875  33.466  40.530  1.00  0.00     0.124 S 
ATOM     59  O   UNL A   1      38.754  32.469  41.130  1.00  0.00    -0.237 OA
ATOM     60  O   UNL A   1      37.669  34.687  41.302  1.00  0.00    -0.237 OA
ATOM     61  O   UNL A   1      36.682  32.935  39.875  1.00  0.00    -0.744 OA
ENDBRANCH  54  58
ENDBRANCH  27  51
BRANCH  39  62
ATOM     62  C   UNL A   1      44.237  28.559  35.348  1.00  0.00     0.023 A 
ATOM     63  C   UNL A   1      44.093  27.493  36.256  1.00  0.00     0.031 A 
ATOM     64  C   UNL A   1      45.518  29.113  35.179  1.00  0.00     0.131 A 
ATOM     65  C   UNL A   1      45.194  27.064  37.010  1.00  0.00     0.055 A 
ATOM     66  C   UNL A   1      46.625  28.632  35.880  1.00  0.00     0.041 A 
ATOM     67  F   UNL A   1      45.714  30.135  34.331  1.00  0.00    -0.206 F 
ATOM     68  C   UNL A   1      46.463  27.614  36.813  1.00  0.00     0.022 A 
BRANCH  65  69
ATOM     69  S   UNL A   1      44.922  25.855  38.334  1.00  0.00     0.124 S 
ATOM     70  O   UNL A   1      44.205  26.650  39.326  1.00  0.00    -0.237 OA
ATOM     71  O   UNL A   1      44.142  24.823  37.660  1.00  0.00    -0.237 OA
ATOM     72  O   UNL A   1      46.275  25.457  38.719  1.00  0.00    -0.744 OA
ENDBRANCH  65  69
ENDBRANCH  39  62
ENDBRANCH  13  14
ENDBRANCH   6   8
ENDBRANCH   3   4
ENDBRANCH   2   3
ENDBRANCH   1   2
BRANCH   1  73
ATOM     73  C   UNL A   1      32.637  30.249  25.991  1.00  0.00     0.002 C 
BRANCH  73  74
ATOM     74  C   UNL A   1      32.394  28.768  25.693  1.00  0.00     0.021 C 
BRANCH  74  75
ATOM     75  C   UNL A   1      32.281  27.880  26.927  1.00  0.00     0.116 C 
BRANCH  75  76
ATOM     76  N   UNL A   1      31.108  27.036  26.899  1.00  0.00    -0.356 N 
ATOM     77  C   UNL A   1      30.759  25.987  26.116  1.00  0.00     0.224 C 
ATOM     78  H   UNL A   1      30.435  27.267  27.580  1.00  0.00     0.163 HD
ATOM     79  O   UNL A   1      29.687  25.433  26.399  1.00  0.00    -0.275 OA
BRANCH  77  80
ATOM     80  C   UNL A   1      31.558  25.476  24.912  1.00  0.00     0.098 C 
ATOM     81  C   UNL A   1      30.805  24.860  23.741  1.00  0.00     0.017 C 
ATOM     82  C   UNL A   1      32.782  24.673  25.329  1.00  0.00     0.134 C 
ATOM     83  C   UNL A   1      30.925  23.347  23.572  1.00  0.00     0.022 C 
ATOM     84  N   UNL A   1      32.474  23.279  25.620  1.00  0.00    -0.324 N 
ATOM     85  C   UNL A   1      31.798  22.557  24.549  1.00  0.00     0.121 C 
BRANCH  84  86
ATOM     86  C   UNL A   1      32.936  22.772  26.822  1.00  0.00     0.321 C 
ATOM     87  O   UNL A   1      32.226  22.762  27.836  1.00  0.00    -0.248 OA
ATOM     88  N   UNL A   1      34.115  22.109  26.940  1.00  0.00    -0.308 N 
ATOM     89  H   UNL A   1      34.151  21.533  27.739  1.00  0.00     0.171 HD
BRANCH  88  90
ATOM     90  C   UNL A   1      35.287  22.060  26.184  1.00  0.00     0.042 A 
ATOM     91  C   UNL A   1      36.116  23.184  26.207  1.00  0.00     0.026 A 
ATOM     92  C   UNL A   1      35.652  20.944  25.433  1.00  0.00     0.026 A 
ATOM     93  C   UNL A   1      37.381  23.125  25.625  1.00  0.00     0.002 A 
ATOM     94  C   UNL A   1      36.914  20.888  24.842  1.00  0.00     0.002 A 
ATOM     95  C   UNL A   1      37.789  21.967  24.966  1.00  0.00     0.000 A 
ENDBRANCH  88  90
ENDBRANCH  84  86
ENDBRANCH  77  80
ENDBRANCH  75  76
ENDBRANCH  74  75
ENDBRANCH  73  74
ENDBRANCH   1  73
TORSDOF 18
ENDMDL
MODEL 3
REMARK VINA RESULT:     -11.8      5.370      8.360
REMARK SMILES O=C(NCCCCCCNC(=O)[C@@H]1CCCN(C(=O)Nc2ccccc2)C1)c1ccc(-c2c3nc(c(-c4cc(S(=O)(=O)[O-])ccc4F)c4ccc([nH]4)c(-c4cc(S(=O)(=O)[O-])ccc4F)c4nc(c(-c5cc(S(=O)(=O)[O-])ccc5F)c5ccc2[nH]5)C=C4)C=C3)cc1
REMARK SMILES IDX 6 1 5 2 4 3 3 4 1 5 2 6 28 8 29 9 90 10 30 11 89 12 31 13
REMARK SMILES IDX 32 14 33 15 83 16 34 17 88 18 82 19 84 20 35 21 87 22 81 23
REMARK SMILES IDX 80 24 36 26 68 27 48 28 67 29 49 30 52 31 66 32 85 33 50 34
REMARK SMILES IDX 51 35 65 37 86 38 53 39 37 40 38 41 46 42 39 43 45 44 47 45
REMARK SMILES IDX 44 46 40 47 41 48 42 49 43 50 69 51 70 52 78 53 71 54 77 55
REMARK SMILES IDX 79 56 76 57 72 58 73 59 74 60 75 61 54 62 55 63 63 64 56 65
REMARK SMILES IDX 62 66 64 67 61 68 57 69 58 70 59 71 60 72 7 73 8 74 9 75
REMARK SMILES IDX 10 76 11 77 12 79 13 80 14 81 27 82 15 83 17 84 16 85 18 86
REMARK SMILES IDX 19 87 20 88 21 90 22 91 26 92 23 93 25 94 24 95
REMARK H PARENT 3 7 84 25 52 36 10 78 20 89
REMARK Flexibility Score: inf
ROOT
ATOM      1  C   UNL A   1      34.686  23.015  26.008  1.00  0.00     0.002 C 
ENDROOT
BRANCH   1   2
ATOM      2  C   UNL A   1      35.443  21.771  25.538  1.00  0.00     0.021 C 
BRANCH   2   3
ATOM      3  C   UNL A   1      36.899  22.023  25.170  1.00  0.00     0.116 C 
BRANCH   3   4
ATOM      4  N   UNL A   1      37.767  20.937  25.607  1.00  0.00    -0.352 N 
ATOM      5  O   UNL A   1      39.719  19.952  26.160  1.00  0.00    -0.269 OA
ATOM      6  C   UNL A   1      39.064  20.987  26.052  1.00  0.00     0.251 C 
ATOM      7  H   UNL A   1      37.365  20.039  25.578  1.00  0.00     0.163 HD
BRANCH   6   8
ATOM      8  C   UNL A   1      39.664  22.290  26.402  1.00  0.00     0.039 A 
ATOM      9  C   UNL A   1      40.798  22.339  27.215  1.00  0.00     0.014 A 
ATOM     10  C   UNL A   1      39.106  23.469  25.900  1.00  0.00     0.014 A 
ATOM     11  C   UNL A   1      41.291  23.566  27.639  1.00  0.00     0.010 A 
ATOM     12  C   UNL A   1      39.666  24.702  26.247  1.00  0.00     0.010 A 
ATOM     13  C   UNL A   1      40.753  24.761  27.133  1.00  0.00    -0.014 A 
BRANCH  13  14
ATOM     14  C   UNL A   1      41.415  26.046  27.475  1.00  0.00     0.031 A 
ATOM     15  C   UNL A   1      42.785  26.382  26.960  1.00  0.00     0.074 A 
ATOM     16  C   UNL A   1      40.736  26.926  28.238  1.00  0.00     0.049 A 
ATOM     17  N   UNL A   1      43.492  27.466  27.156  1.00  0.00    -0.248 NA
ATOM     18  C   UNL A   1      43.451  25.373  26.125  1.00  0.00     0.031 C 
ATOM     19  C   UNL A   1      39.398  26.696  28.796  1.00  0.00     0.029 A 
ATOM     20  N   UNL A   1      41.054  28.190  28.662  1.00  0.00    -0.354 N 
ATOM     21  C   UNL A   1      44.691  27.269  26.478  1.00  0.00     0.074 A 
ATOM     22  C   UNL A   1      44.626  25.944  25.897  1.00  0.00     0.031 C 
ATOM     23  C   UNL A   1      38.993  27.798  29.439  1.00  0.00     0.029 A 
ATOM     24  C   UNL A   1      40.068  28.780  29.418  1.00  0.00     0.049 A 
ATOM     25  H   UNL A   1      41.906  28.632  28.445  1.00  0.00     0.167 HD
ATOM     26  C   UNL A   1      45.740  28.120  26.353  1.00  0.00     0.034 A 
ATOM     27  C   UNL A   1      40.041  29.967  30.053  1.00  0.00     0.034 A 
ATOM     28  C   UNL A   1      45.783  29.435  26.952  1.00  0.00     0.049 A 
ATOM     29  C   UNL A   1      41.244  30.865  29.944  1.00  0.00     0.074 A 
ATOM     30  C   UNL A   1      46.785  30.388  26.868  1.00  0.00     0.029 A 
ATOM     31  N   UNL A   1      44.790  29.981  27.756  1.00  0.00    -0.354 N 
ATOM     32  N   UNL A   1      42.361  30.671  29.280  1.00  0.00    -0.248 NA
ATOM     33  C   UNL A   1      41.182  32.139  30.666  1.00  0.00     0.031 C 
ATOM     34  C   UNL A   1      46.433  31.471  27.680  1.00  0.00     0.029 A 
ATOM     35  C   UNL A   1      45.171  31.238  28.203  1.00  0.00     0.049 A 
ATOM     36  H   UNL A   1      43.938  29.539  27.978  1.00  0.00     0.167 HD
ATOM     37  C   UNL A   1      43.126  31.814  29.488  1.00  0.00     0.074 A 
ATOM     38  C   UNL A   1      42.329  32.699  30.313  1.00  0.00     0.031 C 
ATOM     39  C   UNL A   1      44.374  32.104  29.041  1.00  0.00     0.034 A 
BRANCH  26  40
ATOM     40  C   UNL A   1      46.944  27.641  25.575  1.00  0.00     0.023 A 
ATOM     41  C   UNL A   1      47.136  27.979  24.224  1.00  0.00     0.031 A 
ATOM     42  C   UNL A   1      47.917  26.836  26.196  1.00  0.00     0.131 A 
ATOM     43  C   UNL A   1      48.240  27.467  23.524  1.00  0.00     0.055 A 
ATOM     44  C   UNL A   1      49.053  26.393  25.514  1.00  0.00     0.041 A 
ATOM     45  F   UNL A   1      47.778  26.462  27.477  1.00  0.00    -0.206 F 
ATOM     46  C   UNL A   1      49.213  26.697  24.165  1.00  0.00     0.022 A 
BRANCH  43  47
ATOM     47  S   UNL A   1      48.318  27.714  21.728  1.00  0.00     0.124 S 
ATOM     48  O   UNL A   1      49.437  28.645  21.606  1.00  0.00    -0.237 OA
ATOM     49  O   UNL A   1      48.556  26.364  21.232  1.00  0.00    -0.237 OA
ATOM     50  O   UNL A   1      47.010  28.278  21.401  1.00  0.00    -0.744 OA
ENDBRANCH  43  47
ENDBRANCH  26  40
BRANCH  27  51
ATOM     51  C   UNL A   1      38.863  30.355  30.879  1.00  0.00     0.023 A 
ATOM     52  C   UNL A   1      37.899  31.250  30.392  1.00  0.00     0.031 A 
ATOM     53  C   UNL A   1      38.706  29.868  32.191  1.00  0.00     0.131 A 
ATOM     54  C   UNL A   1      36.853  31.672  31.227  1.00  0.00     0.055 A 
ATOM     55  C   UNL A   1      37.627  30.238  32.993  1.00  0.00     0.041 A 
ATOM     56  F   UNL A   1      39.599  29.008  32.707  1.00  0.00    -0.206 F 
ATOM     57  C   UNL A   1      36.701  31.161  32.517  1.00  0.00     0.022 A 
BRANCH  54  58
ATOM     58  S   UNL A   1      35.755  32.989  30.637  1.00  0.00     0.124 S 
ATOM     59  O   UNL A   1      36.590  33.647  29.639  1.00  0.00    -0.237 OA
ATOM     60  O   UNL A   1      34.621  32.229  30.123  1.00  0.00    -0.237 OA
ATOM     61  O   UNL A   1      35.486  33.771  31.842  1.00  0.00    -0.744 OA
ENDBRANCH  54  58
ENDBRANCH  27  51
BRANCH  39  62
ATOM     62  C   UNL A   1      44.928  33.459  29.411  1.00  0.00     0.023 A 
ATOM     63  C   UNL A   1      44.677  34.600  28.626  1.00  0.00     0.031 A 
ATOM     64  C   UNL A   1      45.749  33.603  30.542  1.00  0.00     0.131 A 
ATOM     65  C   UNL A   1      45.298  35.816  28.944  1.00  0.00     0.055 A 
ATOM     66  C   UNL A   1      46.306  34.834  30.895  1.00  0.00     0.041 A 
ATOM     67  F   UNL A   1      46.027  32.548  31.325  1.00  0.00    -0.206 F 
ATOM     68  C   UNL A   1      46.095  35.945  30.085  1.00  0.00     0.022 A 
BRANCH  65  69
ATOM     69  S   UNL A   1      45.142  37.201  27.783  1.00  0.00     0.124 S 
ATOM     70  O   UNL A   1      45.164  38.351  28.680  1.00  0.00    -0.237 OA
ATOM     71  O   UNL A   1      46.317  37.031  26.935  1.00  0.00    -0.237 OA
ATOM     72  O   UNL A   1      43.862  36.953  27.123  1.00  0.00    -0.744 OA
ENDBRANCH  65  69
ENDBRANCH  39  62
ENDBRANCH  13  14
ENDBRANCH   6   8
ENDBRANCH   3   4
ENDBRANCH   2   3
ENDBRANCH   1   2
BRANCH   1  73
ATOM     73  C   UNL A   1      35.092  24.325  25.325  1.00  0.00     0.002 C 
BRANCH  73  74
ATOM     74  C   UNL A   1      34.227  25.539  25.671  1.00  0.00     0.021 C 
BRANCH  74  75
ATOM     75  C   UNL A   1      32.947  25.663  24.853  1.00  0.00     0.116 C 
BRANCH  75  76
ATOM     76  N   UNL A   1      33.189  25.600  23.429  1.00  0.00    -0.356 N 
ATOM     77  C   UNL A   1      33.362  26.562  22.490  1.00  0.00     0.224 C 
ATOM     78  H   UNL A   1      33.238  24.684  23.073  1.00  0.00     0.163 HD
ATOM     79  O   UNL A   1      33.616  26.163  21.346  1.00  0.00    -0.275 OA
BRANCH  77  80
ATOM     80  C   UNL A   1      33.232  28.070  22.734  1.00  0.00     0.098 C 
ATOM     81  C   UNL A   1      33.874  28.669  23.978  1.00  0.00     0.017 C 
ATOM     82  C   UNL A   1      31.818  28.576  22.484  1.00  0.00     0.134 C 
ATOM     83  C   UNL A   1      32.925  29.120  25.087  1.00  0.00     0.022 C 
ATOM     84  N   UNL A   1      30.938  28.392  23.630  1.00  0.00    -0.324 N 
ATOM     85  C   UNL A   1      31.416  28.973  24.878  1.00  0.00     0.121 C 
BRANCH  84  86
ATOM     86  C   UNL A   1      29.719  27.782  23.393  1.00  0.00     0.321 C 
ATOM     87  O   UNL A   1      29.560  26.566  23.560  1.00  0.00    -0.248 OA
ATOM     88  N   UNL A   1      28.584  28.477  23.126  1.00  0.00    -0.308 N 
ATOM     89  H   UNL A   1      27.766  27.961  23.312  1.00  0.00     0.171 HD
BRANCH  88  90
ATOM     90  C   UNL A   1      28.315  29.760  22.647  1.00  0.00     0.042 A 
ATOM     91  C   UNL A   1      27.877  30.714  23.569  1.00  0.00     0.026 A 
ATOM     92  C   UNL A   1      28.479  30.113  21.309  1.00  0.00     0.026 A 
ATOM     93  C   UNL A   1      27.772  32.051  23.187  1.00  0.00     0.002 A 
ATOM     94  C   UNL A   1      28.365  31.449  20.924  1.00  0.00     0.002 A 
ATOM     95  C   UNL A   1      28.043  32.421  21.871  1.00  0.00     0.000 A 
ENDBRANCH  88  90
ENDBRANCH  84  86
ENDBRANCH  77  80
ENDBRANCH  75  76
ENDBRANCH  74  75
ENDBRANCH  73  74
ENDBRANCH   1  73
TORSDOF 18
ENDMDL
