MODEL 1
REMARK VINA RESULT:     -12.5      0.000      0.000
REMARK SMILES C[NH+]1CCC(C(=O)N2C[C@@H](C(=O)NCCCCCCNC(=O)c3ccc(-c4c5nc(c(-c6cc(S(=O)(=O)[O-])ccc6F)c6ccc([nH]6)c(-c6cc(S(=O)(=O)[O-])ccc6F)c6nc(c(-c7cc(S(=O)(=O)[O-])ccc7F)c7ccc4[nH]7)C=C6)C=C5)cc3)[C@H](c3ccc4c(c3)OCO4)C2)CC1
REMARK SMILES IDX 17 1 16 2 15 3 14 4 13 5 11 6 12 7 10 9 8 10 9 11 96 12
REMARK SMILES IDX 86 13 6 14 7 15 5 16 1 17 2 18 3 19 98 20 4 22 97 23 87 24
REMARK SMILES IDX 88 25 92 26 89 27 91 28 90 29 93 30 95 31 94 32 18 33 19 34
REMARK SMILES IDX 20 35 21 36 22 38 23 39 24 40 85 41 25 42 84 43 26 44 27 45
REMARK SMILES IDX 28 46 78 47 29 48 83 49 77 50 79 51 30 52 82 53 76 54 75 55
REMARK SMILES IDX 31 57 63 58 43 59 62 60 44 61 47 62 61 63 80 64 45 65 46 66
REMARK SMILES IDX 60 68 81 69 48 70 32 71 33 72 41 73 34 74 40 75 42 76 39 77
REMARK SMILES IDX 35 78 36 79 37 80 38 81 64 82 65 83 73 84 66 85 72 86 74 87
REMARK SMILES IDX 71 88 67 89 68 90 69 91 70 92 49 93 50 94 58 95 51 96 57 97
REMARK SMILES IDX 59 98 56 99 52 100 53 101 54 102 55 103
REMARK H PARENT 13 8 2 21 20 37 79 56 47 67
REMARK Flexibility Score: inf
ROOT
ATOM      1  C   UNL A   1      34.021  31.103  27.722  1.00  0.00     0.002 C 
ENDROOT
BRANCH   1   2
ATOM      2  C   UNL A   1      33.656  29.700  27.225  1.00  0.00     0.002 C 
BRANCH   2   3
ATOM      3  C   UNL A   1      32.173  29.458  26.916  1.00  0.00     0.021 C 
BRANCH   3   4
ATOM      4  C   UNL A   1      31.759  29.707  25.467  1.00  0.00     0.116 C 
BRANCH   4   5
ATOM      5  N   UNL A   1      32.886  29.710  24.548  1.00  0.00    -0.356 N 
ATOM      6  C   UNL A   1      33.277  28.766  23.644  1.00  0.00     0.225 C 
ATOM      7  O   UNL A   1      34.201  29.038  22.875  1.00  0.00    -0.275 OA
ATOM      8  H   UNL A   1      33.454  30.514  24.584  1.00  0.00     0.163 HD
BRANCH   6   9
ATOM      9  C   UNL A   1      32.575  27.428  23.602  1.00  0.00     0.107 C 
ATOM     10  N   UNL A   1      32.753  25.182  23.093  1.00  0.00    -0.341 N 
ATOM     11  C   UNL A   1      33.580  26.300  23.492  1.00  0.00     0.133 C 
ATOM     12  C   UNL A   1      31.712  25.659  22.183  1.00  0.00     0.128 C 
ATOM     13  C   UNL A   1      31.718  27.202  22.336  1.00  0.00     0.053 C 
BRANCH  10  14
ATOM     14  C   UNL A   1      32.844  23.852  23.413  1.00  0.00     0.226 C 
ATOM     15  O   UNL A   1      31.838  23.133  23.349  1.00  0.00    -0.275 OA
BRANCH  14  16
ATOM     16  C   UNL A   1      34.085  23.301  24.129  1.00  0.00     0.090 C 
ATOM     17  C   UNL A   1      37.597  20.997  25.043  1.00  0.00     0.332 C 
ATOM     18  N   UNL A   1      36.317  21.475  24.526  1.00  0.00    -0.337 N 
ATOM     19  C   UNL A   1      36.506  22.686  23.718  1.00  0.00     0.262 C 
ATOM     20  C   UNL A   1      35.362  21.717  25.617  1.00  0.00     0.262 C 
ATOM     21  H   UNL A   1      35.927  20.748  23.926  1.00  0.00     0.347 HD
ATOM     22  C   UNL A   1      35.188  23.111  23.077  1.00  0.00     0.075 C 
ATOM     23  C   UNL A   1      33.991  22.075  25.034  1.00  0.00     0.075 C 
ENDBRANCH  14  16
ENDBRANCH  10  14
BRANCH  13  24
ATOM     24  C   UNL A   1      30.391  27.924  22.469  1.00  0.00    -0.038 A 
ATOM     25  C   UNL A   1      29.294  27.380  23.177  1.00  0.00     0.008 A 
ATOM     26  C   UNL A   1      30.319  29.256  22.016  1.00  0.00     0.054 A 
ATOM     27  C   UNL A   1      28.162  28.156  23.462  1.00  0.00     0.051 A 
ATOM     28  C   UNL A   1      29.208  30.004  22.344  1.00  0.00     0.166 A 
ATOM     29  C   UNL A   1      28.162  29.471  23.054  1.00  0.00     0.165 A 
ATOM     30  O   UNL A   1      29.045  31.332  22.095  1.00  0.00    -0.454 OA
ATOM     31  O   UNL A   1      27.204  30.393  23.335  1.00  0.00    -0.454 OA
ATOM     32  C   UNL A   1      27.814  31.588  22.805  1.00  0.00     0.468 C 
ENDBRANCH  13  24
ENDBRANCH   6   9
ENDBRANCH   4   5
ENDBRANCH   3   4
ENDBRANCH   2   3
ENDBRANCH   1   2
BRANCH   1  33
ATOM     33  C   UNL A   1      32.859  32.089  27.862  1.00  0.00     0.021 C 
BRANCH  33  34
ATOM     34  C   UNL A   1      32.990  33.381  27.060  1.00  0.00     0.116 C 
BRANCH  34  35
ATOM     35  N   UNL A   1      32.691  34.561  27.857  1.00  0.00    -0.352 N 
ATOM     36  C   UNL A   1      33.205  34.967  29.063  1.00  0.00     0.251 C 
ATOM     37  H   UNL A   1      32.013  35.162  27.471  1.00  0.00     0.163 HD
ATOM     38  O   UNL A   1      32.671  35.915  29.648  1.00  0.00    -0.269 OA
BRANCH  36  39
ATOM     39  C   UNL A   1      34.364  34.280  29.682  1.00  0.00     0.039 A 
ATOM     40  C   UNL A   1      35.638  34.484  29.139  1.00  0.00     0.014 A 
ATOM     41  C   UNL A   1      34.210  33.408  30.763  1.00  0.00     0.014 A 
ATOM     42  C   UNL A   1      36.755  33.865  29.713  1.00  0.00     0.010 A 
ATOM     43  C   UNL A   1      35.332  32.851  31.380  1.00  0.00     0.010 A 
ATOM     44  C   UNL A   1      36.618  33.068  30.860  1.00  0.00    -0.014 A 
BRANCH  44  45
ATOM     45  C   UNL A   1      37.799  32.441  31.518  1.00  0.00     0.031 A 
ATOM     46  C   UNL A   1      38.529  31.310  30.839  1.00  0.00     0.074 A 
ATOM     47  C   UNL A   1      38.168  32.835  32.754  1.00  0.00     0.049 A 
ATOM     48  N   UNL A   1      39.504  30.564  31.292  1.00  0.00    -0.248 NA
ATOM     49  C   UNL A   1      38.081  30.952  29.484  1.00  0.00     0.031 C 
ATOM     50  C   UNL A   1      37.516  33.888  33.537  1.00  0.00     0.029 A 
ATOM     51  N   UNL A   1      39.171  32.385  33.579  1.00  0.00    -0.354 N 
ATOM     52  C   UNL A   1      39.763  29.628  30.295  1.00  0.00     0.074 A 
ATOM     53  C   UNL A   1      38.817  29.879  29.229  1.00  0.00     0.031 C 
ATOM     54  C   UNL A   1      38.139  34.005  34.722  1.00  0.00     0.029 A 
ATOM     55  C   UNL A   1      39.205  33.012  34.805  1.00  0.00     0.049 A 
ATOM     56  H   UNL A   1      39.806  31.680  33.319  1.00  0.00     0.167 HD
ATOM     57  C   UNL A   1      40.711  28.659  30.264  1.00  0.00     0.034 A 
ATOM     58  C   UNL A   1      39.991  32.801  35.880  1.00  0.00     0.034 A 
ATOM     59  C   UNL A   1      41.681  28.448  31.312  1.00  0.00     0.049 A 
ATOM     60  C   UNL A   1      41.056  31.733  35.808  1.00  0.00     0.074 A 
ATOM     61  C   UNL A   1      42.740  27.557  31.337  1.00  0.00     0.029 A 
ATOM     62  N   UNL A   1      41.710  29.132  32.519  1.00  0.00    -0.354 N 
ATOM     63  N   UNL A   1      41.328  30.904  34.828  1.00  0.00    -0.248 NA
ATOM     64  C   UNL A   1      41.927  31.584  36.982  1.00  0.00     0.031 C 
ATOM     65  C   UNL A   1      43.372  27.661  32.580  1.00  0.00     0.029 A 
ATOM     66  C   UNL A   1      42.749  28.663  33.306  1.00  0.00     0.049 A 
ATOM     67  H   UNL A   1      41.084  29.846  32.778  1.00  0.00     0.167 HD
ATOM     68  C   UNL A   1      42.423  30.159  35.257  1.00  0.00     0.074 A 
ATOM     69  C   UNL A   1      42.770  30.646  36.574  1.00  0.00     0.031 C 
ATOM     70  C   UNL A   1      43.085  29.160  34.618  1.00  0.00     0.034 A 
BRANCH  57  71
ATOM     71  C   UNL A   1      40.736  27.734  29.073  1.00  0.00     0.023 A 
ATOM     72  C   UNL A   1      41.663  27.891  28.029  1.00  0.00     0.031 A 
ATOM     73  C   UNL A   1      39.819  26.671  28.987  1.00  0.00     0.131 A 
ATOM     74  C   UNL A   1      41.617  27.033  26.918  1.00  0.00     0.055 A 
ATOM     75  C   UNL A   1      39.825  25.778  27.913  1.00  0.00     0.041 A 
ATOM     76  F   UNL A   1      38.898  26.484  29.946  1.00  0.00    -0.206 F 
ATOM     77  C   UNL A   1      40.721  25.964  26.865  1.00  0.00     0.022 A 
BRANCH  74  78
ATOM     78  S   UNL A   1      42.677  27.400  25.493  1.00  0.00     0.124 S 
ATOM     79  O   UNL A   1      42.560  26.169  24.716  1.00  0.00    -0.237 OA
ATOM     80  O   UNL A   1      42.040  28.580  24.920  1.00  0.00    -0.237 OA
ATOM     81  O   UNL A   1      43.990  27.629  26.093  1.00  0.00    -0.744 OA
ENDBRANCH  74  78
ENDBRANCH  57  71
BRANCH  58  82
ATOM     82  C   UNL A   1      39.797  33.589  37.132  1.00  0.00     0.023 A 
ATOM     83  C   UNL A   1      40.548  34.749  37.383  1.00  0.00     0.031 A 
ATOM     84  C   UNL A   1      38.906  33.155  38.129  1.00  0.00     0.131 A 
ATOM     85  C   UNL A   1      40.440  35.399  38.622  1.00  0.00     0.055 A 
ATOM     86  C   UNL A   1      38.759  33.838  39.338  1.00  0.00     0.041 A 
ATOM     87  F   UNL A   1      38.159  32.055  37.940  1.00  0.00    -0.206 F 
ATOM     88  C   UNL A   1      39.543  34.958  39.597  1.00  0.00     0.022 A 
BRANCH  85  89
ATOM     89  S   UNL A   1      41.575  36.768  38.985  1.00  0.00     0.124 S 
ATOM     90  O   UNL A   1      42.223  36.967  37.694  1.00  0.00    -0.237 OA
ATOM     91  O   UNL A   1      40.654  37.817  39.408  1.00  0.00    -0.237 OA
ATOM     92  O   UNL A   1      42.432  36.229  40.038  1.00  0.00    -0.744 OA
ENDBRANCH  85  89
ENDBRANCH  58  82
BRANCH  70  93
ATOM     93  C   UNL A   1      44.281  28.571  35.321  1.00  0.00     0.023 A 
ATOM     94  C   UNL A   1      44.151  27.543  36.269  1.00  0.00     0.031 A 
ATOM     95  C   UNL A   1      45.572  29.058  35.043  1.00  0.00     0.131 A 
ATOM     96  C   UNL A   1      45.285  27.068  36.944  1.00  0.00     0.055 A 
ATOM     97  C   UNL A   1      46.702  28.544  35.679  1.00  0.00     0.041 A 
ATOM     98  F   UNL A   1      45.753  30.041  34.147  1.00  0.00    -0.206 F 
ATOM     99  C   UNL A   1      46.561  27.551  36.645  1.00  0.00     0.022 A 
BRANCH  96 100
ATOM    100  S   UNL A   1      45.062  25.863  38.282  1.00  0.00     0.124 S 
ATOM    101  O   UNL A   1      46.438  25.607  38.693  1.00  0.00    -0.237 OA
ATOM    102  O   UNL A   1      44.240  26.603  39.235  1.00  0.00    -0.237 OA
ATOM    103  O   UNL A   1      44.391  24.742  37.627  1.00  0.00    -0.744 OA
ENDBRANCH  96 100
ENDBRANCH  70  93
ENDBRANCH  44  45
ENDBRANCH  36  39
ENDBRANCH  34  35
ENDBRANCH  33  34
ENDBRANCH   1  33
TORSDOF 19
ENDMDL
MODEL 2
REMARK VINA RESULT:     -12.3      5.683     11.775
REMARK SMILES C[NH+]1CCC(C(=O)N2C[C@@H](C(=O)NCCCCCCNC(=O)c3ccc(-c4c5nc(c(-c6cc(S(=O)(=O)[O-])ccc6F)c6ccc([nH]6)c(-c6cc(S(=O)(=O)[O-])ccc6F)c6nc(c(-c7cc(S(=O)(=O)[O-])ccc7F)c7ccc4[nH]7)C=C6)C=C5)cc3)[C@H](c3ccc4c(c3)OCO4)C2)CC1
REMARK SMILES IDX 17 1 16 2 15 3 14 4 13 5 11 6 12 7 10 9 8 10 9 11 96 12
REMARK SMILES IDX 86 13 6 14 7 15 5 16 1 17 2 18 3 19 98 20 4 22 97 23 87 24
REMARK SMILES IDX 88 25 92 26 89 27 91 28 90 29 93 30 95 31 94 32 18 33 19 34
REMARK SMILES IDX 20 35 21 36 22 38 23 39 24 40 85 41 25 42 84 43 26 44 27 45
REMARK SMILES IDX 28 46 78 47 29 48 83 49 77 50 79 51 30 52 82 53 76 54 75 55
REMARK SMILES IDX 31 57 63 58 43 59 62 60 44 61 47 62 61 63 80 64 45 65 46 66
REMARK SMILES IDX 60 68 81 69 48 70 32 71 33 72 41 73 34 74 40 75 42 76 39 77
REMARK SMILES IDX 35 78 36 79 37 80 38 81 64 82 65 83 73 84 66 85 72 86 74 87
REMARK SMILES IDX 71 88 67 89 68 90 69 91 70 92 49 93 50 94 58 95 51 96 57 97
REMARK SMILES IDX 59 98 56 99 52 100 53 101 54 102 55 103
REMARK H PARENT 13 8 2 21 20 37 79 56 47 67
REMARK Flexibility Score: inf
ROOT
ATOM      1  C   UNL A   1      37.120  19.497  24.968  1.00  0.00     0.002 C 
ENDROOT
BRANCH   1   2
ATOM      2  C   UNL A   1      36.040  20.540  24.662  1.00  0.00     0.002 C 
BRANCH   2   3
ATOM      3  C   UNL A   1      36.532  21.975  24.436  1.00  0.00     0.021 C 
BRANCH   3   4
ATOM      4  C   UNL A   1      36.321  22.931  25.608  1.00  0.00     0.116 C 
BRANCH   4   5
ATOM      5  N   UNL A   1      35.603  22.320  26.715  1.00  0.00    -0.356 N 
ATOM      6  C   UNL A   1      34.264  22.124  26.884  1.00  0.00     0.225 C 
ATOM      7  O   UNL A   1      33.885  21.467  27.855  1.00  0.00    -0.275 OA
ATOM      8  H   UNL A   1      36.168  22.000  27.455  1.00  0.00     0.163 HD
BRANCH   6   9
ATOM      9  C   UNL A   1      33.286  22.706  25.889  1.00  0.00     0.107 C 
ATOM     10  N   UNL A   1      31.637  24.279  25.511  1.00  0.00    -0.341 N 
ATOM     11  C   UNL A   1      32.796  24.063  26.349  1.00  0.00     0.133 C 
ATOM     12  C   UNL A   1      30.948  23.004  25.312  1.00  0.00     0.128 C 
ATOM     13  C   UNL A   1      31.959  21.922  25.771  1.00  0.00     0.053 C 
BRANCH  10  14
ATOM     14  C   UNL A   1      31.141  25.433  24.963  1.00  0.00     0.226 C 
ATOM     15  O   UNL A   1      30.355  25.373  24.008  1.00  0.00    -0.275 OA
BRANCH  14  16
ATOM     16  C   UNL A   1      31.762  26.794  25.306  1.00  0.00     0.090 C 
ATOM     17  C   UNL A   1      32.284  30.802  26.771  1.00  0.00     0.332 C 
ATOM     18  N   UNL A   1      31.744  29.545  26.257  1.00  0.00    -0.337 N 
ATOM     19  C   UNL A   1      31.987  28.452  27.206  1.00  0.00     0.262 C 
ATOM     20  C   UNL A   1      32.306  29.227  24.936  1.00  0.00     0.262 C 
ATOM     21  H   UNL A   1      30.736  29.655  26.148  1.00  0.00     0.347 HD
ATOM     22  C   UNL A   1      31.314  27.170  26.726  1.00  0.00     0.075 C 
ATOM     23  C   UNL A   1      31.613  27.987  24.364  1.00  0.00     0.075 C 
ENDBRANCH  14  16
ENDBRANCH  10  14
BRANCH  13  24
ATOM     24  C   UNL A   1      32.154  20.694  24.904  1.00  0.00    -0.038 A 
ATOM     25  C   UNL A   1      32.131  20.746  23.490  1.00  0.00     0.008 A 
ATOM     26  C   UNL A   1      32.543  19.497  25.536  1.00  0.00     0.054 A 
ATOM     27  C   UNL A   1      32.522  19.644  22.720  1.00  0.00     0.051 A 
ATOM     28  C   UNL A   1      32.958  18.442  24.752  1.00  0.00     0.166 A 
ATOM     29  C   UNL A   1      32.955  18.515  23.382  1.00  0.00     0.165 A 
ATOM     30  O   UNL A   1      33.483  17.273  25.209  1.00  0.00    -0.454 OA
ATOM     31  O   UNL A   1      33.470  17.399  22.802  1.00  0.00    -0.454 OA
ATOM     32  C   UNL A   1      33.887  16.657  23.966  1.00  0.00     0.468 C 
ENDBRANCH  13  24
ENDBRANCH   6   9
ENDBRANCH   4   5
ENDBRANCH   3   4
ENDBRANCH   2   3
ENDBRANCH   1   2
BRANCH   1  33
ATOM     33  C   UNL A   1      38.568  19.954  24.775  1.00  0.00     0.021 C 
BRANCH  33  34
ATOM     34  C   UNL A   1      39.402  20.056  26.049  1.00  0.00     0.116 C 
BRANCH  34  35
ATOM     35  N   UNL A   1      40.522  19.127  26.055  1.00  0.00    -0.352 N 
ATOM     36  C   UNL A   1      41.870  19.367  26.143  1.00  0.00     0.251 C 
ATOM     37  H   UNL A   1      40.273  18.177  25.984  1.00  0.00     0.163 HD
ATOM     38  O   UNL A   1      42.654  18.434  25.943  1.00  0.00    -0.269 OA
BRANCH  36  39
ATOM     39  C   UNL A   1      42.398  20.720  26.445  1.00  0.00     0.039 A 
ATOM     40  C   UNL A   1      42.707  21.576  25.381  1.00  0.00     0.014 A 
ATOM     41  C   UNL A   1      42.629  21.143  27.756  1.00  0.00     0.014 A 
ATOM     42  C   UNL A   1      43.188  22.866  25.633  1.00  0.00     0.010 A 
ATOM     43  C   UNL A   1      43.038  22.454  28.007  1.00  0.00     0.010 A 
ATOM     44  C   UNL A   1      43.328  23.330  26.950  1.00  0.00    -0.014 A 
BRANCH  44  45
ATOM     45  C   UNL A   1      43.789  24.717  27.242  1.00  0.00     0.031 A 
ATOM     46  C   UNL A   1      42.818  25.736  27.784  1.00  0.00     0.074 A 
ATOM     47  C   UNL A   1      45.054  25.081  26.952  1.00  0.00     0.049 A 
ATOM     48  N   UNL A   1      42.994  27.015  27.998  1.00  0.00    -0.248 NA
ATOM     49  C   UNL A   1      41.463  25.258  28.096  1.00  0.00     0.031 C 
ATOM     50  C   UNL A   1      46.078  24.201  26.382  1.00  0.00     0.029 A 
ATOM     51  N   UNL A   1      45.694  26.291  27.077  1.00  0.00    -0.354 N 
ATOM     52  C   UNL A   1      41.766  27.501  28.436  1.00  0.00     0.074 A 
ATOM     53  C   UNL A   1      40.844  26.385  28.422  1.00  0.00     0.031 C 
ATOM     54  C   UNL A   1      47.214  24.898  26.214  1.00  0.00     0.029 A 
ATOM     55  C   UNL A   1      46.993  26.283  26.621  1.00  0.00     0.049 A 
ATOM     56  H   UNL A   1      45.263  27.091  27.456  1.00  0.00     0.167 HD
ATOM     57  C   UNL A   1      41.440  28.758  28.828  1.00  0.00     0.034 A 
ATOM     58  C   UNL A   1      47.898  27.277  26.524  1.00  0.00     0.034 A 
ATOM     59  C   UNL A   1      42.379  29.852  28.885  1.00  0.00     0.049 A 
ATOM     60  C   UNL A   1      47.517  28.660  26.993  1.00  0.00     0.074 A 
ATOM     61  C   UNL A   1      42.173  31.138  29.355  1.00  0.00     0.029 A 
ATOM     62  N   UNL A   1      43.697  29.793  28.455  1.00  0.00    -0.354 N 
ATOM     63  N   UNL A   1      46.369  29.083  27.468  1.00  0.00    -0.248 NA
ATOM     64  C   UNL A   1      48.558  29.695  26.926  1.00  0.00     0.031 C 
ATOM     65  C   UNL A   1      43.348  31.872  29.156  1.00  0.00     0.029 A 
ATOM     66  C   UNL A   1      44.307  31.026  28.623  1.00  0.00     0.049 A 
ATOM     67  H   UNL A   1      44.135  28.993  28.086  1.00  0.00     0.167 HD
ATOM     68  C   UNL A   1      46.562  30.425  27.786  1.00  0.00     0.074 A 
ATOM     69  C   UNL A   1      47.938  30.736  27.465  1.00  0.00     0.031 C 
ATOM     70  C   UNL A   1      45.682  31.321  28.300  1.00  0.00     0.034 A 
BRANCH  57  71
ATOM     71  C   UNL A   1      40.005  29.029  29.205  1.00  0.00     0.023 A 
ATOM     72  C   UNL A   1      39.594  29.126  30.545  1.00  0.00     0.031 A 
ATOM     73  C   UNL A   1      39.033  29.202  28.203  1.00  0.00     0.131 A 
ATOM     74  C   UNL A   1      38.238  29.333  30.848  1.00  0.00     0.055 A 
ATOM     75  C   UNL A   1      37.699  29.478  28.509  1.00  0.00     0.041 A 
ATOM     76  F   UNL A   1      39.365  29.100  26.905  1.00  0.00    -0.206 F 
ATOM     77  C   UNL A   1      37.294  29.534  29.839  1.00  0.00     0.022 A 
BRANCH  74  78
ATOM     78  S   UNL A   1      37.710  29.232  32.579  1.00  0.00     0.124 S 
ATOM     79  O   UNL A   1      36.363  29.792  32.508  1.00  0.00    -0.237 OA
ATOM     80  O   UNL A   1      37.793  27.802  32.852  1.00  0.00    -0.237 OA
ATOM     81  O   UNL A   1      38.686  30.059  33.285  1.00  0.00    -0.744 OA
ENDBRANCH  74  78
ENDBRANCH  57  71
BRANCH  58  82
ATOM     82  C   UNL A   1      49.248  27.025  25.939  1.00  0.00     0.023 A 
ATOM     83  C   UNL A   1      49.558  27.425  24.629  1.00  0.00     0.031 A 
ATOM     84  C   UNL A   1      50.227  26.317  26.659  1.00  0.00     0.131 A 
ATOM     85  C   UNL A   1      50.787  27.062  24.059  1.00  0.00     0.055 A 
ATOM     86  C   UNL A   1      51.471  26.008  26.108  1.00  0.00     0.041 A 
ATOM     87  F   UNL A   1      49.985  25.914  27.918  1.00  0.00    -0.206 F 
ATOM     88  C   UNL A   1      51.750  26.366  24.793  1.00  0.00     0.022 A 
BRANCH  85  89
ATOM     89  S   UNL A   1      51.066  27.417  22.301  1.00  0.00     0.124 S 
ATOM     90  O   UNL A   1      50.975  28.872  22.274  1.00  0.00    -0.237 OA
ATOM     91  O   UNL A   1      52.394  26.854  22.087  1.00  0.00    -0.237 OA
ATOM     92  O   UNL A   1      49.975  26.710  21.635  1.00  0.00    -0.744 OA
ENDBRANCH  85  89
ENDBRANCH  58  82
BRANCH  70  93
ATOM     93  C   UNL A   1      46.203  32.705  28.591  1.00  0.00     0.023 A 
ATOM     94  C   UNL A   1      46.024  33.768  27.691  1.00  0.00     0.031 A 
ATOM     95  C   UNL A   1      46.900  32.958  29.787  1.00  0.00     0.131 A 
ATOM     96  C   UNL A   1      46.581  35.024  27.974  1.00  0.00     0.055 A 
ATOM     97  C   UNL A   1      47.405  34.223  30.089  1.00  0.00     0.041 A 
ATOM     98  F   UNL A   1      47.100  31.977  30.681  1.00  0.00    -0.206 F 
ATOM     99  C   UNL A   1      47.257  35.263  29.174  1.00  0.00     0.022 A 
BRANCH  96 100
ATOM    100  S   UNL A   1      46.480  36.327  26.715  1.00  0.00     0.124 S 
ATOM    101  O   UNL A   1      47.128  37.449  27.387  1.00  0.00    -0.237 OA
ATOM    102  O   UNL A   1      47.217  35.740  25.600  1.00  0.00    -0.237 OA
ATOM    103  O   UNL A   1      45.044  36.481  26.494  1.00  0.00    -0.744 OA
ENDBRANCH  96 100
ENDBRANCH  70  93
ENDBRANCH  44  45
ENDBRANCH  36  39
ENDBRANCH  34  35
ENDBRANCH  33  34
ENDBRANCH   1  33
TORSDOF 19
ENDMDL
MODEL 3
REMARK VINA RESULT:     -12.0      5.836     10.269
REMARK SMILES C[NH+]1CCC(C(=O)N2C[C@@H](C(=O)NCCCCCCNC(=O)c3ccc(-c4c5nc(c(-c6cc(S(=O)(=O)[O-])ccc6F)c6ccc([nH]6)c(-c6cc(S(=O)(=O)[O-])ccc6F)c6nc(c(-c7cc(S(=O)(=O)[O-])ccc7F)c7ccc4[nH]7)C=C6)C=C5)cc3)[C@H](c3ccc4c(c3)OCO4)C2)CC1
REMARK SMILES IDX 17 1 16 2 15 3 14 4 13 5 11 6 12 7 10 9 8 10 9 11 96 12
REMARK SMILES IDX 86 13 6 14 7 15 5 16 1 17 2 18 3 19 98 20 4 22 97 23 87 24
REMARK SMILES IDX 88 25 92 26 89 27 91 28 90 29 93 30 95 31 94 32 18 33 19 34
REMARK SMILES IDX 20 35 21 36 22 38 23 39 24 40 85 41 25 42 84 43 26 44 27 45
REMARK SMILES IDX 28 46 78 47 29 48 83 49 77 50 79 51 30 52 82 53 76 54 75 55
REMARK SMILES IDX 31 57 63 58 43 59 62 60 44 61 47 62 61 63 80 64 45 65 46 66
REMARK SMILES IDX 60 68 81 69 48 70 32 71 33 72 41 73 34 74 40 75 42 76 39 77
REMARK SMILES IDX 35 78 36 79 37 80 38 81 64 82 65 83 73 84 66 85 72 86 74 87
REMARK SMILES IDX 71 88 67 89 68 90 69 91 70 92 49 93 50 94 58 95 51 96 57 97
REMARK SMILES IDX 59 98 56 99 52 100 53 101 54 102 55 103
REMARK H PARENT 13 8 2 21 20 37 79 56 47 67
REMARK Flexibility Score: inf
ROOT
ATOM      1  C   UNL A   1      38.903  22.089  26.219  1.00  0.00     0.002 C 
ENDROOT
BRANCH   1   2
ATOM      2  C   UNL A   1      37.715  22.718  25.482  1.00  0.00     0.002 C 
BRANCH   2   3
ATOM      3  C   UNL A   1      37.018  21.830  24.444  1.00  0.00     0.021 C 
BRANCH   3   4
ATOM      4  C   UNL A   1      35.931  20.910  24.996  1.00  0.00     0.116 C 
BRANCH   4   5
ATOM      5  N   UNL A   1      35.503  21.279  26.336  1.00  0.00    -0.356 N 
ATOM      6  C   UNL A   1      34.392  21.959  26.741  1.00  0.00     0.225 C 
ATOM      7  O   UNL A   1      34.168  22.051  27.949  1.00  0.00    -0.275 OA
ATOM      8  H   UNL A   1      36.106  20.997  27.061  1.00  0.00     0.163 HD
BRANCH   6   9
ATOM      9  C   UNL A   1      33.469  22.573  25.713  1.00  0.00     0.107 C 
ATOM     10  N   UNL A   1      31.947  24.250  25.256  1.00  0.00    -0.341 N 
ATOM     11  C   UNL A   1      33.080  23.981  26.115  1.00  0.00     0.133 C 
ATOM     12  C   UNL A   1      31.165  23.024  25.099  1.00  0.00     0.128 C 
ATOM     13  C   UNL A   1      32.088  21.887  25.611  1.00  0.00     0.053 C 
BRANCH  10  14
ATOM     14  C   UNL A   1      31.545  25.416  24.658  1.00  0.00     0.226 C 
ATOM     15  O   UNL A   1      30.970  25.379  23.562  1.00  0.00    -0.275 OA
BRANCH  14  16
ATOM     16  C   UNL A   1      32.050  26.773  25.167  1.00  0.00     0.090 C 
ATOM     17  C   UNL A   1      32.169  30.717  26.874  1.00  0.00     0.332 C 
ATOM     18  N   UNL A   1      31.772  29.474  26.217  1.00  0.00    -0.337 N 
ATOM     19  C   UNL A   1      31.875  28.343  27.146  1.00  0.00     0.262 C 
ATOM     20  C   UNL A   1      32.572  29.234  25.007  1.00  0.00     0.262 C 
ATOM     21  H   UNL A   1      30.797  29.565  25.931  1.00  0.00     0.347 HD
ATOM     22  C   UNL A   1      31.340  27.069  26.497  1.00  0.00     0.075 C 
ATOM     23  C   UNL A   1      32.034  28.006  24.266  1.00  0.00     0.075 C 
ENDBRANCH  14  16
ENDBRANCH  10  14
BRANCH  13  24
ATOM     24  C   UNL A   1      32.196  20.615  24.793  1.00  0.00    -0.038 A 
ATOM     25  C   UNL A   1      32.154  20.610  23.379  1.00  0.00     0.008 A 
ATOM     26  C   UNL A   1      32.524  19.424  25.471  1.00  0.00     0.054 A 
ATOM     27  C   UNL A   1      32.468  19.455  22.652  1.00  0.00     0.051 A 
ATOM     28  C   UNL A   1      32.863  18.315  24.726  1.00  0.00     0.166 A 
ATOM     29  C   UNL A   1      32.844  18.331  23.355  1.00  0.00     0.165 A 
ATOM     30  O   UNL A   1      33.325  17.136  25.226  1.00  0.00    -0.454 OA
ATOM     31  O   UNL A   1      33.282  17.163  22.816  1.00  0.00    -0.454 OA
ATOM     32  C   UNL A   1      33.672  16.447  24.005  1.00  0.00     0.468 C 
ENDBRANCH  13  24
ENDBRANCH   6   9
ENDBRANCH   4   5
ENDBRANCH   3   4
ENDBRANCH   2   3
ENDBRANCH   1   2
BRANCH   1  33
ATOM     33  C   UNL A   1      39.505  20.838  25.576  1.00  0.00     0.021 C 
BRANCH  33  34
ATOM     34  C   UNL A   1      40.091  19.815  26.546  1.00  0.00     0.116 C 
BRANCH  34  35
ATOM     35  N   UNL A   1      41.395  19.332  26.120  1.00  0.00    -0.352 N 
ATOM     36  C   UNL A   1      42.564  20.017  25.902  1.00  0.00     0.251 C 
ATOM     37  H   UNL A   1      41.447  18.361  25.965  1.00  0.00     0.163 HD
ATOM     38  O   UNL A   1      43.507  19.427  25.365  1.00  0.00    -0.269 OA
BRANCH  36  39
ATOM     39  C   UNL A   1      42.705  21.446  26.271  1.00  0.00     0.039 A 
ATOM     40  C   UNL A   1      42.840  21.784  27.623  1.00  0.00     0.014 A 
ATOM     41  C   UNL A   1      42.666  22.461  25.311  1.00  0.00     0.014 A 
ATOM     42  C   UNL A   1      42.995  23.122  28.003  1.00  0.00     0.010 A 
ATOM     43  C   UNL A   1      42.895  23.787  25.684  1.00  0.00     0.010 A 
ATOM     44  C   UNL A   1      43.057  24.135  27.034  1.00  0.00    -0.014 A 
BRANCH  44  45
ATOM     45  C   UNL A   1      43.273  25.561  27.410  1.00  0.00     0.031 A 
ATOM     46  C   UNL A   1      44.659  26.153  27.358  1.00  0.00     0.074 A 
ATOM     47  C   UNL A   1      42.242  26.299  27.869  1.00  0.00     0.049 A 
ATOM     48  N   UNL A   1      45.070  27.332  27.748  1.00  0.00    -0.248 NA
ATOM     49  C   UNL A   1      45.726  25.292  26.826  1.00  0.00     0.031 C 
ATOM     50  C   UNL A   1      40.861  25.830  28.011  1.00  0.00     0.029 A 
ATOM     51  N   UNL A   1      42.196  27.597  28.320  1.00  0.00    -0.354 N 
ATOM     52  C   UNL A   1      46.446  27.344  27.542  1.00  0.00     0.074 A 
ATOM     53  C   UNL A   1      46.803  26.039  27.026  1.00  0.00     0.031 C 
ATOM     54  C   UNL A   1      40.106  26.825  28.506  1.00  0.00     0.029 A 
ATOM     55  C   UNL A   1      40.951  27.988  28.760  1.00  0.00     0.049 A 
ATOM     56  H   UNL A   1      42.980  28.192  28.330  1.00  0.00     0.167 HD
ATOM     57  C   UNL A   1      47.329  28.353  27.749  1.00  0.00     0.034 A 
ATOM     58  C   UNL A   1      40.538  29.143  29.320  1.00  0.00     0.034 A 
ATOM     59  C   UNL A   1      46.955  29.665  28.217  1.00  0.00     0.049 A 
ATOM     60  C   UNL A   1      41.535  30.259  29.513  1.00  0.00     0.074 A 
ATOM     61  C   UNL A   1      47.756  30.784  28.371  1.00  0.00     0.029 A 
ATOM     62  N   UNL A   1      45.677  30.036  28.611  1.00  0.00    -0.354 N 
ATOM     63  N   UNL A   1      42.821  30.272  29.247  1.00  0.00    -0.248 NA
ATOM     64  C   UNL A   1      41.024  31.519  30.069  1.00  0.00     0.031 C 
ATOM     65  C   UNL A   1      46.976  31.812  28.912  1.00  0.00     0.029 A 
ATOM     66  C   UNL A   1      45.674  31.356  29.033  1.00  0.00     0.049 A 
ATOM     67  H   UNL A   1      44.888  29.448  28.592  1.00  0.00     0.167 HD
ATOM     68  C   UNL A   1      43.262  31.552  29.574  1.00  0.00     0.074 A 
ATOM     69  C   UNL A   1      42.105  32.286  30.039  1.00  0.00     0.031 C 
ATOM     70  C   UNL A   1      44.511  32.075  29.494  1.00  0.00     0.034 A 
BRANCH  57  71
ATOM     71  C   UNL A   1      48.789  28.075  27.494  1.00  0.00     0.023 A 
ATOM     72  C   UNL A   1      49.394  28.353  26.257  1.00  0.00     0.031 A 
ATOM     73  C   UNL A   1      49.592  27.531  28.513  1.00  0.00     0.131 A 
ATOM     74  C   UNL A   1      50.746  28.035  26.051  1.00  0.00     0.055 A 
ATOM     75  C   UNL A   1      50.953  27.283  28.325  1.00  0.00     0.041 A 
ATOM     76  F   UNL A   1      49.064  27.228  29.709  1.00  0.00    -0.206 F 
ATOM     77  C   UNL A   1      51.535  27.525  27.085  1.00  0.00     0.022 A 
BRANCH  74  78
ATOM     78  S   UNL A   1      51.434  28.200  24.381  1.00  0.00     0.124 S 
ATOM     79  O   UNL A   1      52.810  27.755  24.586  1.00  0.00    -0.237 OA
ATOM     80  O   UNL A   1      50.584  27.308  23.600  1.00  0.00    -0.237 OA
ATOM     81  O   UNL A   1      51.281  29.623  24.087  1.00  0.00    -0.744 OA
ENDBRANCH  74  78
ENDBRANCH  57  71
BRANCH  58  82
ATOM     82  C   UNL A   1      39.123  29.311  29.766  1.00  0.00     0.023 A 
ATOM     83  C   UNL A   1      38.186  29.988  28.969  1.00  0.00     0.031 A 
ATOM     84  C   UNL A   1      38.706  28.856  31.029  1.00  0.00     0.131 A 
ATOM     85  C   UNL A   1      36.900  30.245  29.466  1.00  0.00     0.055 A 
ATOM     86  C   UNL A   1      37.406  29.063  31.497  1.00  0.00     0.041 A 
ATOM     87  F   UNL A   1      39.559  28.198  31.830  1.00  0.00    -0.206 F 
ATOM     88  C   UNL A   1      36.500  29.777  30.720  1.00  0.00     0.022 A 
BRANCH  85  89
ATOM     89  S   UNL A   1      35.788  31.298  28.493  1.00  0.00     0.124 S 
ATOM     90  O   UNL A   1      35.341  30.379  27.453  1.00  0.00    -0.237 OA
ATOM     91  O   UNL A   1      34.789  31.679  29.485  1.00  0.00    -0.237 OA
ATOM     92  O   UNL A   1      36.658  32.380  28.038  1.00  0.00    -0.744 OA
ENDBRANCH  85  89
ENDBRANCH  58  82
BRANCH  70  93
ATOM     93  C   UNL A   1      44.672  33.526  29.872  1.00  0.00     0.023 A 
ATOM     94  C   UNL A   1      44.449  34.560  28.948  1.00  0.00     0.031 A 
ATOM     95  C   UNL A   1      45.067  33.874  31.176  1.00  0.00     0.131 A 
ATOM     96  C   UNL A   1      44.671  35.893  29.325  1.00  0.00     0.055 A 
ATOM     97  C   UNL A   1      45.233  35.205  31.562  1.00  0.00     0.041 A 
ATOM     98  F   UNL A   1      45.294  32.925  32.098  1.00  0.00    -0.206 F 
ATOM     99  C   UNL A   1      45.047  36.223  30.630  1.00  0.00     0.022 A 
BRANCH  96 100
ATOM    100  S   UNL A   1      44.541  37.190  28.063  1.00  0.00     0.124 S 
ATOM    101  O   UNL A   1      45.904  37.708  28.019  1.00  0.00    -0.237 OA
ATOM    102  O   UNL A   1      44.105  36.440  26.889  1.00  0.00    -0.237 OA
ATOM    103  O   UNL A   1      43.545  38.108  28.615  1.00  0.00    -0.744 OA
ENDBRANCH  96 100
ENDBRANCH  70  93
ENDBRANCH  44  45
ENDBRANCH  36  39
ENDBRANCH  34  35
ENDBRANCH  33  34
ENDBRANCH   1  33
TORSDOF 19
ENDMDL
