MODEL 1
REMARK VINA RESULT:     -10.4      0.000      0.000
REMARK SMILES CCCC[C@H](NC(=O)CC1([NH3+])CCC1)C(=O)NCCCCCCNC(=O)c1ccc(-c2c3nc(c(-c4cc(S(=O)(=O)[O-])ccc4F)c4ccc([nH]4)c(-c4cc(S(=O)(=O)[O-])ccc4F)c4nc(c(-c5cc(S(=O)(=O)[O-])ccc5F)c5ccc2[nH]5)C=C4)C=C3)cc1
REMARK SMILES IDX 20 1 19 2 18 3 17 4 15 5 16 6 5 8 4 9 3 10 2 11 1 12 6 13
REMARK SMILES IDX 7 14 8 16 9 17 10 18 12 19 14 20 13 21 11 22 21 26 22 27
REMARK SMILES IDX 23 28 24 29 25 30 26 32 27 33 28 34 89 35 29 36 88 37 30 38
REMARK SMILES IDX 31 39 32 40 82 41 33 42 87 43 81 44 83 45 34 46 86 47 80 48
REMARK SMILES IDX 79 49 35 51 67 52 47 53 66 54 48 55 51 56 65 57 84 58 49 59
REMARK SMILES IDX 50 60 64 62 85 63 52 64 36 65 37 66 45 67 38 68 44 69 46 70
REMARK SMILES IDX 43 71 39 72 40 73 41 74 42 75 68 76 69 77 77 78 70 79 76 80
REMARK SMILES IDX 78 81 75 82 71 83 72 84 73 85 74 86 53 87 54 88 62 89 55 90
REMARK SMILES IDX 61 91 63 92 60 93 56 94 57 95 58 96 59 97
REMARK H PARENT 17 7 6 15 11 23 11 24 11 25 24 31 83 50 51 61
REMARK Flexibility Score: inf
ROOT
ATOM      1  C   UNL A   1      35.142  23.244  24.057  1.00  0.00     0.002 C 
ENDROOT
BRANCH   1   2
ATOM      2  C   UNL A   1      35.329  24.411  25.023  1.00  0.00     0.021 C 
BRANCH   2   3
ATOM      3  C   UNL A   1      34.098  25.286  25.205  1.00  0.00     0.116 C 
BRANCH   3   4
ATOM      4  N   UNL A   1      33.146  24.797  26.174  1.00  0.00    -0.354 N 
ATOM      5  C   UNL A   1      31.859  25.204  26.372  1.00  0.00     0.242 C 
ATOM      6  O   UNL A   1      31.164  24.558  27.159  1.00  0.00    -0.273 OA
ATOM      7  H   UNL A   1      33.466  24.078  26.766  1.00  0.00     0.163 HD
BRANCH   5   8
ATOM      8  C   UNL A   1      31.261  26.376  25.554  1.00  0.00     0.171 C 
BRANCH   8   9
ATOM      9  C   UNL A   1      31.158  27.606  26.513  1.00  0.00     0.035 C 
BRANCH   9  10
ATOM     10  C   UNL A   1      32.312  27.917  27.485  1.00  0.00     0.002 C 
BRANCH  10  11
ATOM     11  C   UNL A   1      33.118  29.203  27.240  1.00  0.00    -0.003 C 
ATOM     12  C   UNL A   1      34.445  29.000  26.519  1.00  0.00     0.004 C 
ENDBRANCH  10  11
ENDBRANCH   9  10
ENDBRANCH   8   9
BRANCH   8  13
ATOM     13  N   UNL A   1      30.022  26.108  24.810  1.00  0.00    -0.344 N 
ATOM     14  C   UNL A   1      29.446  26.781  23.774  1.00  0.00     0.226 C 
ATOM     15  H   UNL A   1      29.526  25.312  25.110  1.00  0.00     0.164 HD
ATOM     16  O   UNL A   1      28.216  26.773  23.701  1.00  0.00    -0.275 OA
BRANCH  14  17
ATOM     17  C   UNL A   1      30.285  27.414  22.694  1.00  0.00     0.168 C 
BRANCH  17  18
ATOM     18  C   UNL A   1      30.333  28.922  22.657  1.00  0.00     0.103 C 
ATOM     19  C   UNL A   1      29.255  29.675  21.840  1.00  0.00     0.069 C 
ATOM     20  C   UNL A   1      29.913  29.780  23.880  1.00  0.00     0.069 C 
ATOM     21  C   UNL A   1      29.300  30.799  22.897  1.00  0.00     0.013 C 
BRANCH  18  22
ATOM     22  N   UNL A   1      31.657  29.410  22.211  1.00  0.00    -0.352 N 
ATOM     23  H   UNL A   1      31.535  30.057  21.432  1.00  0.00     0.344 HD
ATOM     24  H   UNL A   1      32.227  28.619  21.911  1.00  0.00     0.344 HD
ATOM     25  H   UNL A   1      32.120  29.888  22.983  1.00  0.00     0.344 HD
ENDBRANCH  18  22
ENDBRANCH  17  18
ENDBRANCH  14  17
ENDBRANCH   8  13
ENDBRANCH   5   8
ENDBRANCH   3   4
ENDBRANCH   2   3
ENDBRANCH   1   2
BRANCH   1  26
ATOM     26  C   UNL A   1      34.894  21.895  24.735  1.00  0.00     0.002 C 
BRANCH  26  27
ATOM     27  C   UNL A   1      35.990  21.448  25.706  1.00  0.00     0.021 C 
BRANCH  27  28
ATOM     28  C   UNL A   1      37.410  21.661  25.200  1.00  0.00     0.116 C 
BRANCH  28  29
ATOM     29  N   UNL A   1      38.298  20.604  25.639  1.00  0.00    -0.352 N 
ATOM     30  C   UNL A   1      39.568  20.718  26.144  1.00  0.00     0.251 C 
ATOM     31  H   UNL A   1      37.945  19.688  25.565  1.00  0.00     0.163 HD
ATOM     32  O   UNL A   1      40.276  19.724  26.246  1.00  0.00    -0.269 OA
BRANCH  30  33
ATOM     33  C   UNL A   1      40.071  22.052  26.536  1.00  0.00     0.039 A 
ATOM     34  C   UNL A   1      39.547  23.183  25.909  1.00  0.00     0.014 A 
ATOM     35  C   UNL A   1      41.062  22.182  27.515  1.00  0.00     0.014 A 
ATOM     36  C   UNL A   1      40.003  24.448  26.279  1.00  0.00     0.010 A 
ATOM     37  C   UNL A   1      41.458  23.447  27.937  1.00  0.00     0.010 A 
ATOM     38  C   UNL A   1      40.952  24.592  27.305  1.00  0.00    -0.014 A 
BRANCH  38  39
ATOM     39  C   UNL A   1      41.475  25.932  27.677  1.00  0.00     0.031 A 
ATOM     40  C   UNL A   1      42.878  26.316  27.285  1.00  0.00     0.074 A 
ATOM     41  C   UNL A   1      40.706  26.785  28.381  1.00  0.00     0.049 A 
ATOM     42  N   UNL A   1      43.541  27.413  27.547  1.00  0.00    -0.248 NA
ATOM     43  C   UNL A   1      43.646  25.320  26.520  1.00  0.00     0.031 C 
ATOM     44  C   UNL A   1      39.343  26.511  28.840  1.00  0.00     0.029 A 
ATOM     45  N   UNL A   1      40.958  28.055  28.833  1.00  0.00    -0.354 N 
ATOM     46  C   UNL A   1      44.803  27.235  26.987  1.00  0.00     0.074 A 
ATOM     47  C   UNL A   1      44.834  25.897  26.439  1.00  0.00     0.031 C 
ATOM     48  C   UNL A   1      38.868  27.592  29.478  1.00  0.00     0.029 A 
ATOM     49  C   UNL A   1      39.905  28.620  29.514  1.00  0.00     0.049 A 
ATOM     50  H   UNL A   1      41.814  28.520  28.683  1.00  0.00     0.167 HD
ATOM     51  C   UNL A   1      45.829  28.118  26.909  1.00  0.00     0.034 A 
ATOM     52  C   UNL A   1      39.793  29.827  30.104  1.00  0.00     0.034 A 
ATOM     53  C   UNL A   1      45.775  29.453  27.449  1.00  0.00     0.049 A 
ATOM     54  C   UNL A   1      40.959  30.782  30.029  1.00  0.00     0.074 A 
ATOM     55  C   UNL A   1      46.743  30.442  27.406  1.00  0.00     0.029 A 
ATOM     56  N   UNL A   1      44.692  29.991  28.134  1.00  0.00    -0.354 N 
ATOM     57  N   UNL A   1      42.135  30.611  29.466  1.00  0.00    -0.248 NA
ATOM     58  C   UNL A   1      40.778  32.098  30.654  1.00  0.00     0.031 C 
ATOM     59  C   UNL A   1      46.272  31.549  28.118  1.00  0.00     0.029 A 
ATOM     60  C   UNL A   1      44.977  31.286  28.535  1.00  0.00     0.049 A 
ATOM     61  H   UNL A   1      43.845  29.519  28.309  1.00  0.00     0.167 HD
ATOM     62  C   UNL A   1      42.812  31.816  29.631  1.00  0.00     0.074 A 
ATOM     63  C   UNL A   1      41.911  32.706  30.333  1.00  0.00     0.031 C 
ATOM     64  C   UNL A   1      44.064  32.162  29.232  1.00  0.00     0.034 A 
BRANCH  51  65
ATOM     65  C   UNL A   1      47.097  27.651  26.231  1.00  0.00     0.023 A 
ATOM     66  C   UNL A   1      47.369  27.958  24.885  1.00  0.00     0.031 A 
ATOM     67  C   UNL A   1      48.033  26.868  26.928  1.00  0.00     0.131 A 
ATOM     68  C   UNL A   1      48.504  27.420  24.258  1.00  0.00     0.055 A 
ATOM     69  C   UNL A   1      49.205  26.408  26.322  1.00  0.00     0.041 A 
ATOM     70  F   UNL A   1      47.820  26.522  28.207  1.00  0.00    -0.206 F 
ATOM     71  C   UNL A   1      49.438  26.671  24.975  1.00  0.00     0.022 A 
BRANCH  68  72
ATOM     72  S   UNL A   1      48.662  27.592  22.460  1.00  0.00     0.124 S 
ATOM     73  O   UNL A   1      49.896  28.366  22.347  1.00  0.00    -0.237 OA
ATOM     74  O   UNL A   1      48.734  26.206  22.015  1.00  0.00    -0.237 OA
ATOM     75  O   UNL A   1      47.449  28.311  22.077  1.00  0.00    -0.744 OA
ENDBRANCH  68  72
ENDBRANCH  51  65
BRANCH  52  76
ATOM     76  C   UNL A   1      38.539  30.215  30.814  1.00  0.00     0.023 A 
ATOM     77  C   UNL A   1      37.549  30.974  30.171  1.00  0.00     0.031 A 
ATOM     78  C   UNL A   1      38.339  29.885  32.167  1.00  0.00     0.131 A 
ATOM     79  C   UNL A   1      36.437  31.434  30.894  1.00  0.00     0.055 A 
ATOM     80  C   UNL A   1      37.200  30.291  32.866  1.00  0.00     0.041 A 
ATOM     81  F   UNL A   1      39.250  29.156  32.831  1.00  0.00    -0.206 F 
ATOM     82  C   UNL A   1      36.249  31.086  32.234  1.00  0.00     0.022 A 
BRANCH  79  83
ATOM     83  S   UNL A   1      35.293  32.586  30.086  1.00  0.00     0.124 S 
ATOM     84  O   UNL A   1      34.737  31.755  29.024  1.00  0.00    -0.237 OA
ATOM     85  O   UNL A   1      34.386  32.926  31.178  1.00  0.00    -0.237 OA
ATOM     86  O   UNL A   1      36.163  33.672  29.640  1.00  0.00    -0.744 OA
ENDBRANCH  79  83
ENDBRANCH  52  76
BRANCH  64  87
ATOM     87  C   UNL A   1      44.499  33.585  29.489  1.00  0.00     0.023 A 
ATOM     88  C   UNL A   1      44.350  34.596  28.524  1.00  0.00     0.031 A 
ATOM     89  C   UNL A   1      45.089  33.926  30.719  1.00  0.00     0.131 A 
ATOM     90  C   UNL A   1      44.844  35.884  28.781  1.00  0.00     0.055 A 
ATOM     91  C   UNL A   1      45.517  35.225  30.994  1.00  0.00     0.041 A 
ATOM     92  F   UNL A   1      45.259  33.000  31.677  1.00  0.00    -0.206 F 
ATOM     93  C   UNL A   1      45.410  36.209  30.016  1.00  0.00     0.022 A 
BRANCH  90  94
ATOM     94  S   UNL A   1      44.835  37.102  27.437  1.00  0.00     0.124 S 
ATOM     95  O   UNL A   1      43.469  36.991  26.937  1.00  0.00    -0.237 OA
ATOM     96  O   UNL A   1      45.158  38.341  28.138  1.00  0.00    -0.237 OA
ATOM     97  O   UNL A   1      45.871  36.617  26.527  1.00  0.00    -0.744 OA
ENDBRANCH  90  94
ENDBRANCH  64  87
ENDBRANCH  38  39
ENDBRANCH  30  33
ENDBRANCH  28  29
ENDBRANCH  27  28
ENDBRANCH  26  27
ENDBRANCH   1  26
TORSDOF 23
ENDMDL
MODEL 2
REMARK VINA RESULT:     -10.3      4.859      9.922
REMARK SMILES CCCC[C@H](NC(=O)CC1([NH3+])CCC1)C(=O)NCCCCCCNC(=O)c1ccc(-c2c3nc(c(-c4cc(S(=O)(=O)[O-])ccc4F)c4ccc([nH]4)c(-c4cc(S(=O)(=O)[O-])ccc4F)c4nc(c(-c5cc(S(=O)(=O)[O-])ccc5F)c5ccc2[nH]5)C=C4)C=C3)cc1
REMARK SMILES IDX 20 1 19 2 18 3 17 4 15 5 16 6 5 8 4 9 3 10 2 11 1 12 6 13
REMARK SMILES IDX 7 14 8 16 9 17 10 18 12 19 14 20 13 21 11 22 21 26 22 27
REMARK SMILES IDX 23 28 24 29 25 30 26 32 27 33 28 34 89 35 29 36 88 37 30 38
REMARK SMILES IDX 31 39 32 40 82 41 33 42 87 43 81 44 83 45 34 46 86 47 80 48
REMARK SMILES IDX 79 49 35 51 67 52 47 53 66 54 48 55 51 56 65 57 84 58 49 59
REMARK SMILES IDX 50 60 64 62 85 63 52 64 36 65 37 66 45 67 38 68 44 69 46 70
REMARK SMILES IDX 43 71 39 72 40 73 41 74 42 75 68 76 69 77 77 78 70 79 76 80
REMARK SMILES IDX 78 81 75 82 71 83 72 84 73 85 74 86 53 87 54 88 62 89 55 90
REMARK SMILES IDX 61 91 63 92 60 93 56 94 57 95 58 96 59 97
REMARK H PARENT 17 7 6 15 11 23 11 24 11 25 24 31 83 50 51 61
REMARK Flexibility Score: inf
ROOT
ATOM      1  C   UNL A   1      31.163  28.111  24.700  1.00  0.00     0.002 C 
ENDROOT
BRANCH   1   2
ATOM      2  C   UNL A   1      30.293  27.587  23.559  1.00  0.00     0.021 C 
BRANCH   2   3
ATOM      3  C   UNL A   1      30.636  26.179  23.098  1.00  0.00     0.116 C 
BRANCH   3   4
ATOM      4  N   UNL A   1      31.524  26.114  21.961  1.00  0.00    -0.354 N 
ATOM      5  C   UNL A   1      32.597  25.291  21.775  1.00  0.00     0.242 C 
ATOM      6  O   UNL A   1      33.142  25.296  20.668  1.00  0.00    -0.273 OA
ATOM      7  H   UNL A   1      31.331  26.742  21.228  1.00  0.00     0.163 HD
BRANCH   5   8
ATOM      8  C   UNL A   1      33.048  24.309  22.884  1.00  0.00     0.171 C 
BRANCH   8   9
ATOM      9  C   UNL A   1      31.969  23.182  22.973  1.00  0.00     0.035 C 
BRANCH   9  10
ATOM     10  C   UNL A   1      32.344  21.807  23.558  1.00  0.00     0.002 C 
BRANCH  10  11
ATOM     11  C   UNL A   1      32.110  21.588  25.061  1.00  0.00    -0.003 C 
ATOM     12  C   UNL A   1      31.018  22.456  25.673  1.00  0.00     0.004 C 
ENDBRANCH  10  11
ENDBRANCH   9  10
ENDBRANCH   8   9
BRANCH   8  13
ATOM     13  N   UNL A   1      33.399  24.888  24.188  1.00  0.00    -0.344 N 
ATOM     14  C   UNL A   1      34.400  24.576  25.058  1.00  0.00     0.226 C 
ATOM     15  H   UNL A   1      32.812  25.623  24.482  1.00  0.00     0.164 HD
ATOM     16  O   UNL A   1      34.180  24.727  26.260  1.00  0.00    -0.275 OA
BRANCH  14  17
ATOM     17  C   UNL A   1      35.764  24.168  24.562  1.00  0.00     0.168 C 
BRANCH  17  18
ATOM     18  C   UNL A   1      36.552  23.215  25.427  1.00  0.00     0.103 C 
ATOM     19  C   UNL A   1      37.447  22.159  24.733  1.00  0.00     0.069 C 
ATOM     20  C   UNL A   1      37.812  23.676  26.207  1.00  0.00     0.069 C 
ATOM     21  C   UNL A   1      38.449  22.305  25.899  1.00  0.00     0.013 C 
BRANCH  18  22
ATOM     22  N   UNL A   1      35.678  22.503  26.384  1.00  0.00    -0.352 N 
ATOM     23  H   UNL A   1      35.802  22.898  27.316  1.00  0.00     0.344 HD
ATOM     24  H   UNL A   1      35.925  21.513  26.398  1.00  0.00     0.344 HD
ATOM     25  H   UNL A   1      34.705  22.606  26.097  1.00  0.00     0.344 HD
ENDBRANCH  18  22
ENDBRANCH  17  18
ENDBRANCH  14  17
ENDBRANCH   8  13
ENDBRANCH   5   8
ENDBRANCH   3   4
ENDBRANCH   2   3
ENDBRANCH   1   2
BRANCH   1  26
ATOM     26  C   UNL A   1      32.336  28.984  24.250  1.00  0.00     0.002 C 
BRANCH  26  27
ATOM     27  C   UNL A   1      33.720  28.466  24.653  1.00  0.00     0.021 C 
BRANCH  27  28
ATOM     28  C   UNL A   1      34.076  28.682  26.116  1.00  0.00     0.116 C 
BRANCH  28  29
ATOM     29  N   UNL A   1      33.876  30.059  26.518  1.00  0.00    -0.352 N 
ATOM     30  C   UNL A   1      34.561  30.775  27.466  1.00  0.00     0.251 C 
ATOM     31  H   UNL A   1      33.157  30.542  26.051  1.00  0.00     0.163 HD
ATOM     32  O   UNL A   1      34.122  31.850  27.857  1.00  0.00    -0.269 OA
BRANCH  30  33
ATOM     33  C   UNL A   1      35.816  30.221  28.020  1.00  0.00     0.039 A 
ATOM     34  C   UNL A   1      36.991  30.339  27.278  1.00  0.00     0.014 A 
ATOM     35  C   UNL A   1      35.826  29.583  29.265  1.00  0.00     0.014 A 
ATOM     36  C   UNL A   1      38.184  29.834  27.795  1.00  0.00     0.010 A 
ATOM     37  C   UNL A   1      37.030  29.150  29.812  1.00  0.00     0.010 A 
ATOM     38  C   UNL A   1      38.217  29.247  29.071  1.00  0.00    -0.014 A 
BRANCH  38  39
ATOM     39  C   UNL A   1      39.473  28.668  29.612  1.00  0.00     0.031 A 
ATOM     40  C   UNL A   1      40.114  29.289  30.827  1.00  0.00     0.074 A 
ATOM     41  C   UNL A   1      40.045  27.610  29.006  1.00  0.00     0.049 A 
ATOM     42  N   UNL A   1      41.229  28.968  31.432  1.00  0.00    -0.248 NA
ATOM     43  C   UNL A   1      39.420  30.443  31.421  1.00  0.00     0.031 C 
ATOM     44  C   UNL A   1      39.530  26.943  27.808  1.00  0.00     0.029 A 
ATOM     45  N   UNL A   1      41.182  26.907  29.312  1.00  0.00    -0.354 N 
ATOM     46  C   UNL A   1      41.373  29.883  32.470  1.00  0.00     0.074 A 
ATOM     47  C   UNL A   1      40.271  30.815  32.364  1.00  0.00     0.031 C 
ATOM     48  C   UNL A   1      40.330  25.909  27.503  1.00  0.00     0.029 A 
ATOM     49  C   UNL A   1      41.438  25.865  28.453  1.00  0.00     0.049 A 
ATOM     50  H   UNL A   1      41.761  27.128  30.078  1.00  0.00     0.167 HD
ATOM     51  C   UNL A   1      42.318  29.923  33.441  1.00  0.00     0.034 A 
ATOM     52  C   UNL A   1      42.453  24.978  28.432  1.00  0.00     0.034 A 
ATOM     53  C   UNL A   1      43.401  28.976  33.540  1.00  0.00     0.049 A 
ATOM     54  C   UNL A   1      43.510  25.060  29.506  1.00  0.00     0.074 A 
ATOM     55  C   UNL A   1      44.401  28.904  34.494  1.00  0.00     0.029 A 
ATOM     56  N   UNL A   1      43.629  27.934  32.649  1.00  0.00    -0.354 N 
ATOM     57  N   UNL A   1      43.613  25.912  30.502  1.00  0.00    -0.248 NA
ATOM     58  C   UNL A   1      44.576  24.052  29.465  1.00  0.00     0.031 C 
ATOM     59  C   UNL A   1      45.266  27.863  34.146  1.00  0.00     0.029 A 
ATOM     60  C   UNL A   1      44.762  27.229  33.021  1.00  0.00     0.049 A 
ATOM     61  H   UNL A   1      43.067  27.727  31.867  1.00  0.00     0.167 HD
ATOM     62  C   UNL A   1      44.731  25.510  31.229  1.00  0.00     0.074 A 
ATOM     63  C   UNL A   1      45.257  24.336  30.565  1.00  0.00     0.031 C 
ATOM     64  C   UNL A   1      45.272  26.057  32.349  1.00  0.00     0.034 A 
BRANCH  51  65
ATOM     65  C   UNL A   1      42.225  31.039  34.456  1.00  0.00     0.023 A 
ATOM     66  C   UNL A   1      42.904  32.258  34.275  1.00  0.00     0.031 A 
ATOM     67  C   UNL A   1      41.472  30.875  35.632  1.00  0.00     0.131 A 
ATOM     68  C   UNL A   1      42.881  33.231  35.287  1.00  0.00     0.055 A 
ATOM     69  C   UNL A   1      41.382  31.883  36.596  1.00  0.00     0.041 A 
ATOM     70  F   UNL A   1      40.821  29.727  35.873  1.00  0.00    -0.206 F 
ATOM     71  C   UNL A   1      42.102  33.063  36.433  1.00  0.00     0.022 A 
BRANCH  68  72
ATOM     72  S   UNL A   1      44.000  34.651  35.147  1.00  0.00     0.124 S 
ATOM     73  O   UNL A   1      43.064  35.771  35.222  1.00  0.00    -0.237 OA
ATOM     74  O   UNL A   1      44.880  34.475  36.296  1.00  0.00    -0.237 OA
ATOM     75  O   UNL A   1      44.630  34.463  33.842  1.00  0.00    -0.744 OA
ENDBRANCH  68  72
ENDBRANCH  51  65
BRANCH  52  76
ATOM     76  C   UNL A   1      42.530  23.932  27.369  1.00  0.00     0.023 A 
ATOM     77  C   UNL A   1      41.919  22.681  27.541  1.00  0.00     0.031 A 
ATOM     78  C   UNL A   1      43.272  24.146  26.193  1.00  0.00     0.131 A 
ATOM     79  C   UNL A   1      42.109  21.670  26.586  1.00  0.00     0.055 A 
ATOM     80  C   UNL A   1      43.406  23.158  25.215  1.00  0.00     0.041 A 
ATOM     81  F   UNL A   1      43.874  25.325  25.974  1.00  0.00    -0.206 F 
ATOM     82  C   UNL A   1      42.837  21.904  25.418  1.00  0.00     0.022 A 
BRANCH  79  83
ATOM     83  S   UNL A   1      41.481  20.007  26.946  1.00  0.00     0.124 S 
ATOM     84  O   UNL A   1      42.718  19.260  27.143  1.00  0.00    -0.237 OA
ATOM     85  O   UNL A   1      40.675  20.241  28.140  1.00  0.00    -0.237 OA
ATOM     86  O   UNL A   1      40.725  19.661  25.744  1.00  0.00    -0.744 OA
ENDBRANCH  79  83
ENDBRANCH  52  76
BRANCH  64  87
ATOM     87  C   UNL A   1      46.454  25.343  32.960  1.00  0.00     0.023 A 
ATOM     88  C   UNL A   1      46.298  24.322  33.913  1.00  0.00     0.031 A 
ATOM     89  C   UNL A   1      47.761  25.709  32.590  1.00  0.00     0.131 A 
ATOM     90  C   UNL A   1      47.429  23.747  34.511  1.00  0.00     0.055 A 
ATOM     91  C   UNL A   1      48.882  25.085  33.138  1.00  0.00     0.041 A 
ATOM     92  F   UNL A   1      47.970  26.679  31.686  1.00  0.00    -0.206 F 
ATOM     93  C   UNL A   1      48.720  24.109  34.117  1.00  0.00     0.022 A 
BRANCH  90  94
ATOM     94  S   UNL A   1      47.192  22.593  35.890  1.00  0.00     0.124 S 
ATOM     95  O   UNL A   1      46.966  21.330  35.195  1.00  0.00    -0.237 OA
ATOM     96  O   UNL A   1      48.455  22.706  36.612  1.00  0.00    -0.237 OA
ATOM     97  O   UNL A   1      46.027  23.132  36.592  1.00  0.00    -0.744 OA
ENDBRANCH  90  94
ENDBRANCH  64  87
ENDBRANCH  38  39
ENDBRANCH  30  33
ENDBRANCH  28  29
ENDBRANCH  27  28
ENDBRANCH  26  27
ENDBRANCH   1  26
TORSDOF 23
ENDMDL
MODEL 3
REMARK VINA RESULT:     -10.3      5.149     10.603
REMARK SMILES CCCC[C@H](NC(=O)CC1([NH3+])CCC1)C(=O)NCCCCCCNC(=O)c1ccc(-c2c3nc(c(-c4cc(S(=O)(=O)[O-])ccc4F)c4ccc([nH]4)c(-c4cc(S(=O)(=O)[O-])ccc4F)c4nc(c(-c5cc(S(=O)(=O)[O-])ccc5F)c5ccc2[nH]5)C=C4)C=C3)cc1
REMARK SMILES IDX 20 1 19 2 18 3 17 4 15 5 16 6 5 8 4 9 3 10 2 11 1 12 6 13
REMARK SMILES IDX 7 14 8 16 9 17 10 18 12 19 14 20 13 21 11 22 21 26 22 27
REMARK SMILES IDX 23 28 24 29 25 30 26 32 27 33 28 34 89 35 29 36 88 37 30 38
REMARK SMILES IDX 31 39 32 40 82 41 33 42 87 43 81 44 83 45 34 46 86 47 80 48
REMARK SMILES IDX 79 49 35 51 67 52 47 53 66 54 48 55 51 56 65 57 84 58 49 59
REMARK SMILES IDX 50 60 64 62 85 63 52 64 36 65 37 66 45 67 38 68 44 69 46 70
REMARK SMILES IDX 43 71 39 72 40 73 41 74 42 75 68 76 69 77 77 78 70 79 76 80
REMARK SMILES IDX 78 81 75 82 71 83 72 84 73 85 74 86 53 87 54 88 62 89 55 90
REMARK SMILES IDX 61 91 63 92 60 93 56 94 57 95 58 96 59 97
REMARK H PARENT 17 7 6 15 11 23 11 24 11 25 24 31 83 50 51 61
REMARK Flexibility Score: inf
ROOT
ATOM      1  C   UNL A   1      32.282  29.443  26.851  1.00  0.00     0.002 C 
ENDROOT
BRANCH   1   2
ATOM      2  C   UNL A   1      33.702  29.138  26.381  1.00  0.00     0.021 C 
BRANCH   2   3
ATOM      3  C   UNL A   1      33.954  27.680  26.029  1.00  0.00     0.116 C 
BRANCH   3   4
ATOM      4  N   UNL A   1      33.832  27.368  24.624  1.00  0.00    -0.354 N 
ATOM      5  C   UNL A   1      33.766  26.137  24.036  1.00  0.00     0.242 C 
ATOM      6  O   UNL A   1      33.520  26.088  22.829  1.00  0.00    -0.273 OA
ATOM      7  H   UNL A   1      33.792  28.139  24.013  1.00  0.00     0.163 HD
BRANCH   5   8
ATOM      8  C   UNL A   1      33.893  24.844  24.880  1.00  0.00     0.171 C 
BRANCH   8   9
ATOM      9  C   UNL A   1      35.378  24.370  24.782  1.00  0.00     0.035 C 
BRANCH   9  10
ATOM     10  C   UNL A   1      35.692  22.898  24.453  1.00  0.00     0.002 C 
BRANCH  10  11
ATOM     11  C   UNL A   1      36.134  21.991  25.612  1.00  0.00    -0.003 C 
ATOM     12  C   UNL A   1      34.996  21.425  26.453  1.00  0.00     0.004 C 
ENDBRANCH  10  11
ENDBRANCH   9  10
ENDBRANCH   8   9
BRANCH   8  13
ATOM     13  N   UNL A   1      32.919  23.776  24.616  1.00  0.00    -0.344 N 
ATOM     14  C   UNL A   1      31.998  23.192  25.433  1.00  0.00     0.226 C 
ATOM     15  H   UNL A   1      32.934  23.424  23.696  1.00  0.00     0.164 HD
ATOM     16  O   UNL A   1      31.731  22.006  25.238  1.00  0.00    -0.275 OA
BRANCH  14  17
ATOM     17  C   UNL A   1      31.251  23.997  26.466  1.00  0.00     0.168 C 
BRANCH  17  18
ATOM     18  C   UNL A   1      30.260  25.015  25.959  1.00  0.00     0.103 C 
ATOM     19  C   UNL A   1      30.647  26.513  26.017  1.00  0.00     0.069 C 
ATOM     20  C   UNL A   1      29.995  25.208  24.442  1.00  0.00     0.069 C 
ATOM     21  C   UNL A   1      29.861  26.723  24.704  1.00  0.00     0.013 C 
BRANCH  18  22
ATOM     22  N   UNL A   1      28.945  24.865  26.619  1.00  0.00    -0.352 N 
ATOM     23  H   UNL A   1      29.082  24.674  27.611  1.00  0.00     0.344 HD
ATOM     24  H   UNL A   1      28.436  24.092  26.190  1.00  0.00     0.344 HD
ATOM     25  H   UNL A   1      28.409  25.726  26.509  1.00  0.00     0.344 HD
ENDBRANCH  18  22
ENDBRANCH  17  18
ENDBRANCH  14  17
ENDBRANCH   8  13
ENDBRANCH   5   8
ENDBRANCH   3   4
ENDBRANCH   2   3
ENDBRANCH   1   2
BRANCH   1  26
ATOM     26  C   UNL A   1      31.539  30.470  25.995  1.00  0.00     0.002 C 
BRANCH  26  27
ATOM     27  C   UNL A   1      31.430  31.868  26.611  1.00  0.00     0.021 C 
BRANCH  27  28
ATOM     28  C   UNL A   1      32.765  32.524  26.934  1.00  0.00     0.116 C 
BRANCH  28  29
ATOM     29  N   UNL A   1      32.588  33.844  27.503  1.00  0.00    -0.352 N 
ATOM     30  C   UNL A   1      33.213  34.389  28.594  1.00  0.00     0.251 C 
ATOM     31  H   UNL A   1      31.936  34.424  27.046  1.00  0.00     0.163 HD
ATOM     32  O   UNL A   1      32.786  35.425  29.090  1.00  0.00    -0.269 OA
BRANCH  30  33
ATOM     33  C   UNL A   1      34.387  33.699  29.172  1.00  0.00     0.039 A 
ATOM     34  C   UNL A   1      35.665  34.147  28.839  1.00  0.00     0.014 A 
ATOM     35  C   UNL A   1      34.221  32.609  30.034  1.00  0.00     0.014 A 
ATOM     36  C   UNL A   1      36.780  33.514  29.387  1.00  0.00     0.010 A 
ATOM     37  C   UNL A   1      35.332  32.031  30.640  1.00  0.00     0.010 A 
ATOM     38  C   UNL A   1      36.624  32.460  30.302  1.00  0.00    -0.014 A 
BRANCH  38  39
ATOM     39  C   UNL A   1      37.805  31.751  30.860  1.00  0.00     0.031 A 
ATOM     40  C   UNL A   1      38.268  32.066  32.259  1.00  0.00     0.074 A 
ATOM     41  C   UNL A   1      38.469  30.851  30.108  1.00  0.00     0.049 A 
ATOM     42  N   UNL A   1      39.296  31.596  32.917  1.00  0.00    -0.248 NA
ATOM     43  C   UNL A   1      37.484  33.064  33.004  1.00  0.00     0.031 C 
ATOM     44  C   UNL A   1      38.128  30.487  28.731  1.00  0.00     0.029 A 
ATOM     45  N   UNL A   1      39.565  30.078  30.394  1.00  0.00    -0.354 N 
ATOM     46  C   UNL A   1      39.287  32.246  34.147  1.00  0.00     0.074 A 
ATOM     47  C   UNL A   1      38.195  33.196  34.112  1.00  0.00     0.031 C 
ATOM     48  C   UNL A   1      38.978  29.538  28.306  1.00  0.00     0.029 A 
ATOM     49  C   UNL A   1      39.949  29.258  29.360  1.00  0.00     0.049 A 
ATOM     50  H   UNL A   1      40.033  30.108  31.260  1.00  0.00     0.167 HD
ATOM     51  C   UNL A   1      40.092  32.047  35.219  1.00  0.00     0.034 A 
ATOM     52  C   UNL A   1      40.971  28.383  29.272  1.00  0.00     0.034 A 
ATOM     53  C   UNL A   1      41.167  31.085  35.241  1.00  0.00     0.049 A 
ATOM     54  C   UNL A   1      41.873  28.200  30.468  1.00  0.00     0.074 A 
ATOM     55  C   UNL A   1      42.031  30.780  36.279  1.00  0.00     0.029 A 
ATOM     56  N   UNL A   1      41.528  30.272  34.174  1.00  0.00    -0.354 N 
ATOM     57  N   UNL A   1      41.830  28.798  31.638  1.00  0.00    -0.248 NA
ATOM     58  C   UNL A   1      42.951  27.211  30.338  1.00  0.00     0.031 C 
ATOM     59  C   UNL A   1      42.950  29.832  35.820  1.00  0.00     0.029 A 
ATOM     60  C   UNL A   1      42.611  29.482  34.522  1.00  0.00     0.049 A 
ATOM     61  H   UNL A   1      41.078  30.259  33.297  1.00  0.00     0.167 HD
ATOM     62  C   UNL A   1      42.846  28.222  32.395  1.00  0.00     0.074 A 
ATOM     63  C   UNL A   1      43.474  27.223  31.555  1.00  0.00     0.031 C 
ATOM     64  C   UNL A   1      43.224  28.487  33.672  1.00  0.00     0.034 A 
BRANCH  51  65
ATOM     65  C   UNL A   1      39.848  32.901  36.442  1.00  0.00     0.023 A 
ATOM     66  C   UNL A   1      39.053  32.448  37.510  1.00  0.00     0.031 A 
ATOM     67  C   UNL A   1      40.391  34.195  36.530  1.00  0.00     0.131 A 
ATOM     68  C   UNL A   1      38.760  33.308  38.581  1.00  0.00     0.055 A 
ATOM     69  C   UNL A   1      40.167  35.014  37.639  1.00  0.00     0.041 A 
ATOM     70  F   UNL A   1      41.138  34.693  35.533  1.00  0.00    -0.206 F 
ATOM     71  C   UNL A   1      39.335  34.577  38.666  1.00  0.00     0.022 A 
BRANCH  68  72
ATOM     72  S   UNL A   1      37.503  32.796  39.782  1.00  0.00     0.124 S 
ATOM     73  O   UNL A   1      37.543  33.900  40.739  1.00  0.00    -0.237 OA
ATOM     74  O   UNL A   1      36.301  32.704  38.963  1.00  0.00    -0.237 OA
ATOM     75  O   UNL A   1      38.013  31.524  40.290  1.00  0.00    -0.744 OA
ENDBRANCH  68  72
ENDBRANCH  51  65
BRANCH  52  76
ATOM     76  C   UNL A   1      41.206  27.609  28.018  1.00  0.00     0.023 A 
ATOM     77  C   UNL A   1      40.924  26.235  27.953  1.00  0.00     0.031 A 
ATOM     78  C   UNL A   1      41.776  28.217  26.884  1.00  0.00     0.131 A 
ATOM     79  C   UNL A   1      41.268  25.501  26.807  1.00  0.00     0.055 A 
ATOM     80  C   UNL A   1      42.059  27.495  25.723  1.00  0.00     0.041 A 
ATOM     81  F   UNL A   1      42.062  29.528  26.888  1.00  0.00    -0.206 F 
ATOM     82  C   UNL A   1      41.821  26.124  25.686  1.00  0.00     0.022 A 
BRANCH  79  83
ATOM     83  S   UNL A   1      41.083  23.698  26.844  1.00  0.00     0.124 S 
ATOM     84  O   UNL A   1      41.554  23.379  28.187  1.00  0.00    -0.237 OA
ATOM     85  O   UNL A   1      39.652  23.536  26.609  1.00  0.00    -0.237 OA
ATOM     86  O   UNL A   1      41.946  23.245  25.755  1.00  0.00    -0.744 OA
ENDBRANCH  79  83
ENDBRANCH  52  76
BRANCH  64  87
ATOM     87  C   UNL A   1      44.324  27.633  34.256  1.00  0.00     0.023 A 
ATOM     88  C   UNL A   1      44.073  26.363  34.802  1.00  0.00     0.031 A 
ATOM     89  C   UNL A   1      45.646  28.114  34.278  1.00  0.00     0.131 A 
ATOM     90  C   UNL A   1      45.115  25.643  35.404  1.00  0.00     0.055 A 
ATOM     91  C   UNL A   1      46.692  27.364  34.819  1.00  0.00     0.041 A 
ATOM     92  F   UNL A   1      45.945  29.321  33.774  1.00  0.00    -0.206 F 
ATOM     93  C   UNL A   1      46.426  26.127  35.400  1.00  0.00     0.022 A 
BRANCH  90  94
ATOM     94  S   UNL A   1      44.716  24.112  36.291  1.00  0.00     0.124 S 
ATOM     95  O   UNL A   1      43.445  23.732  35.683  1.00  0.00    -0.237 OA
ATOM     96  O   UNL A   1      45.856  23.260  35.969  1.00  0.00    -0.237 OA
ATOM     97  O   UNL A   1      44.634  24.536  37.688  1.00  0.00    -0.744 OA
ENDBRANCH  90  94
ENDBRANCH  64  87
ENDBRANCH  38  39
ENDBRANCH  30  33
ENDBRANCH  28  29
ENDBRANCH  27  28
ENDBRANCH  26  27
ENDBRANCH   1  26
TORSDOF 23
ENDMDL
