MODEL 1
REMARK VINA RESULT:     -10.8      0.000      0.000
REMARK SMILES O=C(NCCCCCCNC(=O)[C@H]1CCCN(C(=O)CCOc2ccc(F)cc2)C1)c1ccc(-c2c3nc(c(-c4cc(S(=O)(=O)[O-])ccc4F)c4ccc([nH]4)c(-c4cc(S(=O)(=O)[O-])ccc4F)c4nc(c(-c5cc(S(=O)(=O)[O-])ccc5F)c5ccc2[nH]5)C=C4)C=C3)cc1
REMARK SMILES IDX 7 1 6 2 5 3 4 4 3 5 1 6 2 7 31 9 32 10 93 11 33 12 92 13
REMARK SMILES IDX 34 14 35 15 36 16 86 17 37 18 91 19 85 20 87 21 38 22 90 23
REMARK SMILES IDX 84 24 83 25 39 27 71 28 51 29 70 30 52 31 55 32 69 33 88 34
REMARK SMILES IDX 53 35 54 36 68 38 89 39 56 40 40 41 41 42 49 43 42 44 48 45
REMARK SMILES IDX 50 46 47 47 43 48 44 49 45 50 46 51 72 52 73 53 81 54 74 55
REMARK SMILES IDX 80 56 82 57 79 58 75 59 76 60 77 61 78 62 57 63 58 64 66 65
REMARK SMILES IDX 59 66 65 67 67 68 64 69 60 70 61 71 62 72 63 73 8 74 9 75
REMARK SMILES IDX 10 76 11 77 12 79 13 80 14 81 30 82 15 83 17 84 16 85 18 86
REMARK SMILES IDX 19 87 20 88 21 89 22 90 23 91 24 92 29 93 25 94 28 95 26 96
REMARK SMILES IDX 27 97
REMARK H PARENT 3 8 87 26 55 37 10 78
REMARK Flexibility Score: inf
ROOT
ATOM      1  C   UNL A   1      35.005  31.782  28.552  1.00  0.00     0.002 C 
ENDROOT
BRANCH   1   2
ATOM      2  C   UNL A   1      34.929  33.250  28.118  1.00  0.00     0.002 C 
BRANCH   2   3
ATOM      3  C   UNL A   1      33.584  33.949  28.328  1.00  0.00     0.021 C 
BRANCH   3   4
ATOM      4  C   UNL A   1      33.654  35.388  28.830  1.00  0.00     0.116 C 
BRANCH   4   5
ATOM      5  N   UNL A   1      32.912  35.593  30.061  1.00  0.00    -0.352 N 
ATOM      6  O   UNL A   1      32.324  35.323  32.211  1.00  0.00    -0.269 OA
ATOM      7  C   UNL A   1      33.165  35.142  31.333  1.00  0.00     0.251 C 
ATOM      8  H   UNL A   1      32.099  36.141  29.969  1.00  0.00     0.163 HD
BRANCH   7   9
ATOM      9  C   UNL A   1      34.423  34.427  31.656  1.00  0.00     0.039 A 
ATOM     10  C   UNL A   1      35.648  35.097  31.730  1.00  0.00     0.014 A 
ATOM     11  C   UNL A   1      34.358  33.062  31.957  1.00  0.00     0.014 A 
ATOM     12  C   UNL A   1      36.814  34.386  32.016  1.00  0.00     0.010 A 
ATOM     13  C   UNL A   1      35.520  32.360  32.293  1.00  0.00     0.010 A 
ATOM     14  C   UNL A   1      36.760  33.015  32.309  1.00  0.00    -0.014 A 
BRANCH  14  15
ATOM     15  C   UNL A   1      37.999  32.296  32.696  1.00  0.00     0.031 A 
ATOM     16  C   UNL A   1      38.647  32.535  34.029  1.00  0.00     0.074 A 
ATOM     17  C   UNL A   1      38.524  31.400  31.838  1.00  0.00     0.049 A 
ATOM     18  N   UNL A   1      39.730  31.993  34.527  1.00  0.00    -0.248 NA
ATOM     19  C   UNL A   1      38.000  33.513  34.915  1.00  0.00     0.031 C 
ATOM     20  C   UNL A   1      37.980  31.082  30.515  1.00  0.00     0.029 A 
ATOM     21  N   UNL A   1      39.614  30.578  31.956  1.00  0.00    -0.354 N 
ATOM     22  C   UNL A   1      39.902  32.569  35.780  1.00  0.00     0.074 A 
ATOM     23  C   UNL A   1      38.821  33.516  35.958  1.00  0.00     0.031 C 
ATOM     24  C   UNL A   1      38.714  30.103  29.965  1.00  0.00     0.029 A 
ATOM     25  C   UNL A   1      39.801  29.755  30.872  1.00  0.00     0.049 A 
ATOM     26  H   UNL A   1      40.207  30.578  32.743  1.00  0.00     0.167 HD
ATOM     27  C   UNL A   1      40.874  32.329  36.695  1.00  0.00     0.034 A 
ATOM     28  C   UNL A   1      40.746  28.827  30.632  1.00  0.00     0.034 A 
ATOM     29  C   UNL A   1      41.947  31.384  36.511  1.00  0.00     0.049 A 
ATOM     30  C   UNL A   1      41.822  28.595  31.651  1.00  0.00     0.074 A 
ATOM     31  C   UNL A   1      42.976  31.065  37.381  1.00  0.00     0.029 A 
ATOM     32  N   UNL A   1      42.134  30.608  35.377  1.00  0.00    -0.354 N 
ATOM     33  N   UNL A   1      41.990  29.177  32.815  1.00  0.00    -0.248 NA
ATOM     34  C   UNL A   1      42.843  27.593  31.318  1.00  0.00     0.031 C 
ATOM     35  C   UNL A   1      43.805  30.124  36.758  1.00  0.00     0.029 A 
ATOM     36  C   UNL A   1      43.268  29.824  35.516  1.00  0.00     0.049 A 
ATOM     37  H   UNL A   1      41.545  30.612  34.587  1.00  0.00     0.167 HD
ATOM     38  C   UNL A   1      43.142  28.615  33.352  1.00  0.00     0.074 A 
ATOM     39  C   UNL A   1      43.619  27.638  32.393  1.00  0.00     0.031 C 
ATOM     40  C   UNL A   1      43.749  28.884  34.534  1.00  0.00     0.034 A 
BRANCH  27  41
ATOM     41  C   UNL A   1      40.838  33.140  37.962  1.00  0.00     0.023 A 
ATOM     42  C   UNL A   1      40.129  32.706  39.094  1.00  0.00     0.031 A 
ATOM     43  C   UNL A   1      41.517  34.368  38.034  1.00  0.00     0.131 A 
ATOM     44  C   UNL A   1      40.076  33.517  40.237  1.00  0.00     0.055 A 
ATOM     45  C   UNL A   1      41.506  35.147  39.192  1.00  0.00     0.041 A 
ATOM     46  F   UNL A   1      42.194  34.835  36.972  1.00  0.00    -0.206 F 
ATOM     47  C   UNL A   1      40.777  34.726  40.300  1.00  0.00     0.022 A 
BRANCH  44  48
ATOM     48  S   UNL A   1      39.020  33.012  41.622  1.00  0.00     0.124 S 
ATOM     49  O   UNL A   1      37.935  33.986  41.534  1.00  0.00    -0.237 OA
ATOM     50  O   UNL A   1      38.673  31.638  41.276  1.00  0.00    -0.237 OA
ATOM     51  O   UNL A   1      39.889  33.158  42.788  1.00  0.00    -0.744 OA
ENDBRANCH  44  48
ENDBRANCH  27  41
BRANCH  28  52
ATOM     52  C   UNL A   1      40.725  28.074  29.353  1.00  0.00     0.023 A 
ATOM     53  C   UNL A   1      41.616  28.392  28.316  1.00  0.00     0.031 A 
ATOM     54  C   UNL A   1      39.833  27.006  29.167  1.00  0.00     0.131 A 
ATOM     55  C   UNL A   1      41.587  27.649  27.127  1.00  0.00     0.055 A 
ATOM     56  C   UNL A   1      39.825  26.254  27.991  1.00  0.00     0.041 A 
ATOM     57  F   UNL A   1      38.977  26.661  30.141  1.00  0.00    -0.206 F 
ATOM     58  C   UNL A   1      40.706  26.576  26.962  1.00  0.00     0.022 A 
BRANCH  55  59
ATOM     59  S   UNL A   1      42.733  28.094  25.793  1.00  0.00     0.124 S 
ATOM     60  O   UNL A   1      42.595  29.545  25.756  1.00  0.00    -0.237 OA
ATOM     61  O   UNL A   1      44.004  27.581  26.295  1.00  0.00    -0.237 OA
ATOM     62  O   UNL A   1      42.195  27.384  24.635  1.00  0.00    -0.744 OA
ENDBRANCH  55  59
ENDBRANCH  28  52
BRANCH  40  63
ATOM     63  C   UNL A   1      44.997  28.106  34.843  1.00  0.00     0.023 A 
ATOM     64  C   UNL A   1      44.932  26.855  35.478  1.00  0.00     0.031 A 
ATOM     65  C   UNL A   1      46.257  28.626  34.505  1.00  0.00     0.131 A 
ATOM     66  C   UNL A   1      46.118  26.173  35.787  1.00  0.00     0.055 A 
ATOM     67  C   UNL A   1      47.432  27.927  34.786  1.00  0.00     0.041 A 
ATOM     68  F   UNL A   1      46.363  29.819  33.899  1.00  0.00    -0.206 F 
ATOM     69  C   UNL A   1      47.365  26.696  35.435  1.00  0.00     0.022 A 
BRANCH  66  70
ATOM     70  S   UNL A   1      46.015  24.598  36.680  1.00  0.00     0.124 S 
ATOM     71  O   UNL A   1      47.169  23.878  36.152  1.00  0.00    -0.237 OA
ATOM     72  O   UNL A   1      46.107  25.014  38.075  1.00  0.00    -0.237 OA
ATOM     73  O   UNL A   1      44.714  24.063  36.281  1.00  0.00    -0.744 OA
ENDBRANCH  66  70
ENDBRANCH  40  63
ENDBRANCH  14  15
ENDBRANCH   7   9
ENDBRANCH   4   5
ENDBRANCH   3   4
ENDBRANCH   2   3
ENDBRANCH   1   2
BRANCH   1  74
ATOM     74  C   UNL A   1      35.794  30.836  27.638  1.00  0.00     0.021 C 
BRANCH  74  75
ATOM     75  C   UNL A   1      35.093  29.502  27.365  1.00  0.00     0.116 C 
BRANCH  75  76
ATOM     76  N   UNL A   1      33.658  29.683  27.153  1.00  0.00    -0.356 N 
ATOM     77  C   UNL A   1      32.519  29.056  26.834  1.00  0.00     0.224 C 
ATOM     78  H   UNL A   1      33.448  30.633  27.303  1.00  0.00     0.163 HD
ATOM     79  O   UNL A   1      31.571  29.832  27.108  1.00  0.00    -0.275 OA
BRANCH  77  80
ATOM     80  C   UNL A   1      32.051  27.621  26.046  1.00  0.00     0.098 C 
ATOM     81  C   UNL A   1      30.351  26.198  25.923  1.00  0.00     0.017 C 
ATOM     82  C   UNL A   1      32.566  28.353  24.299  1.00  0.00     0.132 C 
ATOM     83  C   UNL A   1      29.640  25.991  24.096  1.00  0.00     0.022 C 
ATOM     84  N   UNL A   1      32.131  27.540  22.905  1.00  0.00    -0.342 N 
ATOM     85  C   UNL A   1      30.530  26.878  22.680  1.00  0.00     0.119 C 
BRANCH  84  86
ATOM     86  C   UNL A   1      33.282  26.907  22.357  1.00  0.00     0.226 C 
ATOM     87  O   UNL A   1      34.052  27.547  21.634  1.00  0.00    -0.275 OA
BRANCH  86  88
ATOM     88  C   UNL A   1      33.690  25.451  22.833  1.00  0.00     0.141 C 
BRANCH  88  89
ATOM     89  C   UNL A   1      34.235  25.273  24.305  1.00  0.00     0.239 C 
BRANCH  89  90
ATOM     90  O   UNL A   1      33.587  24.326  25.245  1.00  0.00    -0.493 OA
BRANCH  90  91
ATOM     91  C   UNL A   1      33.897  23.029  24.955  1.00  0.00     0.119 A 
ATOM     92  C   UNL A   1      32.580  22.114  24.505  1.00  0.00     0.049 A 
ATOM     93  C   UNL A   1      35.356  22.189  25.182  1.00  0.00     0.049 A 
ATOM     94  C   UNL A   1      32.569  20.177  24.347  1.00  0.00     0.043 A 
ATOM     95  C   UNL A   1      35.480  20.452  24.987  1.00  0.00     0.043 A 
ATOM     96  C   UNL A   1      34.111  19.399  24.599  1.00  0.00     0.123 A 
ATOM     97  F   UNL A   1      34.261  18.100  24.326  1.00  0.00    -0.207 F 
ENDBRANCH  90  91
ENDBRANCH  89  90
ENDBRANCH  88  89
ENDBRANCH  86  88
ENDBRANCH  84  86
ENDBRANCH  77  80
ENDBRANCH  75  76
ENDBRANCH  74  75
ENDBRANCH   1  74
TORSDOF 21
ENDMDL
MODEL 2
REMARK VINA RESULT:     -10.4      4.167     11.333
REMARK SMILES O=C(NCCCCCCNC(=O)[C@H]1CCCN(C(=O)CCOc2ccc(F)cc2)C1)c1ccc(-c2c3nc(c(-c4cc(S(=O)(=O)[O-])ccc4F)c4ccc([nH]4)c(-c4cc(S(=O)(=O)[O-])ccc4F)c4nc(c(-c5cc(S(=O)(=O)[O-])ccc5F)c5ccc2[nH]5)C=C4)C=C3)cc1
REMARK SMILES IDX 7 1 6 2 5 3 4 4 3 5 1 6 2 7 31 9 32 10 93 11 33 12 92 13
REMARK SMILES IDX 34 14 35 15 36 16 86 17 37 18 91 19 85 20 87 21 38 22 90 23
REMARK SMILES IDX 84 24 83 25 39 27 71 28 51 29 70 30 52 31 55 32 69 33 88 34
REMARK SMILES IDX 53 35 54 36 68 38 89 39 56 40 40 41 41 42 49 43 42 44 48 45
REMARK SMILES IDX 50 46 47 47 43 48 44 49 45 50 46 51 72 52 73 53 81 54 74 55
REMARK SMILES IDX 80 56 82 57 79 58 75 59 76 60 77 61 78 62 57 63 58 64 66 65
REMARK SMILES IDX 59 66 65 67 67 68 64 69 60 70 61 71 62 72 63 73 8 74 9 75
REMARK SMILES IDX 10 76 11 77 12 79 13 80 14 81 30 82 15 83 17 84 16 85 18 86
REMARK SMILES IDX 19 87 20 88 21 89 22 90 23 91 24 92 29 93 25 94 28 95 26 96
REMARK SMILES IDX 27 97
REMARK H PARENT 3 8 87 26 55 37 10 78
REMARK Flexibility Score: inf
ROOT
ATOM      1  C   UNL A   1      33.215  35.630  29.852  1.00  0.00     0.002 C 
ENDROOT
BRANCH   1   2
ATOM      2  C   UNL A   1      34.011  35.691  28.544  1.00  0.00     0.002 C 
BRANCH   2   3
ATOM      3  C   UNL A   1      34.768  34.420  28.153  1.00  0.00     0.021 C 
BRANCH   3   4
ATOM      4  C   UNL A   1      34.391  33.158  28.923  1.00  0.00     0.116 C 
BRANCH   4   5
ATOM      5  N   UNL A   1      33.795  32.138  28.078  1.00  0.00    -0.352 N 
ATOM      6  O   UNL A   1      33.672  30.280  26.824  1.00  0.00    -0.269 OA
ATOM      7  C   UNL A   1      34.301  30.934  27.654  1.00  0.00     0.251 C 
ATOM      8  H   UNL A   1      32.887  32.343  27.757  1.00  0.00     0.163 HD
BRANCH   7   9
ATOM      9  C   UNL A   1      35.594  30.422  28.168  1.00  0.00     0.039 A 
ATOM     10  C   UNL A   1      36.795  30.659  27.494  1.00  0.00     0.014 A 
ATOM     11  C   UNL A   1      35.606  29.744  29.392  1.00  0.00     0.014 A 
ATOM     12  C   UNL A   1      37.990  30.143  27.997  1.00  0.00     0.010 A 
ATOM     13  C   UNL A   1      36.810  29.270  29.921  1.00  0.00     0.010 A 
ATOM     14  C   UNL A   1      38.010  29.453  29.218  1.00  0.00    -0.014 A 
BRANCH  14  15
ATOM     15  C   UNL A   1      39.302  28.987  29.779  1.00  0.00     0.031 A 
ATOM     16  C   UNL A   1      40.066  27.868  29.134  1.00  0.00     0.074 A 
ATOM     17  C   UNL A   1      39.796  29.604  30.870  1.00  0.00     0.049 A 
ATOM     18  N   UNL A   1      41.209  27.338  29.490  1.00  0.00    -0.248 NA
ATOM     19  C   UNL A   1      39.469  27.261  27.935  1.00  0.00     0.031 C 
ATOM     20  C   UNL A   1      39.143  30.705  31.582  1.00  0.00     0.029 A 
ATOM     21  N   UNL A   1      40.967  29.412  31.555  1.00  0.00    -0.354 N 
ATOM     22  C   UNL A   1      41.465  26.329  28.570  1.00  0.00     0.074 A 
ATOM     23  C   UNL A   1      40.348  26.310  27.648  1.00  0.00     0.031 C 
ATOM     24  C   UNL A   1      39.944  31.119  32.576  1.00  0.00     0.029 A 
ATOM     25  C   UNL A   1      41.142  30.288  32.599  1.00  0.00     0.049 A 
ATOM     26  H   UNL A   1      41.620  28.713  31.322  1.00  0.00     0.167 HD
ATOM     27  C   UNL A   1      42.534  25.496  28.503  1.00  0.00     0.034 A 
ATOM     28  C   UNL A   1      42.151  30.406  33.482  1.00  0.00     0.034 A 
ATOM     29  C   UNL A   1      43.642  25.521  29.424  1.00  0.00     0.049 A 
ATOM     30  C   UNL A   1      43.313  29.459  33.399  1.00  0.00     0.074 A 
ATOM     31  C   UNL A   1      44.774  24.723  29.436  1.00  0.00     0.029 A 
ATOM     32  N   UNL A   1      43.758  26.387  30.502  1.00  0.00    -0.354 N 
ATOM     33  N   UNL A   1      43.519  28.486  32.544  1.00  0.00    -0.248 NA
ATOM     34  C   UNL A   1      44.367  29.616  34.408  1.00  0.00     0.031 C 
ATOM     35  C   UNL A   1      45.555  25.082  30.542  1.00  0.00     0.029 A 
ATOM     36  C   UNL A   1      44.931  26.133  31.194  1.00  0.00     0.049 A 
ATOM     37  H   UNL A   1      43.102  27.083  30.739  1.00  0.00     0.167 HD
ATOM     38  C   UNL A   1      44.727  27.909  32.917  1.00  0.00     0.074 A 
ATOM     39  C   UNL A   1      45.210  28.652  34.064  1.00  0.00     0.031 C 
ATOM     40  C   UNL A   1      45.377  26.859  32.358  1.00  0.00     0.034 A 
BRANCH  27  41
ATOM     41  C   UNL A   1      42.526  24.457  27.414  1.00  0.00     0.023 A 
ATOM     42  C   UNL A   1      41.806  23.259  27.545  1.00  0.00     0.031 A 
ATOM     43  C   UNL A   1      43.257  24.668  26.232  1.00  0.00     0.131 A 
ATOM     44  C   UNL A   1      41.870  22.293  26.530  1.00  0.00     0.055 A 
ATOM     45  C   UNL A   1      43.273  23.728  25.201  1.00  0.00     0.041 A 
ATOM     46  F   UNL A   1      43.975  25.790  26.066  1.00  0.00    -0.206 F 
ATOM     47  C   UNL A   1      42.582  22.528  25.350  1.00  0.00     0.022 A 
BRANCH  44  48
ATOM     48  S   UNL A   1      41.068  20.688  26.796  1.00  0.00     0.124 S 
ATOM     49  O   UNL A   1      40.881  20.691  28.245  1.00  0.00    -0.237 OA
ATOM     50  O   UNL A   1      39.853  20.801  25.997  1.00  0.00    -0.237 OA
ATOM     51  O   UNL A   1      42.050  19.726  26.302  1.00  0.00    -0.744 OA
ENDBRANCH  44  48
ENDBRANCH  27  41
BRANCH  28  52
ATOM     52  C   UNL A   1      42.084  31.446  34.538  1.00  0.00     0.023 A 
ATOM     53  C   UNL A   1      42.399  32.783  34.252  1.00  0.00     0.031 A 
ATOM     54  C   UNL A   1      41.672  31.118  35.840  1.00  0.00     0.131 A 
ATOM     55  C   UNL A   1      42.306  33.748  35.265  1.00  0.00     0.055 A 
ATOM     56  C   UNL A   1      41.558  32.086  36.838  1.00  0.00     0.041 A 
ATOM     57  F   UNL A   1      41.347  29.853  36.149  1.00  0.00    -0.206 F 
ATOM     58  C   UNL A   1      41.878  33.411  36.553  1.00  0.00     0.022 A 
BRANCH  55  59
ATOM     59  S   UNL A   1      42.741  35.466  34.876  1.00  0.00     0.124 S 
ATOM     60  O   UNL A   1      42.000  35.687  33.640  1.00  0.00    -0.237 OA
ATOM     61  O   UNL A   1      42.256  36.180  36.053  1.00  0.00    -0.237 OA
ATOM     62  O   UNL A   1      44.195  35.424  34.737  1.00  0.00    -0.744 OA
ENDBRANCH  55  59
ENDBRANCH  28  52
BRANCH  40  63
ATOM     63  C   UNL A   1      46.680  26.459  32.990  1.00  0.00     0.023 A 
ATOM     64  C   UNL A   1      46.731  25.460  33.977  1.00  0.00     0.031 A 
ATOM     65  C   UNL A   1      47.875  27.089  32.607  1.00  0.00     0.131 A 
ATOM     66  C   UNL A   1      47.957  25.139  34.574  1.00  0.00     0.055 A 
ATOM     67  C   UNL A   1      49.098  26.741  33.182  1.00  0.00     0.041 A 
ATOM     68  F   UNL A   1      47.870  28.050  31.670  1.00  0.00    -0.206 F 
ATOM     69  C   UNL A   1      49.142  25.765  34.175  1.00  0.00     0.022 A 
BRANCH  66  70
ATOM     70  S   UNL A   1      47.989  23.903  35.902  1.00  0.00     0.124 S 
ATOM     71  O   UNL A   1      49.361  24.017  36.386  1.00  0.00    -0.237 OA
ATOM     72  O   UNL A   1      46.951  24.383  36.809  1.00  0.00    -0.237 OA
ATOM     73  O   UNL A   1      47.675  22.653  35.213  1.00  0.00    -0.744 OA
ENDBRANCH  66  70
ENDBRANCH  40  63
ENDBRANCH  14  15
ENDBRANCH   7   9
ENDBRANCH   4   5
ENDBRANCH   3   4
ENDBRANCH   2   3
ENDBRANCH   1   2
BRANCH   1  74
ATOM     74  C   UNL A   1      33.499  36.731  30.881  1.00  0.00     0.021 C 
BRANCH  74  75
ATOM     75  C   UNL A   1      32.927  36.449  32.273  1.00  0.00     0.116 C 
BRANCH  75  76
ATOM     76  N   UNL A   1      32.932  35.019  32.576  1.00  0.00    -0.356 N 
ATOM     77  C   UNL A   1      33.717  33.966  32.833  1.00  0.00     0.224 C 
ATOM     78  H   UNL A   1      31.997  34.711  32.599  1.00  0.00     0.163 HD
ATOM     79  O   UNL A   1      32.984  33.048  33.279  1.00  0.00    -0.275 OA
BRANCH  77  80
ATOM     80  C   UNL A   1      35.339  33.514  32.579  1.00  0.00     0.098 C 
ATOM     81  C   UNL A   1      37.049  33.919  31.222  1.00  0.00     0.017 C 
ATOM     82  C   UNL A   1      35.771  33.815  34.470  1.00  0.00     0.132 C 
ATOM     83  C   UNL A   1      38.654  34.569  32.167  1.00  0.00     0.022 C 
ATOM     84  N   UNL A   1      37.370  33.811  34.959  1.00  0.00    -0.342 N 
ATOM     85  C   UNL A   1      38.616  34.639  34.059  1.00  0.00     0.119 C 
BRANCH  84  86
ATOM     86  C   UNL A   1      37.637  32.604  35.665  1.00  0.00     0.226 C 
ATOM     87  O   UNL A   1      37.571  31.520  35.080  1.00  0.00    -0.275 OA
BRANCH  86  88
ATOM     88  C   UNL A   1      38.217  32.660  37.140  1.00  0.00     0.141 C 
BRANCH  88  89
ATOM     89  C   UNL A   1      37.200  32.828  38.336  1.00  0.00     0.239 C 
BRANCH  89  90
ATOM     90  O   UNL A   1      37.650  33.359  39.647  1.00  0.00    -0.493 OA
BRANCH  90  91
ATOM     91  C   UNL A   1      38.868  33.968  39.558  1.00  0.00     0.119 A 
ATOM     92  C   UNL A   1      40.117  33.051  40.169  1.00  0.00     0.049 A 
ATOM     93  C   UNL A   1      39.249  35.563  39.118  1.00  0.00     0.049 A 
ATOM     94  C   UNL A   1      41.912  33.705  40.522  1.00  0.00     0.043 A 
ATOM     95  C   UNL A   1      40.856  36.234  39.317  1.00  0.00     0.043 A 
ATOM     96  C   UNL A   1      42.212  35.356  40.041  1.00  0.00     0.123 A 
ATOM     97  F   UNL A   1      43.455  35.845  40.056  1.00  0.00    -0.207 F 
ENDBRANCH  90  91
ENDBRANCH  89  90
ENDBRANCH  88  89
ENDBRANCH  86  88
ENDBRANCH  84  86
ENDBRANCH  77  80
ENDBRANCH  75  76
ENDBRANCH  74  75
ENDBRANCH   1  74
TORSDOF 21
ENDMDL
MODEL 3
REMARK VINA RESULT:     -10.4      5.568     10.517
REMARK SMILES O=C(NCCCCCCNC(=O)[C@H]1CCCN(C(=O)CCOc2ccc(F)cc2)C1)c1ccc(-c2c3nc(c(-c4cc(S(=O)(=O)[O-])ccc4F)c4ccc([nH]4)c(-c4cc(S(=O)(=O)[O-])ccc4F)c4nc(c(-c5cc(S(=O)(=O)[O-])ccc5F)c5ccc2[nH]5)C=C4)C=C3)cc1
REMARK SMILES IDX 7 1 6 2 5 3 4 4 3 5 1 6 2 7 31 9 32 10 93 11 33 12 92 13
REMARK SMILES IDX 34 14 35 15 36 16 86 17 37 18 91 19 85 20 87 21 38 22 90 23
REMARK SMILES IDX 84 24 83 25 39 27 71 28 51 29 70 30 52 31 55 32 69 33 88 34
REMARK SMILES IDX 53 35 54 36 68 38 89 39 56 40 40 41 41 42 49 43 42 44 48 45
REMARK SMILES IDX 50 46 47 47 43 48 44 49 45 50 46 51 72 52 73 53 81 54 74 55
REMARK SMILES IDX 80 56 82 57 79 58 75 59 76 60 77 61 78 62 57 63 58 64 66 65
REMARK SMILES IDX 59 66 65 67 67 68 64 69 60 70 61 71 62 72 63 73 8 74 9 75
REMARK SMILES IDX 10 76 11 77 12 79 13 80 14 81 30 82 15 83 17 84 16 85 18 86
REMARK SMILES IDX 19 87 20 88 21 89 22 90 23 91 24 92 29 93 25 94 28 95 26 96
REMARK SMILES IDX 27 97
REMARK H PARENT 3 8 87 26 55 37 10 78
REMARK Flexibility Score: inf
ROOT
ATOM      1  C   UNL A   1      36.022  22.270  24.015  1.00  0.00     0.002 C 
ENDROOT
BRANCH   1   2
ATOM      2  C   UNL A   1      37.241  22.823  24.762  1.00  0.00     0.002 C 
BRANCH   2   3
ATOM      3  C   UNL A   1      38.100  21.798  25.507  1.00  0.00     0.021 C 
BRANCH   3   4
ATOM      4  C   UNL A   1      39.232  22.372  26.355  1.00  0.00     0.116 C 
BRANCH   4   5
ATOM      5  N   UNL A   1      40.539  21.875  25.961  1.00  0.00    -0.352 N 
ATOM      6  O   UNL A   1      42.728  21.930  25.468  1.00  0.00    -0.269 OA
ATOM      7  C   UNL A   1      41.763  22.496  25.978  1.00  0.00     0.251 C 
ATOM      8  H   UNL A   1      40.548  20.949  25.628  1.00  0.00     0.163 HD
BRANCH   7   9
ATOM      9  C   UNL A   1      41.934  23.838  26.583  1.00  0.00     0.039 A 
ATOM     10  C   UNL A   1      42.213  23.999  27.943  1.00  0.00     0.014 A 
ATOM     11  C   UNL A   1      41.877  24.960  25.748  1.00  0.00     0.014 A 
ATOM     12  C   UNL A   1      42.345  25.279  28.481  1.00  0.00     0.010 A 
ATOM     13  C   UNL A   1      42.060  26.241  26.279  1.00  0.00     0.010 A 
ATOM     14  C   UNL A   1      42.280  26.410  27.653  1.00  0.00    -0.014 A 
BRANCH  14  15
ATOM     15  C   UNL A   1      42.510  27.758  28.230  1.00  0.00     0.031 A 
ATOM     16  C   UNL A   1      43.886  28.357  28.269  1.00  0.00     0.074 A 
ATOM     17  C   UNL A   1      41.455  28.452  28.699  1.00  0.00     0.049 A 
ATOM     18  N   UNL A   1      44.265  29.521  28.735  1.00  0.00    -0.248 NA
ATOM     19  C   UNL A   1      44.980  27.544  27.718  1.00  0.00     0.031 C 
ATOM     20  C   UNL A   1      40.071  27.973  28.712  1.00  0.00     0.029 A 
ATOM     21  N   UNL A   1      41.377  29.712  29.232  1.00  0.00    -0.354 N 
ATOM     22  C   UNL A   1      45.640  29.578  28.545  1.00  0.00     0.074 A 
ATOM     23  C   UNL A   1      46.031  28.323  27.937  1.00  0.00     0.031 C 
ATOM     24  C   UNL A   1      39.276  28.944  29.186  1.00  0.00     0.029 A 
ATOM     25  C   UNL A   1      40.096  30.095  29.550  1.00  0.00     0.049 A 
ATOM     26  H   UNL A   1      42.163  30.288  29.374  1.00  0.00     0.167 HD
ATOM     27  C   UNL A   1      46.495  30.585  28.852  1.00  0.00     0.034 A 
ATOM     28  C   UNL A   1      39.632  31.241  30.081  1.00  0.00     0.034 A 
ATOM     29  C   UNL A   1      46.099  31.832  29.457  1.00  0.00     0.049 A 
ATOM     30  C   UNL A   1      40.601  32.332  30.431  1.00  0.00     0.074 A 
ATOM     31  C   UNL A   1      46.889  32.916  29.800  1.00  0.00     0.029 A 
ATOM     32  N   UNL A   1      44.799  32.161  29.815  1.00  0.00    -0.354 N 
ATOM     33  N   UNL A   1      41.904  32.353  30.279  1.00  0.00    -0.248 NA
ATOM     34  C   UNL A   1      40.040  33.545  31.037  1.00  0.00     0.031 C 
ATOM     35  C   UNL A   1      46.073  33.884  30.399  1.00  0.00     0.029 A 
ATOM     36  C   UNL A   1      44.767  33.422  30.389  1.00  0.00     0.049 A 
ATOM     37  H   UNL A   1      44.013  31.583  29.678  1.00  0.00     0.167 HD
ATOM     38  C   UNL A   1      42.321  33.581  30.777  1.00  0.00     0.074 A 
ATOM     39  C   UNL A   1      41.130  34.279  31.220  1.00  0.00     0.031 C 
ATOM     40  C   UNL A   1      43.576  34.085  30.860  1.00  0.00     0.034 A 
BRANCH  27  41
ATOM     41  C   UNL A   1      47.956  30.353  28.573  1.00  0.00     0.023 A 
ATOM     42  C   UNL A   1      48.776  29.657  29.476  1.00  0.00     0.031 A 
ATOM     43  C   UNL A   1      48.535  30.843  27.390  1.00  0.00     0.131 A 
ATOM     44  C   UNL A   1      50.144  29.510  29.204  1.00  0.00     0.055 A 
ATOM     45  C   UNL A   1      49.886  30.647  27.098  1.00  0.00     0.041 A 
ATOM     46  F   UNL A   1      47.797  31.530  26.504  1.00  0.00    -0.206 F 
ATOM     47  C   UNL A   1      50.700  29.983  28.012  1.00  0.00     0.022 A 
BRANCH  44  48
ATOM     48  S   UNL A   1      51.211  28.754  30.461  1.00  0.00     0.124 S 
ATOM     49  O   UNL A   1      50.232  28.330  31.460  1.00  0.00    -0.237 OA
ATOM     50  O   UNL A   1      51.870  27.684  29.721  1.00  0.00    -0.237 OA
ATOM     51  O   UNL A   1      52.082  29.851  30.877  1.00  0.00    -0.744 OA
ENDBRANCH  44  48
ENDBRANCH  27  41
BRANCH  28  52
ATOM     52  C   UNL A   1      38.179  31.394  30.341  1.00  0.00     0.023 A 
ATOM     53  C   UNL A   1      37.316  31.872  29.343  1.00  0.00     0.031 A 
ATOM     54  C   UNL A   1      37.633  31.032  31.583  1.00  0.00     0.131 A 
ATOM     55  C   UNL A   1      35.944  31.985  29.611  1.00  0.00     0.055 A 
ATOM     56  C   UNL A   1      36.264  31.125  31.836  1.00  0.00     0.041 A 
ATOM     57  F   UNL A   1      38.423  30.556  32.558  1.00  0.00    -0.206 F 
ATOM     58  C   UNL A   1      35.411  31.606  30.846  1.00  0.00     0.022 A 
BRANCH  55  59
ATOM     59  S   UNL A   1      34.853  32.628  28.312  1.00  0.00     0.124 S 
ATOM     60  O   UNL A   1      33.926  33.449  29.083  1.00  0.00    -0.237 OA
ATOM     61  O   UNL A   1      35.788  33.347  27.452  1.00  0.00    -0.237 OA
ATOM     62  O   UNL A   1      34.279  31.420  27.724  1.00  0.00    -0.744 OA
ENDBRANCH  55  59
ENDBRANCH  28  52
BRANCH  40  63
ATOM     63  C   UNL A   1      43.714  35.457  31.455  1.00  0.00     0.023 A 
ATOM     64  C   UNL A   1      43.743  36.602  30.640  1.00  0.00     0.031 A 
ATOM     65  C   UNL A   1      43.823  35.618  32.846  1.00  0.00     0.131 A 
ATOM     66  C   UNL A   1      43.912  37.864  31.226  1.00  0.00     0.055 A 
ATOM     67  C   UNL A   1      43.957  36.880  33.425  1.00  0.00     0.041 A 
ATOM     68  F   UNL A   1      43.801  34.551  33.660  1.00  0.00    -0.206 F 
ATOM     69  C   UNL A   1      44.007  38.012  32.613  1.00  0.00     0.022 A 
BRANCH  66  70
ATOM     70  S   UNL A   1      44.029  39.320  30.150  1.00  0.00     0.124 S 
ATOM     71  O   UNL A   1      43.111  38.971  29.071  1.00  0.00    -0.237 OA
ATOM     72  O   UNL A   1      43.598  40.402  31.029  1.00  0.00    -0.237 OA
ATOM     73  O   UNL A   1      45.442  39.355  29.776  1.00  0.00    -0.744 OA
ENDBRANCH  66  70
ENDBRANCH  40  63
ENDBRANCH  14  15
ENDBRANCH   7   9
ENDBRANCH   4   5
ENDBRANCH   3   4
ENDBRANCH   2   3
ENDBRANCH   1   2
BRANCH   1  74
ATOM     74  C   UNL A   1      35.120  21.305  24.794  1.00  0.00     0.021 C 
BRANCH  74  75
ATOM     75  C   UNL A   1      33.624  21.490  24.521  1.00  0.00     0.116 C 
BRANCH  75  76
ATOM     76  N   UNL A   1      33.393  22.306  23.330  1.00  0.00    -0.356 N 
ATOM     77  C   UNL A   1      33.020  23.516  22.898  1.00  0.00     0.224 C 
ATOM     78  H   UNL A   1      33.586  21.750  22.541  1.00  0.00     0.163 HD
ATOM     79  O   UNL A   1      33.314  23.590  21.679  1.00  0.00    -0.275 OA
BRANCH  77  80
ATOM     80  C   UNL A   1      32.152  24.853  23.496  1.00  0.00     0.098 C 
ATOM     81  C   UNL A   1      30.641  25.378  25.036  1.00  0.00     0.017 C 
ATOM     82  C   UNL A   1      33.793  25.920  23.637  1.00  0.00     0.132 C 
ATOM     83  C   UNL A   1      31.260  26.767  26.292  1.00  0.00     0.022 C 
ATOM     84  N   UNL A   1      33.758  27.382  24.447  1.00  0.00    -0.342 N 
ATOM     85  C   UNL A   1      32.946  27.571  25.981  1.00  0.00     0.119 C 
BRANCH  84  86
ATOM     86  C   UNL A   1      33.814  28.441  23.498  1.00  0.00     0.226 C 
ATOM     87  O   UNL A   1      34.847  28.635  22.851  1.00  0.00    -0.275 OA
BRANCH  86  88
ATOM     88  C   UNL A   1      32.496  29.238  23.121  1.00  0.00     0.141 C 
BRANCH  88  89
ATOM     89  C   UNL A   1      31.147  28.429  22.989  1.00  0.00     0.239 C 
BRANCH  89  90
ATOM     90  O   UNL A   1      29.956  28.801  23.792  1.00  0.00    -0.493 OA
BRANCH  90  91
ATOM     91  C   UNL A   1      29.315  29.891  23.277  1.00  0.00     0.119 A 
ATOM     92  C   UNL A   1      28.645  29.621  21.776  1.00  0.00     0.049 A 
ATOM     93  C   UNL A   1      29.283  31.492  23.840  1.00  0.00     0.049 A 
ATOM     94  C   UNL A   1      27.959  31.005  20.596  1.00  0.00     0.043 A 
ATOM     95  C   UNL A   1      28.614  32.808  22.895  1.00  0.00     0.043 A 
ATOM     96  C   UNL A   1      27.967  32.620  21.257  1.00  0.00     0.123 A 
ATOM     97  F   UNL A   1      27.344  33.612  20.616  1.00  0.00    -0.207 F 
ENDBRANCH  90  91
ENDBRANCH  89  90
ENDBRANCH  88  89
ENDBRANCH  86  88
ENDBRANCH  84  86
ENDBRANCH  77  80
ENDBRANCH  75  76
ENDBRANCH  74  75
ENDBRANCH   1  74
TORSDOF 21
ENDMDL
