MODEL 1
REMARK VINA RESULT:      -8.8      0.000      0.000
REMARK SMILES CC[NH+]1CC[NH+]([C@@H]2CC(=O)N(c3ccc(C(=O)NCCCCCCNC(=O)c4ccc(-c5c6nc(c(-c7cc(S(=O)(=O)[O-])ccc7F)c7ccc([nH]7)c(-c7cc(S(=O)(=O)[O-])ccc7F)c7nc(c(-c8cc(S(=O)(=O)[O-])ccc8F)c8ccc5[nH]8)C=C7)C=C6)cc4)cc3)C2=O)CC1
REMARK SMILES IDX 21 1 20 2 19 3 18 4 16 5 17 6 15 8 12 9 13 10 92 11 14 12
REMARK SMILES IDX 91 13 11 14 7 15 8 16 93 17 9 18 94 19 10 20 6 21 3 22 4 23
REMARK SMILES IDX 96 24 5 26 95 27 2 29 1 30 22 31 23 32 24 33 25 34 26 35
REMARK SMILES IDX 27 37 28 38 29 39 90 40 30 41 89 42 31 43 32 44 33 45 83 46
REMARK SMILES IDX 34 47 88 48 82 49 84 50 35 51 87 52 81 53 80 54 36 56 68 57
REMARK SMILES IDX 48 58 67 59 49 60 52 61 66 62 85 63 50 64 51 65 65 67 86 68
REMARK SMILES IDX 53 69 37 70 38 71 46 72 39 73 45 74 47 75 44 76 40 77 41 78
REMARK SMILES IDX 42 79 43 80 69 81 70 82 78 83 71 84 77 85 79 86 76 87 72 88
REMARK SMILES IDX 73 89 74 90 75 91 54 92 55 93 63 94 56 95 62 96 64 97 61 98
REMARK SMILES IDX 57 99 58 100 59 101 60 102
REMARK H PARENT 18 7 3 25 6 28 25 36 84 55 52 66
REMARK Flexibility Score: inf
ROOT
ATOM      1  C   UNL A   1      44.464  24.280  28.679  1.00  0.00     0.002 C 
ENDROOT
BRANCH   1   2
ATOM      2  C   UNL A   1      43.758  23.436  27.613  1.00  0.00     0.021 C 
BRANCH   2   3
ATOM      3  C   UNL A   1      42.275  23.789  27.472  1.00  0.00     0.116 C 
BRANCH   3   4
ATOM      4  N   UNL A   1      42.083  24.643  26.314  1.00  0.00    -0.352 N 
ATOM      5  C   UNL A   1      41.367  25.797  26.130  1.00  0.00     0.251 C 
ATOM      6  O   UNL A   1      41.369  26.299  25.006  1.00  0.00    -0.269 OA
ATOM      7  H   UNL A   1      42.558  24.334  25.509  1.00  0.00     0.163 HD
BRANCH   5   8
ATOM      8  C   UNL A   1      40.647  26.493  27.235  1.00  0.00     0.039 A 
ATOM      9  C   UNL A   1      39.485  27.932  29.350  1.00  0.00     0.052 A 
ATOM     10  C   UNL A   1      40.160  28.611  28.334  1.00  0.00     0.027 A 
ATOM     11  C   UNL A   1      39.349  26.547  29.281  1.00  0.00     0.027 A 
ATOM     12  C   UNL A   1      40.770  27.889  27.303  1.00  0.00     0.016 A 
ATOM     13  C   UNL A   1      39.861  25.849  28.191  1.00  0.00     0.016 A 
BRANCH   9  14
ATOM     14  N   UNL A   1      38.908  28.616  30.430  1.00  0.00    -0.245 N 
ATOM     15  C   UNL A   1      37.458  29.953  31.695  1.00  0.00     0.285 C 
ATOM     16  C   UNL A   1      38.517  29.345  32.608  1.00  0.00     0.176 C 
ATOM     17  C   UNL A   1      37.707  29.278  30.350  1.00  0.00     0.292 C 
ATOM     18  C   UNL A   1      39.448  28.630  31.687  1.00  0.00     0.240 C 
ATOM     19  O   UNL A   1      36.952  29.334  29.389  1.00  0.00    -0.267 OA
ATOM     20  O   UNL A   1      40.522  28.161  32.053  1.00  0.00    -0.274 OA
BRANCH  15  21
ATOM     21  N   UNL A   1      37.362  31.418  31.527  1.00  0.00    -0.315 N 
ATOM     22  N   UNL A   1      36.161  33.134  33.697  1.00  0.00    -0.326 N 
ATOM     23  C   UNL A   1      35.318  32.373  32.748  1.00  0.00     0.324 C 
ATOM     24  C   UNL A   1      37.501  32.527  33.795  1.00  0.00     0.324 C 
ATOM     25  H   UNL A   1      35.745  33.083  34.626  1.00  0.00     0.348 HD
ATOM     26  C   UNL A   1      35.993  31.940  31.421  1.00  0.00     0.325 C 
ATOM     27  C   UNL A   1      38.166  32.245  32.436  1.00  0.00     0.325 C 
ATOM     28  H   UNL A   1      37.805  31.517  30.614  1.00  0.00     0.349 HD
BRANCH  22  29
ATOM     29  C   UNL A   1      36.199  34.559  33.344  1.00  0.00     0.259 C 
ATOM     30  C   UNL A   1      34.830  35.226  33.462  1.00  0.00     0.071 C 
ENDBRANCH  22  29
ENDBRANCH  15  21
ENDBRANCH   9  14
ENDBRANCH   5   8
ENDBRANCH   3   4
ENDBRANCH   2   3
ENDBRANCH   1   2
BRANCH   1  31
ATOM     31  C   UNL A   1      45.967  24.461  28.437  1.00  0.00     0.002 C 
BRANCH  31  32
ATOM     32  C   UNL A   1      46.420  24.174  27.003  1.00  0.00     0.021 C 
BRANCH  32  33
ATOM     33  C   UNL A   1      47.789  24.753  26.662  1.00  0.00     0.116 C 
BRANCH  33  34
ATOM     34  N   UNL A   1      47.744  25.509  25.420  1.00  0.00    -0.352 N 
ATOM     35  C   UNL A   1      46.967  26.593  25.094  1.00  0.00     0.251 C 
ATOM     36  H   UNL A   1      48.356  25.200  24.713  1.00  0.00     0.163 HD
ATOM     37  O   UNL A   1      46.838  26.924  23.920  1.00  0.00    -0.269 OA
BRANCH  35  38
ATOM     38  C   UNL A   1      46.283  27.343  26.166  1.00  0.00     0.039 A 
ATOM     39  C   UNL A   1      44.891  27.283  26.258  1.00  0.00     0.014 A 
ATOM     40  C   UNL A   1      47.020  28.101  27.082  1.00  0.00     0.014 A 
ATOM     41  C   UNL A   1      44.244  27.931  27.311  1.00  0.00     0.010 A 
ATOM     42  C   UNL A   1      46.380  28.682  28.171  1.00  0.00     0.010 A 
ATOM     43  C   UNL A   1      44.985  28.600  28.299  1.00  0.00    -0.014 A 
BRANCH  43  44
ATOM     44  C   UNL A   1      44.321  29.196  29.486  1.00  0.00     0.031 A 
ATOM     45  C   UNL A   1      43.886  30.633  29.472  1.00  0.00     0.074 A 
ATOM     46  C   UNL A   1      44.184  28.455  30.603  1.00  0.00     0.049 A 
ATOM     47  N   UNL A   1      43.363  31.349  30.434  1.00  0.00    -0.248 NA
ATOM     48  C   UNL A   1      44.099  31.372  28.220  1.00  0.00     0.031 C 
ATOM     49  C   UNL A   1      44.617  27.063  30.750  1.00  0.00     0.029 A 
ATOM     50  N   UNL A   1      43.658  28.768  31.832  1.00  0.00    -0.354 N 
ATOM     51  C   UNL A   1      43.194  32.625  29.908  1.00  0.00     0.074 A 
ATOM     52  C   UNL A   1      43.731  32.596  28.564  1.00  0.00     0.031 C 
ATOM     53  C   UNL A   1      44.327  26.641  31.990  1.00  0.00     0.029 A 
ATOM     54  C   UNL A   1      43.738  27.742  32.744  1.00  0.00     0.049 A 
ATOM     55  H   UNL A   1      43.261  29.645  32.040  1.00  0.00     0.167 HD
ATOM     56  C   UNL A   1      42.625  33.712  30.489  1.00  0.00     0.034 A 
ATOM     57  C   UNL A   1      43.402  27.697  34.049  1.00  0.00     0.034 A 
ATOM     58  C   UNL A   1      42.099  33.715  31.833  1.00  0.00     0.049 A 
ATOM     59  C   UNL A   1      42.802  28.923  34.685  1.00  0.00     0.074 A 
ATOM     60  C   UNL A   1      41.435  34.732  32.496  1.00  0.00     0.029 A 
ATOM     61  N   UNL A   1      42.198  32.657  32.731  1.00  0.00    -0.354 N 
ATOM     62  N   UNL A   1      42.574  30.102  34.152  1.00  0.00    -0.248 NA
ATOM     63  C   UNL A   1      42.406  28.812  36.093  1.00  0.00     0.031 C 
ATOM     64  C   UNL A   1      41.215  34.324  33.817  1.00  0.00     0.029 A 
ATOM     65  C   UNL A   1      41.656  33.017  33.956  1.00  0.00     0.049 A 
ATOM     66  H   UNL A   1      42.596  31.781  32.527  1.00  0.00     0.167 HD
ATOM     67  C   UNL A   1      41.992  30.868  35.157  1.00  0.00     0.074 A 
ATOM     68  C   UNL A   1      41.885  30.010  36.320  1.00  0.00     0.031 C 
ATOM     69  C   UNL A   1      41.580  32.162  35.120  1.00  0.00     0.034 A 
BRANCH  56  70
ATOM     70  C   UNL A   1      42.585  34.990  29.681  1.00  0.00     0.023 A 
ATOM     71  C   UNL A   1      43.648  35.910  29.692  1.00  0.00     0.031 A 
ATOM     72  C   UNL A   1      41.447  35.317  28.921  1.00  0.00     0.131 A 
ATOM     73  C   UNL A   1      43.517  37.146  29.042  1.00  0.00     0.055 A 
ATOM     74  C   UNL A   1      41.360  36.508  28.197  1.00  0.00     0.041 A 
ATOM     75  F   UNL A   1      40.388  34.493  28.885  1.00  0.00    -0.206 F 
ATOM     76  C   UNL A   1      42.390  37.441  28.272  1.00  0.00     0.022 A 
BRANCH  73  77
ATOM     77  S   UNL A   1      44.755  38.430  29.367  1.00  0.00     0.124 S 
ATOM     78  O   UNL A   1      44.410  38.836  30.729  1.00  0.00    -0.237 OA
ATOM     79  O   UNL A   1      46.010  37.704  29.215  1.00  0.00    -0.237 OA
ATOM     80  O   UNL A   1      44.485  39.435  28.341  1.00  0.00    -0.744 OA
ENDBRANCH  73  77
ENDBRANCH  56  70
BRANCH  57  81
ATOM     81  C   UNL A   1      43.663  26.462  34.842  1.00  0.00     0.023 A 
ATOM     82  C   UNL A   1      44.953  26.137  35.289  1.00  0.00     0.031 A 
ATOM     83  C   UNL A   1      42.612  25.582  35.162  1.00  0.00     0.131 A 
ATOM     84  C   UNL A   1      45.165  24.946  36.002  1.00  0.00     0.055 A 
ATOM     85  C   UNL A   1      42.820  24.426  35.918  1.00  0.00     0.041 A 
ATOM     86  F   UNL A   1      41.358  25.848  34.764  1.00  0.00    -0.206 F 
ATOM     87  C   UNL A   1      44.105  24.098  36.334  1.00  0.00     0.022 A 
BRANCH  84  88
ATOM     88  S   UNL A   1      46.864  24.483  36.437  1.00  0.00     0.124 S 
ATOM     89  O   UNL A   1      46.739  23.042  36.627  1.00  0.00    -0.237 OA
ATOM     90  O   UNL A   1      47.607  24.913  35.257  1.00  0.00    -0.237 OA
ATOM     91  O   UNL A   1      47.127  25.252  37.651  1.00  0.00    -0.744 OA
ENDBRANCH  84  88
ENDBRANCH  57  81
BRANCH  69  92
ATOM     92  C   UNL A   1      40.952  32.718  36.376  1.00  0.00     0.023 A 
ATOM     93  C   UNL A   1      39.649  32.367  36.771  1.00  0.00     0.031 A 
ATOM     94  C   UNL A   1      41.668  33.615  37.189  1.00  0.00     0.131 A 
ATOM     95  C   UNL A   1      39.083  32.949  37.914  1.00  0.00     0.055 A 
ATOM     96  C   UNL A   1      41.125  34.139  38.363  1.00  0.00     0.041 A 
ATOM     97  F   UNL A   1      42.914  33.992  36.860  1.00  0.00    -0.206 F 
ATOM     98  C   UNL A   1      39.820  33.817  38.724  1.00  0.00     0.022 A 
BRANCH  95  99
ATOM     99  S   UNL A   1      37.335  32.632  38.280  1.00  0.00     0.124 S 
ATOM    100  O   UNL A   1      36.667  33.316  37.177  1.00  0.00    -0.237 OA
ATOM    101  O   UNL A   1      37.269  31.175  38.261  1.00  0.00    -0.237 OA
ATOM    102  O   UNL A   1      37.143  33.244  39.594  1.00  0.00    -0.744 OA
ENDBRANCH  95  99
ENDBRANCH  69  92
ENDBRANCH  43  44
ENDBRANCH  35  38
ENDBRANCH  33  34
ENDBRANCH  32  33
ENDBRANCH  31  32
ENDBRANCH   1  31
TORSDOF 19
ENDMDL
MODEL 2
REMARK VINA RESULT:      -8.3      4.995     12.074
REMARK SMILES CC[NH+]1CC[NH+]([C@@H]2CC(=O)N(c3ccc(C(=O)NCCCCCCNC(=O)c4ccc(-c5c6nc(c(-c7cc(S(=O)(=O)[O-])ccc7F)c7ccc([nH]7)c(-c7cc(S(=O)(=O)[O-])ccc7F)c7nc(c(-c8cc(S(=O)(=O)[O-])ccc8F)c8ccc5[nH]8)C=C7)C=C6)cc4)cc3)C2=O)CC1
REMARK SMILES IDX 21 1 20 2 19 3 18 4 16 5 17 6 15 8 12 9 13 10 92 11 14 12
REMARK SMILES IDX 91 13 11 14 7 15 8 16 93 17 9 18 94 19 10 20 6 21 3 22 4 23
REMARK SMILES IDX 96 24 5 26 95 27 2 29 1 30 22 31 23 32 24 33 25 34 26 35
REMARK SMILES IDX 27 37 28 38 29 39 90 40 30 41 89 42 31 43 32 44 33 45 83 46
REMARK SMILES IDX 34 47 88 48 82 49 84 50 35 51 87 52 81 53 80 54 36 56 68 57
REMARK SMILES IDX 48 58 67 59 49 60 52 61 66 62 85 63 50 64 51 65 65 67 86 68
REMARK SMILES IDX 53 69 37 70 38 71 46 72 39 73 45 74 47 75 44 76 40 77 41 78
REMARK SMILES IDX 42 79 43 80 69 81 70 82 78 83 71 84 77 85 79 86 76 87 72 88
REMARK SMILES IDX 73 89 74 90 75 91 54 92 55 93 63 94 56 95 62 96 64 97 61 98
REMARK SMILES IDX 57 99 58 100 59 101 60 102
REMARK H PARENT 18 7 3 25 6 28 25 36 84 55 52 66
REMARK Flexibility Score: inf
ROOT
ATOM      1  C   UNL A   1      35.342  34.645  32.469  1.00  0.00     0.002 C 
ENDROOT
BRANCH   1   2
ATOM      2  C   UNL A   1      34.153  33.884  31.874  1.00  0.00     0.021 C 
BRANCH   2   3
ATOM      3  C   UNL A   1      34.587  32.670  31.049  1.00  0.00     0.116 C 
BRANCH   3   4
ATOM      4  N   UNL A   1      35.629  33.059  30.117  1.00  0.00    -0.352 N 
ATOM      5  C   UNL A   1      35.974  32.591  28.875  1.00  0.00     0.251 C 
ATOM      6  O   UNL A   1      36.941  33.110  28.317  1.00  0.00    -0.269 OA
ATOM      7  H   UNL A   1      36.194  33.798  30.437  1.00  0.00     0.163 HD
BRANCH   5   8
ATOM      8  C   UNL A   1      35.200  31.539  28.157  1.00  0.00     0.039 A 
ATOM      9  C   UNL A   1      33.556  29.617  26.933  1.00  0.00     0.052 A 
ATOM     10  C   UNL A   1      33.107  30.931  27.072  1.00  0.00     0.027 A 
ATOM     11  C   UNL A   1      34.839  29.280  27.357  1.00  0.00     0.027 A 
ATOM     12  C   UNL A   1      33.912  31.877  27.716  1.00  0.00     0.016 A 
ATOM     13  C   UNL A   1      35.676  30.254  27.893  1.00  0.00     0.016 A 
BRANCH   9  14
ATOM     14  N   UNL A   1      32.756  28.628  26.342  1.00  0.00    -0.245 N 
ATOM     15  C   UNL A   1      31.245  26.857  26.077  1.00  0.00     0.285 C 
ATOM     16  C   UNL A   1      31.688  27.358  24.706  1.00  0.00     0.176 C 
ATOM     17  C   UNL A   1      31.862  27.859  27.046  1.00  0.00     0.292 C 
ATOM     18  C   UNL A   1      32.734  28.382  24.996  1.00  0.00     0.240 C 
ATOM     19  O   UNL A   1      31.589  27.940  28.236  1.00  0.00    -0.267 OA
ATOM     20  O   UNL A   1      33.441  28.881  24.126  1.00  0.00    -0.274 OA
BRANCH  15  21
ATOM     21  N   UNL A   1      31.543  25.475  26.504  1.00  0.00    -0.315 N 
ATOM     22  N   UNL A   1      32.191  23.347  24.467  1.00  0.00    -0.326 N 
ATOM     23  C   UNL A   1      30.799  23.765  24.742  1.00  0.00     0.324 C 
ATOM     24  C   UNL A   1      33.133  24.415  24.848  1.00  0.00     0.324 C 
ATOM     25  H   UNL A   1      32.302  23.199  23.465  1.00  0.00     0.348 HD
ATOM     26  C   UNL A   1      30.546  24.474  26.098  1.00  0.00     0.325 C 
ATOM     27  C   UNL A   1      32.905  24.982  26.261  1.00  0.00     0.325 C 
ATOM     28  H   UNL A   1      31.476  25.587  27.515  1.00  0.00     0.349 HD
BRANCH  22  29
ATOM     29  C   UNL A   1      32.492  22.059  25.105  1.00  0.00     0.259 C 
ATOM     30  C   UNL A   1      33.742  21.398  24.527  1.00  0.00     0.071 C 
ENDBRANCH  22  29
ENDBRANCH  15  21
ENDBRANCH   9  14
ENDBRANCH   5   8
ENDBRANCH   3   4
ENDBRANCH   2   3
ENDBRANCH   1   2
BRANCH   1  31
ATOM     31  C   UNL A   1      35.369  34.663  34.002  1.00  0.00     0.002 C 
BRANCH  31  32
ATOM     32  C   UNL A   1      36.099  33.478  34.639  1.00  0.00     0.021 C 
BRANCH  32  33
ATOM     33  C   UNL A   1      37.103  32.802  33.710  1.00  0.00     0.116 C 
BRANCH  33  34
ATOM     34  N   UNL A   1      36.799  31.388  33.550  1.00  0.00    -0.352 N 
ATOM     35  C   UNL A   1      37.344  30.479  32.678  1.00  0.00     0.251 C 
ATOM     36  H   UNL A   1      36.105  31.033  34.151  1.00  0.00     0.163 HD
ATOM     37  O   UNL A   1      36.775  29.412  32.471  1.00  0.00    -0.269 OA
BRANCH  35  38
ATOM     38  C   UNL A   1      38.608  30.804  31.987  1.00  0.00     0.039 A 
ATOM     39  C   UNL A   1      38.622  30.883  30.593  1.00  0.00     0.014 A 
ATOM     40  C   UNL A   1      39.776  31.035  32.720  1.00  0.00     0.014 A 
ATOM     41  C   UNL A   1      39.795  31.260  29.938  1.00  0.00     0.010 A 
ATOM     42  C   UNL A   1      40.922  31.483  32.071  1.00  0.00     0.010 A 
ATOM     43  C   UNL A   1      40.941  31.604  30.673  1.00  0.00    -0.014 A 
BRANCH  43  44
ATOM     44  C   UNL A   1      42.161  32.117  29.999  1.00  0.00     0.031 A 
ATOM     45  C   UNL A   1      43.303  31.193  29.689  1.00  0.00     0.074 A 
ATOM     46  C   UNL A   1      42.263  33.435  29.738  1.00  0.00     0.049 A 
ATOM     47  N   UNL A   1      44.476  31.468  29.177  1.00  0.00    -0.248 NA
ATOM     48  C   UNL A   1      43.114  29.776  30.031  1.00  0.00     0.031 C 
ATOM     49  C   UNL A   1      41.237  34.436  30.043  1.00  0.00     0.029 A 
ATOM     50  N   UNL A   1      43.280  34.165  29.175  1.00  0.00    -0.354 N 
ATOM     51  C   UNL A   1      45.169  30.263  29.145  1.00  0.00     0.074 A 
ATOM     52  C   UNL A   1      44.305  29.270  29.750  1.00  0.00     0.031 C 
ATOM     53  C   UNL A   1      41.671  35.643  29.651  1.00  0.00     0.029 A 
ATOM     54  C   UNL A   1      43.024  35.515  29.118  1.00  0.00     0.049 A 
ATOM     55  H   UNL A   1      44.113  33.760  28.843  1.00  0.00     0.167 HD
ATOM     56  C   UNL A   1      46.402  30.008  28.640  1.00  0.00     0.034 A 
ATOM     57  C   UNL A   1      43.797  36.540  28.709  1.00  0.00     0.034 A 
ATOM     58  C   UNL A   1      47.245  31.018  28.044  1.00  0.00     0.049 A 
ATOM     59  C   UNL A   1      45.175  36.242  28.181  1.00  0.00     0.074 A 
ATOM     60  C   UNL A   1      48.476  30.861  27.433  1.00  0.00     0.029 A 
ATOM     61  N   UNL A   1      46.953  32.377  28.003  1.00  0.00    -0.354 N 
ATOM     62  N   UNL A   1      45.789  35.084  28.084  1.00  0.00    -0.248 NA
ATOM     63  C   UNL A   1      45.963  37.383  27.701  1.00  0.00     0.031 C 
ATOM     64  C   UNL A   1      48.969  32.130  27.108  1.00  0.00     0.029 A 
ATOM     65  C   UNL A   1      48.006  33.075  27.428  1.00  0.00     0.049 A 
ATOM     66  H   UNL A   1      46.122  32.786  28.336  1.00  0.00     0.167 HD
ATOM     67  C   UNL A   1      47.029  35.358  27.515  1.00  0.00     0.074 A 
ATOM     68  C   UNL A   1      47.066  36.787  27.272  1.00  0.00     0.031 C 
ATOM     69  C   UNL A   1      48.044  34.506  27.217  1.00  0.00     0.034 A 
BRANCH  56  70
ATOM     70  C   UNL A   1      46.920  28.591  28.752  1.00  0.00     0.023 A 
ATOM     71  C   UNL A   1      46.716  27.643  27.734  1.00  0.00     0.031 A 
ATOM     72  C   UNL A   1      47.592  28.168  29.913  1.00  0.00     0.131 A 
ATOM     73  C   UNL A   1      47.088  26.305  27.934  1.00  0.00     0.055 A 
ATOM     74  C   UNL A   1      48.046  26.857  30.067  1.00  0.00     0.041 A 
ATOM     75  F   UNL A   1      47.801  29.018  30.932  1.00  0.00    -0.206 F 
ATOM     76  C   UNL A   1      47.777  25.911  29.083  1.00  0.00     0.022 A 
BRANCH  73  77
ATOM     77  S   UNL A   1      46.499  25.059  26.755  1.00  0.00     0.124 S 
ATOM     78  O   UNL A   1      46.776  25.708  25.475  1.00  0.00    -0.237 OA
ATOM     79  O   UNL A   1      47.328  23.904  27.078  1.00  0.00    -0.237 OA
ATOM     80  O   UNL A   1      45.081  24.922  27.081  1.00  0.00    -0.744 OA
ENDBRANCH  73  77
ENDBRANCH  56  70
BRANCH  57  81
ATOM     81  C   UNL A   1      43.297  37.940  28.820  1.00  0.00     0.023 A 
ATOM     82  C   UNL A   1      43.573  38.729  29.947  1.00  0.00     0.031 A 
ATOM     83  C   UNL A   1      42.525  38.508  27.789  1.00  0.00     0.131 A 
ATOM     84  C   UNL A   1      43.053  40.031  30.032  1.00  0.00     0.055 A 
ATOM     85  C   UNL A   1      42.056  39.822  27.855  1.00  0.00     0.041 A 
ATOM     86  F   UNL A   1      42.236  37.799  26.687  1.00  0.00    -0.206 F 
ATOM     87  C   UNL A   1      42.312  40.588  28.987  1.00  0.00     0.022 A 
BRANCH  84  88
ATOM     88  S   UNL A   1      43.305  40.970  31.564  1.00  0.00     0.124 S 
ATOM     89  O   UNL A   1      44.010  40.000  32.394  1.00  0.00    -0.237 OA
ATOM     90  O   UNL A   1      44.090  42.107  31.097  1.00  0.00    -0.237 OA
ATOM     91  O   UNL A   1      41.945  41.290  31.994  1.00  0.00    -0.744 OA
ENDBRANCH  84  88
ENDBRANCH  57  81
BRANCH  69  92
ATOM     92  C   UNL A   1      49.273  35.100  26.571  1.00  0.00     0.023 A 
ATOM     93  C   UNL A   1      50.413  35.438  27.321  1.00  0.00     0.031 A 
ATOM     94  C   UNL A   1      49.303  35.333  25.184  1.00  0.00     0.131 A 
ATOM     95  C   UNL A   1      51.513  36.039  26.691  1.00  0.00     0.055 A 
ATOM     96  C   UNL A   1      50.425  35.870  24.552  1.00  0.00     0.041 A 
ATOM     97  F   UNL A   1      48.241  35.037  24.418  1.00  0.00    -0.206 F 
ATOM     98  C   UNL A   1      51.534  36.238  25.308  1.00  0.00     0.022 A 
BRANCH  95  99
ATOM     99  S   UNL A   1      52.880  36.647  27.716  1.00  0.00     0.124 S 
ATOM    100  O   UNL A   1      52.426  36.304  29.060  1.00  0.00    -0.237 OA
ATOM    101  O   UNL A   1      54.015  35.882  27.211  1.00  0.00    -0.237 OA
ATOM    102  O   UNL A   1      52.918  38.079  27.422  1.00  0.00    -0.744 OA
ENDBRANCH  95  99
ENDBRANCH  69  92
ENDBRANCH  43  44
ENDBRANCH  35  38
ENDBRANCH  33  34
ENDBRANCH  32  33
ENDBRANCH  31  32
ENDBRANCH   1  31
TORSDOF 19
ENDMDL
MODEL 3
REMARK VINA RESULT:      -8.3      5.176      8.935
REMARK SMILES CC[NH+]1CC[NH+]([C@@H]2CC(=O)N(c3ccc(C(=O)NCCCCCCNC(=O)c4ccc(-c5c6nc(c(-c7cc(S(=O)(=O)[O-])ccc7F)c7ccc([nH]7)c(-c7cc(S(=O)(=O)[O-])ccc7F)c7nc(c(-c8cc(S(=O)(=O)[O-])ccc8F)c8ccc5[nH]8)C=C7)C=C6)cc4)cc3)C2=O)CC1
REMARK SMILES IDX 21 1 20 2 19 3 18 4 16 5 17 6 15 8 12 9 13 10 92 11 14 12
REMARK SMILES IDX 91 13 11 14 7 15 8 16 93 17 9 18 94 19 10 20 6 21 3 22 4 23
REMARK SMILES IDX 96 24 5 26 95 27 2 29 1 30 22 31 23 32 24 33 25 34 26 35
REMARK SMILES IDX 27 37 28 38 29 39 90 40 30 41 89 42 31 43 32 44 33 45 83 46
REMARK SMILES IDX 34 47 88 48 82 49 84 50 35 51 87 52 81 53 80 54 36 56 68 57
REMARK SMILES IDX 48 58 67 59 49 60 52 61 66 62 85 63 50 64 51 65 65 67 86 68
REMARK SMILES IDX 53 69 37 70 38 71 46 72 39 73 45 74 47 75 44 76 40 77 41 78
REMARK SMILES IDX 42 79 43 80 69 81 70 82 78 83 71 84 77 85 79 86 76 87 72 88
REMARK SMILES IDX 73 89 74 90 75 91 54 92 55 93 63 94 56 95 62 96 64 97 61 98
REMARK SMILES IDX 57 99 58 100 59 101 60 102
REMARK H PARENT 18 7 3 25 6 28 25 36 84 55 52 66
REMARK Flexibility Score: inf
ROOT
ATOM      1  C   UNL A   1      39.529  20.165  25.357  1.00  0.00     0.002 C 
ENDROOT
BRANCH   1   2
ATOM      2  C   UNL A   1      38.303  19.245  25.369  1.00  0.00     0.021 C 
BRANCH   2   3
ATOM      3  C   UNL A   1      37.014  19.981  24.997  1.00  0.00     0.116 C 
BRANCH   3   4
ATOM      4  N   UNL A   1      35.924  19.030  24.879  1.00  0.00    -0.352 N 
ATOM      5  C   UNL A   1      34.564  19.190  24.833  1.00  0.00     0.251 C 
ATOM      6  O   UNL A   1      33.870  18.176  24.752  1.00  0.00    -0.269 OA
ATOM      7  H   UNL A   1      36.218  18.093  24.820  1.00  0.00     0.163 HD
BRANCH   5   8
ATOM      8  C   UNL A   1      33.901  20.526  24.813  1.00  0.00     0.039 A 
ATOM      9  C   UNL A   1      32.660  23.039  25.010  1.00  0.00     0.052 A 
ATOM     10  C   UNL A   1      33.815  22.773  25.748  1.00  0.00     0.027 A 
ATOM     11  C   UNL A   1      32.160  22.073  24.141  1.00  0.00     0.027 A 
ATOM     12  C   UNL A   1      34.408  21.508  25.677  1.00  0.00     0.016 A 
ATOM     13  C   UNL A   1      32.824  20.858  23.991  1.00  0.00     0.016 A 
BRANCH   9  14
ATOM     14  N   UNL A   1      32.005  24.276  25.097  1.00  0.00    -0.245 N 
ATOM     15  C   UNL A   1      31.284  26.449  24.599  1.00  0.00     0.285 C 
ATOM     16  C   UNL A   1      30.574  25.952  25.854  1.00  0.00     0.176 C 
ATOM     17  C   UNL A   1      32.048  25.225  24.106  1.00  0.00     0.292 C 
ATOM     18  C   UNL A   1      31.200  24.629  26.146  1.00  0.00     0.240 C 
ATOM     19  O   UNL A   1      32.592  25.134  23.013  1.00  0.00    -0.267 OA
ATOM     20  O   UNL A   1      30.998  24.008  27.185  1.00  0.00    -0.274 OA
BRANCH  15  21
ATOM     21  N   UNL A   1      32.175  27.626  24.657  1.00  0.00    -0.315 N 
ATOM     22  N   UNL A   1      33.490  28.427  27.250  1.00  0.00    -0.326 N 
ATOM     23  C   UNL A   1      32.082  28.765  26.954  1.00  0.00     0.324 C 
ATOM     24  C   UNL A   1      33.918  27.264  26.451  1.00  0.00     0.324 C 
ATOM     25  H   UNL A   1      33.569  28.158  28.230  1.00  0.00     0.348 HD
ATOM     26  C   UNL A   1      31.667  28.747  25.459  1.00  0.00     0.325 C 
ATOM     27  C   UNL A   1      33.592  27.374  24.952  1.00  0.00     0.325 C 
ATOM     28  H   UNL A   1      32.152  27.909  23.677  1.00  0.00     0.349 HD
BRANCH  22  29
ATOM     29  C   UNL A   1      34.362  29.597  27.077  1.00  0.00     0.259 C 
ATOM     30  C   UNL A   1      33.642  30.910  27.374  1.00  0.00     0.071 C 
ENDBRANCH  22  29
ENDBRANCH  15  21
ENDBRANCH   9  14
ENDBRANCH   5   8
ENDBRANCH   3   4
ENDBRANCH   2   3
ENDBRANCH   1   2
BRANCH   1  31
ATOM     31  C   UNL A   1      40.482  19.950  26.539  1.00  0.00     0.002 C 
BRANCH  31  32
ATOM     32  C   UNL A   1      40.766  21.208  27.363  1.00  0.00     0.021 C 
BRANCH  32  33
ATOM     33  C   UNL A   1      40.857  22.483  26.530  1.00  0.00     0.116 C 
BRANCH  33  34
ATOM     34  N   UNL A   1      39.559  22.844  25.980  1.00  0.00    -0.352 N 
ATOM     35  C   UNL A   1      38.726  23.875  26.333  1.00  0.00     0.251 C 
ATOM     36  H   UNL A   1      39.232  22.267  25.252  1.00  0.00     0.163 HD
ATOM     37  O   UNL A   1      37.551  23.863  25.979  1.00  0.00    -0.269 OA
BRANCH  35  38
ATOM     38  C   UNL A   1      39.253  24.986  27.151  1.00  0.00     0.039 A 
ATOM     39  C   UNL A   1      40.025  25.976  26.538  1.00  0.00     0.014 A 
ATOM     40  C   UNL A   1      38.980  25.050  28.521  1.00  0.00     0.014 A 
ATOM     41  C   UNL A   1      40.466  27.066  27.290  1.00  0.00     0.010 A 
ATOM     42  C   UNL A   1      39.357  26.174  29.249  1.00  0.00     0.010 A 
ATOM     43  C   UNL A   1      40.101  27.195  28.639  1.00  0.00    -0.014 A 
BRANCH  43  44
ATOM     44  C   UNL A   1      40.465  28.404  29.422  1.00  0.00     0.031 A 
ATOM     45  C   UNL A   1      41.835  28.537  30.021  1.00  0.00     0.074 A 
ATOM     46  C   UNL A   1      39.528  29.344  29.653  1.00  0.00     0.049 A 
ATOM     47  N   UNL A   1      42.312  29.477  30.796  1.00  0.00    -0.248 NA
ATOM     48  C   UNL A   1      42.785  27.451  29.738  1.00  0.00     0.031 C 
ATOM     49  C   UNL A   1      38.147  29.295  29.165  1.00  0.00     0.029 A 
ATOM     50  N   UNL A   1      39.584  30.514  30.369  1.00  0.00    -0.354 N 
ATOM     51  C   UNL A   1      43.612  29.092  31.103  1.00  0.00     0.074 A 
ATOM     52  C   UNL A   1      43.823  27.802  30.481  1.00  0.00     0.031 C 
ATOM     53  C   UNL A   1      37.494  30.390  29.583  1.00  0.00     0.029 A 
ATOM     54  C   UNL A   1      38.388  31.192  30.412  1.00  0.00     0.049 A 
ATOM     55  H   UNL A   1      40.403  30.836  30.809  1.00  0.00     0.167 HD
ATOM     56  C   UNL A   1      44.548  29.765  31.821  1.00  0.00     0.034 A 
ATOM     57  C   UNL A   1      38.039  32.318  31.065  1.00  0.00     0.034 A 
ATOM     58  C   UNL A   1      44.311  31.050  32.434  1.00  0.00     0.049 A 
ATOM     59  C   UNL A   1      39.081  33.033  31.883  1.00  0.00     0.074 A 
ATOM     60  C   UNL A   1      45.205  31.856  33.117  1.00  0.00     0.029 A 
ATOM     61  N   UNL A   1      43.086  31.709  32.458  1.00  0.00    -0.354 N 
ATOM     62  N   UNL A   1      40.333  32.699  32.101  1.00  0.00    -0.248 NA
ATOM     63  C   UNL A   1      38.669  34.281  32.537  1.00  0.00     0.031 C 
ATOM     64  C   UNL A   1      44.503  32.952  33.631  1.00  0.00     0.029 A 
ATOM     65  C   UNL A   1      43.190  32.883  33.190  1.00  0.00     0.049 A 
ATOM     66  H   UNL A   1      42.266  31.388  32.020  1.00  0.00     0.167 HD
ATOM     67  C   UNL A   1      40.862  33.705  32.903  1.00  0.00     0.074 A 
ATOM     68  C   UNL A   1      39.799  34.668  33.112  1.00  0.00     0.031 C 
ATOM     69  C   UNL A   1      42.114  33.823  33.417  1.00  0.00     0.034 A 
BRANCH  56  70
ATOM     70  C   UNL A   1      45.892  29.096  32.010  1.00  0.00     0.023 A 
ATOM     71  C   UNL A   1      46.154  28.252  33.104  1.00  0.00     0.031 A 
ATOM     72  C   UNL A   1      46.943  29.341  31.108  1.00  0.00     0.131 A 
ATOM     73  C   UNL A   1      47.450  27.763  33.320  1.00  0.00     0.055 A 
ATOM     74  C   UNL A   1      48.207  28.773  31.276  1.00  0.00     0.041 A 
ATOM     75  F   UNL A   1      46.765  30.155  30.055  1.00  0.00    -0.206 F 
ATOM     76  C   UNL A   1      48.474  27.996  32.399  1.00  0.00     0.022 A 
BRANCH  73  77
ATOM     77  S   UNL A   1      47.823  26.974  34.910  1.00  0.00     0.124 S 
ATOM     78  O   UNL A   1      46.590  27.217  35.657  1.00  0.00    -0.237 OA
ATOM     79  O   UNL A   1      48.075  25.591  34.525  1.00  0.00    -0.237 OA
ATOM     80  O   UNL A   1      48.989  27.711  35.393  1.00  0.00    -0.744 OA
ENDBRANCH  73  77
ENDBRANCH  56  70
BRANCH  57  81
ATOM     81  C   UNL A   1      36.633  32.810  31.001  1.00  0.00     0.023 A 
ATOM     82  C   UNL A   1      36.102  33.358  29.822  1.00  0.00     0.031 A 
ATOM     83  C   UNL A   1      35.798  32.741  32.131  1.00  0.00     0.131 A 
ATOM     84  C   UNL A   1      34.785  33.845  29.811  1.00  0.00     0.055 A 
ATOM     85  C   UNL A   1      34.472  33.177  32.099  1.00  0.00     0.041 A 
ATOM     86  F   UNL A   1      36.254  32.222  33.282  1.00  0.00    -0.206 F 
ATOM     87  C   UNL A   1      33.962  33.742  30.935  1.00  0.00     0.022 A 
BRANCH  84  88
ATOM     88  S   UNL A   1      34.178  34.678  28.318  1.00  0.00     0.124 S 
ATOM     89  O   UNL A   1      34.328  36.083  28.682  1.00  0.00    -0.237 OA
ATOM     90  O   UNL A   1      35.093  34.178  27.298  1.00  0.00    -0.237 OA
ATOM     91  O   UNL A   1      32.800  34.207  28.202  1.00  0.00    -0.744 OA
ENDBRANCH  84  88
ENDBRANCH  57  81
BRANCH  69  92
ATOM     92  C   UNL A   1      42.404  35.056  34.239  1.00  0.00     0.023 A 
ATOM     93  C   UNL A   1      42.054  35.139  35.599  1.00  0.00     0.031 A 
ATOM     94  C   UNL A   1      43.039  36.166  33.653  1.00  0.00     0.131 A 
ATOM     95  C   UNL A   1      42.292  36.324  36.312  1.00  0.00     0.055 A 
ATOM     96  C   UNL A   1      43.335  37.317  34.385  1.00  0.00     0.041 A 
ATOM     97  F   UNL A   1      43.391  36.147  32.357  1.00  0.00    -0.206 F 
ATOM     98  C   UNL A   1      42.949  37.405  35.719  1.00  0.00     0.022 A 
BRANCH  95  99
ATOM     99  S   UNL A   1      41.646  36.469  38.000  1.00  0.00     0.124 S 
ATOM    100  O   UNL A   1      40.274  36.906  37.762  1.00  0.00    -0.237 OA
ATOM    101  O   UNL A   1      41.804  35.114  38.515  1.00  0.00    -0.237 OA
ATOM    102  O   UNL A   1      42.516  37.471  38.615  1.00  0.00    -0.744 OA
ENDBRANCH  95  99
ENDBRANCH  69  92
ENDBRANCH  43  44
ENDBRANCH  35  38
ENDBRANCH  33  34
ENDBRANCH  32  33
ENDBRANCH  31  32
ENDBRANCH   1  31
TORSDOF 19
ENDMDL
