MODEL 1
REMARK VINA RESULT:     -11.3      0.000      0.000
REMARK SMILES CC[NH2+][C@]1(C(=O)NCCCCCCNC(=O)c2ccc(-c3c4nc(c(-c5cc(S(=O)(=O)[O-])ccc5F)c5ccc([nH]5)c(-c5cc(S(=O)(=O)[O-])ccc5F)c5nc(c(-c6cc(S(=O)(=O)[O-])ccc6F)c6ccc3[nH]6)C=C5)C=C4)cc2)CCC[C@@H]([N@@H+](C)CC2CCCC2)C1
REMARK SMILES IDX 10 1 9 2 8 3 7 4 5 5 6 6 4 8 80 9 92 10 81 11 83 12 82 13
REMARK SMILES IDX 3 14 2 17 1 18 84 19 85 20 86 22 87 23 88 24 91 25 89 26
REMARK SMILES IDX 90 27 11 28 12 29 13 30 14 31 15 32 16 34 17 35 18 36 79 37
REMARK SMILES IDX 19 38 78 39 20 40 21 41 22 42 72 43 23 44 77 45 71 46 73 47
REMARK SMILES IDX 24 48 76 49 70 50 69 51 25 53 57 54 37 55 56 56 38 57 41 58
REMARK SMILES IDX 55 59 74 60 39 61 40 62 54 64 75 65 42 66 26 67 27 68 35 69
REMARK SMILES IDX 28 70 34 71 36 72 33 73 29 74 30 75 31 76 32 77 58 78 59 79
REMARK SMILES IDX 67 80 60 81 66 82 68 83 65 84 61 85 62 86 63 87 64 88 43 89
REMARK SMILES IDX 44 90 52 91 45 92 51 93 53 94 50 95 46 96 47 97 48 98 49 99
REMARK H PARENT 7 7 3 15 3 16 84 21 14 33 73 52 41 63
REMARK Flexibility Score: inf
ROOT
ATOM      1  C   UNL A   1      32.259  29.666  27.270  1.00  0.00     0.002 C 
ENDROOT
BRANCH   1   2
ATOM      2  C   UNL A   1      32.628  28.284  26.716  1.00  0.00     0.021 C 
BRANCH   2   3
ATOM      3  C   UNL A   1      31.538  27.688  25.820  1.00  0.00     0.116 C 
BRANCH   3   4
ATOM      4  N   UNL A   1      30.979  26.493  26.431  1.00  0.00    -0.351 N 
ATOM      5  C   UNL A   1      31.004  25.167  26.137  1.00  0.00     0.281 C 
ATOM      6  O   UNL A   1      30.061  24.529  26.633  1.00  0.00    -0.268 OA
ATOM      7  H   UNL A   1      30.462  26.690  27.246  1.00  0.00     0.163 HD
BRANCH   5   8
ATOM      8  C   UNL A   1      32.138  24.413  25.338  1.00  0.00     0.181 C 
ATOM      9  C   UNL A   1      33.429  24.442  26.197  1.00  0.00     0.079 C 
ATOM     10  C   UNL A   1      31.825  22.936  25.046  1.00  0.00     0.144 C 
ATOM     11  C   UNL A   1      34.603  23.737  25.517  1.00  0.00     0.013 C 
ATOM     12  C   UNL A   1      32.966  22.072  24.486  1.00  0.00     0.190 C 
ATOM     13  C   UNL A   1      34.285  22.272  25.242  1.00  0.00     0.065 C 
BRANCH   8  14
ATOM     14  N   UNL A   1      32.362  25.096  24.020  1.00  0.00    -0.334 N 
ATOM     15  H   UNL A   1      32.741  26.025  24.207  1.00  0.00     0.347 HD
ATOM     16  H   UNL A   1      32.995  24.494  23.494  1.00  0.00     0.347 HD
BRANCH  14  17
ATOM     17  C   UNL A   1      31.165  25.255  23.184  1.00  0.00     0.257 C 
ATOM     18  C   UNL A   1      31.537  25.878  21.847  1.00  0.00     0.071 C 
ENDBRANCH  14  17
ENDBRANCH   8  14
BRANCH  12  19
ATOM     19  N   UNL A   1      32.545  20.667  24.349  1.00  0.00    -0.334 N 
ATOM     20  C   UNL A   1      32.161  20.264  23.006  1.00  0.00     0.332 C 
ATOM     21  H   UNL A   1      31.710  20.803  24.920  1.00  0.00     0.348 HD
BRANCH  19  22
ATOM     22  C   UNL A   1      33.071  19.584  25.187  1.00  0.00     0.265 C 
BRANCH  22  23
ATOM     23  C   UNL A   1      33.336  18.138  24.702  1.00  0.00     0.044 C 
ATOM     24  C   UNL A   1      34.787  17.696  24.488  1.00  0.00     0.009 C 
ATOM     25  C   UNL A   1      32.679  17.026  25.520  1.00  0.00     0.009 C 
ATOM     26  C   UNL A   1      34.844  16.210  24.853  1.00  0.00     0.001 C 
ATOM     27  C   UNL A   1      33.408  15.765  25.088  1.00  0.00     0.001 C 
ENDBRANCH  22  23
ENDBRANCH  19  22
ENDBRANCH  12  19
ENDBRANCH   5   8
ENDBRANCH   3   4
ENDBRANCH   2   3
ENDBRANCH   1   2
BRANCH   1  28
ATOM     28  C   UNL A   1      31.572  30.595  26.260  1.00  0.00     0.002 C 
BRANCH  28  29
ATOM     29  C   UNL A   1      31.571  32.079  26.646  1.00  0.00     0.021 C 
BRANCH  29  30
ATOM     30  C   UNL A   1      32.851  32.547  27.332  1.00  0.00     0.116 C 
BRANCH  30  31
ATOM     31  N   UNL A   1      32.785  33.961  27.664  1.00  0.00    -0.352 N 
ATOM     32  C   UNL A   1      33.406  34.646  28.673  1.00  0.00     0.251 C 
ATOM     33  H   UNL A   1      32.210  34.504  27.077  1.00  0.00     0.163 HD
ATOM     34  O   UNL A   1      33.011  35.775  28.970  1.00  0.00    -0.269 OA
BRANCH  32  35
ATOM     35  C   UNL A   1      34.536  34.035  29.403  1.00  0.00     0.039 A 
ATOM     36  C   UNL A   1      34.265  33.124  30.427  1.00  0.00     0.014 A 
ATOM     37  C   UNL A   1      35.856  34.387  29.105  1.00  0.00     0.014 A 
ATOM     38  C   UNL A   1      35.322  32.536  31.124  1.00  0.00     0.010 A 
ATOM     39  C   UNL A   1      36.909  33.749  29.755  1.00  0.00     0.010 A 
ATOM     40  C   UNL A   1      36.652  32.825  30.779  1.00  0.00    -0.014 A 
BRANCH  40  41
ATOM     41  C   UNL A   1      37.782  32.173  31.491  1.00  0.00     0.031 A 
ATOM     42  C   UNL A   1      38.544  31.053  30.835  1.00  0.00     0.074 A 
ATOM     43  C   UNL A   1      38.089  32.564  32.742  1.00  0.00     0.049 A 
ATOM     44  N   UNL A   1      39.536  30.341  31.306  1.00  0.00    -0.248 NA
ATOM     45  C   UNL A   1      38.114  30.664  29.484  1.00  0.00     0.031 C 
ATOM     46  C   UNL A   1      37.389  33.608  33.495  1.00  0.00     0.029 A 
ATOM     47  N   UNL A   1      39.064  32.133  33.605  1.00  0.00    -0.354 N 
ATOM     48  C   UNL A   1      39.843  29.416  30.314  1.00  0.00     0.074 A 
ATOM     49  C   UNL A   1      38.889  29.617  29.245  1.00  0.00     0.031 C 
ATOM     50  C   UNL A   1      37.975  33.754  34.693  1.00  0.00     0.029 A 
ATOM     51  C   UNL A   1      39.065  32.792  34.812  1.00  0.00     0.049 A 
ATOM     52  H   UNL A   1      39.705  31.419  33.380  1.00  0.00     0.167 HD
ATOM     53  C   UNL A   1      40.844  28.499  30.289  1.00  0.00     0.034 A 
ATOM     54  C   UNL A   1      39.852  32.633  35.895  1.00  0.00     0.034 A 
ATOM     55  C   UNL A   1      41.793  28.321  31.362  1.00  0.00     0.049 A 
ATOM     56  C   UNL A   1      40.951  31.603  35.846  1.00  0.00     0.074 A 
ATOM     57  C   UNL A   1      42.877  27.463  31.421  1.00  0.00     0.029 A 
ATOM     58  N   UNL A   1      41.766  29.007  32.571  1.00  0.00    -0.354 N 
ATOM     59  N   UNL A   1      41.266  30.774  34.876  1.00  0.00    -0.248 NA
ATOM     60  C   UNL A   1      41.811  31.500  37.032  1.00  0.00     0.031 C 
ATOM     61  C   UNL A   1      43.464  27.582  32.687  1.00  0.00     0.029 A 
ATOM     62  C   UNL A   1      42.794  28.569  33.392  1.00  0.00     0.049 A 
ATOM     63  H   UNL A   1      41.111  29.702  32.810  1.00  0.00     0.167 HD
ATOM     64  C   UNL A   1      42.379  30.069  35.328  1.00  0.00     0.074 A 
ATOM     65  C   UNL A   1      42.691  30.590  36.644  1.00  0.00     0.031 C 
ATOM     66  C   UNL A   1      43.081  29.083  34.712  1.00  0.00     0.034 A 
BRANCH  53  67
ATOM     67  C   UNL A   1      40.940  27.608  29.072  1.00  0.00     0.023 A 
ATOM     68  C   UNL A   1      41.930  27.799  28.091  1.00  0.00     0.031 A 
ATOM     69  C   UNL A   1      40.012  26.570  28.873  1.00  0.00     0.131 A 
ATOM     70  C   UNL A   1      41.923  27.019  26.924  1.00  0.00     0.055 A 
ATOM     71  C   UNL A   1      40.061  25.742  27.749  1.00  0.00     0.041 A 
ATOM     72  F   UNL A   1      39.031  26.350  29.762  1.00  0.00    -0.206 F 
ATOM     73  C   UNL A   1      41.011  25.975  26.757  1.00  0.00     0.022 A 
BRANCH  70  74
ATOM     74  S   UNL A   1      43.027  27.486  25.562  1.00  0.00     0.124 S 
ATOM     75  O   UNL A   1      44.048  28.261  26.264  1.00  0.00    -0.237 OA
ATOM     76  O   UNL A   1      43.453  26.191  25.043  1.00  0.00    -0.237 OA
ATOM     77  O   UNL A   1      42.166  28.263  24.674  1.00  0.00    -0.744 OA
ENDBRANCH  70  74
ENDBRANCH  53  67
BRANCH  54  78
ATOM     78  C   UNL A   1      39.635  33.462  37.114  1.00  0.00     0.023 A 
ATOM     79  C   UNL A   1      40.387  34.624  37.342  1.00  0.00     0.031 A 
ATOM     80  C   UNL A   1      38.698  33.081  38.091  1.00  0.00     0.131 A 
ATOM     81  C   UNL A   1      40.226  35.340  38.539  1.00  0.00     0.055 A 
ATOM     82  C   UNL A   1      38.502  33.825  39.256  1.00  0.00     0.041 A 
ATOM     83  F   UNL A   1      37.947  31.981  37.919  1.00  0.00    -0.206 F 
ATOM     84  C   UNL A   1      39.280  34.955  39.492  1.00  0.00     0.022 A 
BRANCH  81  85
ATOM     85  S   UNL A   1      41.332  36.738  38.872  1.00  0.00     0.124 S 
ATOM     86  O   UNL A   1      42.025  36.879  37.595  1.00  0.00    -0.237 OA
ATOM     87  O   UNL A   1      40.388  37.797  39.210  1.00  0.00    -0.237 OA
ATOM     88  O   UNL A   1      42.156  36.262  39.981  1.00  0.00    -0.744 OA
ENDBRANCH  81  85
ENDBRANCH  54  78
BRANCH  66  89
ATOM     89  C   UNL A   1      44.276  28.535  35.454  1.00  0.00     0.023 A 
ATOM     90  C   UNL A   1      44.145  27.516  36.414  1.00  0.00     0.031 A 
ATOM     91  C   UNL A   1      45.558  29.065  35.223  1.00  0.00     0.131 A 
ATOM     92  C   UNL A   1      45.262  27.106  37.157  1.00  0.00     0.055 A 
ATOM     93  C   UNL A   1      46.678  28.606  35.918  1.00  0.00     0.041 A 
ATOM     94  F   UNL A   1      45.743  30.041  34.321  1.00  0.00    -0.206 F 
ATOM     95  C   UNL A   1      46.531  27.634  36.903  1.00  0.00     0.022 A 
BRANCH  92  96
ATOM     96  S   UNL A   1      45.014  25.960  38.539  1.00  0.00     0.124 S 
ATOM     97  O   UNL A   1      43.866  26.548  39.220  1.00  0.00    -0.237 OA
ATOM     98  O   UNL A   1      44.769  24.695  37.855  1.00  0.00    -0.237 OA
ATOM     99  O   UNL A   1      46.275  26.032  39.275  1.00  0.00    -0.744 OA
ENDBRANCH  92  96
ENDBRANCH  66  89
ENDBRANCH  40  41
ENDBRANCH  32  35
ENDBRANCH  30  31
ENDBRANCH  29  30
ENDBRANCH  28  29
ENDBRANCH   1  28
TORSDOF 21
ENDMDL
MODEL 2
REMARK VINA RESULT:     -11.1      1.602      2.145
REMARK SMILES CC[NH2+][C@]1(C(=O)NCCCCCCNC(=O)c2ccc(-c3c4nc(c(-c5cc(S(=O)(=O)[O-])ccc5F)c5ccc([nH]5)c(-c5cc(S(=O)(=O)[O-])ccc5F)c5nc(c(-c6cc(S(=O)(=O)[O-])ccc6F)c6ccc3[nH]6)C=C5)C=C4)cc2)CCC[C@@H]([N@@H+](C)CC2CCCC2)C1
REMARK SMILES IDX 10 1 9 2 8 3 7 4 5 5 6 6 4 8 80 9 92 10 81 11 83 12 82 13
REMARK SMILES IDX 3 14 2 17 1 18 84 19 85 20 86 22 87 23 88 24 91 25 89 26
REMARK SMILES IDX 90 27 11 28 12 29 13 30 14 31 15 32 16 34 17 35 18 36 79 37
REMARK SMILES IDX 19 38 78 39 20 40 21 41 22 42 72 43 23 44 77 45 71 46 73 47
REMARK SMILES IDX 24 48 76 49 70 50 69 51 25 53 57 54 37 55 56 56 38 57 41 58
REMARK SMILES IDX 55 59 74 60 39 61 40 62 54 64 75 65 42 66 26 67 27 68 35 69
REMARK SMILES IDX 28 70 34 71 36 72 33 73 29 74 30 75 31 76 32 77 58 78 59 79
REMARK SMILES IDX 67 80 60 81 66 82 68 83 65 84 61 85 62 86 63 87 64 88 43 89
REMARK SMILES IDX 44 90 52 91 45 92 51 93 53 94 50 95 46 96 47 97 48 98 49 99
REMARK H PARENT 7 7 3 15 3 16 84 21 14 33 73 52 41 63
REMARK Flexibility Score: inf
ROOT
ATOM      1  C   UNL A   1      32.746  29.715  26.241  1.00  0.00     0.002 C 
ENDROOT
BRANCH   1   2
ATOM      2  C   UNL A   1      32.615  28.235  25.859  1.00  0.00     0.021 C 
BRANCH   2   3
ATOM      3  C   UNL A   1      33.941  27.611  25.415  1.00  0.00     0.116 C 
BRANCH   3   4
ATOM      4  N   UNL A   1      33.757  26.843  24.194  1.00  0.00    -0.351 N 
ATOM      5  C   UNL A   1      33.709  25.519  23.896  1.00  0.00     0.281 C 
ATOM      6  O   UNL A   1      33.975  25.266  22.709  1.00  0.00    -0.268 OA
ATOM      7  H   UNL A   1      33.639  27.414  23.401  1.00  0.00     0.163 HD
BRANCH   5   8
ATOM      8  C   UNL A   1      33.267  24.360  24.873  1.00  0.00     0.181 C 
ATOM      9  C   UNL A   1      31.802  24.630  25.304  1.00  0.00     0.079 C 
ATOM     10  C   UNL A   1      33.300  22.958  24.242  1.00  0.00     0.144 C 
ATOM     11  C   UNL A   1      31.265  23.565  26.259  1.00  0.00     0.013 C 
ATOM     12  C   UNL A   1      32.664  21.811  25.042  1.00  0.00     0.190 C 
ATOM     13  C   UNL A   1      31.292  22.182  25.619  1.00  0.00     0.065 C 
BRANCH   8  14
ATOM     14  N   UNL A   1      34.176  24.338  26.068  1.00  0.00    -0.334 N 
ATOM     15  H   UNL A   1      34.657  25.237  26.114  1.00  0.00     0.347 HD
ATOM     16  H   UNL A   1      33.578  24.152  26.874  1.00  0.00     0.347 HD
BRANCH  14  17
ATOM     17  C   UNL A   1      35.193  23.279  26.065  1.00  0.00     0.257 C 
ATOM     18  C   UNL A   1      36.533  23.838  25.611  1.00  0.00     0.071 C 
ENDBRANCH  14  17
ENDBRANCH   8  14
BRANCH  12  19
ATOM     19  N   UNL A   1      32.685  20.556  24.270  1.00  0.00    -0.334 N 
ATOM     20  C   UNL A   1      32.230  20.668  22.894  1.00  0.00     0.332 C 
ATOM     21  H   UNL A   1      31.956  20.127  24.841  1.00  0.00     0.348 HD
BRANCH  19  22
ATOM     22  C   UNL A   1      33.654  19.481  24.509  1.00  0.00     0.265 C 
BRANCH  22  23
ATOM     23  C   UNL A   1      33.321  17.970  24.502  1.00  0.00     0.044 C 
ATOM     24  C   UNL A   1      34.448  16.977  24.202  1.00  0.00     0.009 C 
ATOM     25  C   UNL A   1      32.615  17.433  25.747  1.00  0.00     0.009 C 
ATOM     26  C   UNL A   1      34.152  15.724  25.031  1.00  0.00     0.001 C 
ATOM     27  C   UNL A   1      32.775  15.925  25.646  1.00  0.00     0.001 C 
ENDBRANCH  22  23
ENDBRANCH  19  22
ENDBRANCH  12  19
ENDBRANCH   5   8
ENDBRANCH   3   4
ENDBRANCH   2   3
ENDBRANCH   1   2
BRANCH   1  28
ATOM     28  C   UNL A   1      31.561  30.591  25.814  1.00  0.00     0.002 C 
BRANCH  28  29
ATOM     29  C   UNL A   1      31.402  31.892  26.609  1.00  0.00     0.021 C 
BRANCH  29  30
ATOM     30  C   UNL A   1      32.685  32.379  27.274  1.00  0.00     0.116 C 
BRANCH  30  31
ATOM     31  N   UNL A   1      32.619  33.800  27.574  1.00  0.00    -0.352 N 
ATOM     32  C   UNL A   1      33.249  34.511  28.559  1.00  0.00     0.251 C 
ATOM     33  H   UNL A   1      32.036  34.328  26.980  1.00  0.00     0.163 HD
ATOM     34  O   UNL A   1      32.854  35.646  28.834  1.00  0.00    -0.269 OA
BRANCH  32  35
ATOM     35  C   UNL A   1      34.388  33.920  29.291  1.00  0.00     0.039 A 
ATOM     36  C   UNL A   1      34.144  32.902  30.215  1.00  0.00     0.014 A 
ATOM     37  C   UNL A   1      35.689  34.394  29.095  1.00  0.00     0.014 A 
ATOM     38  C   UNL A   1      35.210  32.332  30.913  1.00  0.00     0.010 A 
ATOM     39  C   UNL A   1      36.758  33.779  29.741  1.00  0.00     0.010 A 
ATOM     40  C   UNL A   1      36.528  32.748  30.665  1.00  0.00    -0.014 A 
BRANCH  40  41
ATOM     41  C   UNL A   1      37.671  32.119  31.374  1.00  0.00     0.031 A 
ATOM     42  C   UNL A   1      38.459  31.020  30.715  1.00  0.00     0.074 A 
ATOM     43  C   UNL A   1      37.969  32.512  32.628  1.00  0.00     0.049 A 
ATOM     44  N   UNL A   1      39.467  30.328  31.183  1.00  0.00    -0.248 NA
ATOM     45  C   UNL A   1      38.039  30.626  29.362  1.00  0.00     0.031 C 
ATOM     46  C   UNL A   1      37.244  33.537  33.385  1.00  0.00     0.029 A 
ATOM     47  N   UNL A   1      38.953  32.099  33.489  1.00  0.00    -0.354 N 
ATOM     48  C   UNL A   1      39.795  29.414  30.188  1.00  0.00     0.074 A 
ATOM     49  C   UNL A   1      38.837  29.599  29.119  1.00  0.00     0.031 C 
ATOM     50  C   UNL A   1      37.827  33.691  34.584  1.00  0.00     0.029 A 
ATOM     51  C   UNL A   1      38.938  32.753  34.700  1.00  0.00     0.049 A 
ATOM     52  H   UNL A   1      39.609  31.401  33.263  1.00  0.00     0.167 HD
ATOM     53  C   UNL A   1      40.816  28.521  30.160  1.00  0.00     0.034 A 
ATOM     54  C   UNL A   1      39.727  32.607  35.782  1.00  0.00     0.034 A 
ATOM     55  C   UNL A   1      41.768  28.359  31.233  1.00  0.00     0.049 A 
ATOM     56  C   UNL A   1      40.849  31.602  35.730  1.00  0.00     0.074 A 
ATOM     57  C   UNL A   1      42.872  27.526  31.290  1.00  0.00     0.029 A 
ATOM     58  N   UNL A   1      41.724  29.039  32.445  1.00  0.00    -0.354 N 
ATOM     59  N   UNL A   1      41.184  30.784  34.757  1.00  0.00    -0.248 NA
ATOM     60  C   UNL A   1      41.710  31.514  36.916  1.00  0.00     0.031 C 
ATOM     61  C   UNL A   1      43.454  27.652  32.556  1.00  0.00     0.029 A 
ATOM     62  C   UNL A   1      42.762  28.621  33.265  1.00  0.00     0.049 A 
ATOM     63  H   UNL A   1      41.054  29.718  32.686  1.00  0.00     0.167 HD
ATOM     64  C   UNL A   1      42.311  30.103  35.206  1.00  0.00     0.074 A 
ATOM     65  C   UNL A   1      42.611  30.625  36.525  1.00  0.00     0.031 C 
ATOM     66  C   UNL A   1      43.036  29.136  34.588  1.00  0.00     0.034 A 
BRANCH  53  67
ATOM     67  C   UNL A   1      40.933  27.637  28.939  1.00  0.00     0.023 A 
ATOM     68  C   UNL A   1      41.937  27.837  27.973  1.00  0.00     0.031 A 
ATOM     69  C   UNL A   1      40.013  26.596  28.721  1.00  0.00     0.131 A 
ATOM     70  C   UNL A   1      41.949  27.064  26.802  1.00  0.00     0.055 A 
ATOM     71  C   UNL A   1      40.081  25.776  27.593  1.00  0.00     0.041 A 
ATOM     72  F   UNL A   1      39.020  26.367  29.594  1.00  0.00    -0.206 F 
ATOM     73  C   UNL A   1      41.044  26.018  26.616  1.00  0.00     0.022 A 
BRANCH  70  74
ATOM     74  S   UNL A   1      43.071  27.544  25.459  1.00  0.00     0.124 S 
ATOM     75  O   UNL A   1      42.170  28.276  24.571  1.00  0.00    -0.237 OA
ATOM     76  O   UNL A   1      44.073  28.344  26.155  1.00  0.00    -0.237 OA
ATOM     77  O   UNL A   1      43.545  26.265  24.936  1.00  0.00    -0.744 OA
ENDBRANCH  70  74
ENDBRANCH  53  67
BRANCH  54  78
ATOM     78  C   UNL A   1      39.491  33.426  37.005  1.00  0.00     0.023 A 
ATOM     79  C   UNL A   1      38.819  32.893  38.115  1.00  0.00     0.031 A 
ATOM     80  C   UNL A   1      39.898  34.771  37.064  1.00  0.00     0.131 A 
ATOM     81  C   UNL A   1      38.531  33.710  39.219  1.00  0.00     0.055 A 
ATOM     82  C   UNL A   1      39.657  35.566  38.186  1.00  0.00     0.041 A 
ATOM     83  F   UNL A   1      40.550  35.329  36.031  1.00  0.00    -0.206 F 
ATOM     84  C   UNL A   1      38.957  35.040  39.267  1.00  0.00     0.022 A 
BRANCH  81  85
ATOM     85  S   UNL A   1      37.517  33.033  40.561  1.00  0.00     0.124 S 
ATOM     86  O   UNL A   1      36.235  32.835  39.894  1.00  0.00    -0.237 OA
ATOM     87  O   UNL A   1      38.250  31.822  40.913  1.00  0.00    -0.237 OA
ATOM     88  O   UNL A   1      37.540  34.089  41.571  1.00  0.00    -0.744 OA
ENDBRANCH  81  85
ENDBRANCH  54  78
BRANCH  66  89
ATOM     89  C   UNL A   1      44.242  28.611  35.329  1.00  0.00     0.023 A 
ATOM     90  C   UNL A   1      44.134  27.585  36.283  1.00  0.00     0.031 A 
ATOM     91  C   UNL A   1      45.512  29.172  35.102  1.00  0.00     0.131 A 
ATOM     92  C   UNL A   1      45.260  27.197  37.025  1.00  0.00     0.055 A 
ATOM     93  C   UNL A   1      46.642  28.736  35.795  1.00  0.00     0.041 A 
ATOM     94  F   UNL A   1      45.675  30.156  34.205  1.00  0.00    -0.206 F 
ATOM     95  C   UNL A   1      46.516  27.756  36.776  1.00  0.00     0.022 A 
BRANCH  92  96
ATOM     96  S   UNL A   1      45.036  26.038  38.401  1.00  0.00     0.124 S 
ATOM     97  O   UNL A   1      46.387  25.522  38.587  1.00  0.00    -0.237 OA
ATOM     98  O   UNL A   1      44.534  26.907  39.461  1.00  0.00    -0.237 OA
ATOM     99  O   UNL A   1      44.069  25.073  37.883  1.00  0.00    -0.744 OA
ENDBRANCH  92  96
ENDBRANCH  66  89
ENDBRANCH  40  41
ENDBRANCH  32  35
ENDBRANCH  30  31
ENDBRANCH  29  30
ENDBRANCH  28  29
ENDBRANCH   1  28
TORSDOF 21
ENDMDL
MODEL 3
REMARK VINA RESULT:     -10.8      5.634     11.560
REMARK SMILES CC[NH2+][C@]1(C(=O)NCCCCCCNC(=O)c2ccc(-c3c4nc(c(-c5cc(S(=O)(=O)[O-])ccc5F)c5ccc([nH]5)c(-c5cc(S(=O)(=O)[O-])ccc5F)c5nc(c(-c6cc(S(=O)(=O)[O-])ccc6F)c6ccc3[nH]6)C=C5)C=C4)cc2)CCC[C@@H]([N@@H+](C)CC2CCCC2)C1
REMARK SMILES IDX 10 1 9 2 8 3 7 4 5 5 6 6 4 8 80 9 92 10 81 11 83 12 82 13
REMARK SMILES IDX 3 14 2 17 1 18 84 19 85 20 86 22 87 23 88 24 91 25 89 26
REMARK SMILES IDX 90 27 11 28 12 29 13 30 14 31 15 32 16 34 17 35 18 36 79 37
REMARK SMILES IDX 19 38 78 39 20 40 21 41 22 42 72 43 23 44 77 45 71 46 73 47
REMARK SMILES IDX 24 48 76 49 70 50 69 51 25 53 57 54 37 55 56 56 38 57 41 58
REMARK SMILES IDX 55 59 74 60 39 61 40 62 54 64 75 65 42 66 26 67 27 68 35 69
REMARK SMILES IDX 28 70 34 71 36 72 33 73 29 74 30 75 31 76 32 77 58 78 59 79
REMARK SMILES IDX 67 80 60 81 66 82 68 83 65 84 61 85 62 86 63 87 64 88 43 89
REMARK SMILES IDX 44 90 52 91 45 92 51 93 53 94 50 95 46 96 47 97 48 98 49 99
REMARK H PARENT 7 7 3 15 3 16 84 21 14 33 73 52 41 63
REMARK Flexibility Score: inf
ROOT
ATOM      1  C   UNL A   1      37.351  21.919  24.530  1.00  0.00     0.002 C 
ENDROOT
BRANCH   1   2
ATOM      2  C   UNL A   1      36.131  22.842  24.415  1.00  0.00     0.021 C 
BRANCH   2   3
ATOM      3  C   UNL A   1      35.817  23.585  25.717  1.00  0.00     0.116 C 
BRANCH   3   4
ATOM      4  N   UNL A   1      34.937  22.787  26.556  1.00  0.00    -0.351 N 
ATOM      5  C   UNL A   1      33.615  22.824  26.861  1.00  0.00     0.281 C 
ATOM      6  O   UNL A   1      33.334  22.262  27.933  1.00  0.00    -0.268 OA
ATOM      7  H   UNL A   1      35.409  22.050  27.008  1.00  0.00     0.163 HD
BRANCH   5   8
ATOM      8  C   UNL A   1      32.465  23.410  25.950  1.00  0.00     0.181 C 
ATOM      9  C   UNL A   1      31.413  24.073  26.876  1.00  0.00     0.079 C 
ATOM     10  C   UNL A   1      32.936  24.489  24.960  1.00  0.00     0.144 C 
ATOM     11  C   UNL A   1      30.245  24.678  26.098  1.00  0.00     0.013 C 
ATOM     12  C   UNL A   1      31.851  25.275  24.207  1.00  0.00     0.190 C 
ATOM     13  C   UNL A   1      30.722  25.752  25.128  1.00  0.00     0.065 C 
BRANCH   8  14
ATOM     14  N   UNL A   1      31.845  22.302  25.150  1.00  0.00    -0.334 N 
ATOM     15  H   UNL A   1      31.702  21.506  25.772  1.00  0.00     0.347 HD
ATOM     16  H   UNL A   1      30.980  22.682  24.765  1.00  0.00     0.347 HD
BRANCH  14  17
ATOM     17  C   UNL A   1      32.632  21.841  23.999  1.00  0.00     0.257 C 
ATOM     18  C   UNL A   1      33.140  20.428  24.241  1.00  0.00     0.071 C 
ENDBRANCH  14  17
ENDBRANCH   8  14
BRANCH  12  19
ATOM     19  N   UNL A   1      32.451  26.332  23.373  1.00  0.00    -0.334 N 
ATOM     20  C   UNL A   1      32.101  26.279  21.962  1.00  0.00     0.332 C 
ATOM     21  H   UNL A   1      33.398  25.978  23.507  1.00  0.00     0.348 HD
BRANCH  19  22
ATOM     22  C   UNL A   1      32.764  27.673  23.876  1.00  0.00     0.265 C 
BRANCH  22  23
ATOM     23  C   UNL A   1      32.724  28.092  25.366  1.00  0.00     0.044 C 
ATOM     24  C   UNL A   1      33.958  27.822  26.232  1.00  0.00     0.009 C 
ATOM     25  C   UNL A   1      32.330  29.543  25.643  1.00  0.00     0.009 C 
ATOM     26  C   UNL A   1      34.033  28.968  27.245  1.00  0.00     0.001 C 
ATOM     27  C   UNL A   1      32.753  29.775  27.084  1.00  0.00     0.001 C 
ENDBRANCH  22  23
ENDBRANCH  19  22
ENDBRANCH  12  19
ENDBRANCH   5   8
ENDBRANCH   3   4
ENDBRANCH   2   3
ENDBRANCH   1   2
BRANCH   1  28
ATOM     28  C   UNL A   1      37.012  20.428  24.659  1.00  0.00     0.002 C 
BRANCH  28  29
ATOM     29  C   UNL A   1      38.200  19.524  25.005  1.00  0.00     0.021 C 
BRANCH  29  30
ATOM     30  C   UNL A   1      39.255  20.187  25.885  1.00  0.00     0.116 C 
BRANCH  30  31
ATOM     31  N   UNL A   1      40.378  19.297  26.126  1.00  0.00    -0.352 N 
ATOM     32  C   UNL A   1      41.709  19.591  26.247  1.00  0.00     0.251 C 
ATOM     33  H   UNL A   1      40.148  18.343  26.215  1.00  0.00     0.163 HD
ATOM     34  O   UNL A   1      42.540  18.684  26.165  1.00  0.00    -0.269 OA
BRANCH  32  35
ATOM     35  C   UNL A   1      42.147  20.984  26.468  1.00  0.00     0.039 A 
ATOM     36  C   UNL A   1      42.392  21.417  27.774  1.00  0.00     0.014 A 
ATOM     37  C   UNL A   1      42.280  21.872  25.396  1.00  0.00     0.014 A 
ATOM     38  C   UNL A   1      42.809  22.730  27.999  1.00  0.00     0.010 A 
ATOM     39  C   UNL A   1      42.761  23.161  25.616  1.00  0.00     0.010 A 
ATOM     40  C   UNL A   1      43.020  23.606  26.921  1.00  0.00    -0.014 A 
BRANCH  40  41
ATOM     41  C   UNL A   1      43.501  24.992  27.150  1.00  0.00     0.031 A 
ATOM     42  C   UNL A   1      42.567  26.038  27.696  1.00  0.00     0.074 A 
ATOM     43  C   UNL A   1      44.768  25.315  26.824  1.00  0.00     0.049 A 
ATOM     44  N   UNL A   1      42.791  27.305  27.934  1.00  0.00    -0.248 NA
ATOM     45  C   UNL A   1      41.191  25.608  27.985  1.00  0.00     0.031 C 
ATOM     46  C   UNL A   1      45.749  24.394  26.244  1.00  0.00     0.029 A 
ATOM     47  N   UNL A   1      45.449  26.500  26.930  1.00  0.00    -0.354 N 
ATOM     48  C   UNL A   1      41.585  27.825  28.392  1.00  0.00     0.074 A 
ATOM     49  C   UNL A   1      40.619  26.749  28.336  1.00  0.00     0.031 C 
ATOM     50  C   UNL A   1      46.912  25.043  26.073  1.00  0.00     0.029 A 
ATOM     51  C   UNL A   1      46.751  26.431  26.492  1.00  0.00     0.049 A 
ATOM     52  H   UNL A   1      45.044  27.324  27.288  1.00  0.00     0.167 HD
ATOM     53  C   UNL A   1      41.316  29.078  28.840  1.00  0.00     0.034 A 
ATOM     54  C   UNL A   1      47.704  27.382  26.429  1.00  0.00     0.034 A 
ATOM     55  C   UNL A   1      42.298  30.135  28.897  1.00  0.00     0.049 A 
ATOM     56  C   UNL A   1      47.379  28.767  26.924  1.00  0.00     0.074 A 
ATOM     57  C   UNL A   1      42.151  31.423  29.382  1.00  0.00     0.029 A 
ATOM     58  N   UNL A   1      43.609  30.029  28.446  1.00  0.00    -0.354 N 
ATOM     59  N   UNL A   1      46.249  29.229  27.409  1.00  0.00    -0.248 NA
ATOM     60  C   UNL A   1      48.465  29.755  26.879  1.00  0.00     0.031 C 
ATOM     61  C   UNL A   1      43.349  32.114  29.163  1.00  0.00     0.029 A 
ATOM     62  C   UNL A   1      44.270  31.237  28.613  1.00  0.00     0.049 A 
ATOM     63  H   UNL A   1      44.009  29.216  28.063  1.00  0.00     0.167 HD
ATOM     64  C   UNL A   1      46.497  30.555  27.751  1.00  0.00     0.074 A 
ATOM     65  C   UNL A   1      47.890  30.808  27.439  1.00  0.00     0.031 C 
ATOM     66  C   UNL A   1      45.654  31.480  28.277  1.00  0.00     0.034 A 
BRANCH  53  67
ATOM     67  C   UNL A   1      39.899  29.371  29.275  1.00  0.00     0.023 A 
ATOM     68  C   UNL A   1      39.557  29.521  30.631  1.00  0.00     0.031 A 
ATOM     69  C   UNL A   1      38.867  29.474  28.325  1.00  0.00     0.131 A 
ATOM     70  C   UNL A   1      38.214  29.688  31.004  1.00  0.00     0.055 A 
ATOM     71  C   UNL A   1      37.544  29.724  28.696  1.00  0.00     0.041 A 
ATOM     72  F   UNL A   1      39.125  29.319  27.016  1.00  0.00    -0.206 F 
ATOM     73  C   UNL A   1      37.208  29.815  30.044  1.00  0.00     0.022 A 
BRANCH  70  74
ATOM     74  S   UNL A   1      37.783  29.586  32.763  1.00  0.00     0.124 S 
ATOM     75  O   UNL A   1      39.043  29.967  33.397  1.00  0.00    -0.237 OA
ATOM     76  O   UNL A   1      36.693  30.548  32.877  1.00  0.00    -0.237 OA
ATOM     77  O   UNL A   1      37.403  28.187  32.942  1.00  0.00    -0.744 OA
ENDBRANCH  70  74
ENDBRANCH  53  67
BRANCH  54  78
ATOM     78  C   UNL A   1      49.053  27.062  25.879  1.00  0.00     0.023 A 
ATOM     79  C   UNL A   1      49.415  27.449  24.581  1.00  0.00     0.031 A 
ATOM     80  C   UNL A   1      49.986  26.328  26.634  1.00  0.00     0.131 A 
ATOM     81  C   UNL A   1      50.658  27.061  24.055  1.00  0.00     0.055 A 
ATOM     82  C   UNL A   1      51.242  25.990  26.126  1.00  0.00     0.041 A 
ATOM     83  F   UNL A   1      49.692  25.940  27.885  1.00  0.00    -0.206 F 
ATOM     84  C   UNL A   1      51.578  26.345  24.823  1.00  0.00     0.022 A 
BRANCH  81  85
ATOM     85  S   UNL A   1      51.021  27.435  22.318  1.00  0.00     0.124 S 
ATOM     86  O   UNL A   1      49.934  26.745  21.631  1.00  0.00    -0.237 OA
ATOM     87  O   UNL A   1      50.965  28.892  22.304  1.00  0.00    -0.237 OA
ATOM     88  O   UNL A   1      52.350  26.861  22.118  1.00  0.00    -0.744 OA
ENDBRANCH  81  85
ENDBRANCH  54  78
BRANCH  66  89
ATOM     89  C   UNL A   1      46.238  32.841  28.574  1.00  0.00     0.023 A 
ATOM     90  C   UNL A   1      46.221  33.876  27.623  1.00  0.00     0.031 A 
ATOM     91  C   UNL A   1      46.853  33.093  29.814  1.00  0.00     0.131 A 
ATOM     92  C   UNL A   1      46.866  35.091  27.899  1.00  0.00     0.055 A 
ATOM     93  C   UNL A   1      47.435  34.326  30.108  1.00  0.00     0.041 A 
ATOM     94  F   UNL A   1      46.903  32.141  30.759  1.00  0.00    -0.206 F 
ATOM     95  C   UNL A   1      47.459  35.328  29.142  1.00  0.00     0.022 A 
BRANCH  92  96
ATOM     96  S   UNL A   1      47.022  36.313  26.568  1.00  0.00     0.124 S 
ATOM     97  O   UNL A   1      48.252  37.006  26.934  1.00  0.00    -0.237 OA
ATOM     98  O   UNL A   1      47.094  35.471  25.379  1.00  0.00    -0.237 OA
ATOM     99  O   UNL A   1      45.802  37.109  26.690  1.00  0.00    -0.744 OA
ENDBRANCH  92  96
ENDBRANCH  66  89
ENDBRANCH  40  41
ENDBRANCH  32  35
ENDBRANCH  30  31
ENDBRANCH  29  30
ENDBRANCH  28  29
ENDBRANCH   1  28
TORSDOF 21
ENDMDL
