MODEL 1
REMARK VINA RESULT:     -12.2      0.000      0.000
REMARK SMILES C[C@H](C(=O)NCCCCCCNC(=O)c1ccc(-c2c3nc(c(-c4cc(S(=O)(=O)[O-])ccc4F)c4ccc([nH]4)c(-c4cc(S(=O)(=O)[O-])ccc4F)c4nc(c(-c5cc(S(=O)(=O)[O-])ccc5F)c5ccc2[nH]5)C=C4)C=C3)cc1)c1cccc(C(=O)c2ccccc2)c1
REMARK SMILES IDX 8 1 7 2 6 3 5 4 3 5 4 6 2 8 1 9 78 10 79 11 91 12 80 13
REMARK SMILES IDX 82 14 81 15 83 16 84 17 85 18 86 19 90 20 87 21 89 22 88 23
REMARK SMILES IDX 9 24 10 25 11 26 12 27 13 28 14 30 15 31 16 32 77 33 17 34
REMARK SMILES IDX 76 35 18 36 19 37 20 38 70 39 21 40 75 41 69 42 71 43 22 44
REMARK SMILES IDX 74 45 68 46 67 47 23 49 55 50 35 51 54 52 36 53 39 54 53 55
REMARK SMILES IDX 72 56 37 57 38 58 52 60 73 61 40 62 24 63 25 64 33 65 26 66
REMARK SMILES IDX 32 67 34 68 31 69 27 70 28 71 29 72 30 73 56 74 57 75 65 76
REMARK SMILES IDX 58 77 64 78 66 79 63 80 59 81 60 82 61 83 62 84 41 85 42 86
REMARK SMILES IDX 50 87 43 88 49 89 51 90 48 91 44 92 45 93 46 94 47 95
REMARK H PARENT 5 7 12 29 71 48 39 59
REMARK Flexibility Score: inf
ROOT
ATOM      1  C   UNL A   1      32.230  29.755  27.034  1.00  0.00     0.002 C 
ENDROOT
BRANCH   1   2
ATOM      2  C   UNL A   1      32.029  28.293  26.617  1.00  0.00     0.021 C 
BRANCH   2   3
ATOM      3  C   UNL A   1      33.208  27.601  25.938  1.00  0.00     0.116 C 
BRANCH   3   4
ATOM      4  N   UNL A   1      33.793  28.341  24.837  1.00  0.00    -0.356 N 
ATOM      5  C   UNL A   1      33.403  28.430  23.534  1.00  0.00     0.227 C 
ATOM      6  O   UNL A   1      33.895  29.362  22.883  1.00  0.00    -0.274 OA
ATOM      7  H   UNL A   1      34.597  28.861  25.067  1.00  0.00     0.163 HD
BRANCH   5   8
ATOM      8  C   UNL A   1      32.553  27.377  22.804  1.00  0.00     0.105 C 
ATOM      9  C   UNL A   1      33.425  26.109  22.741  1.00  0.00     0.023 C 
BRANCH   8  10
ATOM     10  C   UNL A   1      31.116  27.137  23.260  1.00  0.00    -0.035 A 
ATOM     11  C   UNL A   1      30.754  25.989  23.977  1.00  0.00     0.004 A 
ATOM     12  C   UNL A   1      30.110  28.096  23.027  1.00  0.00     0.016 A 
ATOM     13  C   UNL A   1      29.412  25.710  24.253  1.00  0.00     0.001 A 
ATOM     14  C   UNL A   1      28.765  27.850  23.339  1.00  0.00     0.023 A 
ATOM     15  C   UNL A   1      28.417  26.624  23.909  1.00  0.00     0.012 A 
BRANCH  14  16
ATOM     16  C   UNL A   1      27.688  28.861  23.119  1.00  0.00     0.193 C 
ATOM     17  O   UNL A   1      26.519  28.608  23.393  1.00  0.00    -0.289 OA
BRANCH  16  18
ATOM     18  C   UNL A   1      28.013  30.232  22.678  1.00  0.00     0.022 A 
ATOM     19  C   UNL A   1      27.979  30.508  21.307  1.00  0.00     0.012 A 
ATOM     20  C   UNL A   1      28.353  31.232  23.594  1.00  0.00     0.012 A 
ATOM     21  C   UNL A   1      28.234  31.803  20.856  1.00  0.00     0.001 A 
ATOM     22  C   UNL A   1      28.594  32.529  23.139  1.00  0.00     0.001 A 
ATOM     23  C   UNL A   1      28.528  32.814  21.773  1.00  0.00     0.000 A 
ENDBRANCH  16  18
ENDBRANCH  14  16
ENDBRANCH   8  10
ENDBRANCH   5   8
ENDBRANCH   3   4
ENDBRANCH   2   3
ENDBRANCH   1   2
BRANCH   1  24
ATOM     24  C   UNL A   1      31.582  30.834  26.162  1.00  0.00     0.002 C 
BRANCH  24  25
ATOM     25  C   UNL A   1      31.520  32.247  26.741  1.00  0.00     0.021 C 
BRANCH  25  26
ATOM     26  C   UNL A   1      32.769  32.738  27.464  1.00  0.00     0.116 C 
BRANCH  26  27
ATOM     27  N   UNL A   1      32.740  34.159  27.772  1.00  0.00    -0.352 N 
ATOM     28  C   UNL A   1      33.483  34.860  28.693  1.00  0.00     0.251 C 
ATOM     29  H   UNL A   1      32.098  34.693  27.249  1.00  0.00     0.163 HD
ATOM     30  O   UNL A   1      33.247  36.051  28.890  1.00  0.00    -0.269 OA
BRANCH  28  31
ATOM     31  C   UNL A   1      34.535  34.169  29.472  1.00  0.00     0.039 A 
ATOM     32  C   UNL A   1      34.161  33.336  30.531  1.00  0.00     0.014 A 
ATOM     33  C   UNL A   1      35.885  34.324  29.145  1.00  0.00     0.014 A 
ATOM     34  C   UNL A   1      35.134  32.595  31.211  1.00  0.00     0.010 A 
ATOM     35  C   UNL A   1      36.842  33.534  29.775  1.00  0.00     0.010 A 
ATOM     36  C   UNL A   1      36.478  32.658  30.813  1.00  0.00    -0.014 A 
BRANCH  36  37
ATOM     37  C   UNL A   1      37.538  31.844  31.465  1.00  0.00     0.031 A 
ATOM     38  C   UNL A   1      38.025  32.227  32.835  1.00  0.00     0.074 A 
ATOM     39  C   UNL A   1      38.140  30.845  30.791  1.00  0.00     0.049 A 
ATOM     40  N   UNL A   1      39.066  31.797  33.500  1.00  0.00    -0.248 NA
ATOM     41  C   UNL A   1      37.256  33.272  33.525  1.00  0.00     0.031 C 
ATOM     42  C   UNL A   1      37.775  30.394  29.447  1.00  0.00     0.029 A 
ATOM     43  N   UNL A   1      39.209  30.052  31.129  1.00  0.00    -0.354 N 
ATOM     44  C   UNL A   1      39.097  32.543  34.675  1.00  0.00     0.074 A 
ATOM     45  C   UNL A   1      38.004  33.488  34.596  1.00  0.00     0.031 C 
ATOM     46  C   UNL A   1      38.610  29.410  29.074  1.00  0.00     0.029 A 
ATOM     47  C   UNL A   1      39.600  29.197  30.126  1.00  0.00     0.049 A 
ATOM     48  H   UNL A   1      39.651  30.091  32.009  1.00  0.00     0.167 HD
ATOM     49  C   UNL A   1      39.949  32.435  35.726  1.00  0.00     0.034 A 
ATOM     50  C   UNL A   1      40.657  28.364  30.043  1.00  0.00     0.034 A 
ATOM     51  C   UNL A   1      41.025  31.476  35.785  1.00  0.00     0.049 A 
ATOM     52  C   UNL A   1      41.611  28.272  31.207  1.00  0.00     0.074 A 
ATOM     53  C   UNL A   1      41.912  31.236  36.821  1.00  0.00     0.029 A 
ATOM     54  N   UNL A   1      41.371  30.604  34.758  1.00  0.00    -0.354 N 
ATOM     55  N   UNL A   1      41.611  28.954  32.328  1.00  0.00    -0.248 NA
ATOM     56  C   UNL A   1      42.702  27.293  31.098  1.00  0.00     0.031 C 
ATOM     57  C   UNL A   1      42.834  30.274  36.394  1.00  0.00     0.029 A 
ATOM     58  C   UNL A   1      42.475  29.849  35.126  1.00  0.00     0.049 A 
ATOM     59  H   UNL A   1      40.901  30.533  33.897  1.00  0.00     0.167 HD
ATOM     60  C   UNL A   1      42.679  28.462  33.074  1.00  0.00     0.074 A 
ATOM     61  C   UNL A   1      43.304  27.430  32.272  1.00  0.00     0.031 C 
ATOM     62  C   UNL A   1      43.092  28.822  34.316  1.00  0.00     0.034 A 
BRANCH  49  63
ATOM     63  C   UNL A   1      39.766  33.414  36.864  1.00  0.00     0.023 A 
ATOM     64  C   UNL A   1      39.216  33.018  38.097  1.00  0.00     0.031 A 
ATOM     65  C   UNL A   1      40.076  34.774  36.693  1.00  0.00     0.131 A 
ATOM     66  C   UNL A   1      38.886  33.984  39.060  1.00  0.00     0.055 A 
ATOM     67  C   UNL A   1      39.842  35.716  37.698  1.00  0.00     0.041 A 
ATOM     68  F   UNL A   1      40.587  35.220  35.535  1.00  0.00    -0.206 F 
ATOM     69  C   UNL A   1      39.219  35.328  38.880  1.00  0.00     0.022 A 
BRANCH  66  70
ATOM     70  S   UNL A   1      37.833  33.486  40.451  1.00  0.00     0.124 S 
ATOM     71  O   UNL A   1      38.615  32.401  41.040  1.00  0.00    -0.237 OA
ATOM     72  O   UNL A   1      37.749  34.711  41.236  1.00  0.00    -0.237 OA
ATOM     73  O   UNL A   1      36.589  33.068  39.808  1.00  0.00    -0.744 OA
ENDBRANCH  66  70
ENDBRANCH  49  63
BRANCH  50  74
ATOM     74  C   UNL A   1      40.881  27.575  28.799  1.00  0.00     0.023 A 
ATOM     75  C   UNL A   1      41.887  27.927  27.885  1.00  0.00     0.031 A 
ATOM     76  C   UNL A   1      40.094  26.445  28.513  1.00  0.00     0.131 A 
ATOM     77  C   UNL A   1      42.064  27.169  26.716  1.00  0.00     0.055 A 
ATOM     78  C   UNL A   1      40.302  25.671  27.371  1.00  0.00     0.041 A 
ATOM     79  F   UNL A   1      39.125  26.061  29.360  1.00  0.00    -0.206 F 
ATOM     80  C   UNL A   1      41.288  26.035  26.460  1.00  0.00     0.022 A 
BRANCH  77  81
ATOM     81  S   UNL A   1      43.304  27.709  25.508  1.00  0.00     0.124 S 
ATOM     82  O   UNL A   1      43.817  28.924  26.131  1.00  0.00    -0.237 OA
ATOM     83  O   UNL A   1      44.214  26.569  25.475  1.00  0.00    -0.237 OA
ATOM     84  O   UNL A   1      42.524  27.914  24.289  1.00  0.00    -0.744 OA
ENDBRANCH  77  81
ENDBRANCH  50  74
BRANCH  62  85
ATOM     85  C   UNL A   1      44.235  28.048  34.923  1.00  0.00     0.023 A 
ATOM     86  C   UNL A   1      44.056  26.788  35.519  1.00  0.00     0.031 A 
ATOM     87  C   UNL A   1      45.540  28.574  34.861  1.00  0.00     0.131 A 
ATOM     88  C   UNL A   1      45.163  26.107  36.053  1.00  0.00     0.055 A 
ATOM     89  C   UNL A   1      46.641  27.870  35.349  1.00  0.00     0.041 A 
ATOM     90  F   UNL A   1      45.766  29.775  34.305  1.00  0.00    -0.206 F 
ATOM     91  C   UNL A   1      46.455  26.631  35.954  1.00  0.00     0.022 A 
BRANCH  88  92
ATOM     92  S   UNL A   1      44.891  24.539  36.924  1.00  0.00     0.124 S 
ATOM     93  O   UNL A   1      46.237  23.975  36.960  1.00  0.00    -0.237 OA
ATOM     94  O   UNL A   1      44.350  24.981  38.205  1.00  0.00    -0.237 OA
ATOM     95  O   UNL A   1      43.945  23.829  36.065  1.00  0.00    -0.744 OA
ENDBRANCH  88  92
ENDBRANCH  62  85
ENDBRANCH  36  37
ENDBRANCH  28  31
ENDBRANCH  26  27
ENDBRANCH  25  26
ENDBRANCH  24  25
ENDBRANCH   1  24
TORSDOF 19
ENDMDL
MODEL 2
REMARK VINA RESULT:     -12.0      5.933      9.730
REMARK SMILES C[C@H](C(=O)NCCCCCCNC(=O)c1ccc(-c2c3nc(c(-c4cc(S(=O)(=O)[O-])ccc4F)c4ccc([nH]4)c(-c4cc(S(=O)(=O)[O-])ccc4F)c4nc(c(-c5cc(S(=O)(=O)[O-])ccc5F)c5ccc2[nH]5)C=C4)C=C3)cc1)c1cccc(C(=O)c2ccccc2)c1
REMARK SMILES IDX 8 1 7 2 6 3 5 4 3 5 4 6 2 8 1 9 78 10 79 11 91 12 80 13
REMARK SMILES IDX 82 14 81 15 83 16 84 17 85 18 86 19 90 20 87 21 89 22 88 23
REMARK SMILES IDX 9 24 10 25 11 26 12 27 13 28 14 30 15 31 16 32 77 33 17 34
REMARK SMILES IDX 76 35 18 36 19 37 20 38 70 39 21 40 75 41 69 42 71 43 22 44
REMARK SMILES IDX 74 45 68 46 67 47 23 49 55 50 35 51 54 52 36 53 39 54 53 55
REMARK SMILES IDX 72 56 37 57 38 58 52 60 73 61 40 62 24 63 25 64 33 65 26 66
REMARK SMILES IDX 32 67 34 68 31 69 27 70 28 71 29 72 30 73 56 74 57 75 65 76
REMARK SMILES IDX 58 77 64 78 66 79 63 80 59 81 60 82 61 83 62 84 41 85 42 86
REMARK SMILES IDX 50 87 43 88 49 89 51 90 48 91 44 92 45 93 46 94 47 95
REMARK H PARENT 5 7 12 29 71 48 39 59
REMARK Flexibility Score: inf
ROOT
ATOM      1  C   UNL A   1      35.776  24.084  24.233  1.00  0.00     0.002 C 
ENDROOT
BRANCH   1   2
ATOM      2  C   UNL A   1      34.734  24.727  25.154  1.00  0.00     0.021 C 
BRANCH   2   3
ATOM      3  C   UNL A   1      33.728  25.674  24.504  1.00  0.00     0.116 C 
BRANCH   3   4
ATOM      4  N   UNL A   1      32.789  26.287  25.424  1.00  0.00    -0.356 N 
ATOM      5  C   UNL A   1      31.802  25.722  26.176  1.00  0.00     0.227 C 
ATOM      6  O   UNL A   1      31.354  26.421  27.095  1.00  0.00    -0.274 OA
ATOM      7  H   UNL A   1      32.881  27.262  25.522  1.00  0.00     0.163 HD
BRANCH   5   8
ATOM      8  C   UNL A   1      31.115  24.386  25.851  1.00  0.00     0.105 C 
ATOM      9  C   UNL A   1      30.549  24.543  24.427  1.00  0.00     0.023 C 
BRANCH   8  10
ATOM     10  C   UNL A   1      31.875  23.084  26.092  1.00  0.00    -0.035 A 
ATOM     11  C   UNL A   1      32.565  22.846  27.288  1.00  0.00     0.004 A 
ATOM     12  C   UNL A   1      31.859  22.045  25.139  1.00  0.00     0.016 A 
ATOM     13  C   UNL A   1      33.380  21.719  27.433  1.00  0.00     0.001 A 
ATOM     14  C   UNL A   1      32.635  20.887  25.292  1.00  0.00     0.023 A 
ATOM     15  C   UNL A   1      33.437  20.757  26.426  1.00  0.00     0.012 A 
BRANCH  14  16
ATOM     16  C   UNL A   1      32.615  19.767  24.304  1.00  0.00     0.193 C 
ATOM     17  O   UNL A   1      32.232  19.949  23.152  1.00  0.00    -0.289 OA
BRANCH  16  18
ATOM     18  C   UNL A   1      33.162  18.440  24.649  1.00  0.00     0.022 A 
ATOM     19  C   UNL A   1      32.339  17.549  25.344  1.00  0.00     0.012 A 
ATOM     20  C   UNL A   1      34.467  18.077  24.301  1.00  0.00     0.012 A 
ATOM     21  C   UNL A   1      32.804  16.270  25.645  1.00  0.00     0.001 A 
ATOM     22  C   UNL A   1      34.923  16.791  24.593  1.00  0.00     0.001 A 
ATOM     23  C   UNL A   1      34.091  15.888  25.258  1.00  0.00     0.000 A 
ENDBRANCH  16  18
ENDBRANCH  14  16
ENDBRANCH   8  10
ENDBRANCH   5   8
ENDBRANCH   3   4
ENDBRANCH   2   3
ENDBRANCH   1   2
BRANCH   1  24
ATOM     24  C   UNL A   1      35.442  22.712  23.637  1.00  0.00     0.002 C 
BRANCH  24  25
ATOM     25  C   UNL A   1      36.042  21.491  24.334  1.00  0.00     0.021 C 
BRANCH  25  26
ATOM     26  C   UNL A   1      37.109  21.768  25.386  1.00  0.00     0.116 C 
BRANCH  26  27
ATOM     27  N   UNL A   1      38.049  20.673  25.563  1.00  0.00    -0.352 N 
ATOM     28  C   UNL A   1      39.323  20.700  26.079  1.00  0.00     0.251 C 
ATOM     29  H   UNL A   1      37.727  19.788  25.271  1.00  0.00     0.163 HD
ATOM     30  O   UNL A   1      40.015  19.684  26.054  1.00  0.00    -0.269 OA
BRANCH  28  31
ATOM     31  C   UNL A   1      39.872  21.963  26.625  1.00  0.00     0.039 A 
ATOM     32  C   UNL A   1      40.785  21.907  27.682  1.00  0.00     0.014 A 
ATOM     33  C   UNL A   1      39.504  23.195  26.080  1.00  0.00     0.014 A 
ATOM     34  C   UNL A   1      41.392  23.081  28.140  1.00  0.00     0.010 A 
ATOM     35  C   UNL A   1      40.160  24.353  26.490  1.00  0.00     0.010 A 
ATOM     36  C   UNL A   1      41.114  24.309  27.521  1.00  0.00    -0.014 A 
BRANCH  36  37
ATOM     37  C   UNL A   1      41.778  25.574  27.934  1.00  0.00     0.031 A 
ATOM     38  C   UNL A   1      40.969  26.650  28.603  1.00  0.00     0.074 A 
ATOM     39  C   UNL A   1      43.065  25.804  27.606  1.00  0.00     0.049 A 
ATOM     40  N   UNL A   1      41.283  27.893  28.859  1.00  0.00    -0.248 NA
ATOM     41  C   UNL A   1      39.602  26.279  28.995  1.00  0.00     0.031 C 
ATOM     42  C   UNL A   1      43.948  24.851  26.934  1.00  0.00     0.029 A 
ATOM     43  N   UNL A   1      43.842  26.925  27.762  1.00  0.00    -0.354 N 
ATOM     44  C   UNL A   1      40.142  28.465  29.411  1.00  0.00     0.074 A 
ATOM     45  C   UNL A   1      39.116  27.443  29.396  1.00  0.00     0.031 C 
ATOM     46  C   UNL A   1      45.144  25.429  26.731  1.00  0.00     0.029 A 
ATOM     47  C   UNL A   1      45.095  26.809  27.207  1.00  0.00     0.049 A 
ATOM     48  H   UNL A   1      43.533  27.735  28.230  1.00  0.00     0.167 HD
ATOM     49  C   UNL A   1      39.973  29.721  29.899  1.00  0.00     0.034 A 
ATOM     50  C   UNL A   1      46.080  27.718  27.061  1.00  0.00     0.034 A 
ATOM     51  C   UNL A   1      41.014  30.718  29.912  1.00  0.00     0.049 A 
ATOM     52  C   UNL A   1      45.871  29.116  27.584  1.00  0.00     0.074 A 
ATOM     53  C   UNL A   1      40.976  32.000  30.433  1.00  0.00     0.029 A 
ATOM     54  N   UNL A   1      42.283  30.551  29.367  1.00  0.00    -0.354 N 
ATOM     55  N   UNL A   1      44.801  29.637  28.138  1.00  0.00    -0.248 NA
ATOM     56  C   UNL A   1      47.003  30.046  27.471  1.00  0.00     0.031 C 
ATOM     57  C   UNL A   1      42.191  32.630  30.140  1.00  0.00     0.029 A 
ATOM     58  C   UNL A   1      43.022  31.716  29.512  1.00  0.00     0.049 A 
ATOM     59  H   UNL A   1      42.608  29.727  28.940  1.00  0.00     0.167 HD
ATOM     60  C   UNL A   1      45.143  30.945  28.472  1.00  0.00     0.074 A 
ATOM     61  C   UNL A   1      46.517  31.135  28.051  1.00  0.00     0.031 C 
ATOM     62  C   UNL A   1      44.392  31.894  29.086  1.00  0.00     0.034 A 
BRANCH  49  63
ATOM     63  C   UNL A   1      38.596  30.081  30.411  1.00  0.00     0.023 A 
ATOM     64  C   UNL A   1      37.669  30.775  29.612  1.00  0.00     0.031 A 
ATOM     65  C   UNL A   1      38.230  29.794  31.737  1.00  0.00     0.131 A 
ATOM     66  C   UNL A   1      36.479  31.257  30.177  1.00  0.00     0.055 A 
ATOM     67  C   UNL A   1      36.997  30.186  32.263  1.00  0.00     0.041 A 
ATOM     68  F   UNL A   1      39.075  29.150  32.558  1.00  0.00    -0.206 F 
ATOM     69  C   UNL A   1      36.123  30.945  31.490  1.00  0.00     0.022 A 
BRANCH  66  70
ATOM     70  S   UNL A   1      35.508  32.467  29.234  1.00  0.00     0.124 S 
ATOM     71  O   UNL A   1      34.284  32.545  30.028  1.00  0.00    -0.237 OA
ATOM     72  O   UNL A   1      36.364  33.646  29.262  1.00  0.00    -0.237 OA
ATOM     73  O   UNL A   1      35.352  31.837  27.925  1.00  0.00    -0.744 OA
ENDBRANCH  66  70
ENDBRANCH  49  63
BRANCH  50  74
ATOM     74  C   UNL A   1      47.341  27.337  26.363  1.00  0.00     0.023 A 
ATOM     75  C   UNL A   1      48.330  26.580  27.010  1.00  0.00     0.031 A 
ATOM     76  C   UNL A   1      47.566  27.718  25.028  1.00  0.00     0.131 A 
ATOM     77  C   UNL A   1      49.511  26.247  26.327  1.00  0.00     0.055 A 
ATOM     78  C   UNL A   1      48.723  27.348  24.341  1.00  0.00     0.041 A 
ATOM     79  F   UNL A   1      46.646  28.434  24.362  1.00  0.00    -0.206 F 
ATOM     80  C   UNL A   1      49.708  26.614  24.993  1.00  0.00     0.022 A 
BRANCH  77  81
ATOM     81  S   UNL A   1      50.813  25.356  27.222  1.00  0.00     0.124 S 
ATOM     82  O   UNL A   1      51.376  26.412  28.056  1.00  0.00    -0.237 OA
ATOM     83  O   UNL A   1      50.051  24.324  27.919  1.00  0.00    -0.237 OA
ATOM     84  O   UNL A   1      51.686  24.869  26.157  1.00  0.00    -0.744 OA
ENDBRANCH  77  81
ENDBRANCH  50  74
BRANCH  62  85
ATOM     85  C   UNL A   1      45.057  33.210  29.408  1.00  0.00     0.023 A 
ATOM     86  C   UNL A   1      45.002  34.312  28.538  1.00  0.00     0.031 A 
ATOM     87  C   UNL A   1      45.723  33.367  30.638  1.00  0.00     0.131 A 
ATOM     88  C   UNL A   1      45.626  35.517  28.901  1.00  0.00     0.055 A 
ATOM     89  C   UNL A   1      46.298  34.581  31.014  1.00  0.00     0.041 A 
ATOM     90  F   UNL A   1      45.807  32.345  31.505  1.00  0.00    -0.206 F 
ATOM     91  C   UNL A   1      46.256  35.663  30.140  1.00  0.00     0.022 A 
BRANCH  88  92
ATOM     92  S   UNL A   1      45.647  36.887  27.712  1.00  0.00     0.124 S 
ATOM     93  O   UNL A   1      45.779  38.047  28.589  1.00  0.00    -0.237 OA
ATOM     94  O   UNL A   1      46.811  36.573  26.890  1.00  0.00    -0.237 OA
ATOM     95  O   UNL A   1      44.359  36.769  27.030  1.00  0.00    -0.744 OA
ENDBRANCH  88  92
ENDBRANCH  62  85
ENDBRANCH  36  37
ENDBRANCH  28  31
ENDBRANCH  26  27
ENDBRANCH  25  26
ENDBRANCH  24  25
ENDBRANCH   1  24
TORSDOF 19
ENDMDL
MODEL 3
REMARK VINA RESULT:     -11.5      5.431      9.994
REMARK SMILES C[C@H](C(=O)NCCCCCCNC(=O)c1ccc(-c2c3nc(c(-c4cc(S(=O)(=O)[O-])ccc4F)c4ccc([nH]4)c(-c4cc(S(=O)(=O)[O-])ccc4F)c4nc(c(-c5cc(S(=O)(=O)[O-])ccc5F)c5ccc2[nH]5)C=C4)C=C3)cc1)c1cccc(C(=O)c2ccccc2)c1
REMARK SMILES IDX 8 1 7 2 6 3 5 4 3 5 4 6 2 8 1 9 78 10 79 11 91 12 80 13
REMARK SMILES IDX 82 14 81 15 83 16 84 17 85 18 86 19 90 20 87 21 89 22 88 23
REMARK SMILES IDX 9 24 10 25 11 26 12 27 13 28 14 30 15 31 16 32 77 33 17 34
REMARK SMILES IDX 76 35 18 36 19 37 20 38 70 39 21 40 75 41 69 42 71 43 22 44
REMARK SMILES IDX 74 45 68 46 67 47 23 49 55 50 35 51 54 52 36 53 39 54 53 55
REMARK SMILES IDX 72 56 37 57 38 58 52 60 73 61 40 62 24 63 25 64 33 65 26 66
REMARK SMILES IDX 32 67 34 68 31 69 27 70 28 71 29 72 30 73 56 74 57 75 65 76
REMARK SMILES IDX 58 77 64 78 66 79 63 80 59 81 60 82 61 83 62 84 41 85 42 86
REMARK SMILES IDX 50 87 43 88 49 89 51 90 48 91 44 92 45 93 46 94 47 95
REMARK H PARENT 5 7 12 29 71 48 39 59
REMARK Flexibility Score: inf
ROOT
ATOM      1  C   UNL A   1      34.476  23.681  23.137  1.00  0.00     0.002 C 
ENDROOT
BRANCH   1   2
ATOM      2  C   UNL A   1      33.328  23.048  22.342  1.00  0.00     0.021 C 
BRANCH   2   3
ATOM      3  C   UNL A   1      32.134  22.533  23.142  1.00  0.00     0.116 C 
BRANCH   3   4
ATOM      4  N   UNL A   1      32.282  21.183  23.650  1.00  0.00    -0.356 N 
ATOM      5  C   UNL A   1      32.222  20.716  24.929  1.00  0.00     0.227 C 
ATOM      6  O   UNL A   1      32.079  19.491  25.053  1.00  0.00    -0.274 OA
ATOM      7  H   UNL A   1      32.449  20.497  22.964  1.00  0.00     0.163 HD
BRANCH   5   8
ATOM      8  C   UNL A   1      32.488  21.567  26.181  1.00  0.00     0.105 C 
ATOM      9  C   UNL A   1      33.985  21.391  26.495  1.00  0.00     0.023 C 
BRANCH   8  10
ATOM     10  C   UNL A   1      31.998  23.012  26.214  1.00  0.00    -0.035 A 
ATOM     11  C   UNL A   1      30.647  23.326  26.414  1.00  0.00     0.004 A 
ATOM     12  C   UNL A   1      32.900  24.089  26.104  1.00  0.00     0.016 A 
ATOM     13  C   UNL A   1      30.190  24.641  26.289  1.00  0.00     0.001 A 
ATOM     14  C   UNL A   1      32.461  25.419  26.023  1.00  0.00     0.023 A 
ATOM     15  C   UNL A   1      31.091  25.681  26.065  1.00  0.00     0.012 A 
BRANCH  14  16
ATOM     16  C   UNL A   1      33.403  26.574  25.928  1.00  0.00     0.193 C 
ATOM     17  O   UNL A   1      34.577  26.406  25.612  1.00  0.00    -0.289 OA
BRANCH  16  18
ATOM     18  C   UNL A   1      32.924  27.960  26.095  1.00  0.00     0.022 A 
ATOM     19  C   UNL A   1      32.040  28.471  25.140  1.00  0.00     0.012 A 
ATOM     20  C   UNL A   1      33.342  28.751  27.170  1.00  0.00     0.012 A 
ATOM     21  C   UNL A   1      31.529  29.760  25.290  1.00  0.00     0.001 A 
ATOM     22  C   UNL A   1      32.818  30.035  27.323  1.00  0.00     0.001 A 
ATOM     23  C   UNL A   1      31.909  30.535  26.388  1.00  0.00     0.000 A 
ENDBRANCH  16  18
ENDBRANCH  14  16
ENDBRANCH   8  10
ENDBRANCH   5   8
ENDBRANCH   3   4
ENDBRANCH   2   3
ENDBRANCH   1   2
BRANCH   1  24
ATOM     24  C   UNL A   1      35.632  22.768  23.557  1.00  0.00     0.002 C 
BRANCH  24  25
ATOM     25  C   UNL A   1      36.805  23.426  24.282  1.00  0.00     0.021 C 
BRANCH  25  26
ATOM     26  C   UNL A   1      36.921  23.145  25.776  1.00  0.00     0.116 C 
BRANCH  26  27
ATOM     27  N   UNL A   1      38.057  22.305  26.122  1.00  0.00    -0.352 N 
ATOM     28  C   UNL A   1      39.277  22.670  26.640  1.00  0.00     0.251 C 
ATOM     29  H   UNL A   1      37.935  21.341  25.961  1.00  0.00     0.163 HD
ATOM     30  O   UNL A   1      40.162  21.828  26.773  1.00  0.00    -0.269 OA
BRANCH  28  31
ATOM     31  C   UNL A   1      39.533  24.085  26.999  1.00  0.00     0.039 A 
ATOM     32  C   UNL A   1      39.255  24.518  28.298  1.00  0.00     0.014 A 
ATOM     33  C   UNL A   1      40.067  24.973  26.062  1.00  0.00     0.014 A 
ATOM     34  C   UNL A   1      39.588  25.821  28.684  1.00  0.00     0.010 A 
ATOM     35  C   UNL A   1      40.461  26.246  26.466  1.00  0.00     0.010 A 
ATOM     36  C   UNL A   1      40.230  26.683  27.782  1.00  0.00    -0.014 A 
BRANCH  36  37
ATOM     37  C   UNL A   1      40.656  28.057  28.163  1.00  0.00     0.031 A 
ATOM     38  C   UNL A   1      42.122  28.367  28.288  1.00  0.00     0.074 A 
ATOM     39  C   UNL A   1      39.740  28.982  28.508  1.00  0.00     0.049 A 
ATOM     40  N   UNL A   1      42.712  29.416  28.799  1.00  0.00    -0.248 NA
ATOM     41  C   UNL A   1      43.045  27.327  27.811  1.00  0.00     0.031 C 
ATOM     42  C   UNL A   1      38.290  28.795  28.454  1.00  0.00     0.029 A 
ATOM     43  N   UNL A   1      39.893  30.252  29.008  1.00  0.00    -0.354 N 
ATOM     44  C   UNL A   1      44.076  29.150  28.737  1.00  0.00     0.074 A 
ATOM     45  C   UNL A   1      44.214  27.816  28.192  1.00  0.00     0.031 C 
ATOM     46  C   UNL A   1      37.687  29.907  28.908  1.00  0.00     0.029 A 
ATOM     47  C   UNL A   1      38.705  30.863  29.335  1.00  0.00     0.049 A 
ATOM     48  H   UNL A   1      40.771  30.685  29.118  1.00  0.00     0.167 HD
ATOM     49  C   UNL A   1      45.114  29.951  29.086  1.00  0.00     0.034 A 
ATOM     50  C   UNL A   1      38.461  32.040  29.945  1.00  0.00     0.034 A 
ATOM     51  C   UNL A   1      44.950  31.283  29.617  1.00  0.00     0.049 A 
ATOM     52  C   UNL A   1      39.622  32.910  30.352  1.00  0.00     0.074 A 
ATOM     53  C   UNL A   1      45.926  32.206  29.950  1.00  0.00     0.029 A 
ATOM     54  N   UNL A   1      43.727  31.879  29.906  1.00  0.00    -0.354 N 
ATOM     55  N   UNL A   1      40.908  32.666  30.256  1.00  0.00    -0.248 NA
ATOM     56  C   UNL A   1      39.301  34.217  30.942  1.00  0.00     0.031 C 
ATOM     57  C   UNL A   1      45.298  33.327  30.505  1.00  0.00     0.029 A 
ATOM     58  C   UNL A   1      43.927  33.142  30.441  1.00  0.00     0.049 A 
ATOM     59  H   UNL A   1      42.848  31.464  29.754  1.00  0.00     0.167 HD
ATOM     60  C   UNL A   1      41.550  33.803  30.739  1.00  0.00     0.074 A 
ATOM     61  C   UNL A   1      40.509  34.731  31.134  1.00  0.00     0.031 C 
ATOM     62  C   UNL A   1      42.879  34.059  30.833  1.00  0.00     0.034 A 
BRANCH  49  63
ATOM     63  C   UNL A   1      46.506  29.378  28.943  1.00  0.00     0.023 A 
ATOM     64  C   UNL A   1      47.134  29.269  27.689  1.00  0.00     0.031 A 
ATOM     65  C   UNL A   1      47.187  28.867  30.062  1.00  0.00     0.131 A 
ATOM     66  C   UNL A   1      48.341  28.563  27.568  1.00  0.00     0.055 A 
ATOM     67  C   UNL A   1      48.438  28.258  29.948  1.00  0.00     0.041 A 
ATOM     68  F   UNL A   1      46.636  28.924  31.285  1.00  0.00    -0.206 F 
ATOM     69  C   UNL A   1      49.012  28.079  28.693  1.00  0.00     0.022 A 
BRANCH  66  70
ATOM     70  S   UNL A   1      48.909  28.110  25.905  1.00  0.00     0.124 S 
ATOM     71  O   UNL A   1      47.846  28.665  25.069  1.00  0.00    -0.237 OA
ATOM     72  O   UNL A   1      50.202  28.778  25.822  1.00  0.00    -0.237 OA
ATOM     73  O   UNL A   1      48.959  26.650  25.946  1.00  0.00    -0.744 OA
ENDBRANCH  66  70
ENDBRANCH  49  63
BRANCH  50  74
ATOM     74  C   UNL A   1      37.055  32.446  30.232  1.00  0.00     0.023 A 
ATOM     75  C   UNL A   1      36.295  33.151  29.287  1.00  0.00     0.031 A 
ATOM     76  C   UNL A   1      36.450  32.121  31.459  1.00  0.00     0.131 A 
ATOM     77  C   UNL A   1      34.977  33.528  29.593  1.00  0.00     0.055 A 
ATOM     78  C   UNL A   1      35.127  32.462  31.742  1.00  0.00     0.041 A 
ATOM     79  F   UNL A   1      37.133  31.439  32.393  1.00  0.00    -0.206 F 
ATOM     80  C   UNL A   1      34.383  33.176  30.808  1.00  0.00     0.022 A 
BRANCH  77  81
ATOM     81  S   UNL A   1      34.055  34.525  28.391  1.00  0.00     0.124 S 
ATOM     82  O   UNL A   1      32.826  33.754  28.244  1.00  0.00    -0.237 OA
ATOM     83  O   UNL A   1      33.933  35.803  29.085  1.00  0.00    -0.237 OA
ATOM     84  O   UNL A   1      34.928  34.538  27.219  1.00  0.00    -0.744 OA
ENDBRANCH  77  81
ENDBRANCH  50  74
BRANCH  62  85
ATOM     85  C   UNL A   1      43.294  35.427  31.316  1.00  0.00     0.023 A 
ATOM     86  C   UNL A   1      43.565  36.485  30.433  1.00  0.00     0.031 A 
ATOM     87  C   UNL A   1      43.376  35.678  32.699  1.00  0.00     0.131 A 
ATOM     88  C   UNL A   1      43.931  37.742  30.943  1.00  0.00     0.055 A 
ATOM     89  C   UNL A   1      43.692  36.941  33.200  1.00  0.00     0.041 A 
ATOM     90  F   UNL A   1      43.130  34.702  33.586  1.00  0.00    -0.206 F 
ATOM     91  C   UNL A   1      43.977  37.981  32.320  1.00  0.00     0.022 A 
BRANCH  88  92
ATOM     92  S   UNL A   1      44.393  39.059  29.784  1.00  0.00     0.124 S 
ATOM     93  O   UNL A   1      43.124  39.754  29.594  1.00  0.00    -0.237 OA
ATOM     94  O   UNL A   1      45.415  39.788  30.528  1.00  0.00    -0.237 OA
ATOM     95  O   UNL A   1      44.883  38.331  28.614  1.00  0.00    -0.744 OA
ENDBRANCH  88  92
ENDBRANCH  62  85
ENDBRANCH  36  37
ENDBRANCH  28  31
ENDBRANCH  26  27
ENDBRANCH  25  26
ENDBRANCH  24  25
ENDBRANCH   1  24
TORSDOF 19
ENDMDL
