MODEL 1
REMARK VINA RESULT:     -12.5      0.000      0.000
REMARK SMILES Cc1c(C(=O)NCCCCCCNC(=O)c2ccc(-c3c4nc(c(-c5cc(S(=O)(=O)[O-])ccc5F)c5ccc([nH]5)c(-c5cc(S(=O)(=O)[O-])ccc5F)c5nc(c(-c6cc(S(=O)(=O)[O-])ccc6F)c6ccc3[nH]6)C=C5)C=C4)cc2)oc2c1/C(=N/NC(=O)C(c1ccccc1)c1ccccc1)CCC2
REMARK SMILES IDX 9 1 8 2 7 3 6 4 4 5 5 6 3 8 1 9 2 10 81 11 79 12 80 13 82 14
REMARK SMILES IDX 102 15 83 16 100 17 101 18 84 19 85 20 86 22 87 23 88 24
REMARK SMILES IDX 89 25 93 26 90 27 92 28 91 29 94 30 95 31 99 32 96 33 98 34
REMARK SMILES IDX 97 35 10 36 11 37 12 38 13 39 14 40 15 42 16 43 17 44 78 45
REMARK SMILES IDX 18 46 77 47 19 48 20 49 21 50 71 51 22 52 76 53 70 54 72 55
REMARK SMILES IDX 23 56 75 57 69 58 68 59 24 61 56 62 36 63 55 64 37 65 40 66
REMARK SMILES IDX 54 67 73 68 38 69 39 70 53 72 74 73 41 74 25 75 26 76 34 77
REMARK SMILES IDX 27 78 33 79 35 80 32 81 28 82 29 83 30 84 31 85 57 86 58 87
REMARK SMILES IDX 66 88 59 89 65 90 67 91 64 92 60 93 61 94 62 95 63 96 42 97
REMARK SMILES IDX 43 98 51 99 44 100 50 101 52 102 49 103 45 104 46 105 47 106
REMARK SMILES IDX 48 107
REMARK H PARENT 6 7 84 21 13 41 72 60 40 71
REMARK Flexibility Score: inf
ROOT
ATOM      1  C   UNL A   1      32.336  30.450  26.499  1.00  0.00     0.002 C 
ENDROOT
BRANCH   1   2
ATOM      2  C   UNL A   1      31.606  29.268  25.858  1.00  0.00     0.021 C 
BRANCH   2   3
ATOM      3  C   UNL A   1      31.514  29.427  24.341  1.00  0.00     0.116 C 
BRANCH   3   4
ATOM      4  N   UNL A   1      30.140  29.271  23.873  1.00  0.00    -0.349 N 
ATOM      5  C   UNL A   1      29.463  28.143  23.429  1.00  0.00     0.287 C 
ATOM      6  O   UNL A   1      28.278  28.243  23.183  1.00  0.00    -0.266 OA
ATOM      7  H   UNL A   1      29.608  30.099  23.870  1.00  0.00     0.163 HD
BRANCH   5   8
ATOM      8  C   UNL A   1      30.202  26.898  23.383  1.00  0.00     0.195 A 
ATOM      9  C   UNL A   1      30.220  25.953  25.793  1.00  0.00     0.049 C 
ATOM     10  C   UNL A   1      30.606  25.992  24.358  1.00  0.00     0.010 A 
ATOM     11  C   UNL A   1      31.617  25.211  23.714  1.00  0.00     0.043 A 
ATOM     12  O   UNL A   1      30.704  26.522  22.179  1.00  0.00    -0.455 OA
ATOM     13  C   UNL A   1      31.677  25.650  22.417  1.00  0.00     0.114 A 
ATOM     14  C   UNL A   1      32.559  24.209  24.173  1.00  0.00     0.072 C 
ATOM     15  C   UNL A   1      32.669  25.419  21.354  1.00  0.00     0.076 C 
ATOM     16  N   UNL A   1      32.168  23.681  25.303  1.00  0.00    -0.177 NA
ATOM     17  C   UNL A   1      33.773  24.136  23.200  1.00  0.00     0.059 C 
ATOM     18  C   UNL A   1      33.424  24.157  21.700  1.00  0.00     0.014 C 
BRANCH  16  19
ATOM     19  N   UNL A   1      32.565  22.716  26.197  1.00  0.00    -0.246 N 
ATOM     20  C   UNL A   1      33.427  21.640  26.165  1.00  0.00     0.252 C 
ATOM     21  H   UNL A   1      32.128  22.819  27.073  1.00  0.00     0.193 HD
ATOM     22  O   UNL A   1      33.529  20.912  27.157  1.00  0.00    -0.272 OA
BRANCH  20  23
ATOM     23  C   UNL A   1      34.250  21.393  24.920  1.00  0.00     0.140 C 
BRANCH  23  24
ATOM     24  C   UNL A   1      35.756  21.866  25.232  1.00  0.00    -0.031 A 
ATOM     25  C   UNL A   1      36.877  21.041  25.059  1.00  0.00     0.005 A 
ATOM     26  C   UNL A   1      36.076  23.189  25.674  1.00  0.00     0.005 A 
ATOM     27  C   UNL A   1      38.180  21.481  25.427  1.00  0.00     0.000 A 
ATOM     28  C   UNL A   1      37.338  23.595  26.129  1.00  0.00     0.000 A 
ATOM     29  C   UNL A   1      38.401  22.731  26.010  1.00  0.00     0.000 A 
ENDBRANCH  23  24
BRANCH  23  30
ATOM     30  C   UNL A   1      33.764  19.975  24.332  1.00  0.00    -0.031 A 
ATOM     31  C   UNL A   1      34.446  18.744  24.604  1.00  0.00     0.005 A 
ATOM     32  C   UNL A   1      32.626  19.825  23.532  1.00  0.00     0.005 A 
ATOM     33  C   UNL A   1      34.192  17.533  23.951  1.00  0.00     0.000 A 
ATOM     34  C   UNL A   1      32.298  18.571  22.951  1.00  0.00     0.000 A 
ATOM     35  C   UNL A   1      33.112  17.447  23.107  1.00  0.00     0.000 A 
ENDBRANCH  23  30
ENDBRANCH  20  23
ENDBRANCH  16  19
ENDBRANCH   5   8
ENDBRANCH   3   4
ENDBRANCH   2   3
ENDBRANCH   1   2
BRANCH   1  36
ATOM     36  C   UNL A   1      33.669  30.085  27.178  1.00  0.00     0.002 C 
BRANCH  36  37
ATOM     37  C   UNL A   1      34.595  31.264  27.521  1.00  0.00     0.021 C 
BRANCH  37  38
ATOM     38  C   UNL A   1      35.744  30.858  28.426  1.00  0.00     0.116 C 
BRANCH  38  39
ATOM     39  N   UNL A   1      35.520  31.286  29.815  1.00  0.00    -0.352 N 
ATOM     40  C   UNL A   1      36.246  31.004  30.962  1.00  0.00     0.251 C 
ATOM     41  H   UNL A   1      34.733  31.861  29.952  1.00  0.00     0.163 HD
ATOM     42  O   UNL A   1      35.727  31.123  32.066  1.00  0.00    -0.269 OA
BRANCH  40  43
ATOM     43  C   UNL A   1      37.647  30.571  30.824  1.00  0.00     0.039 A 
ATOM     44  C   UNL A   1      38.726  31.441  30.632  1.00  0.00     0.014 A 
ATOM     45  C   UNL A   1      37.868  29.213  30.941  1.00  0.00     0.014 A 
ATOM     46  C   UNL A   1      40.008  30.893  30.556  1.00  0.00     0.010 A 
ATOM     47  C   UNL A   1      39.100  28.784  31.304  1.00  0.00     0.010 A 
ATOM     48  C   UNL A   1      40.169  29.539  30.871  1.00  0.00    -0.014 A 
BRANCH  48  49
ATOM     49  C   UNL A   1      41.420  28.804  30.841  1.00  0.00     0.031 A 
ATOM     50  C   UNL A   1      41.938  28.481  32.186  1.00  0.00     0.074 A 
ATOM     51  C   UNL A   1      41.842  28.182  29.712  1.00  0.00     0.049 A 
ATOM     52  N   UNL A   1      42.956  29.013  32.769  1.00  0.00    -0.248 NA
ATOM     53  C   UNL A   1      41.115  27.643  33.077  1.00  0.00     0.031 C 
ATOM     54  C   UNL A   1      41.215  28.157  28.382  1.00  0.00     0.029 A 
ATOM     55  N   UNL A   1      42.880  27.321  29.549  1.00  0.00    -0.354 N 
ATOM     56  C   UNL A   1      43.056  28.373  33.998  1.00  0.00     0.074 A 
ATOM     57  C   UNL A   1      41.768  27.783  34.231  1.00  0.00     0.031 C 
ATOM     58  C   UNL A   1      41.753  27.160  27.640  1.00  0.00     0.029 A 
ATOM     59  C   UNL A   1      42.846  26.556  28.383  1.00  0.00     0.049 A 
ATOM     60  H   UNL A   1      43.606  27.243  30.209  1.00  0.00     0.167 HD
ATOM     61  C   UNL A   1      44.269  28.153  34.577  1.00  0.00     0.034 A 
ATOM     62  C   UNL A   1      43.634  25.481  28.088  1.00  0.00     0.034 A 
ATOM     63  C   UNL A   1      45.304  28.876  33.862  1.00  0.00     0.049 A 
ATOM     64  C   UNL A   1      44.841  25.610  28.955  1.00  0.00     0.074 A 
ATOM     65  C   UNL A   1      45.515  30.211  33.574  1.00  0.00     0.029 A 
ATOM     66  N   UNL A   1      46.060  28.172  32.946  1.00  0.00    -0.354 N 
ATOM     67  N   UNL A   1      45.684  26.605  28.847  1.00  0.00    -0.248 NA
ATOM     68  C   UNL A   1      44.805  24.982  30.271  1.00  0.00     0.031 C 
ATOM     69  C   UNL A   1      45.942  30.222  32.212  1.00  0.00     0.029 A 
ATOM     70  C   UNL A   1      46.091  28.901  31.779  1.00  0.00     0.049 A 
ATOM     71  H   UNL A   1      46.500  27.305  33.100  1.00  0.00     0.167 HD
ATOM     72  C   UNL A   1      45.935  27.015  30.151  1.00  0.00     0.074 A 
ATOM     73  C   UNL A   1      45.439  25.920  30.988  1.00  0.00     0.031 C 
ATOM     74  C   UNL A   1      46.214  28.321  30.449  1.00  0.00     0.034 A 
BRANCH  61  75
ATOM     75  C   UNL A   1      44.603  27.036  35.538  1.00  0.00     0.023 A 
ATOM     76  C   UNL A   1      45.341  27.390  36.684  1.00  0.00     0.031 A 
ATOM     77  C   UNL A   1      44.476  25.650  35.297  1.00  0.00     0.131 A 
ATOM     78  C   UNL A   1      45.991  26.415  37.458  1.00  0.00     0.055 A 
ATOM     79  C   UNL A   1      45.069  24.679  36.110  1.00  0.00     0.041 A 
ATOM     80  F   UNL A   1      43.858  25.147  34.225  1.00  0.00    -0.206 F 
ATOM     81  C   UNL A   1      45.861  25.059  37.179  1.00  0.00     0.022 A 
BRANCH  78  82
ATOM     82  S   UNL A   1      47.157  26.969  38.726  1.00  0.00     0.124 S 
ATOM     83  O   UNL A   1      47.431  25.726  39.438  1.00  0.00    -0.237 OA
ATOM     84  O   UNL A   1      48.247  27.504  37.917  1.00  0.00    -0.237 OA
ATOM     85  O   UNL A   1      46.392  27.961  39.477  1.00  0.00    -0.744 OA
ENDBRANCH  78  82
ENDBRANCH  61  75
BRANCH  62  86
ATOM     86  C   UNL A   1      43.217  24.215  27.392  1.00  0.00     0.023 A 
ATOM     87  C   UNL A   1      44.003  23.544  26.423  1.00  0.00     0.031 A 
ATOM     88  C   UNL A   1      42.082  23.510  27.860  1.00  0.00     0.131 A 
ATOM     89  C   UNL A   1      43.638  22.246  25.969  1.00  0.00     0.055 A 
ATOM     90  C   UNL A   1      41.727  22.235  27.409  1.00  0.00     0.041 A 
ATOM     91  F   UNL A   1      41.315  23.999  28.848  1.00  0.00    -0.206 F 
ATOM     92  C   UNL A   1      42.509  21.592  26.467  1.00  0.00     0.022 A 
BRANCH  89  93
ATOM     93  S   UNL A   1      44.678  21.326  24.778  1.00  0.00     0.124 S 
ATOM     94  O   UNL A   1      44.537  22.121  23.564  1.00  0.00    -0.237 OA
ATOM     95  O   UNL A   1      45.987  21.345  25.421  1.00  0.00    -0.237 OA
ATOM     96  O   UNL A   1      44.048  20.005  24.722  1.00  0.00    -0.744 OA
ENDBRANCH  89  93
ENDBRANCH  62  86
BRANCH  74  97
ATOM     97  C   UNL A   1      46.466  29.297  29.306  1.00  0.00     0.023 A 
ATOM     98  C   UNL A   1      45.458  29.969  28.570  1.00  0.00     0.031 A 
ATOM     99  C   UNL A   1      47.799  29.674  29.063  1.00  0.00     0.131 A 
ATOM    100  C   UNL A   1      45.808  30.965  27.634  1.00  0.00     0.055 A 
ATOM    101  C   UNL A   1      48.138  30.679  28.158  1.00  0.00     0.041 A 
ATOM    102  F   UNL A   1      48.803  29.097  29.743  1.00  0.00    -0.206 F 
ATOM    103  C   UNL A   1      47.144  31.326  27.436  1.00  0.00     0.022 A 
BRANCH 100 104
ATOM    104  S   UNL A   1      44.530  31.802  26.635  1.00  0.00     0.124 S 
ATOM    105  O   UNL A   1      44.017  32.831  27.532  1.00  0.00    -0.237 OA
ATOM    106  O   UNL A   1      45.287  32.278  25.481  1.00  0.00    -0.237 OA
ATOM    107  O   UNL A   1      43.578  30.730  26.336  1.00  0.00    -0.744 OA
ENDBRANCH 100 104
ENDBRANCH  74  97
ENDBRANCH  48  49
ENDBRANCH  40  43
ENDBRANCH  38  39
ENDBRANCH  37  38
ENDBRANCH  36  37
ENDBRANCH   1  36
TORSDOF 20
ENDMDL
MODEL 2
REMARK VINA RESULT:     -11.9      4.570     10.538
REMARK SMILES Cc1c(C(=O)NCCCCCCNC(=O)c2ccc(-c3c4nc(c(-c5cc(S(=O)(=O)[O-])ccc5F)c5ccc([nH]5)c(-c5cc(S(=O)(=O)[O-])ccc5F)c5nc(c(-c6cc(S(=O)(=O)[O-])ccc6F)c6ccc3[nH]6)C=C5)C=C4)cc2)oc2c1/C(=N/NC(=O)C(c1ccccc1)c1ccccc1)CCC2
REMARK SMILES IDX 9 1 8 2 7 3 6 4 4 5 5 6 3 8 1 9 2 10 81 11 79 12 80 13 82 14
REMARK SMILES IDX 102 15 83 16 100 17 101 18 84 19 85 20 86 22 87 23 88 24
REMARK SMILES IDX 89 25 93 26 90 27 92 28 91 29 94 30 95 31 99 32 96 33 98 34
REMARK SMILES IDX 97 35 10 36 11 37 12 38 13 39 14 40 15 42 16 43 17 44 78 45
REMARK SMILES IDX 18 46 77 47 19 48 20 49 21 50 71 51 22 52 76 53 70 54 72 55
REMARK SMILES IDX 23 56 75 57 69 58 68 59 24 61 56 62 36 63 55 64 37 65 40 66
REMARK SMILES IDX 54 67 73 68 38 69 39 70 53 72 74 73 41 74 25 75 26 76 34 77
REMARK SMILES IDX 27 78 33 79 35 80 32 81 28 82 29 83 30 84 31 85 57 86 58 87
REMARK SMILES IDX 66 88 59 89 65 90 67 91 64 92 60 93 61 94 62 95 63 96 42 97
REMARK SMILES IDX 43 98 51 99 44 100 50 101 52 102 49 103 45 104 46 105 47 106
REMARK SMILES IDX 48 107
REMARK H PARENT 6 7 84 21 13 41 72 60 40 71
REMARK Flexibility Score: inf
ROOT
ATOM      1  C   UNL A   1      32.376  30.219  26.795  1.00  0.00     0.002 C 
ENDROOT
BRANCH   1   2
ATOM      2  C   UNL A   1      32.273  31.705  27.145  1.00  0.00     0.021 C 
BRANCH   2   3
ATOM      3  C   UNL A   1      33.597  32.242  27.688  1.00  0.00     0.116 C 
BRANCH   3   4
ATOM      4  N   UNL A   1      33.571  33.697  27.808  1.00  0.00    -0.349 N 
ATOM      5  C   UNL A   1      34.381  34.553  28.542  1.00  0.00     0.287 C 
ATOM      6  O   UNL A   1      34.227  35.750  28.402  1.00  0.00    -0.266 OA
ATOM      7  H   UNL A   1      32.865  34.142  27.286  1.00  0.00     0.163 HD
BRANCH   5   8
ATOM      8  C   UNL A   1      35.419  33.954  29.355  1.00  0.00     0.195 A 
ATOM      9  C   UNL A   1      34.354  33.434  31.657  1.00  0.00     0.049 C 
ATOM     10  C   UNL A   1      35.472  33.541  30.683  1.00  0.00     0.010 A 
ATOM     11  C   UNL A   1      36.870  33.414  30.955  1.00  0.00     0.043 A 
ATOM     12  O   UNL A   1      36.643  33.812  28.788  1.00  0.00    -0.455 OA
ATOM     13  C   UNL A   1      37.519  33.677  29.777  1.00  0.00     0.114 A 
ATOM     14  C   UNL A   1      37.643  33.178  32.159  1.00  0.00     0.072 C 
ATOM     15  C   UNL A   1      38.936  33.947  29.483  1.00  0.00     0.076 C 
ATOM     16  N   UNL A   1      36.904  32.638  33.092  1.00  0.00    -0.177 NA
ATOM     17  C   UNL A   1      39.094  33.713  31.972  1.00  0.00     0.059 C 
ATOM     18  C   UNL A   1      39.754  33.381  30.620  1.00  0.00     0.014 C 
BRANCH  16  19
ATOM     19  N   UNL A   1      37.025  32.166  34.377  1.00  0.00    -0.246 N 
ATOM     20  C   UNL A   1      38.071  31.929  35.243  1.00  0.00     0.252 C 
ATOM     21  H   UNL A   1      36.152  31.943  34.774  1.00  0.00     0.193 HD
ATOM     22  O   UNL A   1      37.843  31.438  36.354  1.00  0.00    -0.272 OA
BRANCH  20  23
ATOM     23  C   UNL A   1      39.475  32.304  34.823  1.00  0.00     0.140 C 
BRANCH  23  24
ATOM     24  C   UNL A   1      39.944  33.539  35.742  1.00  0.00    -0.031 A 
ATOM     25  C   UNL A   1      39.524  34.861  35.534  1.00  0.00     0.005 A 
ATOM     26  C   UNL A   1      40.797  33.377  36.879  1.00  0.00     0.005 A 
ATOM     27  C   UNL A   1      40.032  35.928  36.326  1.00  0.00     0.000 A 
ATOM     28  C   UNL A   1      41.376  34.431  37.599  1.00  0.00     0.000 A 
ATOM     29  C   UNL A   1      40.994  35.722  37.316  1.00  0.00     0.000 A 
ENDBRANCH  23  24
BRANCH  23  30
ATOM     30  C   UNL A   1      40.253  30.919  34.562  1.00  0.00    -0.031 A 
ATOM     31  C   UNL A   1      40.550  30.428  33.249  1.00  0.00     0.005 A 
ATOM     32  C   UNL A   1      40.723  30.097  35.593  1.00  0.00     0.005 A 
ATOM     33  C   UNL A   1      41.027  29.142  32.970  1.00  0.00     0.000 A 
ATOM     34  C   UNL A   1      41.309  28.833  35.313  1.00  0.00     0.000 A 
ATOM     35  C   UNL A   1      41.401  28.331  34.013  1.00  0.00     0.000 A 
ENDBRANCH  23  30
ENDBRANCH  20  23
ENDBRANCH  16  19
ENDBRANCH   5   8
ENDBRANCH   3   4
ENDBRANCH   2   3
ENDBRANCH   1   2
BRANCH   1  36
ATOM     36  C   UNL A   1      33.407  29.437  27.631  1.00  0.00     0.002 C 
BRANCH  36  37
ATOM     37  C   UNL A   1      34.618  28.884  26.861  1.00  0.00     0.021 C 
BRANCH  37  38
ATOM     38  C   UNL A   1      35.939  29.357  27.437  1.00  0.00     0.116 C 
BRANCH  38  39
ATOM     39  N   UNL A   1      35.764  29.986  28.755  1.00  0.00    -0.352 N 
ATOM     40  C   UNL A   1      36.428  29.753  29.949  1.00  0.00     0.251 C 
ATOM     41  H   UNL A   1      35.068  30.681  28.796  1.00  0.00     0.163 HD
ATOM     42  O   UNL A   1      35.920  30.084  31.014  1.00  0.00    -0.269 OA
BRANCH  40  43
ATOM     43  C   UNL A   1      37.753  29.110  29.907  1.00  0.00     0.039 A 
ATOM     44  C   UNL A   1      38.023  27.827  30.396  1.00  0.00     0.014 A 
ATOM     45  C   UNL A   1      38.754  29.840  29.297  1.00  0.00     0.014 A 
ATOM     46  C   UNL A   1      39.320  27.328  30.255  1.00  0.00     0.010 A 
ATOM     47  C   UNL A   1      39.823  29.181  28.791  1.00  0.00     0.010 A 
ATOM     48  C   UNL A   1      40.223  28.046  29.463  1.00  0.00    -0.014 A 
BRANCH  48  49
ATOM     49  C   UNL A   1      41.605  27.682  29.211  1.00  0.00     0.031 A 
ATOM     50  C   UNL A   1      41.744  26.491  28.349  1.00  0.00     0.074 A 
ATOM     51  C   UNL A   1      42.614  28.558  29.439  1.00  0.00     0.049 A 
ATOM     52  N   UNL A   1      42.127  25.316  28.712  1.00  0.00    -0.248 NA
ATOM     53  C   UNL A   1      41.188  26.538  26.984  1.00  0.00     0.031 C 
ATOM     54  C   UNL A   1      42.549  29.921  29.987  1.00  0.00     0.029 A 
ATOM     55  N   UNL A   1      43.927  28.453  29.104  1.00  0.00    -0.354 N 
ATOM     56  C   UNL A   1      42.117  24.547  27.555  1.00  0.00     0.074 A 
ATOM     57  C   UNL A   1      41.277  25.255  26.630  1.00  0.00     0.031 C 
ATOM     58  C   UNL A   1      43.708  30.574  29.734  1.00  0.00     0.029 A 
ATOM     59  C   UNL A   1      44.647  29.648  29.123  1.00  0.00     0.049 A 
ATOM     60  H   UNL A   1      44.341  27.592  28.865  1.00  0.00     0.167 HD
ATOM     61  C   UNL A   1      43.023  23.546  27.370  1.00  0.00     0.034 A 
ATOM     62  C   UNL A   1      45.902  29.854  28.626  1.00  0.00     0.034 A 
ATOM     63  C   UNL A   1      43.749  23.294  28.600  1.00  0.00     0.049 A 
ATOM     64  C   UNL A   1      46.540  28.507  28.561  1.00  0.00     0.074 A 
ATOM     65  C   UNL A   1      43.372  22.922  29.877  1.00  0.00     0.029 A 
ATOM     66  N   UNL A   1      45.001  23.861  28.731  1.00  0.00    -0.354 N 
ATOM     67  N   UNL A   1      46.782  27.789  29.628  1.00  0.00    -0.248 NA
ATOM     68  C   UNL A   1      46.385  27.739  27.332  1.00  0.00     0.031 C 
ATOM     69  C   UNL A   1      44.156  23.746  30.738  1.00  0.00     0.029 A 
ATOM     70  C   UNL A   1      45.055  24.481  29.959  1.00  0.00     0.049 A 
ATOM     71  H   UNL A   1      45.727  23.828  28.067  1.00  0.00     0.167 HD
ATOM     72  C   UNL A   1      46.366  26.503  29.305  1.00  0.00     0.074 A 
ATOM     73  C   UNL A   1      46.216  26.514  27.848  1.00  0.00     0.031 C 
ATOM     74  C   UNL A   1      45.867  25.653  30.255  1.00  0.00     0.034 A 
BRANCH  61  75
ATOM     75  C   UNL A   1      43.520  23.036  26.038  1.00  0.00     0.023 A 
ATOM     76  C   UNL A   1      43.567  21.638  25.876  1.00  0.00     0.031 A 
ATOM     77  C   UNL A   1      44.171  23.789  25.036  1.00  0.00     0.131 A 
ATOM     78  C   UNL A   1      44.312  21.052  24.841  1.00  0.00     0.055 A 
ATOM     79  C   UNL A   1      44.855  23.202  23.967  1.00  0.00     0.041 A 
ATOM     80  F   UNL A   1      44.269  25.120  25.068  1.00  0.00    -0.206 F 
ATOM     81  C   UNL A   1      44.959  21.824  23.882  1.00  0.00     0.022 A 
BRANCH  78  82
ATOM     82  S   UNL A   1      44.568  19.261  24.880  1.00  0.00     0.124 S 
ATOM     83  O   UNL A   1      44.523  18.925  23.461  1.00  0.00    -0.237 OA
ATOM     84  O   UNL A   1      45.873  19.160  25.526  1.00  0.00    -0.237 OA
ATOM     85  O   UNL A   1      43.441  18.776  25.671  1.00  0.00    -0.744 OA
ENDBRANCH  78  82
ENDBRANCH  61  75
BRANCH  62  86
ATOM     86  C   UNL A   1      46.397  31.068  27.892  1.00  0.00     0.023 A 
ATOM     87  C   UNL A   1      45.620  31.813  26.972  1.00  0.00     0.031 A 
ATOM     88  C   UNL A   1      47.626  31.657  28.277  1.00  0.00     0.131 A 
ATOM     89  C   UNL A   1      46.083  33.067  26.482  1.00  0.00     0.055 A 
ATOM     90  C   UNL A   1      48.078  32.887  27.791  1.00  0.00     0.041 A 
ATOM     91  F   UNL A   1      48.404  31.096  29.216  1.00  0.00    -0.206 F 
ATOM     92  C   UNL A   1      47.303  33.603  26.897  1.00  0.00     0.022 A 
BRANCH  89  93
ATOM     93  S   UNL A   1      45.064  34.084  25.353  1.00  0.00     0.124 S 
ATOM     94  O   UNL A   1      44.387  33.073  24.549  1.00  0.00    -0.237 OA
ATOM     95  O   UNL A   1      44.231  34.844  26.278  1.00  0.00    -0.237 OA
ATOM     96  O   UNL A   1      46.051  34.885  24.627  1.00  0.00    -0.744 OA
ENDBRANCH  89  93
ENDBRANCH  62  86
BRANCH  74  97
ATOM     97  C   UNL A   1      45.973  26.049  31.723  1.00  0.00     0.023 A 
ATOM     98  C   UNL A   1      47.147  25.955  32.510  1.00  0.00     0.031 A 
ATOM     99  C   UNL A   1      44.864  26.696  32.297  1.00  0.00     0.131 A 
ATOM    100  C   UNL A   1      47.172  26.492  33.816  1.00  0.00     0.055 A 
ATOM    101  C   UNL A   1      44.901  27.249  33.576  1.00  0.00     0.041 A 
ATOM    102  F   UNL A   1      43.726  26.843  31.598  1.00  0.00    -0.206 F 
ATOM    103  C   UNL A   1      46.055  27.145  34.343  1.00  0.00     0.022 A 
BRANCH 100 104
ATOM    104  S   UNL A   1      48.656  26.331  34.866  1.00  0.00     0.124 S 
ATOM    105  O   UNL A   1      49.748  26.683  33.966  1.00  0.00    -0.237 OA
ATOM    106  O   UNL A   1      48.386  27.276  35.946  1.00  0.00    -0.237 OA
ATOM    107  O   UNL A   1      48.634  24.924  35.272  1.00  0.00    -0.744 OA
ENDBRANCH 100 104
ENDBRANCH  74  97
ENDBRANCH  48  49
ENDBRANCH  40  43
ENDBRANCH  38  39
ENDBRANCH  37  38
ENDBRANCH  36  37
ENDBRANCH   1  36
TORSDOF 20
ENDMDL
MODEL 3
REMARK VINA RESULT:     -11.6      3.368      6.239
REMARK SMILES Cc1c(C(=O)NCCCCCCNC(=O)c2ccc(-c3c4nc(c(-c5cc(S(=O)(=O)[O-])ccc5F)c5ccc([nH]5)c(-c5cc(S(=O)(=O)[O-])ccc5F)c5nc(c(-c6cc(S(=O)(=O)[O-])ccc6F)c6ccc3[nH]6)C=C5)C=C4)cc2)oc2c1/C(=N/NC(=O)C(c1ccccc1)c1ccccc1)CCC2
REMARK SMILES IDX 9 1 8 2 7 3 6 4 4 5 5 6 3 8 1 9 2 10 81 11 79 12 80 13 82 14
REMARK SMILES IDX 102 15 83 16 100 17 101 18 84 19 85 20 86 22 87 23 88 24
REMARK SMILES IDX 89 25 93 26 90 27 92 28 91 29 94 30 95 31 99 32 96 33 98 34
REMARK SMILES IDX 97 35 10 36 11 37 12 38 13 39 14 40 15 42 16 43 17 44 78 45
REMARK SMILES IDX 18 46 77 47 19 48 20 49 21 50 71 51 22 52 76 53 70 54 72 55
REMARK SMILES IDX 23 56 75 57 69 58 68 59 24 61 56 62 36 63 55 64 37 65 40 66
REMARK SMILES IDX 54 67 73 68 38 69 39 70 53 72 74 73 41 74 25 75 26 76 34 77
REMARK SMILES IDX 27 78 33 79 35 80 32 81 28 82 29 83 30 84 31 85 57 86 58 87
REMARK SMILES IDX 66 88 59 89 65 90 67 91 64 92 60 93 61 94 62 95 63 96 42 97
REMARK SMILES IDX 43 98 51 99 44 100 50 101 52 102 49 103 45 104 46 105 47 106
REMARK SMILES IDX 48 107
REMARK H PARENT 6 7 84 21 13 41 72 60 40 71
REMARK Flexibility Score: inf
ROOT
ATOM      1  C   UNL A   1      32.354  30.311  26.695  1.00  0.00     0.002 C 
ENDROOT
BRANCH   1   2
ATOM      2  C   UNL A   1      31.792  29.099  25.949  1.00  0.00     0.021 C 
BRANCH   2   3
ATOM      3  C   UNL A   1      31.765  29.338  24.440  1.00  0.00     0.116 C 
BRANCH   3   4
ATOM      4  N   UNL A   1      30.403  29.288  23.918  1.00  0.00    -0.349 N 
ATOM      5  C   UNL A   1      29.668  28.219  23.422  1.00  0.00     0.287 C 
ATOM      6  O   UNL A   1      28.503  28.407  23.135  1.00  0.00    -0.266 OA
ATOM      7  H   UNL A   1      29.930  30.151  23.915  1.00  0.00     0.163 HD
BRANCH   5   8
ATOM      8  C   UNL A   1      30.322  26.928  23.372  1.00  0.00     0.195 A 
ATOM      9  C   UNL A   1      30.293  25.985  25.783  1.00  0.00     0.049 C 
ATOM     10  C   UNL A   1      30.671  25.997  24.345  1.00  0.00     0.010 A 
ATOM     11  C   UNL A   1      31.623  25.150  23.696  1.00  0.00     0.043 A 
ATOM     12  O   UNL A   1      30.789  26.518  22.165  1.00  0.00    -0.455 OA
ATOM     13  C   UNL A   1      31.703  25.584  22.398  1.00  0.00     0.114 A 
ATOM     14  C   UNL A   1      32.498  24.087  24.149  1.00  0.00     0.072 C 
ATOM     15  C   UNL A   1      32.670  25.286  21.328  1.00  0.00     0.076 C 
ATOM     16  N   UNL A   1      32.081  23.588  25.282  1.00  0.00    -0.177 NA
ATOM     17  C   UNL A   1      33.699  23.933  23.168  1.00  0.00     0.059 C 
ATOM     18  C   UNL A   1      33.342  23.976  21.671  1.00  0.00     0.014 C 
BRANCH  16  19
ATOM     19  N   UNL A   1      32.418  22.599  26.175  1.00  0.00    -0.246 N 
ATOM     20  C   UNL A   1      33.273  21.517  26.167  1.00  0.00     0.252 C 
ATOM     21  H   UNL A   1      31.932  22.685  27.027  1.00  0.00     0.193 HD
ATOM     22  O   UNL A   1      33.312  20.764  27.147  1.00  0.00    -0.272 OA
BRANCH  20  23
ATOM     23  C   UNL A   1      34.166  21.291  24.966  1.00  0.00     0.140 C 
BRANCH  23  24
ATOM     24  C   UNL A   1      35.635  21.822  25.348  1.00  0.00    -0.031 A 
ATOM     25  C   UNL A   1      35.885  23.097  25.877  1.00  0.00     0.005 A 
ATOM     26  C   UNL A   1      36.809  21.013  25.218  1.00  0.00     0.005 A 
ATOM     27  C   UNL A   1      37.212  23.546  26.122  1.00  0.00     0.000 A 
ATOM     28  C   UNL A   1      38.122  21.481  25.364  1.00  0.00     0.000 A 
ATOM     29  C   UNL A   1      38.327  22.764  25.815  1.00  0.00     0.000 A 
ENDBRANCH  23  24
BRANCH  23  30
ATOM     30  C   UNL A   1      33.761  19.852  24.368  1.00  0.00    -0.031 A 
ATOM     31  C   UNL A   1      34.524  18.665  24.614  1.00  0.00     0.005 A 
ATOM     32  C   UNL A   1      32.623  19.641  23.583  1.00  0.00     0.005 A 
ATOM     33  C   UNL A   1      34.337  17.447  23.949  1.00  0.00     0.000 A 
ATOM     34  C   UNL A   1      32.365  18.375  22.990  1.00  0.00     0.000 A 
ATOM     35  C   UNL A   1      33.252  17.303  23.120  1.00  0.00     0.000 A 
ENDBRANCH  23  30
ENDBRANCH  20  23
ENDBRANCH  16  19
ENDBRANCH   5   8
ENDBRANCH   3   4
ENDBRANCH   2   3
ENDBRANCH   1   2
BRANCH   1  36
ATOM     36  C   UNL A   1      33.812  30.153  27.163  1.00  0.00     0.002 C 
BRANCH  36  37
ATOM     37  C   UNL A   1      34.504  31.435  27.656  1.00  0.00     0.021 C 
BRANCH  37  38
ATOM     38  C   UNL A   1      35.030  31.304  29.074  1.00  0.00     0.116 C 
BRANCH  38  39
ATOM     39  N   UNL A   1      34.413  32.287  29.977  1.00  0.00    -0.352 N 
ATOM     40  C   UNL A   1      34.757  32.650  31.270  1.00  0.00     0.251 C 
ATOM     41  H   UNL A   1      33.633  32.763  29.606  1.00  0.00     0.163 HD
ATOM     42  O   UNL A   1      33.936  33.195  31.999  1.00  0.00    -0.269 OA
BRANCH  40  43
ATOM     43  C   UNL A   1      36.125  32.375  31.739  1.00  0.00     0.039 A 
ATOM     44  C   UNL A   1      36.435  31.549  32.825  1.00  0.00     0.014 A 
ATOM     45  C   UNL A   1      37.140  32.955  31.003  1.00  0.00     0.014 A 
ATOM     46  C   UNL A   1      37.782  31.345  33.136  1.00  0.00     0.010 A 
ATOM     47  C   UNL A   1      38.374  32.399  31.045  1.00  0.00     0.010 A 
ATOM     48  C   UNL A   1      38.746  31.812  32.235  1.00  0.00    -0.014 A 
BRANCH  48  49
ATOM     49  C   UNL A   1      40.184  31.694  32.396  1.00  0.00     0.031 A 
ATOM     50  C   UNL A   1      40.635  30.302  32.591  1.00  0.00     0.074 A 
ATOM     51  C   UNL A   1      41.015  32.703  32.036  1.00  0.00     0.049 A 
ATOM     52  N   UNL A   1      41.072  29.778  33.683  1.00  0.00    -0.248 NA
ATOM     53  C   UNL A   1      40.367  29.317  31.527  1.00  0.00     0.031 C 
ATOM     54  C   UNL A   1      40.678  34.031  31.501  1.00  0.00     0.029 A 
ATOM     55  N   UNL A   1      42.371  32.704  31.955  1.00  0.00    -0.354 N 
ATOM     56  C   UNL A   1      41.389  28.463  33.365  1.00  0.00     0.074 A 
ATOM     57  C   UNL A   1      40.678  28.179  32.150  1.00  0.00     0.031 C 
ATOM     58  C   UNL A   1      41.779  34.597  30.952  1.00  0.00     0.029 A 
ATOM     59  C   UNL A   1      42.925  33.741  31.204  1.00  0.00     0.049 A 
ATOM     60  H   UNL A   1      42.924  32.019  32.397  1.00  0.00     0.167 HD
ATOM     61  C   UNL A   1      42.425  27.824  33.976  1.00  0.00     0.034 A 
ATOM     62  C   UNL A   1      44.222  33.846  30.789  1.00  0.00     0.034 A 
ATOM     63  C   UNL A   1      42.910  28.610  35.094  1.00  0.00     0.049 A 
ATOM     64  C   UNL A   1      45.015  32.975  31.705  1.00  0.00     0.074 A 
ATOM     65  C   UNL A   1      42.327  29.092  36.251  1.00  0.00     0.029 A 
ATOM     66  N   UNL A   1      44.033  29.387  34.890  1.00  0.00    -0.354 N 
ATOM     67  N   UNL A   1      45.117  33.209  32.988  1.00  0.00    -0.248 NA
ATOM     68  C   UNL A   1      45.206  31.581  31.323  1.00  0.00     0.031 C 
ATOM     69  C   UNL A   1      42.817  30.427  36.371  1.00  0.00     0.029 A 
ATOM     70  C   UNL A   1      43.762  30.650  35.365  1.00  0.00     0.049 A 
ATOM     71  H   UNL A   1      44.878  29.091  34.480  1.00  0.00     0.167 HD
ATOM     72  C   UNL A   1      44.930  31.976  33.601  1.00  0.00     0.074 A 
ATOM     73  C   UNL A   1      45.081  30.996  32.523  1.00  0.00     0.031 C 
ATOM     74  C   UNL A   1      44.352  31.872  34.838  1.00  0.00     0.034 A 
BRANCH  61  75
ATOM     75  C   UNL A   1      43.240  26.695  33.389  1.00  0.00     0.023 A 
ATOM     76  C   UNL A   1      43.462  25.579  34.219  1.00  0.00     0.031 A 
ATOM     77  C   UNL A   1      44.007  26.736  32.203  1.00  0.00     0.131 A 
ATOM     78  C   UNL A   1      44.464  24.642  33.922  1.00  0.00     0.055 A 
ATOM     79  C   UNL A   1      44.956  25.763  31.877  1.00  0.00     0.041 A 
ATOM     80  F   UNL A   1      43.960  27.751  31.336  1.00  0.00    -0.206 F 
ATOM     81  C   UNL A   1      45.215  24.724  32.755  1.00  0.00     0.022 A 
BRANCH  78  82
ATOM     82  S   UNL A   1      44.887  23.415  35.183  1.00  0.00     0.124 S 
ATOM     83  O   UNL A   1      44.156  22.243  34.712  1.00  0.00    -0.237 OA
ATOM     84  O   UNL A   1      46.340  23.358  35.069  1.00  0.00    -0.237 OA
ATOM     85  O   UNL A   1      44.380  24.010  36.417  1.00  0.00    -0.744 OA
ENDBRANCH  78  82
ENDBRANCH  61  75
BRANCH  62  86
ATOM     86  C   UNL A   1      44.710  34.353  29.461  1.00  0.00     0.023 A 
ATOM     87  C   UNL A   1      44.350  33.788  28.213  1.00  0.00     0.031 A 
ATOM     88  C   UNL A   1      45.392  35.593  29.402  1.00  0.00     0.131 A 
ATOM     89  C   UNL A   1      44.678  34.451  26.998  1.00  0.00     0.055 A 
ATOM     90  C   UNL A   1      45.714  36.239  28.204  1.00  0.00     0.041 A 
ATOM     91  F   UNL A   1      45.698  36.274  30.517  1.00  0.00    -0.206 F 
ATOM     92  C   UNL A   1      45.351  35.674  26.995  1.00  0.00     0.022 A 
BRANCH  89  93
ATOM     93  S   UNL A   1      44.157  33.781  25.377  1.00  0.00     0.124 S 
ATOM     94  O   UNL A   1      43.962  32.367  25.673  1.00  0.00    -0.237 OA
ATOM     95  O   UNL A   1      42.957  34.557  25.086  1.00  0.00    -0.237 OA
ATOM     96  O   UNL A   1      45.296  34.073  24.503  1.00  0.00    -0.744 OA
ENDBRANCH  89  93
ENDBRANCH  62  86
BRANCH  74  97
ATOM     97  C   UNL A   1      44.110  33.143  35.644  1.00  0.00     0.023 A 
ATOM     98  C   UNL A   1      42.909  33.894  35.640  1.00  0.00     0.031 A 
ATOM     99  C   UNL A   1      45.097  33.514  36.574  1.00  0.00     0.131 A 
ATOM    100  C   UNL A   1      42.741  34.969  36.540  1.00  0.00     0.055 A 
ATOM    101  C   UNL A   1      44.916  34.557  37.480  1.00  0.00     0.041 A 
ATOM    102  F   UNL A   1      46.250  32.829  36.650  1.00  0.00    -0.206 F 
ATOM    103  C   UNL A   1      43.738  35.293  37.463  1.00  0.00     0.022 A 
BRANCH 100 104
ATOM    104  S   UNL A   1      41.224  35.985  36.512  1.00  0.00     0.124 S 
ATOM    105  O   UNL A   1      40.153  34.996  36.539  1.00  0.00    -0.237 OA
ATOM    106  O   UNL A   1      41.368  36.804  37.712  1.00  0.00    -0.237 OA
ATOM    107  O   UNL A   1      41.335  36.726  35.254  1.00  0.00    -0.744 OA
ENDBRANCH 100 104
ENDBRANCH  74  97
ENDBRANCH  48  49
ENDBRANCH  40  43
ENDBRANCH  38  39
ENDBRANCH  37  38
ENDBRANCH  36  37
ENDBRANCH   1  36
TORSDOF 20
ENDMDL
