MODEL 1
REMARK VINA RESULT:     -12.1      0.000      0.000
REMARK SMILES C[C@H]1CC=C(C2=NN=C(C(=O)NCCCCCCNC(=O)c3ccc(-c4c5nc(c(-c6cc(S(=O)(=O)[O-])ccc6F)c6ccc([nH]6)c(-c6cc(S(=O)(=O)[O-])ccc6F)c6nc(c(-c7cc(S(=O)(=O)[O-])ccc7F)c7ccc4[nH]7)C=C6)C=C5)cc3)C2)O1
REMARK SMILES IDX 16 1 15 2 14 3 13 4 12 5 10 6 11 7 9 9 6 10 7 11 85 12 8 13
REMARK SMILES IDX 5 14 1 15 2 16 3 17 86 18 4 19 17 20 18 21 19 22 20 23 21 25
REMARK SMILES IDX 22 26 23 27 84 28 24 29 83 30 25 31 26 32 27 33 77 34 28 35
REMARK SMILES IDX 82 36 76 37 78 38 29 39 81 40 75 41 74 42 30 44 62 45 42 46
REMARK SMILES IDX 61 47 43 48 46 49 60 50 79 51 44 52 45 53 59 55 80 56 47 57
REMARK SMILES IDX 31 58 32 59 40 60 33 61 39 62 41 63 38 64 34 65 35 66 36 67
REMARK SMILES IDX 37 68 63 69 64 70 72 71 65 72 71 73 73 74 70 75 66 76 67 77
REMARK SMILES IDX 68 78 69 79 48 80 49 81 57 82 50 83 56 84 58 85 55 86 51 87
REMARK SMILES IDX 52 88 53 89 54 90
REMARK H PARENT 12 8 19 24 78 43 46 54
REMARK Flexibility Score: inf
ROOT
ATOM      1  C   UNL A   1      33.756  27.704  26.512  1.00  0.00     0.002 C 
ENDROOT
BRANCH   1   2
ATOM      2  C   UNL A   1      32.403  27.468  25.823  1.00  0.00     0.002 C 
BRANCH   2   3
ATOM      3  C   UNL A   1      31.644  26.204  26.243  1.00  0.00     0.021 C 
BRANCH   3   4
ATOM      4  C   UNL A   1      31.202  25.305  25.092  1.00  0.00     0.116 C 
BRANCH   4   5
ATOM      5  N   UNL A   1      30.380  24.201  25.556  1.00  0.00    -0.351 N 
ATOM      6  C   UNL A   1      30.740  23.047  26.203  1.00  0.00     0.267 C 
ATOM      7  O   UNL A   1      29.897  22.203  26.496  1.00  0.00    -0.268 OA
ATOM      8  H   UNL A   1      29.416  24.295  25.378  1.00  0.00     0.163 HD
BRANCH   6   9
ATOM      9  C   UNL A   1      32.160  22.774  26.604  1.00  0.00     0.134 C 
ATOM     10  C   UNL A   1      34.325  22.256  26.501  1.00  0.00     0.111 C 
ATOM     11  N   UNL A   1      33.983  22.324  27.752  1.00  0.00    -0.151 NA
ATOM     12  C   UNL A   1      33.193  22.526  25.565  1.00  0.00     0.126 C 
ATOM     13  N   UNL A   1      32.599  22.642  27.818  1.00  0.00    -0.149 NA
BRANCH  10  14
ATOM     14  C   UNL A   1      35.651  21.877  25.997  1.00  0.00     0.139 C 
ATOM     15  C   UNL A   1      39.111  21.985  26.062  1.00  0.00     0.053 C 
ATOM     16  C   UNL A   1      37.770  22.096  25.356  1.00  0.00     0.174 C 
ATOM     17  C   UNL A   1      37.259  20.742  24.845  1.00  0.00     0.076 C 
ATOM     18  O   UNL A   1      36.777  22.647  26.254  1.00  0.00    -0.489 OA
ATOM     19  C   UNL A   1      35.831  20.822  25.208  1.00  0.00     0.025 C 
ENDBRANCH  10  14
ENDBRANCH   6   9
ENDBRANCH   4   5
ENDBRANCH   3   4
ENDBRANCH   2   3
ENDBRANCH   1   2
BRANCH   1  20
ATOM     20  C   UNL A   1      33.955  29.068  27.185  1.00  0.00     0.021 C 
BRANCH  20  21
ATOM     21  C   UNL A   1      35.399  29.390  27.540  1.00  0.00     0.116 C 
BRANCH  21  22
ATOM     22  N   UNL A   1      35.558  29.861  28.912  1.00  0.00    -0.352 N 
ATOM     23  C   UNL A   1      36.530  29.486  29.817  1.00  0.00     0.251 C 
ATOM     24  H   UNL A   1      34.899  30.521  29.228  1.00  0.00     0.163 HD
ATOM     25  O   UNL A   1      36.325  29.603  31.029  1.00  0.00    -0.269 OA
BRANCH  23  26
ATOM     26  C   UNL A   1      37.808  28.942  29.317  1.00  0.00     0.039 A 
ATOM     27  C   UNL A   1      38.443  29.485  28.199  1.00  0.00     0.014 A 
ATOM     28  C   UNL A   1      38.384  27.873  30.003  1.00  0.00     0.014 A 
ATOM     29  C   UNL A   1      39.699  28.995  27.837  1.00  0.00     0.010 A 
ATOM     30  C   UNL A   1      39.678  27.488  29.733  1.00  0.00     0.010 A 
ATOM     31  C   UNL A   1      40.332  28.014  28.629  1.00  0.00    -0.014 A 
BRANCH  31  32
ATOM     32  C   UNL A   1      41.748  27.683  28.420  1.00  0.00     0.031 A 
ATOM     33  C   UNL A   1      41.931  26.393  27.704  1.00  0.00     0.074 A 
ATOM     34  C   UNL A   1      42.794  28.506  28.671  1.00  0.00     0.049 A 
ATOM     35  N   UNL A   1      42.325  25.278  28.220  1.00  0.00    -0.248 NA
ATOM     36  C   UNL A   1      41.425  26.260  26.327  1.00  0.00     0.031 C 
ATOM     37  C   UNL A   1      42.762  29.891  29.151  1.00  0.00     0.029 A 
ATOM     38  N   UNL A   1      44.134  28.300  28.478  1.00  0.00    -0.354 N 
ATOM     39  C   UNL A   1      42.398  24.380  27.164  1.00  0.00     0.074 A 
ATOM     40  C   UNL A   1      41.620  24.957  26.102  1.00  0.00     0.031 C 
ATOM     41  C   UNL A   1      43.981  30.462  29.007  1.00  0.00     0.029 A 
ATOM     42  C   UNL A   1      44.930  29.448  28.578  1.00  0.00     0.049 A 
ATOM     43  H   UNL A   1      44.509  27.412  28.283  1.00  0.00     0.167 HD
ATOM     44  C   UNL A   1      43.334  23.391  27.172  1.00  0.00     0.034 A 
ATOM     45  C   UNL A   1      46.273  29.567  28.359  1.00  0.00     0.034 A 
ATOM     46  C   UNL A   1      43.858  23.190  28.508  1.00  0.00     0.049 A 
ATOM     47  C   UNL A   1      46.849  28.218  28.555  1.00  0.00     0.074 A 
ATOM     48  C   UNL A   1      43.290  22.893  29.734  1.00  0.00     0.029 A 
ATOM     49  N   UNL A   1      45.095  23.721  28.797  1.00  0.00    -0.354 N 
ATOM     50  N   UNL A   1      46.857  27.612  29.708  1.00  0.00    -0.248 NA
ATOM     51  C   UNL A   1      46.956  27.347  27.397  1.00  0.00     0.031 C 
ATOM     52  C   UNL A   1      43.983  23.719  30.670  1.00  0.00     0.029 A 
ATOM     53  C   UNL A   1      45.005  24.390  29.995  1.00  0.00     0.049 A 
ATOM     54  H   UNL A   1      45.904  23.636  28.243  1.00  0.00     0.167 HD
ATOM     55  C   UNL A   1      46.485  26.310  29.423  1.00  0.00     0.074 A 
ATOM     56  C   UNL A   1      46.666  26.178  27.977  1.00  0.00     0.031 C 
ATOM     57  C   UNL A   1      45.800  25.558  30.337  1.00  0.00     0.034 A 
BRANCH  44  58
ATOM     58  C   UNL A   1      44.061  22.906  25.937  1.00  0.00     0.023 A 
ATOM     59  C   UNL A   1      44.114  21.516  25.716  1.00  0.00     0.031 A 
ATOM     60  C   UNL A   1      44.935  23.686  25.142  1.00  0.00     0.131 A 
ATOM     61  C   UNL A   1      45.049  20.963  24.824  1.00  0.00     0.055 A 
ATOM     62  C   UNL A   1      45.814  23.135  24.208  1.00  0.00     0.041 A 
ATOM     63  F   UNL A   1      45.064  25.010  25.287  1.00  0.00    -0.206 F 
ATOM     64  C   UNL A   1      45.897  21.763  24.065  1.00  0.00     0.022 A 
BRANCH  61  65
ATOM     65  S   UNL A   1      45.256  19.165  24.799  1.00  0.00     0.124 S 
ATOM     66  O   UNL A   1      46.602  19.017  25.344  1.00  0.00    -0.237 OA
ATOM     67  O   UNL A   1      44.161  18.724  25.656  1.00  0.00    -0.237 OA
ATOM     68  O   UNL A   1      45.114  18.827  23.384  1.00  0.00    -0.744 OA
ENDBRANCH  61  65
ENDBRANCH  44  58
BRANCH  45  69
ATOM     69  C   UNL A   1      47.031  30.677  27.699  1.00  0.00     0.023 A 
ATOM     70  C   UNL A   1      46.413  31.753  27.010  1.00  0.00     0.031 A 
ATOM     71  C   UNL A   1      48.403  30.832  27.995  1.00  0.00     0.131 A 
ATOM     72  C   UNL A   1      47.158  32.912  26.666  1.00  0.00     0.055 A 
ATOM     73  C   UNL A   1      49.127  31.982  27.662  1.00  0.00     0.041 A 
ATOM     74  F   UNL A   1      49.067  29.907  28.705  1.00  0.00    -0.206 F 
ATOM     75  C   UNL A   1      48.506  33.031  27.007  1.00  0.00     0.022 A 
BRANCH  72  76
ATOM     76  S   UNL A   1      46.370  34.342  25.836  1.00  0.00     0.124 S 
ATOM     77  O   UNL A   1      45.278  33.716  25.101  1.00  0.00    -0.237 OA
ATOM     78  O   UNL A   1      45.993  35.193  26.959  1.00  0.00    -0.237 OA
ATOM     79  O   UNL A   1      47.440  34.883  24.996  1.00  0.00    -0.744 OA
ENDBRANCH  72  76
ENDBRANCH  45  69
BRANCH  57  80
ATOM     80  C   UNL A   1      45.726  26.069  31.769  1.00  0.00     0.023 A 
ATOM     81  C   UNL A   1      44.624  26.743  32.351  1.00  0.00     0.031 A 
ATOM     82  C   UNL A   1      46.824  25.793  32.604  1.00  0.00     0.131 A 
ATOM     83  C   UNL A   1      44.664  27.132  33.708  1.00  0.00     0.055 A 
ATOM     84  C   UNL A   1      46.849  26.153  33.951  1.00  0.00     0.041 A 
ATOM     85  F   UNL A   1      47.897  25.142  32.125  1.00  0.00    -0.206 F 
ATOM     86  C   UNL A   1      45.772  26.834  34.506  1.00  0.00     0.022 A 
BRANCH  83  87
ATOM     87  S   UNL A   1      43.292  28.076  34.457  1.00  0.00     0.124 S 
ATOM     88  O   UNL A   1      43.899  29.359  34.788  1.00  0.00    -0.237 OA
ATOM     89  O   UNL A   1      42.300  28.097  33.387  1.00  0.00    -0.237 OA
ATOM     90  O   UNL A   1      42.915  27.264  35.617  1.00  0.00    -0.744 OA
ENDBRANCH  83  87
ENDBRANCH  57  80
ENDBRANCH  31  32
ENDBRANCH  23  26
ENDBRANCH  21  22
ENDBRANCH  20  21
ENDBRANCH   1  20
TORSDOF 17
ENDMDL
MODEL 2
REMARK VINA RESULT:     -12.0      2.513      4.199
REMARK SMILES C[C@H]1CC=C(C2=NN=C(C(=O)NCCCCCCNC(=O)c3ccc(-c4c5nc(c(-c6cc(S(=O)(=O)[O-])ccc6F)c6ccc([nH]6)c(-c6cc(S(=O)(=O)[O-])ccc6F)c6nc(c(-c7cc(S(=O)(=O)[O-])ccc7F)c7ccc4[nH]7)C=C6)C=C5)cc3)C2)O1
REMARK SMILES IDX 16 1 15 2 14 3 13 4 12 5 10 6 11 7 9 9 6 10 7 11 85 12 8 13
REMARK SMILES IDX 5 14 1 15 2 16 3 17 86 18 4 19 17 20 18 21 19 22 20 23 21 25
REMARK SMILES IDX 22 26 23 27 84 28 24 29 83 30 25 31 26 32 27 33 77 34 28 35
REMARK SMILES IDX 82 36 76 37 78 38 29 39 81 40 75 41 74 42 30 44 62 45 42 46
REMARK SMILES IDX 61 47 43 48 46 49 60 50 79 51 44 52 45 53 59 55 80 56 47 57
REMARK SMILES IDX 31 58 32 59 40 60 33 61 39 62 41 63 38 64 34 65 35 66 36 67
REMARK SMILES IDX 37 68 63 69 64 70 72 71 65 72 71 73 73 74 70 75 66 76 67 77
REMARK SMILES IDX 68 78 69 79 48 80 49 81 57 82 50 83 56 84 58 85 55 86 51 87
REMARK SMILES IDX 52 88 53 89 54 90
REMARK H PARENT 12 8 19 24 78 43 46 54
REMARK Flexibility Score: inf
ROOT
ATOM      1  C   UNL A   1      33.373  28.054  26.629  1.00  0.00     0.002 C 
ENDROOT
BRANCH   1   2
ATOM      2  C   UNL A   1      31.854  27.849  26.535  1.00  0.00     0.002 C 
BRANCH   2   3
ATOM      3  C   UNL A   1      31.360  26.402  26.648  1.00  0.00     0.021 C 
BRANCH   3   4
ATOM      4  C   UNL A   1      32.243  25.363  25.964  1.00  0.00     0.116 C 
BRANCH   4   5
ATOM      5  N   UNL A   1      31.507  24.600  24.971  1.00  0.00    -0.351 N 
ATOM      6  C   UNL A   1      30.881  25.020  23.826  1.00  0.00     0.267 C 
ATOM      7  O   UNL A   1      30.275  24.223  23.114  1.00  0.00    -0.268 OA
ATOM      8  H   UNL A   1      31.448  23.633  25.147  1.00  0.00     0.163 HD
BRANCH   6   9
ATOM      9  C   UNL A   1      30.927  26.451  23.377  1.00  0.00     0.134 C 
ATOM     10  C   UNL A   1      30.293  28.510  22.807  1.00  0.00     0.111 C 
ATOM     11  N   UNL A   1      31.553  28.378  22.519  1.00  0.00    -0.151 NA
ATOM     12  C   UNL A   1      29.691  27.278  23.397  1.00  0.00     0.126 C 
ATOM     13  N   UNL A   1      31.954  27.061  22.871  1.00  0.00    -0.149 NA
BRANCH  10  14
ATOM     14  C   UNL A   1      29.474  29.696  22.530  1.00  0.00     0.139 C 
ATOM     15  C   UNL A   1      27.739  31.807  20.404  1.00  0.00     0.053 C 
ATOM     16  C   UNL A   1      28.758  31.532  21.497  1.00  0.00     0.174 C 
ATOM     17  C   UNL A   1      28.126  31.500  22.896  1.00  0.00     0.076 C 
ATOM     18  O   UNL A   1      29.409  30.260  21.263  1.00  0.00    -0.489 OA
ATOM     19  C   UNL A   1      28.811  30.335  23.490  1.00  0.00     0.025 C 
ENDBRANCH  10  14
ENDBRANCH   6   9
ENDBRANCH   4   5
ENDBRANCH   3   4
ENDBRANCH   2   3
ENDBRANCH   1   2
BRANCH   1  20
ATOM     20  C   UNL A   1      33.851  29.389  27.216  1.00  0.00     0.021 C 
BRANCH  20  21
ATOM     21  C   UNL A   1      35.321  29.414  27.608  1.00  0.00     0.116 C 
BRANCH  21  22
ATOM     22  N   UNL A   1      35.545  29.951  28.947  1.00  0.00    -0.352 N 
ATOM     23  C   UNL A   1      36.542  29.596  29.832  1.00  0.00     0.251 C 
ATOM     24  H   UNL A   1      34.915  30.643  29.252  1.00  0.00     0.163 HD
ATOM     25  O   UNL A   1      36.387  29.781  31.043  1.00  0.00    -0.269 OA
BRANCH  23  26
ATOM     26  C   UNL A   1      37.785  28.995  29.313  1.00  0.00     0.039 A 
ATOM     27  C   UNL A   1      38.417  29.495  28.173  1.00  0.00     0.014 A 
ATOM     28  C   UNL A   1      38.334  27.913  30.003  1.00  0.00     0.014 A 
ATOM     29  C   UNL A   1      39.644  28.948  27.792  1.00  0.00     0.010 A 
ATOM     30  C   UNL A   1      39.605  27.471  29.711  1.00  0.00     0.010 A 
ATOM     31  C   UNL A   1      40.254  27.954  28.584  1.00  0.00    -0.014 A 
BRANCH  31  32
ATOM     32  C   UNL A   1      41.650  27.564  28.351  1.00  0.00     0.031 A 
ATOM     33  C   UNL A   1      41.765  26.274  27.620  1.00  0.00     0.074 A 
ATOM     34  C   UNL A   1      42.736  28.338  28.592  1.00  0.00     0.049 A 
ATOM     35  N   UNL A   1      42.118  25.138  28.118  1.00  0.00    -0.248 NA
ATOM     36  C   UNL A   1      41.233  26.177  26.249  1.00  0.00     0.031 C 
ATOM     37  C   UNL A   1      42.773  29.717  29.085  1.00  0.00     0.029 A 
ATOM     38  N   UNL A   1      44.063  28.074  28.376  1.00  0.00    -0.354 N 
ATOM     39  C   UNL A   1      42.135  24.248  27.054  1.00  0.00     0.074 A 
ATOM     40  C   UNL A   1      41.367  24.870  26.009  1.00  0.00     0.031 C 
ATOM     41  C   UNL A   1      44.013  30.236  28.927  1.00  0.00     0.029 A 
ATOM     42  C   UNL A   1      44.910  29.185  28.474  1.00  0.00     0.049 A 
ATOM     43  H   UNL A   1      44.395  27.172  28.167  1.00  0.00     0.167 HD
ATOM     44  C   UNL A   1      43.026  23.219  27.037  1.00  0.00     0.034 A 
ATOM     45  C   UNL A   1      46.253  29.247  28.235  1.00  0.00     0.034 A 
ATOM     46  C   UNL A   1      43.561  22.982  28.363  1.00  0.00     0.049 A 
ATOM     47  C   UNL A   1      46.772  27.872  28.409  1.00  0.00     0.074 A 
ATOM     48  C   UNL A   1      42.999  22.697  29.595  1.00  0.00     0.029 A 
ATOM     49  N   UNL A   1      44.825  23.454  28.637  1.00  0.00    -0.354 N 
ATOM     50  N   UNL A   1      46.771  27.255  29.556  1.00  0.00    -0.248 NA
ATOM     51  C   UNL A   1      46.823  27.008  27.241  1.00  0.00     0.031 C 
ATOM     52  C   UNL A   1      43.743  23.483  30.527  1.00  0.00     0.029 A 
ATOM     53  C   UNL A   1      44.783  24.115  29.842  1.00  0.00     0.049 A 
ATOM     54  H   UNL A   1      45.620  23.339  28.069  1.00  0.00     0.167 HD
ATOM     55  C   UNL A   1      46.337  25.973  29.265  1.00  0.00     0.074 A 
ATOM     56  C   UNL A   1      46.490  25.848  27.815  1.00  0.00     0.031 C 
ATOM     57  C   UNL A   1      45.634  25.243  30.183  1.00  0.00     0.034 A 
BRANCH  44  58
ATOM     58  C   UNL A   1      43.711  22.715  25.786  1.00  0.00     0.023 A 
ATOM     59  C   UNL A   1      43.828  21.320  25.625  1.00  0.00     0.031 A 
ATOM     60  C   UNL A   1      44.497  23.501  24.910  1.00  0.00     0.131 A 
ATOM     61  C   UNL A   1      44.743  20.775  24.707  1.00  0.00     0.055 A 
ATOM     62  C   UNL A   1      45.355  22.952  23.954  1.00  0.00     0.041 A 
ATOM     63  F   UNL A   1      44.562  24.835  24.989  1.00  0.00    -0.206 F 
ATOM     64  C   UNL A   1      45.505  21.582  23.868  1.00  0.00     0.022 A 
BRANCH  61  65
ATOM     65  S   UNL A   1      45.047  18.991  24.750  1.00  0.00     0.124 S 
ATOM     66  O   UNL A   1      43.921  18.522  25.552  1.00  0.00    -0.237 OA
ATOM     67  O   UNL A   1      45.017  18.646  23.333  1.00  0.00    -0.237 OA
ATOM     68  O   UNL A   1      46.356  18.885  25.389  1.00  0.00    -0.744 OA
ENDBRANCH  61  65
ENDBRANCH  44  58
BRANCH  45  69
ATOM     69  C   UNL A   1      47.050  30.329  27.573  1.00  0.00     0.023 A 
ATOM     70  C   UNL A   1      46.473  31.486  26.987  1.00  0.00     0.031 A 
ATOM     71  C   UNL A   1      48.448  30.360  27.770  1.00  0.00     0.131 A 
ATOM     72  C   UNL A   1      47.283  32.601  26.643  1.00  0.00     0.055 A 
ATOM     73  C   UNL A   1      49.237  31.466  27.438  1.00  0.00     0.041 A 
ATOM     74  F   UNL A   1      49.083  29.349  28.381  1.00  0.00    -0.206 F 
ATOM     75  C   UNL A   1      48.658  32.595  26.884  1.00  0.00     0.022 A 
BRANCH  72  76
ATOM     76  S   UNL A   1      46.556  34.131  25.947  1.00  0.00     0.124 S 
ATOM     77  O   UNL A   1      45.319  33.646  25.347  1.00  0.00    -0.237 OA
ATOM     78  O   UNL A   1      46.418  34.980  27.124  1.00  0.00    -0.237 OA
ATOM     79  O   UNL A   1      47.564  34.582  24.986  1.00  0.00    -0.744 OA
ENDBRANCH  72  76
ENDBRANCH  45  69
BRANCH  57  80
ATOM     80  C   UNL A   1      45.605  25.743  31.621  1.00  0.00     0.023 A 
ATOM     81  C   UNL A   1      46.632  25.562  32.580  1.00  0.00     0.031 A 
ATOM     82  C   UNL A   1      44.489  26.503  32.010  1.00  0.00     0.131 A 
ATOM     83  C   UNL A   1      46.502  26.111  33.874  1.00  0.00     0.055 A 
ATOM     84  C   UNL A   1      44.375  27.069  33.281  1.00  0.00     0.041 A 
ATOM     85  F   UNL A   1      43.484  26.731  31.149  1.00  0.00    -0.206 F 
ATOM     86  C   UNL A   1      45.378  26.866  34.221  1.00  0.00     0.022 A 
BRANCH  83  87
ATOM     87  S   UNL A   1      47.772  25.820  35.152  1.00  0.00     0.124 S 
ATOM     88  O   UNL A   1      48.791  26.820  34.859  1.00  0.00    -0.237 OA
ATOM     89  O   UNL A   1      47.026  26.013  36.391  1.00  0.00    -0.237 OA
ATOM     90  O   UNL A   1      48.189  24.437  34.906  1.00  0.00    -0.744 OA
ENDBRANCH  83  87
ENDBRANCH  57  80
ENDBRANCH  31  32
ENDBRANCH  23  26
ENDBRANCH  21  22
ENDBRANCH  20  21
ENDBRANCH   1  20
TORSDOF 17
ENDMDL
MODEL 3
REMARK VINA RESULT:     -12.0      3.177      7.417
REMARK SMILES C[C@H]1CC=C(C2=NN=C(C(=O)NCCCCCCNC(=O)c3ccc(-c4c5nc(c(-c6cc(S(=O)(=O)[O-])ccc6F)c6ccc([nH]6)c(-c6cc(S(=O)(=O)[O-])ccc6F)c6nc(c(-c7cc(S(=O)(=O)[O-])ccc7F)c7ccc4[nH]7)C=C6)C=C5)cc3)C2)O1
REMARK SMILES IDX 16 1 15 2 14 3 13 4 12 5 10 6 11 7 9 9 6 10 7 11 85 12 8 13
REMARK SMILES IDX 5 14 1 15 2 16 3 17 86 18 4 19 17 20 18 21 19 22 20 23 21 25
REMARK SMILES IDX 22 26 23 27 84 28 24 29 83 30 25 31 26 32 27 33 77 34 28 35
REMARK SMILES IDX 82 36 76 37 78 38 29 39 81 40 75 41 74 42 30 44 62 45 42 46
REMARK SMILES IDX 61 47 43 48 46 49 60 50 79 51 44 52 45 53 59 55 80 56 47 57
REMARK SMILES IDX 31 58 32 59 40 60 33 61 39 62 41 63 38 64 34 65 35 66 36 67
REMARK SMILES IDX 37 68 63 69 64 70 72 71 65 72 71 73 73 74 70 75 66 76 67 77
REMARK SMILES IDX 68 78 69 79 48 80 49 81 57 82 50 83 56 84 58 85 55 86 51 87
REMARK SMILES IDX 52 88 53 89 54 90
REMARK H PARENT 12 8 19 24 78 43 46 54
REMARK Flexibility Score: inf
ROOT
ATOM      1  C   UNL A   1      34.246  30.037  27.099  1.00  0.00     0.002 C 
ENDROOT
BRANCH   1   2
ATOM      2  C   UNL A   1      33.412  28.749  27.160  1.00  0.00     0.002 C 
BRANCH   2   3
ATOM      3  C   UNL A   1      32.607  28.406  25.901  1.00  0.00     0.021 C 
BRANCH   3   4
ATOM      4  C   UNL A   1      32.901  29.285  24.688  1.00  0.00     0.116 C 
BRANCH   4   5
ATOM      5  N   UNL A   1      31.813  29.254  23.725  1.00  0.00    -0.351 N 
ATOM      6  C   UNL A   1      31.531  28.337  22.746  1.00  0.00     0.267 C 
ATOM      7  O   UNL A   1      30.570  28.495  21.998  1.00  0.00    -0.268 OA
ATOM      8  H   UNL A   1      31.182  30.008  23.784  1.00  0.00     0.163 HD
BRANCH   6   9
ATOM      9  C   UNL A   1      32.356  27.097  22.560  1.00  0.00     0.134 C 
ATOM     10  C   UNL A   1      33.183  25.046  22.836  1.00  0.00     0.111 C 
ATOM     11  N   UNL A   1      33.920  25.669  21.966  1.00  0.00    -0.151 NA
ATOM     12  C   UNL A   1      32.063  25.881  23.363  1.00  0.00     0.126 C 
ATOM     13  N   UNL A   1      33.400  26.981  21.799  1.00  0.00    -0.149 NA
BRANCH  10  14
ATOM     14  C   UNL A   1      33.425  23.692  23.347  1.00  0.00     0.139 C 
ATOM     15  C   UNL A   1      32.429  20.458  24.080  1.00  0.00     0.053 C 
ATOM     16  C   UNL A   1      33.065  21.790  24.443  1.00  0.00     0.174 C 
ATOM     17  C   UNL A   1      34.554  21.850  24.079  1.00  0.00     0.076 C 
ATOM     18  O   UNL A   1      32.385  22.870  23.759  1.00  0.00    -0.489 OA
ATOM     19  C   UNL A   1      34.654  23.209  23.512  1.00  0.00     0.025 C 
ENDBRANCH  10  14
ENDBRANCH   6   9
ENDBRANCH   4   5
ENDBRANCH   3   4
ENDBRANCH   2   3
ENDBRANCH   1   2
BRANCH   1  20
ATOM     20  C   UNL A   1      33.583  31.312  27.640  1.00  0.00     0.021 C 
BRANCH  20  21
ATOM     21  C   UNL A   1      34.557  32.418  28.015  1.00  0.00     0.116 C 
BRANCH  21  22
ATOM     22  N   UNL A   1      34.513  32.760  29.433  1.00  0.00    -0.352 N 
ATOM     23  C   UNL A   1      35.180  32.131  30.465  1.00  0.00     0.251 C 
ATOM     24  H   UNL A   1      33.945  33.524  29.682  1.00  0.00     0.163 HD
ATOM     25  O   UNL A   1      34.752  32.216  31.620  1.00  0.00    -0.269 OA
BRANCH  23  26
ATOM     26  C   UNL A   1      36.402  31.359  30.168  1.00  0.00     0.039 A 
ATOM     27  C   UNL A   1      37.640  31.985  30.011  1.00  0.00     0.014 A 
ATOM     28  C   UNL A   1      36.298  29.972  30.062  1.00  0.00     0.014 A 
ATOM     29  C   UNL A   1      38.775  31.192  29.833  1.00  0.00     0.010 A 
ATOM     30  C   UNL A   1      37.429  29.188  30.028  1.00  0.00     0.010 A 
ATOM     31  C   UNL A   1      38.671  29.786  29.875  1.00  0.00    -0.014 A 
BRANCH  31  32
ATOM     32  C   UNL A   1      39.875  28.949  29.958  1.00  0.00     0.031 A 
ATOM     33  C   UNL A   1      40.254  28.637  31.362  1.00  0.00     0.074 A 
ATOM     34  C   UNL A   1      40.498  28.358  28.910  1.00  0.00     0.049 A 
ATOM     35  N   UNL A   1      41.242  29.142  32.021  1.00  0.00    -0.248 NA
ATOM     36  C   UNL A   1      39.329  27.849  32.196  1.00  0.00     0.031 C 
ATOM     37  C   UNL A   1      40.106  28.375  27.498  1.00  0.00     0.029 A 
ATOM     38  N   UNL A   1      41.595  27.539  28.894  1.00  0.00    -0.354 N 
ATOM     39  C   UNL A   1      41.232  28.511  33.256  1.00  0.00     0.074 A 
ATOM     40  C   UNL A   1      39.926  27.925  33.389  1.00  0.00     0.031 C 
ATOM     41  C   UNL A   1      40.809  27.446  26.808  1.00  0.00     0.029 A 
ATOM     42  C   UNL A   1      41.819  26.874  27.683  1.00  0.00     0.049 A 
ATOM     43  H   UNL A   1      42.183  27.427  29.675  1.00  0.00     0.167 HD
ATOM     44  C   UNL A   1      42.401  28.286  33.917  1.00  0.00     0.034 A 
ATOM     45  C   UNL A   1      42.776  25.943  27.394  1.00  0.00     0.034 A 
ATOM     46  C   UNL A   1      43.460  29.122  33.389  1.00  0.00     0.049 A 
ATOM     47  C   UNL A   1      43.876  26.161  28.361  1.00  0.00     0.074 A 
ATOM     48  C   UNL A   1      43.621  30.487  33.223  1.00  0.00     0.029 A 
ATOM     49  N   UNL A   1      44.372  28.540  32.539  1.00  0.00    -0.354 N 
ATOM     50  N   UNL A   1      44.602  27.242  28.374  1.00  0.00    -0.248 NA
ATOM     51  C   UNL A   1      43.841  25.422  29.612  1.00  0.00     0.031 C 
ATOM     52  C   UNL A   1      44.235  30.630  31.942  1.00  0.00     0.029 A 
ATOM     53  C   UNL A   1      44.519  29.357  31.443  1.00  0.00     0.049 A 
ATOM     54  H   UNL A   1      44.839  27.687  32.689  1.00  0.00     0.167 HD
ATOM     55  C   UNL A   1      44.711  27.575  29.714  1.00  0.00     0.074 A 
ATOM     56  C   UNL A   1      44.318  26.362  30.433  1.00  0.00     0.031 C 
ATOM     57  C   UNL A   1      44.833  28.879  30.106  1.00  0.00     0.034 A 
BRANCH  44  58
ATOM     58  C   UNL A   1      42.683  27.045  34.736  1.00  0.00     0.023 A 
ATOM     59  C   UNL A   1      43.486  26.047  34.150  1.00  0.00     0.031 A 
ATOM     60  C   UNL A   1      41.989  26.662  35.908  1.00  0.00     0.131 A 
ATOM     61  C   UNL A   1      43.503  24.740  34.666  1.00  0.00     0.055 A 
ATOM     62  C   UNL A   1      42.063  25.379  36.455  1.00  0.00     0.041 A 
ATOM     63  F   UNL A   1      41.123  27.466  36.536  1.00  0.00    -0.206 F 
ATOM     64  C   UNL A   1      42.800  24.399  35.818  1.00  0.00     0.022 A 
BRANCH  61  65
ATOM     65  S   UNL A   1      44.327  23.445  33.706  1.00  0.00     0.124 S 
ATOM     66  O   UNL A   1      45.567  24.111  33.321  1.00  0.00    -0.237 OA
ATOM     67  O   UNL A   1      44.449  22.373  34.689  1.00  0.00    -0.237 OA
ATOM     68  O   UNL A   1      43.392  23.184  32.615  1.00  0.00    -0.744 OA
ENDBRANCH  61  65
ENDBRANCH  44  58
BRANCH  45  69
ATOM     69  C   UNL A   1      42.672  24.702  26.561  1.00  0.00     0.023 A 
ATOM     70  C   UNL A   1      43.652  24.304  25.615  1.00  0.00     0.031 A 
ATOM     71  C   UNL A   1      41.709  23.730  26.909  1.00  0.00     0.131 A 
ATOM     72  C   UNL A   1      43.645  22.989  25.078  1.00  0.00     0.055 A 
ATOM     73  C   UNL A   1      41.715  22.433  26.384  1.00  0.00     0.041 A 
ATOM     74  F   UNL A   1      40.782  23.979  27.846  1.00  0.00    -0.206 F 
ATOM     75  C   UNL A   1      42.688  22.053  25.476  1.00  0.00     0.022 A 
BRANCH  72  76
ATOM     76  S   UNL A   1      44.935  22.428  23.907  1.00  0.00     0.124 S 
ATOM     77  O   UNL A   1      45.863  23.552  23.901  1.00  0.00    -0.237 OA
ATOM     78  O   UNL A   1      45.410  21.195  24.524  1.00  0.00    -0.237 OA
ATOM     79  O   UNL A   1      44.201  22.237  22.654  1.00  0.00    -0.744 OA
ENDBRANCH  72  76
ENDBRANCH  45  69
BRANCH  57  80
ATOM     80  C   UNL A   1      45.154  29.918  29.040  1.00  0.00     0.023 A 
ATOM     81  C   UNL A   1      46.453  30.294  28.616  1.00  0.00     0.031 A 
ATOM     82  C   UNL A   1      44.065  30.509  28.376  1.00  0.00     0.131 A 
ATOM     83  C   UNL A   1      46.617  31.244  27.585  1.00  0.00     0.055 A 
ATOM     84  C   UNL A   1      44.230  31.427  27.339  1.00  0.00     0.041 A 
ATOM     85  F   UNL A   1      42.805  30.188  28.713  1.00  0.00    -0.206 F 
ATOM     86  C   UNL A   1      45.508  31.806  26.946  1.00  0.00     0.022 A 
BRANCH  83  87
ATOM     87  S   UNL A   1      48.278  31.807  27.081  1.00  0.00     0.124 S 
ATOM     88  O   UNL A   1      48.005  32.854  26.104  1.00  0.00    -0.237 OA
ATOM     89  O   UNL A   1      48.861  32.249  28.343  1.00  0.00    -0.237 OA
ATOM     90  O   UNL A   1      48.891  30.599  26.521  1.00  0.00    -0.744 OA
ENDBRANCH  83  87
ENDBRANCH  57  80
ENDBRANCH  31  32
ENDBRANCH  23  26
ENDBRANCH  21  22
ENDBRANCH  20  21
ENDBRANCH   1  20
TORSDOF 17
ENDMDL
