MODEL 1
REMARK VINA RESULT:     -11.2      0.000      0.000
REMARK SMILES O=C(NCCCCCCNC(=O)[C@@H]1CSc2ccccc21)c1ccc(-c2c3nc(c(-c4cc(S(=O)(=O)[O-])ccc4F)c4ccc([nH]4)c(-c4cc(S(=O)(=O)[O-])ccc4F)c4nc(c(-c5cc(S(=O)(=O)[O-])ccc5F)c5ccc2[nH]5)C=C4)C=C3)cc1
REMARK SMILES IDX 5 1 4 2 3 3 1 4 2 5 22 7 23 8 84 9 24 10 83 11 25 12 26 13
REMARK SMILES IDX 27 14 77 15 28 16 82 17 76 18 78 19 29 20 81 21 75 22 74 23
REMARK SMILES IDX 30 25 62 26 42 27 61 28 43 29 46 30 60 31 79 32 44 33 45 34
REMARK SMILES IDX 59 36 80 37 47 38 31 39 32 40 40 41 33 42 39 43 41 44 38 45
REMARK SMILES IDX 34 46 35 47 36 48 37 49 63 50 64 51 72 52 65 53 71 54 73 55
REMARK SMILES IDX 70 56 66 57 67 58 68 59 69 60 48 61 49 62 57 63 50 64 56 65
REMARK SMILES IDX 58 66 55 67 51 68 52 69 53 70 54 71 6 72 7 73 8 74 9 75
REMARK SMILES IDX 10 76 11 77 12 79 13 80 14 81 21 82 15 83 16 84 20 85 17 86
REMARK SMILES IDX 19 87 18 88
REMARK H PARENT 3 6 78 24 46 35 10 78
REMARK Flexibility Score: inf
ROOT
ATOM      1  C   UNL A   1      31.453  32.086  26.588  1.00  0.00     0.021 C 
ENDROOT
BRANCH   1   2
ATOM      2  C   UNL A   1      32.721  32.620  27.250  1.00  0.00     0.116 C 
BRANCH   2   3
ATOM      3  N   UNL A   1      32.575  34.005  27.666  1.00  0.00    -0.352 N 
ATOM      4  O   UNL A   1      32.778  35.786  29.023  1.00  0.00    -0.269 OA
ATOM      5  C   UNL A   1      33.172  34.663  28.708  1.00  0.00     0.251 C 
ATOM      6  H   UNL A   1      31.959  34.546  27.121  1.00  0.00     0.163 HD
BRANCH   5   7
ATOM      7  C   UNL A   1      34.284  34.035  29.453  1.00  0.00     0.039 A 
ATOM      8  C   UNL A   1      35.599  34.324  29.071  1.00  0.00     0.014 A 
ATOM      9  C   UNL A   1      34.037  33.116  30.478  1.00  0.00     0.014 A 
ATOM     10  C   UNL A   1      36.665  33.704  29.726  1.00  0.00     0.010 A 
ATOM     11  C   UNL A   1      35.103  32.540  31.166  1.00  0.00     0.010 A 
ATOM     12  C   UNL A   1      36.424  32.809  30.778  1.00  0.00    -0.014 A 
BRANCH  12  13
ATOM     13  C   UNL A   1      37.535  32.101  31.461  1.00  0.00     0.031 A 
ATOM     14  C   UNL A   1      38.025  32.593  32.792  1.00  0.00     0.074 A 
ATOM     15  C   UNL A   1      38.146  31.066  30.855  1.00  0.00     0.049 A 
ATOM     16  N   UNL A   1      39.036  32.172  33.506  1.00  0.00    -0.248 NA
ATOM     17  C   UNL A   1      37.295  33.722  33.391  1.00  0.00     0.031 C 
ATOM     18  C   UNL A   1      37.769  30.521  29.551  1.00  0.00     0.029 A 
ATOM     19  N   UNL A   1      39.220  30.305  31.241  1.00  0.00    -0.354 N 
ATOM     20  C   UNL A   1      39.079  32.998  34.623  1.00  0.00     0.074 A 
ATOM     21  C   UNL A   1      38.020  33.970  34.472  1.00  0.00     0.031 C 
ATOM     22  C   UNL A   1      38.597  29.510  29.248  1.00  0.00     0.029 A 
ATOM     23  C   UNL A   1      39.591  29.364  30.311  1.00  0.00     0.049 A 
ATOM     24  H   UNL A   1      39.681  30.421  32.104  1.00  0.00     0.167 HD
ATOM     25  C   UNL A   1      39.915  32.934  35.686  1.00  0.00     0.034 A 
ATOM     26  C   UNL A   1      40.624  28.494  30.301  1.00  0.00     0.034 A 
ATOM     27  C   UNL A   1      40.935  31.932  35.838  1.00  0.00     0.049 A 
ATOM     28  C   UNL A   1      41.555  28.448  31.485  1.00  0.00     0.074 A 
ATOM     29  C   UNL A   1      41.754  31.711  36.930  1.00  0.00     0.029 A 
ATOM     30  N   UNL A   1      41.284  30.994  34.877  1.00  0.00    -0.354 N 
ATOM     31  N   UNL A   1      41.518  29.164  32.586  1.00  0.00    -0.248 NA
ATOM     32  C   UNL A   1      42.663  27.485  31.437  1.00  0.00     0.031 C 
ATOM     33  C   UNL A   1      42.642  30.685  36.605  1.00  0.00     0.029 A 
ATOM     34  C   UNL A   1      42.338  30.221  35.334  1.00  0.00     0.049 A 
ATOM     35  H   UNL A   1      40.846  30.892  34.001  1.00  0.00     0.167 HD
ATOM     36  C   UNL A   1      42.588  28.730  33.365  1.00  0.00     0.074 A 
ATOM     37  C   UNL A   1      43.242  27.674  32.618  1.00  0.00     0.031 C 
ATOM     38  C   UNL A   1      42.988  29.170  34.585  1.00  0.00     0.034 A 
BRANCH  25  39
ATOM     39  C   UNL A   1      39.763  33.955  36.784  1.00  0.00     0.023 A 
ATOM     40  C   UNL A   1      39.214  33.575  38.023  1.00  0.00     0.031 A 
ATOM     41  C   UNL A   1      40.058  35.314  36.574  1.00  0.00     0.131 A 
ATOM     42  C   UNL A   1      38.962  34.547  38.999  1.00  0.00     0.055 A 
ATOM     43  C   UNL A   1      39.839  36.272  37.564  1.00  0.00     0.041 A 
ATOM     44  F   UNL A   1      40.579  35.726  35.407  1.00  0.00    -0.206 F 
ATOM     45  C   UNL A   1      39.279  35.891  38.779  1.00  0.00     0.022 A 
BRANCH  42  46
ATOM     46  S   UNL A   1      38.165  34.115  40.569  1.00  0.00     0.124 S 
ATOM     47  O   UNL A   1      37.904  35.434  41.143  1.00  0.00    -0.237 OA
ATOM     48  O   UNL A   1      36.982  33.385  40.121  1.00  0.00    -0.237 OA
ATOM     49  O   UNL A   1      39.169  33.322  41.268  1.00  0.00    -0.744 OA
ENDBRANCH  42  46
ENDBRANCH  25  39
BRANCH  26  50
ATOM     50  C   UNL A   1      40.771  27.576  29.135  1.00  0.00     0.023 A 
ATOM     51  C   UNL A   1      41.712  27.842  28.123  1.00  0.00     0.031 A 
ATOM     52  C   UNL A   1      39.870  26.517  28.942  1.00  0.00     0.131 A 
ATOM     53  C   UNL A   1      41.670  27.116  26.925  1.00  0.00     0.055 A 
ATOM     54  C   UNL A   1      39.879  25.748  27.776  1.00  0.00     0.041 A 
ATOM     55  F   UNL A   1      38.950  26.234  29.876  1.00  0.00    -0.206 F 
ATOM     56  C   UNL A   1      40.769  26.060  26.752  1.00  0.00     0.022 A 
BRANCH  53  57
ATOM     57  S   UNL A   1      42.683  27.609  25.504  1.00  0.00     0.124 S 
ATOM     58  O   UNL A   1      41.986  28.799  25.026  1.00  0.00    -0.237 OA
ATOM     59  O   UNL A   1      43.980  27.848  26.135  1.00  0.00    -0.237 OA
ATOM     60  O   UNL A   1      42.629  26.449  24.620  1.00  0.00    -0.744 OA
ENDBRANCH  53  57
ENDBRANCH  26  50
BRANCH  38  61
ATOM     61  C   UNL A   1      44.208  28.548  35.219  1.00  0.00     0.023 A 
ATOM     62  C   UNL A   1      44.062  27.506  36.157  1.00  0.00     0.031 A 
ATOM     63  C   UNL A   1      45.483  29.112  35.044  1.00  0.00     0.131 A 
ATOM     64  C   UNL A   1      45.159  27.105  36.929  1.00  0.00     0.055 A 
ATOM     65  C   UNL A   1      46.584  28.675  35.782  1.00  0.00     0.041 A 
ATOM     66  F   UNL A   1      45.670  30.111  34.166  1.00  0.00    -0.206 F 
ATOM     67  C   UNL A   1      46.421  27.680  36.742  1.00  0.00     0.022 A 
BRANCH  64  68
ATOM     68  S   UNL A   1      44.970  25.896  38.268  1.00  0.00     0.124 S 
ATOM     69  O   UNL A   1      46.182  26.119  39.052  1.00  0.00    -0.237 OA
ATOM     70  O   UNL A   1      43.727  26.331  38.901  1.00  0.00    -0.237 OA
ATOM     71  O   UNL A   1      44.907  24.612  37.577  1.00  0.00    -0.744 OA
ENDBRANCH  64  68
ENDBRANCH  38  61
ENDBRANCH  12  13
ENDBRANCH   5   7
ENDBRANCH   2   3
ENDBRANCH   1   2
BRANCH   1  72
ATOM     72  C   UNL A   1      31.509  30.610  26.183  1.00  0.00     0.002 C 
BRANCH  72  73
ATOM     73  C   UNL A   1      32.242  29.688  27.162  1.00  0.00     0.002 C 
BRANCH  73  74
ATOM     74  C   UNL A   1      32.641  28.318  26.599  1.00  0.00     0.021 C 
BRANCH  74  75
ATOM     75  C   UNL A   1      31.476  27.466  26.099  1.00  0.00     0.116 C 
BRANCH  75  76
ATOM     76  N   UNL A   1      31.376  26.222  26.840  1.00  0.00    -0.356 N 
ATOM     77  C   UNL A   1      31.590  24.939  26.432  1.00  0.00     0.228 C 
ATOM     78  H   UNL A   1      31.113  26.321  27.784  1.00  0.00     0.163 HD
ATOM     79  O   UNL A   1      31.387  24.041  27.251  1.00  0.00    -0.274 OA
BRANCH  77  80
ATOM     80  C   UNL A   1      32.068  24.687  25.008  1.00  0.00     0.120 C 
ATOM     81  C   UNL A   1      31.101  23.729  24.291  1.00  0.00     0.093 C 
ATOM     82  C   UNL A   1      33.458  24.101  24.945  1.00  0.00    -0.021 A 
ATOM     83  S   UNL A   1      31.991  22.210  23.822  1.00  0.00    -0.125 SA
ATOM     84  C   UNL A   1      33.547  22.838  24.365  1.00  0.00     0.011 A 
ATOM     85  C   UNL A   1      34.603  24.731  25.431  1.00  0.00     0.006 A 
ATOM     86  C   UNL A   1      34.766  22.184  24.262  1.00  0.00     0.015 A 
ATOM     87  C   UNL A   1      35.833  24.079  25.335  1.00  0.00     0.000 A 
ATOM     88  C   UNL A   1      35.915  22.810  24.752  1.00  0.00     0.001 A 
ENDBRANCH  77  80
ENDBRANCH  75  76
ENDBRANCH  74  75
ENDBRANCH  73  74
ENDBRANCH  72  73
ENDBRANCH   1  72
TORSDOF 16
ENDMDL
MODEL 2
REMARK VINA RESULT:     -11.2      1.562      8.006
REMARK SMILES O=C(NCCCCCCNC(=O)[C@@H]1CSc2ccccc21)c1ccc(-c2c3nc(c(-c4cc(S(=O)(=O)[O-])ccc4F)c4ccc([nH]4)c(-c4cc(S(=O)(=O)[O-])ccc4F)c4nc(c(-c5cc(S(=O)(=O)[O-])ccc5F)c5ccc2[nH]5)C=C4)C=C3)cc1
REMARK SMILES IDX 5 1 4 2 3 3 1 4 2 5 22 7 23 8 84 9 24 10 83 11 25 12 26 13
REMARK SMILES IDX 27 14 77 15 28 16 82 17 76 18 78 19 29 20 81 21 75 22 74 23
REMARK SMILES IDX 30 25 62 26 42 27 61 28 43 29 46 30 60 31 79 32 44 33 45 34
REMARK SMILES IDX 59 36 80 37 47 38 31 39 32 40 40 41 33 42 39 43 41 44 38 45
REMARK SMILES IDX 34 46 35 47 36 48 37 49 63 50 64 51 72 52 65 53 71 54 73 55
REMARK SMILES IDX 70 56 66 57 67 58 68 59 69 60 48 61 49 62 57 63 50 64 56 65
REMARK SMILES IDX 58 66 55 67 51 68 52 69 53 70 54 71 6 72 7 73 8 74 9 75
REMARK SMILES IDX 10 76 11 77 12 79 13 80 14 81 21 82 15 83 16 84 20 85 17 86
REMARK SMILES IDX 19 87 18 88
REMARK H PARENT 3 6 78 24 46 35 10 78
REMARK Flexibility Score: inf
ROOT
ATOM      1  C   UNL A   1      31.398  32.129  26.739  1.00  0.00     0.021 C 
ENDROOT
BRANCH   1   2
ATOM      2  C   UNL A   1      32.728  32.794  27.087  1.00  0.00     0.116 C 
BRANCH   2   3
ATOM      3  N   UNL A   1      32.541  34.114  27.663  1.00  0.00    -0.352 N 
ATOM      4  O   UNL A   1      32.747  35.747  29.195  1.00  0.00    -0.269 OA
ATOM      5  C   UNL A   1      33.174  34.689  28.733  1.00  0.00     0.251 C 
ATOM      6  H   UNL A   1      31.863  34.675  27.222  1.00  0.00     0.163 HD
BRANCH   5   7
ATOM      7  C   UNL A   1      34.364  34.049  29.333  1.00  0.00     0.039 A 
ATOM      8  C   UNL A   1      34.178  33.001  30.241  1.00  0.00     0.014 A 
ATOM      9  C   UNL A   1      35.652  34.517  29.056  1.00  0.00     0.014 A 
ATOM     10  C   UNL A   1      35.284  32.413  30.860  1.00  0.00     0.010 A 
ATOM     11  C   UNL A   1      36.757  33.894  29.633  1.00  0.00     0.010 A 
ATOM     12  C   UNL A   1      36.580  32.855  30.558  1.00  0.00    -0.014 A 
BRANCH  12  13
ATOM     13  C   UNL A   1      37.769  32.280  31.235  1.00  0.00     0.031 A 
ATOM     14  C   UNL A   1      38.495  31.124  30.609  1.00  0.00     0.074 A 
ATOM     15  C   UNL A   1      38.151  32.749  32.437  1.00  0.00     0.049 A 
ATOM     16  N   UNL A   1      39.494  30.426  31.080  1.00  0.00    -0.248 NA
ATOM     17  C   UNL A   1      38.021  30.680  29.288  1.00  0.00     0.031 C 
ATOM     18  C   UNL A   1      37.504  33.850  33.148  1.00  0.00     0.029 A 
ATOM     19  N   UNL A   1      39.157  32.347  33.281  1.00  0.00    -0.354 N 
ATOM     20  C   UNL A   1      39.753  29.447  30.127  1.00  0.00     0.074 A 
ATOM     21  C   UNL A   1      38.779  29.615  29.073  1.00  0.00     0.031 C 
ATOM     22  C   UNL A   1      38.131  34.040  34.319  1.00  0.00     0.029 A 
ATOM     23  C   UNL A   1      39.194  33.045  34.464  1.00  0.00     0.049 A 
ATOM     24  H   UNL A   1      39.791  31.628  33.059  1.00  0.00     0.167 HD
ATOM     25  C   UNL A   1      40.728  28.509  30.128  1.00  0.00     0.034 A 
ATOM     26  C   UNL A   1      39.979  32.893  35.551  1.00  0.00     0.034 A 
ATOM     27  C   UNL A   1      41.715  28.385  31.167  1.00  0.00     0.049 A 
ATOM     28  C   UNL A   1      41.049  31.832  35.541  1.00  0.00     0.074 A 
ATOM     29  C   UNL A   1      42.813  27.545  31.202  1.00  0.00     0.029 A 
ATOM     30  N   UNL A   1      41.724  29.108  32.351  1.00  0.00    -0.354 N 
ATOM     31  N   UNL A   1      41.353  30.983  34.587  1.00  0.00    -0.248 NA
ATOM     32  C   UNL A   1      41.884  31.703  36.743  1.00  0.00     0.031 C 
ATOM     33  C   UNL A   1      43.447  27.711  32.433  1.00  0.00     0.029 A 
ATOM     34  C   UNL A   1      42.784  28.700  33.144  1.00  0.00     0.049 A 
ATOM     35  H   UNL A   1      41.075  29.808  32.591  1.00  0.00     0.167 HD
ATOM     36  C   UNL A   1      42.419  30.227  35.067  1.00  0.00     0.074 A 
ATOM     37  C   UNL A   1      42.723  30.734  36.390  1.00  0.00     0.031 C 
ATOM     38  C   UNL A   1      43.082  29.208  34.464  1.00  0.00     0.034 A 
BRANCH  25  39
ATOM     39  C   UNL A   1      40.803  27.546  28.970  1.00  0.00     0.023 A 
ATOM     40  C   UNL A   1      41.733  27.765  27.937  1.00  0.00     0.031 A 
ATOM     41  C   UNL A   1      39.891  26.484  28.834  1.00  0.00     0.131 A 
ATOM     42  C   UNL A   1      41.721  26.941  26.805  1.00  0.00     0.055 A 
ATOM     43  C   UNL A   1      39.908  25.645  27.719  1.00  0.00     0.041 A 
ATOM     44  F   UNL A   1      38.982  26.239  29.790  1.00  0.00    -0.206 F 
ATOM     45  C   UNL A   1      40.819  25.878  26.694  1.00  0.00     0.022 A 
BRANCH  42  46
ATOM     46  S   UNL A   1      42.835  27.249  25.408  1.00  0.00     0.124 S 
ATOM     47  O   UNL A   1      44.089  27.562  26.091  1.00  0.00    -0.237 OA
ATOM     48  O   UNL A   1      42.810  25.967  24.708  1.00  0.00    -0.237 OA
ATOM     49  O   UNL A   1      42.216  28.365  24.703  1.00  0.00    -0.744 OA
ENDBRANCH  42  46
ENDBRANCH  25  39
BRANCH  26  50
ATOM     50  C   UNL A   1      39.786  33.820  36.704  1.00  0.00     0.023 A 
ATOM     51  C   UNL A   1      40.690  34.871  36.944  1.00  0.00     0.031 A 
ATOM     52  C   UNL A   1      38.791  33.569  37.662  1.00  0.00     0.131 A 
ATOM     53  C   UNL A   1      40.637  35.572  38.156  1.00  0.00     0.055 A 
ATOM     54  C   UNL A   1      38.697  34.319  38.838  1.00  0.00     0.041 A 
ATOM     55  F   UNL A   1      37.913  32.571  37.480  1.00  0.00    -0.206 F 
ATOM     56  C   UNL A   1      39.636  35.312  39.097  1.00  0.00     0.022 A 
BRANCH  53  57
ATOM     57  S   UNL A   1      41.947  36.742  38.610  1.00  0.00     0.124 S 
ATOM     58  O   UNL A   1      42.532  37.069  37.313  1.00  0.00    -0.237 OA
ATOM     59  O   UNL A   1      41.180  37.812  39.244  1.00  0.00    -0.237 OA
ATOM     60  O   UNL A   1      42.801  35.974  39.510  1.00  0.00    -0.744 OA
ENDBRANCH  53  57
ENDBRANCH  26  50
BRANCH  38  61
ATOM     61  C   UNL A   1      44.202  28.524  35.210  1.00  0.00     0.023 A 
ATOM     62  C   UNL A   1      43.917  27.460  36.088  1.00  0.00     0.031 A 
ATOM     63  C   UNL A   1      45.505  29.048  35.198  1.00  0.00     0.131 A 
ATOM     64  C   UNL A   1      44.907  26.996  36.964  1.00  0.00     0.055 A 
ATOM     65  C   UNL A   1      46.502  28.549  36.039  1.00  0.00     0.041 A 
ATOM     66  F   UNL A   1      45.822  30.066  34.382  1.00  0.00    -0.206 F 
ATOM     67  C   UNL A   1      46.199  27.532  36.940  1.00  0.00     0.022 A 
BRANCH  64  68
ATOM     68  S   UNL A   1      44.528  25.754  38.230  1.00  0.00     0.124 S 
ATOM     69  O   UNL A   1      43.439  25.006  37.606  1.00  0.00    -0.237 OA
ATOM     70  O   UNL A   1      45.794  25.036  38.345  1.00  0.00    -0.237 OA
ATOM     71  O   UNL A   1      44.146  26.545  39.396  1.00  0.00    -0.744 OA
ENDBRANCH  64  68
ENDBRANCH  38  61
ENDBRANCH  12  13
ENDBRANCH   5   7
ENDBRANCH   2   3
ENDBRANCH   1   2
BRANCH   1  72
ATOM     72  C   UNL A   1      31.516  30.759  26.066  1.00  0.00     0.002 C 
BRANCH  72  73
ATOM     73  C   UNL A   1      32.030  29.629  26.963  1.00  0.00     0.002 C 
BRANCH  73  74
ATOM     74  C   UNL A   1      33.551  29.423  26.954  1.00  0.00     0.021 C 
BRANCH  74  75
ATOM     75  C   UNL A   1      34.002  27.992  26.671  1.00  0.00     0.116 C 
BRANCH  75  76
ATOM     76  N   UNL A   1      33.729  27.616  25.296  1.00  0.00    -0.356 N 
ATOM     77  C   UNL A   1      33.754  26.389  24.701  1.00  0.00     0.228 C 
ATOM     78  H   UNL A   1      33.491  28.363  24.700  1.00  0.00     0.163 HD
ATOM     79  O   UNL A   1      33.530  26.339  23.491  1.00  0.00    -0.274 OA
BRANCH  77  80
ATOM     80  C   UNL A   1      34.044  25.161  25.555  1.00  0.00     0.120 C 
ATOM     81  C   UNL A   1      35.143  24.310  24.894  1.00  0.00     0.093 C 
ATOM     82  C   UNL A   1      32.830  24.291  25.773  1.00  0.00    -0.021 A 
ATOM     83  S   UNL A   1      34.472  22.667  24.486  1.00  0.00    -0.125 SA
ATOM     84  C   UNL A   1      32.926  22.996  25.268  1.00  0.00     0.011 A 
ATOM     85  C   UNL A   1      31.665  24.708  26.416  1.00  0.00     0.006 A 
ATOM     86  C   UNL A   1      31.872  22.103  25.391  1.00  0.00     0.015 A 
ATOM     87  C   UNL A   1      30.599  23.818  26.539  1.00  0.00     0.000 A 
ATOM     88  C   UNL A   1      30.701  22.519  26.029  1.00  0.00     0.001 A 
ENDBRANCH  77  80
ENDBRANCH  75  76
ENDBRANCH  74  75
ENDBRANCH  73  74
ENDBRANCH  72  73
ENDBRANCH   1  72
TORSDOF 16
ENDMDL
MODEL 3
REMARK VINA RESULT:     -11.1      0.431      7.988
REMARK SMILES O=C(NCCCCCCNC(=O)[C@@H]1CSc2ccccc21)c1ccc(-c2c3nc(c(-c4cc(S(=O)(=O)[O-])ccc4F)c4ccc([nH]4)c(-c4cc(S(=O)(=O)[O-])ccc4F)c4nc(c(-c5cc(S(=O)(=O)[O-])ccc5F)c5ccc2[nH]5)C=C4)C=C3)cc1
REMARK SMILES IDX 5 1 4 2 3 3 1 4 2 5 22 7 23 8 84 9 24 10 83 11 25 12 26 13
REMARK SMILES IDX 27 14 77 15 28 16 82 17 76 18 78 19 29 20 81 21 75 22 74 23
REMARK SMILES IDX 30 25 62 26 42 27 61 28 43 29 46 30 60 31 79 32 44 33 45 34
REMARK SMILES IDX 59 36 80 37 47 38 31 39 32 40 40 41 33 42 39 43 41 44 38 45
REMARK SMILES IDX 34 46 35 47 36 48 37 49 63 50 64 51 72 52 65 53 71 54 73 55
REMARK SMILES IDX 70 56 66 57 67 58 68 59 69 60 48 61 49 62 57 63 50 64 56 65
REMARK SMILES IDX 58 66 55 67 51 68 52 69 53 70 54 71 6 72 7 73 8 74 9 75
REMARK SMILES IDX 10 76 11 77 12 79 13 80 14 81 21 82 15 83 16 84 20 85 17 86
REMARK SMILES IDX 19 87 18 88
REMARK H PARENT 3 6 78 24 46 35 10 78
REMARK Flexibility Score: inf
ROOT
ATOM      1  C   UNL A   1      31.607  31.785  26.538  1.00  0.00     0.021 C 
ENDROOT
BRANCH   1   2
ATOM      2  C   UNL A   1      32.798  32.373  27.291  1.00  0.00     0.116 C 
BRANCH   2   3
ATOM      3  N   UNL A   1      32.585  33.767  27.642  1.00  0.00    -0.352 N 
ATOM      4  O   UNL A   1      32.746  35.630  28.890  1.00  0.00    -0.269 OA
ATOM      5  C   UNL A   1      33.194  34.518  28.613  1.00  0.00     0.251 C 
ATOM      6  H   UNL A   1      31.907  34.238  27.106  1.00  0.00     0.163 HD
BRANCH   5   7
ATOM      7  C   UNL A   1      34.382  34.001  29.325  1.00  0.00     0.039 A 
ATOM      8  C   UNL A   1      35.653  34.365  28.866  1.00  0.00     0.014 A 
ATOM      9  C   UNL A   1      34.251  33.112  30.396  1.00  0.00     0.014 A 
ATOM     10  C   UNL A   1      36.791  33.850  29.490  1.00  0.00     0.010 A 
ATOM     11  C   UNL A   1      35.387  32.641  31.051  1.00  0.00     0.010 A 
ATOM     12  C   UNL A   1      36.665  32.987  30.587  1.00  0.00    -0.014 A 
BRANCH  12  13
ATOM     13  C   UNL A   1      37.856  32.388  31.240  1.00  0.00     0.031 A 
ATOM     14  C   UNL A   1      38.561  31.234  30.588  1.00  0.00     0.074 A 
ATOM     15  C   UNL A   1      38.258  32.833  32.445  1.00  0.00     0.049 A 
ATOM     16  N   UNL A   1      39.557  30.516  31.036  1.00  0.00    -0.248 NA
ATOM     17  C   UNL A   1      38.066  30.815  29.266  1.00  0.00     0.031 C 
ATOM     18  C   UNL A   1      37.632  33.931  33.181  1.00  0.00     0.029 A 
ATOM     19  N   UNL A   1      39.269  32.407  33.270  1.00  0.00    -0.354 N 
ATOM     20  C   UNL A   1      39.792  29.549  30.065  1.00  0.00     0.074 A 
ATOM     21  C   UNL A   1      38.808  29.745  29.026  1.00  0.00     0.031 C 
ATOM     22  C   UNL A   1      38.275  34.095  34.346  1.00  0.00     0.029 A 
ATOM     23  C   UNL A   1      39.328  33.086  34.463  1.00  0.00     0.049 A 
ATOM     24  H   UNL A   1      39.892  31.684  33.029  1.00  0.00     0.167 HD
ATOM     25  C   UNL A   1      40.757  28.600  30.039  1.00  0.00     0.034 A 
ATOM     26  C   UNL A   1      40.125  32.909  35.538  1.00  0.00     0.034 A 
ATOM     27  C   UNL A   1      41.755  28.449  31.064  1.00  0.00     0.049 A 
ATOM     28  C   UNL A   1      41.182  31.836  35.499  1.00  0.00     0.074 A 
ATOM     29  C   UNL A   1      42.843  27.596  31.073  1.00  0.00     0.029 A 
ATOM     30  N   UNL A   1      41.787  29.154  32.259  1.00  0.00    -0.354 N 
ATOM     31  N   UNL A   1      41.464  30.997  34.528  1.00  0.00    -0.248 NA
ATOM     32  C   UNL A   1      42.030  31.678  36.688  1.00  0.00     0.031 C 
ATOM     33  C   UNL A   1      43.494  27.735  32.299  1.00  0.00     0.029 A 
ATOM     34  C   UNL A   1      42.851  28.721  33.033  1.00  0.00     0.049 A 
ATOM     35  H   UNL A   1      41.149  29.857  32.518  1.00  0.00     0.167 HD
ATOM     36  C   UNL A   1      42.527  30.222  34.983  1.00  0.00     0.074 A 
ATOM     37  C   UNL A   1      42.853  30.705  36.310  1.00  0.00     0.031 C 
ATOM     38  C   UNL A   1      43.171  29.205  34.356  1.00  0.00     0.034 A 
BRANCH  25  39
ATOM     39  C   UNL A   1      40.806  27.655  28.866  1.00  0.00     0.023 A 
ATOM     40  C   UNL A   1      41.779  27.831  27.865  1.00  0.00     0.031 A 
ATOM     41  C   UNL A   1      39.834  26.655  28.683  1.00  0.00     0.131 A 
ATOM     42  C   UNL A   1      41.749  27.030  26.718  1.00  0.00     0.055 A 
ATOM     43  C   UNL A   1      39.831  25.835  27.554  1.00  0.00     0.041 A 
ATOM     44  F   UNL A   1      38.882  26.452  29.608  1.00  0.00    -0.206 F 
ATOM     45  C   UNL A   1      40.786  26.028  26.561  1.00  0.00     0.022 A 
BRANCH  42  46
ATOM     46  S   UNL A   1      42.923  27.290  25.360  1.00  0.00     0.124 S 
ATOM     47  O   UNL A   1      42.934  25.975  24.721  1.00  0.00    -0.237 OA
ATOM     48  O   UNL A   1      42.275  28.350  24.594  1.00  0.00    -0.237 OA
ATOM     49  O   UNL A   1      44.162  27.663  26.033  1.00  0.00    -0.744 OA
ENDBRANCH  42  46
ENDBRANCH  25  39
BRANCH  26  50
ATOM     50  C   UNL A   1      39.957  33.820  36.707  1.00  0.00     0.023 A 
ATOM     51  C   UNL A   1      39.425  33.345  37.920  1.00  0.00     0.031 A 
ATOM     52  C   UNL A   1      40.177  35.200  36.574  1.00  0.00     0.131 A 
ATOM     53  C   UNL A   1      39.047  34.254  38.918  1.00  0.00     0.055 A 
ATOM     54  C   UNL A   1      39.866  36.096  37.600  1.00  0.00     0.041 A 
ATOM     55  F   UNL A   1      40.673  35.698  35.432  1.00  0.00    -0.206 F 
ATOM     56  C   UNL A   1      39.279  35.625  38.770  1.00  0.00     0.022 A 
BRANCH  53  57
ATOM     57  S   UNL A   1      38.116  33.701  40.373  1.00  0.00     0.124 S 
ATOM     58  O   UNL A   1      38.840  32.496  40.764  1.00  0.00    -0.237 OA
ATOM     59  O   UNL A   1      38.264  34.845  41.270  1.00  0.00    -0.237 OA
ATOM     60  O   UNL A   1      36.767  33.487  39.860  1.00  0.00    -0.744 OA
ENDBRANCH  53  57
ENDBRANCH  26  50
BRANCH  38  61
ATOM     61  C   UNL A   1      44.291  28.497  35.078  1.00  0.00     0.023 A 
ATOM     62  C   UNL A   1      44.000  27.463  35.990  1.00  0.00     0.031 A 
ATOM     63  C   UNL A   1      45.612  28.972  35.008  1.00  0.00     0.131 A 
ATOM     64  C   UNL A   1      45.004  26.983  36.841  1.00  0.00     0.055 A 
ATOM     65  C   UNL A   1      46.619  28.455  35.825  1.00  0.00     0.041 A 
ATOM     66  F   UNL A   1      45.935  29.959  34.158  1.00  0.00    -0.206 F 
ATOM     67  C   UNL A   1      46.312  27.469  36.759  1.00  0.00     0.022 A 
BRANCH  64  68
ATOM     68  S   UNL A   1      44.626  25.784  38.149  1.00  0.00     0.124 S 
ATOM     69  O   UNL A   1      43.519  26.434  38.846  1.00  0.00    -0.237 OA
ATOM     70  O   UNL A   1      44.268  24.594  37.381  1.00  0.00    -0.237 OA
ATOM     71  O   UNL A   1      45.868  25.691  38.910  1.00  0.00    -0.744 OA
ENDBRANCH  64  68
ENDBRANCH  38  61
ENDBRANCH  12  13
ENDBRANCH   5   7
ENDBRANCH   2   3
ENDBRANCH   1   2
BRANCH   1  72
ATOM     72  C   UNL A   1      31.807  30.357  26.025  1.00  0.00     0.002 C 
BRANCH  72  73
ATOM     73  C   UNL A   1      32.917  29.560  26.719  1.00  0.00     0.002 C 
BRANCH  73  74
ATOM     74  C   UNL A   1      32.481  28.221  27.328  1.00  0.00     0.021 C 
BRANCH  74  75
ATOM     75  C   UNL A   1      32.310  27.084  26.323  1.00  0.00     0.116 C 
BRANCH  75  76
ATOM     76  N   UNL A   1      31.827  25.878  26.969  1.00  0.00    -0.356 N 
ATOM     77  C   UNL A   1      31.765  24.598  26.503  1.00  0.00     0.228 C 
ATOM     78  H   UNL A   1      31.490  26.004  27.886  1.00  0.00     0.163 HD
ATOM     79  O   UNL A   1      31.259  23.749  27.238  1.00  0.00    -0.274 OA
BRANCH  77  80
ATOM     80  C   UNL A   1      32.326  24.288  25.120  1.00  0.00     0.120 C 
ATOM     81  C   UNL A   1      31.416  23.280  24.399  1.00  0.00     0.093 C 
ATOM     82  C   UNL A   1      33.726  23.727  25.162  1.00  0.00    -0.021 A 
ATOM     83  S   UNL A   1      32.355  21.758  24.054  1.00  0.00    -0.125 SA
ATOM     84  C   UNL A   1      33.868  22.440  24.649  1.00  0.00     0.011 A 
ATOM     85  C   UNL A   1      34.833  24.401  25.678  1.00  0.00     0.006 A 
ATOM     86  C   UNL A   1      35.101  21.805  24.644  1.00  0.00     0.015 A 
ATOM     87  C   UNL A   1      36.076  23.769  25.681  1.00  0.00     0.000 A 
ATOM     88  C   UNL A   1      36.211  22.475  25.165  1.00  0.00     0.001 A 
ENDBRANCH  77  80
ENDBRANCH  75  76
ENDBRANCH  74  75
ENDBRANCH  73  74
ENDBRANCH  72  73
ENDBRANCH   1  72
TORSDOF 16
ENDMDL
