MODEL 1
REMARK VINA RESULT:     -12.5      0.000      0.000
REMARK SMILES O=C(NCCCCCCNC(=O)c1cccc(Nc2ccnc3ccc(Cl)cc23)c1)c1ccc(-c2c3nc(c(-c4cc(S(=O)(=O)[O-])ccc4F)c4ccc([nH]4)c(-c4cc(S(=O)(=O)[O-])ccc4F)c4nc(c(-c5cc(S(=O)(=O)[O-])ccc5F)c5ccc2[nH]5)C=C4)C=C3)cc1
REMARK SMILES IDX 6 1 5 2 4 3 3 4 1 5 2 6 31 8 32 9 93 10 33 11 92 12 34 13
REMARK SMILES IDX 35 14 36 15 86 16 37 17 91 18 85 19 87 20 38 21 90 22 84 23
REMARK SMILES IDX 83 24 39 26 71 27 51 28 70 29 52 30 55 31 69 32 88 33 53 34
REMARK SMILES IDX 54 35 68 37 89 38 56 39 40 40 41 41 49 42 42 43 48 44 50 45
REMARK SMILES IDX 47 46 43 47 44 48 45 49 46 50 72 51 73 52 81 53 74 54 80 55
REMARK SMILES IDX 82 56 79 57 75 58 76 59 77 60 78 61 57 62 58 63 66 64 59 65
REMARK SMILES IDX 65 66 67 67 64 68 60 69 61 70 62 71 63 72 7 73 8 74 9 75
REMARK SMILES IDX 10 76 11 77 12 79 13 80 14 81 30 82 15 83 17 84 16 85 18 86
REMARK SMILES IDX 19 88 20 89 29 90 21 91 23 92 28 93 22 94 24 95 26 96 25 97
REMARK SMILES IDX 27 98
REMARK H PARENT 3 7 87 25 55 36 10 78 18 87
REMARK Flexibility Score: inf
ROOT
ATOM      1  C   UNL A   1      34.483  21.902  24.119  1.00  0.00     0.002 C 
ENDROOT
BRANCH   1   2
ATOM      2  C   UNL A   1      35.976  22.197  23.982  1.00  0.00     0.021 C 
BRANCH   2   3
ATOM      3  C   UNL A   1      36.750  22.316  25.291  1.00  0.00     0.116 C 
BRANCH   3   4
ATOM      4  N   UNL A   1      37.697  21.231  25.506  1.00  0.00    -0.352 N 
ATOM      5  O   UNL A   1      39.663  20.252  26.020  1.00  0.00    -0.269 OA
ATOM      6  C   UNL A   1      38.976  21.261  26.028  1.00  0.00     0.251 C 
ATOM      7  H   UNL A   1      37.378  20.339  25.237  1.00  0.00     0.163 HD
BRANCH   6   8
ATOM      8  C   UNL A   1      39.521  22.530  26.570  1.00  0.00     0.039 A 
ATOM      9  C   UNL A   1      39.006  23.761  26.164  1.00  0.00     0.014 A 
ATOM     10  C   UNL A   1      40.577  22.487  27.488  1.00  0.00     0.014 A 
ATOM     11  C   UNL A   1      39.663  24.934  26.516  1.00  0.00     0.010 A 
ATOM     12  C   UNL A   1      41.172  23.677  27.923  1.00  0.00     0.010 A 
ATOM     13  C   UNL A   1      40.754  24.912  27.400  1.00  0.00    -0.014 A 
BRANCH  13  14
ATOM     14  C   UNL A   1      41.425  26.194  27.760  1.00  0.00     0.031 A 
ATOM     15  C   UNL A   1      42.789  26.538  27.219  1.00  0.00     0.074 A 
ATOM     16  C   UNL A   1      40.768  27.078  28.537  1.00  0.00     0.049 A 
ATOM     17  N   UNL A   1      43.495  27.628  27.390  1.00  0.00    -0.248 NA
ATOM     18  C   UNL A   1      43.452  25.523  26.388  1.00  0.00     0.031 C 
ATOM     19  C   UNL A   1      39.442  26.859  29.123  1.00  0.00     0.029 A 
ATOM     20  N   UNL A   1      41.103  28.344  28.947  1.00  0.00    -0.354 N 
ATOM     21  C   UNL A   1      44.691  27.425  26.708  1.00  0.00     0.074 A 
ATOM     22  C   UNL A   1      44.627  26.090  26.152  1.00  0.00     0.031 C 
ATOM     23  C   UNL A   1      39.052  27.971  29.761  1.00  0.00     0.029 A 
ATOM     24  C   UNL A   1      40.126  28.956  29.698  1.00  0.00     0.049 A 
ATOM     25  H   UNL A   1      41.961  28.772  28.724  1.00  0.00     0.167 HD
ATOM     26  C   UNL A   1      45.737  28.276  26.552  1.00  0.00     0.034 A 
ATOM     27  C   UNL A   1      40.099  30.168  30.287  1.00  0.00     0.034 A 
ATOM     28  C   UNL A   1      45.781  29.609  27.108  1.00  0.00     0.049 A 
ATOM     29  C   UNL A   1      41.290  31.076  30.130  1.00  0.00     0.074 A 
ATOM     30  C   UNL A   1      46.777  30.564  26.983  1.00  0.00     0.029 A 
ATOM     31  N   UNL A   1      44.794  30.176  27.905  1.00  0.00    -0.354 N 
ATOM     32  N   UNL A   1      42.401  30.875  29.462  1.00  0.00    -0.248 NA
ATOM     33  C   UNL A   1      41.214  32.379  30.801  1.00  0.00     0.031 C 
ATOM     34  C   UNL A   1      46.429  31.672  27.763  1.00  0.00     0.029 A 
ATOM     35  C   UNL A   1      45.173  31.452  28.304  1.00  0.00     0.049 A 
ATOM     36  H   UNL A   1      43.948  29.738  28.152  1.00  0.00     0.167 HD
ATOM     37  C   UNL A   1      43.144  32.044  29.605  1.00  0.00     0.074 A 
ATOM     38  C   UNL A   1      42.343  32.948  30.406  1.00  0.00     0.031 C 
ATOM     39  C   UNL A   1      44.374  32.344  29.113  1.00  0.00     0.034 A 
BRANCH  26  40
ATOM     40  C   UNL A   1      46.944  27.770  25.790  1.00  0.00     0.023 A 
ATOM     41  C   UNL A   1      47.157  28.082  24.437  1.00  0.00     0.031 A 
ATOM     42  C   UNL A   1      47.888  26.944  26.427  1.00  0.00     0.131 A 
ATOM     43  C   UNL A   1      48.239  27.514  23.745  1.00  0.00     0.055 A 
ATOM     44  C   UNL A   1      49.010  26.450  25.758  1.00  0.00     0.041 A 
ATOM     45  F   UNL A   1      47.732  26.592  27.713  1.00  0.00    -0.206 F 
ATOM     46  C   UNL A   1      49.182  26.721  24.404  1.00  0.00     0.022 A 
BRANCH  43  47
ATOM     47  S   UNL A   1      48.313  27.702  21.942  1.00  0.00     0.124 S 
ATOM     48  O   UNL A   1      49.452  28.604  21.785  1.00  0.00    -0.237 OA
ATOM     49  O   UNL A   1      48.521  26.331  21.490  1.00  0.00    -0.237 OA
ATOM     50  O   UNL A   1      47.017  28.284  21.603  1.00  0.00    -0.744 OA
ENDBRANCH  43  47
ENDBRANCH  26  40
BRANCH  27  51
ATOM     51  C   UNL A   1      38.917  30.586  31.094  1.00  0.00     0.023 A 
ATOM     52  C   UNL A   1      37.876  31.333  30.521  1.00  0.00     0.031 A 
ATOM     53  C   UNL A   1      38.831  30.279  32.464  1.00  0.00     0.131 A 
ATOM     54  C   UNL A   1      36.818  31.788  31.323  1.00  0.00     0.055 A 
ATOM     55  C   UNL A   1      37.746  30.681  33.244  1.00  0.00     0.041 A 
ATOM     56  F   UNL A   1      39.798  29.566  33.062  1.00  0.00    -0.206 F 
ATOM     57  C   UNL A   1      36.738  31.453  32.677  1.00  0.00     0.022 A 
BRANCH  54  58
ATOM     58  S   UNL A   1      35.593  32.905  30.590  1.00  0.00     0.124 S 
ATOM     59  O   UNL A   1      34.363  32.462  31.237  1.00  0.00    -0.237 OA
ATOM     60  O   UNL A   1      36.096  34.214  30.995  1.00  0.00    -0.237 OA
ATOM     61  O   UNL A   1      35.685  32.619  29.160  1.00  0.00    -0.744 OA
ENDBRANCH  54  58
ENDBRANCH  27  51
BRANCH  39  62
ATOM     62  C   UNL A   1      44.896  33.736  29.383  1.00  0.00     0.023 A 
ATOM     63  C   UNL A   1      44.625  34.815  28.522  1.00  0.00     0.031 A 
ATOM     64  C   UNL A   1      45.713  33.977  30.503  1.00  0.00     0.131 A 
ATOM     65  C   UNL A   1      45.224  36.062  28.754  1.00  0.00     0.055 A 
ATOM     66  C   UNL A   1      46.247  35.238  30.768  1.00  0.00     0.041 A 
ATOM     67  F   UNL A   1      46.011  32.985  31.357  1.00  0.00    -0.206 F 
ATOM     68  C   UNL A   1      46.018  36.286  29.881  1.00  0.00     0.022 A 
BRANCH  65  69
ATOM     69  S   UNL A   1      45.054  37.358  27.494  1.00  0.00     0.124 S 
ATOM     70  O   UNL A   1      43.660  37.205  27.089  1.00  0.00    -0.237 OA
ATOM     71  O   UNL A   1      45.370  38.567  28.247  1.00  0.00    -0.237 OA
ATOM     72  O   UNL A   1      46.039  36.983  26.481  1.00  0.00    -0.744 OA
ENDBRANCH  65  69
ENDBRANCH  39  62
ENDBRANCH  13  14
ENDBRANCH   6   8
ENDBRANCH   3   4
ENDBRANCH   2   3
ENDBRANCH   1   2
BRANCH   1  73
ATOM     73  C   UNL A   1      34.115  20.563  24.766  1.00  0.00     0.002 C 
BRANCH  73  74
ATOM     74  C   UNL A   1      33.300  20.624  26.064  1.00  0.00     0.021 C 
BRANCH  74  75
ATOM     75  C   UNL A   1      33.543  21.830  26.975  1.00  0.00     0.116 C 
BRANCH  75  76
ATOM     76  N   UNL A   1      32.338  22.376  27.579  1.00  0.00    -0.352 N 
ATOM     77  C   UNL A   1      31.305  23.046  26.962  1.00  0.00     0.251 C 
ATOM     78  H   UNL A   1      32.248  22.249  28.551  1.00  0.00     0.163 HD
ATOM     79  O   UNL A   1      30.235  23.229  27.530  1.00  0.00    -0.269 OA
BRANCH  77  80
ATOM     80  C   UNL A   1      31.538  23.654  25.637  1.00  0.00     0.041 A 
ATOM     81  C   UNL A   1      31.061  22.933  24.537  1.00  0.00     0.014 A 
ATOM     82  C   UNL A   1      32.209  24.883  25.476  1.00  0.00     0.039 A 
ATOM     83  C   UNL A   1      31.204  23.457  23.264  1.00  0.00     0.003 A 
ATOM     84  C   UNL A   1      32.360  25.419  24.187  1.00  0.00     0.039 A 
ATOM     85  C   UNL A   1      31.836  24.687  23.099  1.00  0.00     0.026 A 
BRANCH  84  86
ATOM     86  N   UNL A   1      32.856  26.727  23.947  1.00  0.00    -0.355 N 
ATOM     87  H   UNL A   1      33.692  26.822  23.435  1.00  0.00     0.167 HD
BRANCH  86  88
ATOM     88  C   UNL A   1      32.209  27.908  24.409  1.00  0.00     0.050 A 
ATOM     89  C   UNL A   1      31.023  28.269  23.755  1.00  0.00     0.047 A 
ATOM     90  C   UNL A   1      32.727  28.776  25.414  1.00  0.00     0.025 A 
ATOM     91  C   UNL A   1      30.482  29.509  23.983  1.00  0.00     0.114 A 
ATOM     92  C   UNL A   1      31.977  29.954  25.667  1.00  0.00     0.072 A 
ATOM     93  C   UNL A   1      33.932  28.600  26.147  1.00  0.00     0.033 A 
ATOM     94  N   UNL A   1      30.927  30.339  24.936  1.00  0.00    -0.256 NA
ATOM     95  C   UNL A   1      32.331  30.799  26.706  1.00  0.00     0.030 A 
ATOM     96  C   UNL A   1      34.302  29.512  27.145  1.00  0.00     0.041 A 
ATOM     97  C   UNL A   1      33.478  30.583  27.464  1.00  0.00     0.023 A 
ATOM     98  Cl  UNL A   1      35.797  29.337  27.981  1.00  0.00    -0.084 Cl
ENDBRANCH  86  88
ENDBRANCH  84  86
ENDBRANCH  77  80
ENDBRANCH  75  76
ENDBRANCH  74  75
ENDBRANCH  73  74
ENDBRANCH   1  73
TORSDOF 18
ENDMDL
MODEL 2
REMARK VINA RESULT:     -12.0      1.812      2.217
REMARK SMILES O=C(NCCCCCCNC(=O)c1cccc(Nc2ccnc3ccc(Cl)cc23)c1)c1ccc(-c2c3nc(c(-c4cc(S(=O)(=O)[O-])ccc4F)c4ccc([nH]4)c(-c4cc(S(=O)(=O)[O-])ccc4F)c4nc(c(-c5cc(S(=O)(=O)[O-])ccc5F)c5ccc2[nH]5)C=C4)C=C3)cc1
REMARK SMILES IDX 6 1 5 2 4 3 3 4 1 5 2 6 31 8 32 9 93 10 33 11 92 12 34 13
REMARK SMILES IDX 35 14 36 15 86 16 37 17 91 18 85 19 87 20 38 21 90 22 84 23
REMARK SMILES IDX 83 24 39 26 71 27 51 28 70 29 52 30 55 31 69 32 88 33 53 34
REMARK SMILES IDX 54 35 68 37 89 38 56 39 40 40 41 41 49 42 42 43 48 44 50 45
REMARK SMILES IDX 47 46 43 47 44 48 45 49 46 50 72 51 73 52 81 53 74 54 80 55
REMARK SMILES IDX 82 56 79 57 75 58 76 59 77 60 78 61 57 62 58 63 66 64 59 65
REMARK SMILES IDX 65 66 67 67 64 68 60 69 61 70 62 71 63 72 7 73 8 74 9 75
REMARK SMILES IDX 10 76 11 77 12 79 13 80 14 81 30 82 15 83 17 84 16 85 18 86
REMARK SMILES IDX 19 88 20 89 29 90 21 91 23 92 28 93 22 94 24 95 26 96 25 97
REMARK SMILES IDX 27 98
REMARK H PARENT 3 7 87 25 55 36 10 78 18 87
REMARK Flexibility Score: inf
ROOT
ATOM      1  C   UNL A   1      34.719  22.528  24.062  1.00  0.00     0.002 C 
ENDROOT
BRANCH   1   2
ATOM      2  C   UNL A   1      36.204  22.167  24.034  1.00  0.00     0.021 C 
BRANCH   2   3
ATOM      3  C   UNL A   1      36.959  22.367  25.344  1.00  0.00     0.116 C 
BRANCH   3   4
ATOM      4  N   UNL A   1      37.993  21.368  25.576  1.00  0.00    -0.352 N 
ATOM      5  O   UNL A   1      40.025  20.564  26.131  1.00  0.00    -0.269 OA
ATOM      6  C   UNL A   1      39.253  21.508  26.127  1.00  0.00     0.251 C 
ATOM      7  H   UNL A   1      37.759  20.453  25.297  1.00  0.00     0.163 HD
BRANCH   6   8
ATOM      8  C   UNL A   1      39.671  22.816  26.686  1.00  0.00     0.039 A 
ATOM      9  C   UNL A   1      39.219  24.011  26.126  1.00  0.00     0.014 A 
ATOM     10  C   UNL A   1      40.545  22.848  27.778  1.00  0.00     0.014 A 
ATOM     11  C   UNL A   1      39.783  25.217  26.524  1.00  0.00     0.010 A 
ATOM     12  C   UNL A   1      41.034  24.074  28.245  1.00  0.00     0.010 A 
ATOM     13  C   UNL A   1      40.698  25.269  27.588  1.00  0.00    -0.014 A 
BRANCH  13  14
ATOM     14  C   UNL A   1      41.273  26.584  27.990  1.00  0.00     0.031 A 
ATOM     15  C   UNL A   1      42.677  26.971  27.603  1.00  0.00     0.074 A 
ATOM     16  C   UNL A   1      40.497  27.458  28.662  1.00  0.00     0.049 A 
ATOM     17  N   UNL A   1      43.317  28.093  27.826  1.00  0.00    -0.248 NA
ATOM     18  C   UNL A   1      43.471  25.967  26.881  1.00  0.00     0.031 C 
ATOM     19  C   UNL A   1      39.121  27.198  29.095  1.00  0.00     0.029 A 
ATOM     20  N   UNL A   1      40.734  28.746  29.075  1.00  0.00    -0.354 N 
ATOM     21  C   UNL A   1      44.591  27.924  27.293  1.00  0.00     0.074 A 
ATOM     22  C   UNL A   1      44.644  26.575  26.769  1.00  0.00     0.031 C 
ATOM     23  C   UNL A   1      38.617  28.308  29.654  1.00  0.00     0.029 A 
ATOM     24  C   UNL A   1      39.653  29.334  29.690  1.00  0.00     0.049 A 
ATOM     25  H   UNL A   1      41.595  29.203  28.942  1.00  0.00     0.167 HD
ATOM     26  C   UNL A   1      45.616  28.813  27.238  1.00  0.00     0.034 A 
ATOM     27  C   UNL A   1      39.512  30.556  30.240  1.00  0.00     0.034 A 
ATOM     28  C   UNL A   1      45.545  30.159  27.760  1.00  0.00     0.049 A 
ATOM     29  C   UNL A   1      40.677  31.508  30.199  1.00  0.00     0.074 A 
ATOM     30  C   UNL A   1      46.512  31.150  27.726  1.00  0.00     0.029 A 
ATOM     31  N   UNL A   1      44.450  30.702  28.422  1.00  0.00    -0.354 N 
ATOM     32  N   UNL A   1      41.866  31.338  29.670  1.00  0.00    -0.248 NA
ATOM     33  C   UNL A   1      40.475  32.821  30.821  1.00  0.00     0.031 C 
ATOM     34  C   UNL A   1      46.033  32.259  28.432  1.00  0.00     0.029 A 
ATOM     35  C   UNL A   1      44.731  32.000  28.828  1.00  0.00     0.049 A 
ATOM     36  H   UNL A   1      43.598  30.236  28.580  1.00  0.00     0.167 HD
ATOM     37  C   UNL A   1      42.543  32.539  29.868  1.00  0.00     0.074 A 
ATOM     38  C   UNL A   1      41.620  33.426  30.546  1.00  0.00     0.031 C 
ATOM     39  C   UNL A   1      43.810  32.877  29.515  1.00  0.00     0.034 A 
BRANCH  26  40
ATOM     40  C   UNL A   1      46.922  28.340  26.635  1.00  0.00     0.023 A 
ATOM     41  C   UNL A   1      47.129  28.289  25.246  1.00  0.00     0.031 A 
ATOM     42  C   UNL A   1      47.973  27.913  27.468  1.00  0.00     0.131 A 
ATOM     43  C   UNL A   1      48.320  27.755  24.731  1.00  0.00     0.055 A 
ATOM     44  C   UNL A   1      49.189  27.462  26.952  1.00  0.00     0.041 A 
ATOM     45  F   UNL A   1      47.832  27.917  28.804  1.00  0.00    -0.206 F 
ATOM     46  C   UNL A   1      49.363  27.365  25.575  1.00  0.00     0.022 A 
BRANCH  43  47
ATOM     47  S   UNL A   1      48.430  27.435  22.948  1.00  0.00     0.124 S 
ATOM     48  O   UNL A   1      49.758  27.958  22.634  1.00  0.00    -0.237 OA
ATOM     49  O   UNL A   1      48.283  25.985  22.878  1.00  0.00    -0.237 OA
ATOM     50  O   UNL A   1      47.319  28.204  22.391  1.00  0.00    -0.744 OA
ENDBRANCH  43  47
ENDBRANCH  26  40
BRANCH  27  51
ATOM     51  C   UNL A   1      38.228  30.944  30.892  1.00  0.00     0.023 A 
ATOM     52  C   UNL A   1      37.242  31.652  30.188  1.00  0.00     0.031 A 
ATOM     53  C   UNL A   1      37.985  30.645  32.245  1.00  0.00     0.131 A 
ATOM     54  C   UNL A   1      36.082  32.080  30.851  1.00  0.00     0.055 A 
ATOM     55  C   UNL A   1      36.802  31.019  32.883  1.00  0.00     0.041 A 
ATOM     56  F   UNL A   1      38.893  29.968  32.965  1.00  0.00    -0.206 F 
ATOM     57  C   UNL A   1      35.847  31.755  32.189  1.00  0.00     0.022 A 
BRANCH  54  58
ATOM     58  S   UNL A   1      34.921  33.152  29.961  1.00  0.00     0.124 S 
ATOM     59  O   UNL A   1      34.030  33.580  31.034  1.00  0.00    -0.237 OA
ATOM     60  O   UNL A   1      35.809  34.175  29.418  1.00  0.00    -0.237 OA
ATOM     61  O   UNL A   1      34.323  32.259  28.972  1.00  0.00    -0.744 OA
ENDBRANCH  54  58
ENDBRANCH  27  51
BRANCH  39  62
ATOM     62  C   UNL A   1      44.244  34.295  29.806  1.00  0.00     0.023 A 
ATOM     63  C   UNL A   1      44.969  34.630  30.964  1.00  0.00     0.031 A 
ATOM     64  C   UNL A   1      43.891  35.334  28.927  1.00  0.00     0.131 A 
ATOM     65  C   UNL A   1      45.252  35.975  31.247  1.00  0.00     0.055 A 
ATOM     66  C   UNL A   1      44.238  36.662  29.177  1.00  0.00     0.041 A 
ATOM     67  F   UNL A   1      43.194  35.077  27.808  1.00  0.00    -0.206 F 
ATOM     68  C   UNL A   1      44.907  36.991  30.353  1.00  0.00     0.022 A 
BRANCH  65  69
ATOM     69  S   UNL A   1      45.965  36.393  32.863  1.00  0.00     0.124 S 
ATOM     70  O   UNL A   1      47.085  37.249  32.486  1.00  0.00    -0.237 OA
ATOM     71  O   UNL A   1      44.852  37.058  33.531  1.00  0.00    -0.237 OA
ATOM     72  O   UNL A   1      46.336  35.094  33.421  1.00  0.00    -0.744 OA
ENDBRANCH  65  69
ENDBRANCH  39  62
ENDBRANCH  13  14
ENDBRANCH   6   8
ENDBRANCH   3   4
ENDBRANCH   2   3
ENDBRANCH   1   2
BRANCH   1  73
ATOM     73  C   UNL A   1      33.749  21.379  24.353  1.00  0.00     0.002 C 
BRANCH  73  74
ATOM     74  C   UNL A   1      33.515  21.028  25.828  1.00  0.00     0.021 C 
BRANCH  74  75
ATOM     75  C   UNL A   1      33.601  22.180  26.833  1.00  0.00     0.116 C 
BRANCH  75  76
ATOM     76  N   UNL A   1      32.320  22.584  27.390  1.00  0.00    -0.352 N 
ATOM     77  C   UNL A   1      31.301  23.271  26.770  1.00  0.00     0.251 C 
ATOM     78  H   UNL A   1      32.161  22.334  28.329  1.00  0.00     0.163 HD
ATOM     79  O   UNL A   1      30.179  23.326  27.262  1.00  0.00    -0.269 OA
BRANCH  77  80
ATOM     80  C   UNL A   1      31.599  24.050  25.553  1.00  0.00     0.041 A 
ATOM     81  C   UNL A   1      30.962  23.627  24.381  1.00  0.00     0.014 A 
ATOM     82  C   UNL A   1      32.483  25.148  25.554  1.00  0.00     0.039 A 
ATOM     83  C   UNL A   1      31.159  24.331  23.205  1.00  0.00     0.003 A 
ATOM     84  C   UNL A   1      32.689  25.864  24.365  1.00  0.00     0.039 A 
ATOM     85  C   UNL A   1      32.003  25.439  23.206  1.00  0.00     0.026 A 
BRANCH  84  86
ATOM     86  N   UNL A   1      33.413  27.085  24.313  1.00  0.00    -0.355 N 
ATOM     87  H   UNL A   1      34.210  27.130  23.738  1.00  0.00     0.167 HD
BRANCH  86  88
ATOM     88  C   UNL A   1      33.044  28.246  25.051  1.00  0.00     0.050 A 
ATOM     89  C   UNL A   1      33.784  28.512  26.211  1.00  0.00     0.047 A 
ATOM     90  C   UNL A   1      31.936  29.087  24.739  1.00  0.00     0.025 A 
ATOM     91  C   UNL A   1      33.335  29.464  27.090  1.00  0.00     0.114 A 
ATOM     92  C   UNL A   1      31.677  30.141  25.653  1.00  0.00     0.072 A 
ATOM     93  C   UNL A   1      31.048  28.944  23.638  1.00  0.00     0.033 A 
ATOM     94  N   UNL A   1      32.314  30.289  26.819  1.00  0.00    -0.256 NA
ATOM     95  C   UNL A   1      30.700  31.083  25.376  1.00  0.00     0.030 A 
ATOM     96  C   UNL A   1      30.021  29.875  23.423  1.00  0.00     0.041 A 
ATOM     97  C   UNL A   1      29.877  30.974  24.259  1.00  0.00     0.023 A 
ATOM     98  Cl  UNL A   1      28.903  29.661  22.132  1.00  0.00    -0.084 Cl
ENDBRANCH  86  88
ENDBRANCH  84  86
ENDBRANCH  77  80
ENDBRANCH  75  76
ENDBRANCH  74  75
ENDBRANCH  73  74
ENDBRANCH   1  73
TORSDOF 18
ENDMDL
MODEL 3
REMARK VINA RESULT:     -12.0      5.400      8.961
REMARK SMILES O=C(NCCCCCCNC(=O)c1cccc(Nc2ccnc3ccc(Cl)cc23)c1)c1ccc(-c2c3nc(c(-c4cc(S(=O)(=O)[O-])ccc4F)c4ccc([nH]4)c(-c4cc(S(=O)(=O)[O-])ccc4F)c4nc(c(-c5cc(S(=O)(=O)[O-])ccc5F)c5ccc2[nH]5)C=C4)C=C3)cc1
REMARK SMILES IDX 6 1 5 2 4 3 3 4 1 5 2 6 31 8 32 9 93 10 33 11 92 12 34 13
REMARK SMILES IDX 35 14 36 15 86 16 37 17 91 18 85 19 87 20 38 21 90 22 84 23
REMARK SMILES IDX 83 24 39 26 71 27 51 28 70 29 52 30 55 31 69 32 88 33 53 34
REMARK SMILES IDX 54 35 68 37 89 38 56 39 40 40 41 41 49 42 42 43 48 44 50 45
REMARK SMILES IDX 47 46 43 47 44 48 45 49 46 50 72 51 73 52 81 53 74 54 80 55
REMARK SMILES IDX 82 56 79 57 75 58 76 59 77 60 78 61 57 62 58 63 66 64 59 65
REMARK SMILES IDX 65 66 67 67 64 68 60 69 61 70 62 71 63 72 7 73 8 74 9 75
REMARK SMILES IDX 10 76 11 77 12 79 13 80 14 81 30 82 15 83 17 84 16 85 18 86
REMARK SMILES IDX 19 88 20 89 29 90 21 91 23 92 28 93 22 94 24 95 26 96 25 97
REMARK SMILES IDX 27 98
REMARK H PARENT 3 7 87 25 55 36 10 78 18 87
REMARK Flexibility Score: inf
ROOT
ATOM      1  C   UNL A   1      31.763  30.539  26.749  1.00  0.00     0.002 C 
ENDROOT
BRANCH   1   2
ATOM      2  C   UNL A   1      31.647  32.063  26.764  1.00  0.00     0.021 C 
BRANCH   2   3
ATOM      3  C   UNL A   1      32.845  32.812  27.339  1.00  0.00     0.116 C 
BRANCH   3   4
ATOM      4  N   UNL A   1      32.548  34.191  27.701  1.00  0.00    -0.352 N 
ATOM      5  O   UNL A   1      32.620  36.087  28.920  1.00  0.00    -0.269 OA
ATOM      6  C   UNL A   1      33.087  34.981  28.698  1.00  0.00     0.251 C 
ATOM      7  H   UNL A   1      31.856  34.627  27.152  1.00  0.00     0.163 HD
BRANCH   6   8
ATOM      8  C   UNL A   1      34.215  34.471  29.515  1.00  0.00     0.039 A 
ATOM      9  C   UNL A   1      35.529  34.568  29.059  1.00  0.00     0.014 A 
ATOM     10  C   UNL A   1      33.951  33.868  30.749  1.00  0.00     0.014 A 
ATOM     11  C   UNL A   1      36.545  33.900  29.733  1.00  0.00     0.010 A 
ATOM     12  C   UNL A   1      34.994  33.284  31.478  1.00  0.00     0.010 A 
ATOM     13  C   UNL A   1      36.295  33.249  30.951  1.00  0.00    -0.014 A 
BRANCH  13  14
ATOM     14  C   UNL A   1      37.414  32.552  31.647  1.00  0.00     0.031 A 
ATOM     15  C   UNL A   1      38.173  31.435  30.976  1.00  0.00     0.074 A 
ATOM     16  C   UNL A   1      37.784  32.973  32.872  1.00  0.00     0.049 A 
ATOM     17  N   UNL A   1      39.203  30.755  31.416  1.00  0.00    -0.248 NA
ATOM     18  C   UNL A   1      37.709  31.019  29.645  1.00  0.00     0.031 C 
ATOM     19  C   UNL A   1      37.127  34.045  33.626  1.00  0.00     0.029 A 
ATOM     20  N   UNL A   1      38.813  32.579  33.691  1.00  0.00    -0.354 N 
ATOM     21  C   UNL A   1      39.498  29.819  30.429  1.00  0.00     0.074 A 
ATOM     22  C   UNL A   1      38.512  29.997  29.384  1.00  0.00     0.031 C 
ATOM     23  C   UNL A   1      37.803  34.264  34.762  1.00  0.00     0.029 A 
ATOM     24  C   UNL A   1      38.895  33.302  34.859  1.00  0.00     0.049 A 
ATOM     25  H   UNL A   1      39.433  31.850  33.463  1.00  0.00     0.167 HD
ATOM     26  C   UNL A   1      40.503  28.906  30.394  1.00  0.00     0.034 A 
ATOM     27  C   UNL A   1      39.741  33.196  35.902  1.00  0.00     0.034 A 
ATOM     28  C   UNL A   1      41.484  28.747  31.444  1.00  0.00     0.049 A 
ATOM     29  C   UNL A   1      40.822  32.149  35.854  1.00  0.00     0.074 A 
ATOM     30  C   UNL A   1      42.561  27.877  31.494  1.00  0.00     0.029 A 
ATOM     31  N   UNL A   1      41.504  29.464  32.635  1.00  0.00    -0.354 N 
ATOM     32  N   UNL A   1      41.099  31.289  34.902  1.00  0.00    -0.248 NA
ATOM     33  C   UNL A   1      41.708  32.067  37.020  1.00  0.00     0.031 C 
ATOM     34  C   UNL A   1      43.181  28.013  32.740  1.00  0.00     0.029 A 
ATOM     35  C   UNL A   1      42.553  29.032  33.436  1.00  0.00     0.049 A 
ATOM     36  H   UNL A   1      40.868  30.175  32.876  1.00  0.00     0.167 HD
ATOM     37  C   UNL A   1      42.217  30.585  35.343  1.00  0.00     0.074 A 
ATOM     38  C   UNL A   1      42.570  31.137  36.635  1.00  0.00     0.031 C 
ATOM     39  C   UNL A   1      42.893  29.579  34.730  1.00  0.00     0.034 A 
BRANCH  26  40
ATOM     40  C   UNL A   1      40.560  27.973  29.204  1.00  0.00     0.023 A 
ATOM     41  C   UNL A   1      41.490  28.144  28.164  1.00  0.00     0.031 A 
ATOM     42  C   UNL A   1      39.652  26.903  29.099  1.00  0.00     0.131 A 
ATOM     43  C   UNL A   1      41.445  27.311  27.035  1.00  0.00     0.055 A 
ATOM     44  C   UNL A   1      39.666  26.024  28.013  1.00  0.00     0.041 A 
ATOM     45  F   UNL A   1      38.725  26.696  30.048  1.00  0.00    -0.206 F 
ATOM     46  C   UNL A   1      40.556  26.235  26.964  1.00  0.00     0.022 A 
BRANCH  43  47
ATOM     47  S   UNL A   1      42.459  27.745  25.594  1.00  0.00     0.124 S 
ATOM     48  O   UNL A   1      42.340  26.540  24.775  1.00  0.00    -0.237 OA
ATOM     49  O   UNL A   1      41.786  28.933  25.080  1.00  0.00    -0.237 OA
ATOM     50  O   UNL A   1      43.785  27.973  26.163  1.00  0.00    -0.744 OA
ENDBRANCH  43  47
ENDBRANCH  26  40
BRANCH  27  51
ATOM     51  C   UNL A   1      39.591  34.089  37.087  1.00  0.00     0.023 A 
ATOM     52  C   UNL A   1      39.027  33.617  38.283  1.00  0.00     0.031 A 
ATOM     53  C   UNL A   1      39.973  35.441  37.027  1.00  0.00     0.131 A 
ATOM     54  C   UNL A   1      38.817  34.501  39.352  1.00  0.00     0.055 A 
ATOM     55  C   UNL A   1      39.819  36.301  38.115  1.00  0.00     0.041 A 
ATOM     56  F   UNL A   1      40.519  35.944  35.909  1.00  0.00    -0.206 F 
ATOM     57  C   UNL A   1      39.224  35.836  39.282  1.00  0.00     0.022 A 
BRANCH  54  58
ATOM     58  S   UNL A   1      37.917  33.902  40.807  1.00  0.00     0.124 S 
ATOM     59  O   UNL A   1      38.958  33.171  41.521  1.00  0.00    -0.237 OA
ATOM     60  O   UNL A   1      37.470  35.148  41.421  1.00  0.00    -0.237 OA
ATOM     61  O   UNL A   1      36.856  33.076  40.234  1.00  0.00    -0.744 OA
ENDBRANCH  54  58
ENDBRANCH  27  51
BRANCH  39  62
ATOM     62  C   UNL A   1      44.123  29.056  35.434  1.00  0.00     0.023 A 
ATOM     63  C   UNL A   1      44.047  28.081  36.445  1.00  0.00     0.031 A 
ATOM     64  C   UNL A   1      45.392  29.573  35.113  1.00  0.00     0.131 A 
ATOM     65  C   UNL A   1      45.203  27.709  37.147  1.00  0.00     0.055 A 
ATOM     66  C   UNL A   1      46.548  29.145  35.765  1.00  0.00     0.041 A 
ATOM     67  F   UNL A   1      45.527  30.509  34.160  1.00  0.00    -0.206 F 
ATOM     68  C   UNL A   1      46.456  28.221  36.802  1.00  0.00     0.022 A 
BRANCH  65  69
ATOM     69  S   UNL A   1      45.032  26.640  38.603  1.00  0.00     0.124 S 
ATOM     70  O   UNL A   1      45.627  27.460  39.653  1.00  0.00    -0.237 OA
ATOM     71  O   UNL A   1      43.587  26.452  38.683  1.00  0.00    -0.237 OA
ATOM     72  O   UNL A   1      45.793  25.444  38.244  1.00  0.00    -0.744 OA
ENDBRANCH  65  69
ENDBRANCH  39  62
ENDBRANCH  13  14
ENDBRANCH   6   8
ENDBRANCH   3   4
ENDBRANCH   2   3
ENDBRANCH   1   2
BRANCH   1  73
ATOM     73  C   UNL A   1      31.852  29.881  25.369  1.00  0.00     0.002 C 
BRANCH  73  74
ATOM     74  C   UNL A   1      33.233  29.372  24.934  1.00  0.00     0.021 C 
BRANCH  74  75
ATOM     75  C   UNL A   1      33.368  28.900  23.484  1.00  0.00     0.116 C 
BRANCH  75  76
ATOM     76  N   UNL A   1      32.213  29.192  22.650  1.00  0.00    -0.352 N 
ATOM     77  C   UNL A   1      31.054  28.461  22.516  1.00  0.00     0.251 C 
ATOM     78  H   UNL A   1      32.265  30.017  22.115  1.00  0.00     0.163 HD
ATOM     79  O   UNL A   1      30.058  28.939  21.984  1.00  0.00    -0.269 OA
BRANCH  77  80
ATOM     80  C   UNL A   1      31.054  27.040  22.915  1.00  0.00     0.041 A 
ATOM     81  C   UNL A   1      30.123  26.677  23.893  1.00  0.00     0.014 A 
ATOM     82  C   UNL A   1      31.943  26.098  22.359  1.00  0.00     0.039 A 
ATOM     83  C   UNL A   1      30.033  25.354  24.292  1.00  0.00     0.003 A 
ATOM     84  C   UNL A   1      31.858  24.756  22.761  1.00  0.00     0.039 A 
ATOM     85  C   UNL A   1      30.884  24.410  23.722  1.00  0.00     0.026 A 
BRANCH  84  86
ATOM     86  N   UNL A   1      32.584  23.712  22.127  1.00  0.00    -0.355 N 
ATOM     87  H   UNL A   1      32.898  23.856  21.205  1.00  0.00     0.167 HD
BRANCH  86  88
ATOM     88  C   UNL A   1      32.878  22.469  22.755  1.00  0.00     0.050 A 
ATOM     89  C   UNL A   1      32.043  21.391  22.433  1.00  0.00     0.047 A 
ATOM     90  C   UNL A   1      33.892  22.279  23.740  1.00  0.00     0.025 A 
ATOM     91  C   UNL A   1      32.117  20.239  23.176  1.00  0.00     0.114 A 
ATOM     92  C   UNL A   1      33.965  20.984  24.317  1.00  0.00     0.072 A 
ATOM     93  C   UNL A   1      34.796  23.262  24.225  1.00  0.00     0.033 A 
ATOM     94  N   UNL A   1      33.072  20.017  24.089  1.00  0.00    -0.256 NA
ATOM     95  C   UNL A   1      34.991  20.666  25.191  1.00  0.00     0.030 A 
ATOM     96  C   UNL A   1      35.780  22.926  25.166  1.00  0.00     0.041 A 
ATOM     97  C   UNL A   1      35.914  21.617  25.611  1.00  0.00     0.023 A 
ATOM     98  Cl  UNL A   1      36.827  24.132  25.807  1.00  0.00    -0.084 Cl
ENDBRANCH  86  88
ENDBRANCH  84  86
ENDBRANCH  77  80
ENDBRANCH  75  76
ENDBRANCH  74  75
ENDBRANCH  73  74
ENDBRANCH   1  73
TORSDOF 18
ENDMDL
