MODEL 1
REMARK VINA RESULT:     -11.3      0.000      0.000
REMARK SMILES COc1cc(Nc2cn[nH]c(=O)n2)c(C(=O)NCCCCCCNC(=O)c2ccc(-c3c4nc(c(-c5cc(S(=O)(=O)[O-])ccc5F)c5ccc([nH]5)c(-c5cc(S(=O)(=O)[O-])ccc5F)c5nc(c(-c6cc(S(=O)(=O)[O-])ccc6F)c6ccc3[nH]6)C=C5)C=C4)cc2)cc1OC
REMARK SMILES IDX 21 1 20 2 19 3 18 4 17 5 15 6 16 7 14 9 3 10 4 11 91 12 5 13
REMARK SMILES IDX 90 14 2 15 1 16 92 17 93 18 6 19 7 21 8 22 13 23 9 24 11 25
REMARK SMILES IDX 10 26 12 27 22 29 23 30 24 31 25 32 26 34 27 35 28 36 89 37
REMARK SMILES IDX 29 38 88 39 30 40 31 41 32 42 82 43 33 44 87 45 81 46 83 47
REMARK SMILES IDX 34 48 86 49 80 50 79 51 35 53 67 54 47 55 66 56 48 57 51 58
REMARK SMILES IDX 65 59 84 60 49 61 50 62 64 64 85 65 52 66 36 67 37 68 45 69
REMARK SMILES IDX 38 70 44 71 46 72 43 73 39 74 40 75 41 76 42 77 68 78 69 79
REMARK SMILES IDX 77 80 70 81 76 82 78 83 75 84 71 85 72 86 73 87 74 88 53 89
REMARK SMILES IDX 54 90 62 91 55 92 61 93 63 94 60 95 56 96 57 97 58 98 59 99
REMARK H PARENT 17 8 6 20 10 28 24 33 83 52 51 63
REMARK Flexibility Score: inf
ROOT
ATOM      1  C   UNL A   1      33.168  26.654  25.624  1.00  0.00     0.002 C 
ENDROOT
BRANCH   1   2
ATOM      2  C   UNL A   1      31.943  25.744  25.778  1.00  0.00     0.002 C 
BRANCH   2   3
ATOM      3  C   UNL A   1      31.764  24.710  24.657  1.00  0.00     0.021 C 
BRANCH   3   4
ATOM      4  C   UNL A   1      31.096  23.414  25.128  1.00  0.00     0.116 C 
BRANCH   4   5
ATOM      5  N   UNL A   1      31.437  23.160  26.518  1.00  0.00    -0.352 N 
ATOM      6  C   UNL A   1      32.558  22.652  27.121  1.00  0.00     0.253 C 
ATOM      7  O   UNL A   1      32.528  22.511  28.348  1.00  0.00    -0.269 OA
ATOM      8  H   UNL A   1      30.721  23.397  27.151  1.00  0.00     0.163 HD
BRANCH   6   9
ATOM      9  C   UNL A   1      33.828  22.325  26.398  1.00  0.00     0.067 A 
ATOM     10  C   UNL A   1      36.222  21.664  25.075  1.00  0.00     0.162 A 
ATOM     11  C   UNL A   1      35.200  20.714  25.195  1.00  0.00     0.077 A 
ATOM     12  C   UNL A   1      36.029  22.958  25.559  1.00  0.00     0.161 A 
ATOM     13  C   UNL A   1      33.984  21.032  25.827  1.00  0.00     0.057 A 
ATOM     14  C   UNL A   1      34.825  23.284  26.188  1.00  0.00     0.066 A 
BRANCH  10  15
ATOM     15  O   UNL A   1      37.342  21.365  24.348  1.00  0.00    -0.493 OA
ATOM     16  C   UNL A   1      38.105  20.306  24.926  1.00  0.00     0.278 C 
ENDBRANCH  10  15
BRANCH  12  17
ATOM     17  O   UNL A   1      36.896  24.012  25.443  1.00  0.00    -0.493 OA
ATOM     18  C   UNL A   1      37.993  24.013  26.351  1.00  0.00     0.278 C 
ENDBRANCH  12  17
BRANCH  13  19
ATOM     19  N   UNL A   1      32.907  20.105  25.867  1.00  0.00    -0.338 N 
ATOM     20  H   UNL A   1      32.196  20.282  26.524  1.00  0.00     0.168 HD
BRANCH  19  21
ATOM     21  C   UNL A   1      32.758  18.987  25.083  1.00  0.00     0.156 A 
ATOM     22  C   UNL A   1      32.808  17.663  25.812  1.00  0.00     0.180 A 
ATOM     23  N   UNL A   1      32.592  19.012  23.799  1.00  0.00    -0.173 NA
ATOM     24  N   UNL A   1      32.695  16.534  25.194  1.00  0.00    -0.176 NA
ATOM     25  C   UNL A   1      32.510  17.823  23.125  1.00  0.00     0.363 A 
ATOM     26  N   UNL A   1      32.546  16.646  23.846  1.00  0.00    -0.227 N 
ATOM     27  O   UNL A   1      32.409  17.765  21.902  1.00  0.00    -0.244 OA
ATOM     28  H   UNL A   1      32.455  15.809  23.337  1.00  0.00     0.195 HD
ENDBRANCH  19  21
ENDBRANCH  13  19
ENDBRANCH   6   9
ENDBRANCH   4   5
ENDBRANCH   3   4
ENDBRANCH   2   3
ENDBRANCH   1   2
BRANCH   1  29
ATOM     29  C   UNL A   1      32.993  27.825  24.652  1.00  0.00     0.021 C 
BRANCH  29  30
ATOM     30  C   UNL A   1      33.844  29.054  24.972  1.00  0.00     0.116 C 
BRANCH  30  31
ATOM     31  N   UNL A   1      33.027  30.174  25.415  1.00  0.00    -0.352 N 
ATOM     32  C   UNL A   1      33.101  30.897  26.582  1.00  0.00     0.251 C 
ATOM     33  H   UNL A   1      32.322  30.455  24.789  1.00  0.00     0.163 HD
ATOM     34  O   UNL A   1      32.187  31.655  26.889  1.00  0.00    -0.269 OA
BRANCH  32  35
ATOM     35  C   UNL A   1      34.273  30.741  27.471  1.00  0.00     0.039 A 
ATOM     36  C   UNL A   1      34.463  29.528  28.139  1.00  0.00     0.014 A 
ATOM     37  C   UNL A   1      35.184  31.788  27.642  1.00  0.00     0.014 A 
ATOM     38  C   UNL A   1      35.611  29.337  28.913  1.00  0.00     0.010 A 
ATOM     39  C   UNL A   1      36.353  31.577  28.369  1.00  0.00     0.010 A 
ATOM     40  C   UNL A   1      36.585  30.344  28.999  1.00  0.00    -0.014 A 
BRANCH  40  41
ATOM     41  C   UNL A   1      37.878  30.113  29.697  1.00  0.00     0.031 A 
ATOM     42  C   UNL A   1      38.878  29.138  29.141  1.00  0.00     0.074 A 
ATOM     43  C   UNL A   1      38.101  30.715  30.883  1.00  0.00     0.049 A 
ATOM     44  N   UNL A   1      40.003  28.723  29.663  1.00  0.00    -0.248 NA
ATOM     45  C   UNL A   1      38.558  28.531  27.841  1.00  0.00     0.031 C 
ATOM     46  C   UNL A   1      37.181  31.647  31.542  1.00  0.00     0.029 A 
ATOM     47  N   UNL A   1      39.154  30.616  31.758  1.00  0.00    -0.354 N 
ATOM     48  C   UNL A   1      40.520  27.795  28.766  1.00  0.00     0.074 A 
ATOM     49  C   UNL A   1      39.562  27.680  27.686  1.00  0.00     0.031 C 
ATOM     50  C   UNL A   1      37.710  32.033  32.713  1.00  0.00     0.029 A 
ATOM     51  C   UNL A   1      38.980  31.342  32.915  1.00  0.00     0.049 A 
ATOM     52  H   UNL A   1      39.957  30.079  31.576  1.00  0.00     0.167 HD
ATOM     53  C   UNL A   1      41.690  27.113  28.835  1.00  0.00     0.034 A 
ATOM     54  C   UNL A   1      39.740  31.421  34.026  1.00  0.00     0.034 A 
ATOM     55  C   UNL A   1      42.641  27.255  29.910  1.00  0.00     0.049 A 
ATOM     56  C   UNL A   1      41.021  30.630  34.088  1.00  0.00     0.074 A 
ATOM     57  C   UNL A   1      43.901  26.695  30.025  1.00  0.00     0.029 A 
ATOM     58  N   UNL A   1      42.430  27.995  31.067  1.00  0.00    -0.354 N 
ATOM     59  N   UNL A   1      41.534  29.820  33.191  1.00  0.00    -0.248 NA
ATOM     60  C   UNL A   1      41.827  30.764  35.309  1.00  0.00     0.031 C 
ATOM     61  C   UNL A   1      44.421  27.035  31.279  1.00  0.00     0.029 A 
ATOM     62  C   UNL A   1      43.516  27.864  31.920  1.00  0.00     0.049 A 
ATOM     63  H   UNL A   1      41.628  28.533  31.253  1.00  0.00     0.167 HD
ATOM     64  C   UNL A   1      42.728  29.360  33.736  1.00  0.00     0.074 A 
ATOM     65  C   UNL A   1      42.871  30.001  35.027  1.00  0.00     0.031 C 
ATOM     66  C   UNL A   1      43.628  28.487  33.217  1.00  0.00     0.034 A 
BRANCH  53  67
ATOM     67  C   UNL A   1      41.995  26.128  27.733  1.00  0.00     0.023 A 
ATOM     68  C   UNL A   1      41.646  24.771  27.833  1.00  0.00     0.031 A 
ATOM     69  C   UNL A   1      42.638  26.559  26.559  1.00  0.00     0.131 A 
ATOM     70  C   UNL A   1      41.991  23.881  26.804  1.00  0.00     0.055 A 
ATOM     71  C   UNL A   1      42.918  25.684  25.509  1.00  0.00     0.041 A 
ATOM     72  F   UNL A   1      43.011  27.841  26.416  1.00  0.00    -0.206 F 
ATOM     73  C   UNL A   1      42.604  24.333  25.632  1.00  0.00     0.022 A 
BRANCH  70  74
ATOM     74  S   UNL A   1      41.727  22.106  27.064  1.00  0.00     0.124 S 
ATOM     75  O   UNL A   1      40.356  22.084  27.571  1.00  0.00    -0.237 OA
ATOM     76  O   UNL A   1      41.922  21.560  25.726  1.00  0.00    -0.237 OA
ATOM     77  O   UNL A   1      42.751  21.746  28.041  1.00  0.00    -0.744 OA
ENDBRANCH  70  74
ENDBRANCH  53  67
BRANCH  54  78
ATOM     78  C   UNL A   1      39.294  32.239  35.190  1.00  0.00     0.023 A 
ATOM     79  C   UNL A   1      38.659  31.646  36.293  1.00  0.00     0.031 A 
ATOM     80  C   UNL A   1      39.455  33.636  35.196  1.00  0.00     0.131 A 
ATOM     81  C   UNL A   1      38.165  32.451  37.332  1.00  0.00     0.055 A 
ATOM     82  C   UNL A   1      39.009  34.427  36.255  1.00  0.00     0.041 A 
ATOM     83  F   UNL A   1      40.058  34.254  34.168  1.00  0.00    -0.206 F 
ATOM     84  C   UNL A   1      38.347  33.836  37.326  1.00  0.00     0.022 A 
BRANCH  81  85
ATOM     85  S   UNL A   1      37.199  31.668  38.651  1.00  0.00     0.124 S 
ATOM     86  O   UNL A   1      37.040  30.312  38.140  1.00  0.00    -0.237 OA
ATOM     87  O   UNL A   1      38.082  31.823  39.803  1.00  0.00    -0.237 OA
ATOM     88  O   UNL A   1      35.975  32.466  38.695  1.00  0.00    -0.744 OA
ENDBRANCH  81  85
ENDBRANCH  54  78
BRANCH  66  89
ATOM     89  C   UNL A   1      44.848  28.189  34.051  1.00  0.00     0.023 A 
ATOM     90  C   UNL A   1      46.009  28.977  33.958  1.00  0.00     0.031 A 
ATOM     91  C   UNL A   1      44.853  27.102  34.943  1.00  0.00     0.131 A 
ATOM     92  C   UNL A   1      47.144  28.639  34.710  1.00  0.00     0.055 A 
ATOM     93  C   UNL A   1      45.966  26.803  35.728  1.00  0.00     0.041 A 
ATOM     94  F   UNL A   1      43.772  26.315  35.067  1.00  0.00    -0.206 F 
ATOM     95  C   UNL A   1      47.124  27.567  35.606  1.00  0.00     0.022 A 
BRANCH  92  96
ATOM     96  S   UNL A   1      48.672  29.578  34.448  1.00  0.00     0.124 S 
ATOM     97  O   UNL A   1      49.570  28.554  33.920  1.00  0.00    -0.237 OA
ATOM     98  O   UNL A   1      48.252  30.605  33.501  1.00  0.00    -0.237 OA
ATOM     99  O   UNL A   1      49.007  30.067  35.784  1.00  0.00    -0.744 OA
ENDBRANCH  92  96
ENDBRANCH  66  89
ENDBRANCH  40  41
ENDBRANCH  32  35
ENDBRANCH  30  31
ENDBRANCH  29  30
ENDBRANCH   1  29
TORSDOF 20
ENDMDL
MODEL 2
REMARK VINA RESULT:     -10.7      2.013      3.248
REMARK SMILES COc1cc(Nc2cn[nH]c(=O)n2)c(C(=O)NCCCCCCNC(=O)c2ccc(-c3c4nc(c(-c5cc(S(=O)(=O)[O-])ccc5F)c5ccc([nH]5)c(-c5cc(S(=O)(=O)[O-])ccc5F)c5nc(c(-c6cc(S(=O)(=O)[O-])ccc6F)c6ccc3[nH]6)C=C5)C=C4)cc2)cc1OC
REMARK SMILES IDX 21 1 20 2 19 3 18 4 17 5 15 6 16 7 14 9 3 10 4 11 91 12 5 13
REMARK SMILES IDX 90 14 2 15 1 16 92 17 93 18 6 19 7 21 8 22 13 23 9 24 11 25
REMARK SMILES IDX 10 26 12 27 22 29 23 30 24 31 25 32 26 34 27 35 28 36 89 37
REMARK SMILES IDX 29 38 88 39 30 40 31 41 32 42 82 43 33 44 87 45 81 46 83 47
REMARK SMILES IDX 34 48 86 49 80 50 79 51 35 53 67 54 47 55 66 56 48 57 51 58
REMARK SMILES IDX 65 59 84 60 49 61 50 62 64 64 85 65 52 66 36 67 37 68 45 69
REMARK SMILES IDX 38 70 44 71 46 72 43 73 39 74 40 75 41 76 42 77 68 78 69 79
REMARK SMILES IDX 77 80 70 81 76 82 78 83 75 84 71 85 72 86 73 87 74 88 53 89
REMARK SMILES IDX 54 90 62 91 55 92 61 93 63 94 60 95 56 96 57 97 58 98 59 99
REMARK H PARENT 17 8 6 20 10 28 24 33 83 52 51 63
REMARK Flexibility Score: inf
ROOT
ATOM      1  C   UNL A   1      33.089  26.454  25.656  1.00  0.00     0.002 C 
ENDROOT
BRANCH   1   2
ATOM      2  C   UNL A   1      31.959  25.916  26.543  1.00  0.00     0.002 C 
BRANCH   2   3
ATOM      3  C   UNL A   1      31.532  24.474  26.236  1.00  0.00     0.021 C 
BRANCH   3   4
ATOM      4  C   UNL A   1      32.060  23.455  27.251  1.00  0.00     0.116 C 
BRANCH   4   5
ATOM      5  N   UNL A   1      33.485  23.253  27.050  1.00  0.00    -0.352 N 
ATOM      6  C   UNL A   1      34.199  22.337  26.323  1.00  0.00     0.253 C 
ATOM      7  O   UNL A   1      35.432  22.395  26.390  1.00  0.00    -0.269 OA
ATOM      8  H   UNL A   1      34.049  23.899  27.533  1.00  0.00     0.163 HD
BRANCH   6   9
ATOM      9  C   UNL A   1      33.584  21.323  25.408  1.00  0.00     0.067 A 
ATOM     10  C   UNL A   1      32.393  19.460  23.668  1.00  0.00     0.162 A 
ATOM     11  C   UNL A   1      32.879  20.675  23.170  1.00  0.00     0.077 A 
ATOM     12  C   UNL A   1      32.554  19.147  25.018  1.00  0.00     0.161 A 
ATOM     13  C   UNL A   1      33.504  21.609  24.016  1.00  0.00     0.057 A 
ATOM     14  C   UNL A   1      33.174  20.068  25.867  1.00  0.00     0.066 A 
BRANCH  10  15
ATOM     15  O   UNL A   1      31.903  18.520  22.802  1.00  0.00    -0.493 OA
ATOM     16  C   UNL A   1      32.898  17.584  22.390  1.00  0.00     0.278 C 
ENDBRANCH  10  15
BRANCH  12  17
ATOM     17  O   UNL A   1      32.209  17.973  25.632  1.00  0.00    -0.493 OA
ATOM     18  C   UNL A   1      33.260  17.025  25.790  1.00  0.00     0.278 C 
ENDBRANCH  12  17
BRANCH  13  19
ATOM     19  N   UNL A   1      34.085  22.799  23.502  1.00  0.00    -0.338 N 
ATOM     20  H   UNL A   1      35.068  22.859  23.529  1.00  0.00     0.168 HD
BRANCH  19  21
ATOM     21  C   UNL A   1      33.417  23.875  22.972  1.00  0.00     0.156 A 
ATOM     22  C   UNL A   1      31.910  23.841  23.099  1.00  0.00     0.180 A 
ATOM     23  N   UNL A   1      33.993  24.876  22.383  1.00  0.00    -0.173 NA
ATOM     24  N   UNL A   1      31.160  24.783  22.632  1.00  0.00    -0.176 NA
ATOM     25  C   UNL A   1      33.208  25.862  21.848  1.00  0.00     0.363 A 
ATOM     26  N   UNL A   1      31.839  25.784  22.010  1.00  0.00    -0.227 N 
ATOM     27  O   UNL A   1      33.678  26.812  21.226  1.00  0.00    -0.244 OA
ATOM     28  H   UNL A   1      31.304  26.523  21.639  1.00  0.00     0.195 HD
ENDBRANCH  19  21
ENDBRANCH  13  19
ENDBRANCH   6   9
ENDBRANCH   4   5
ENDBRANCH   3   4
ENDBRANCH   2   3
ENDBRANCH   1   2
BRANCH   1  29
ATOM     29  C   UNL A   1      32.754  27.728  24.872  1.00  0.00     0.021 C 
BRANCH  29  30
ATOM     30  C   UNL A   1      33.691  28.906  25.136  1.00  0.00     0.116 C 
BRANCH  30  31
ATOM     31  N   UNL A   1      32.956  30.115  25.469  1.00  0.00    -0.352 N 
ATOM     32  C   UNL A   1      33.073  30.931  26.569  1.00  0.00     0.251 C 
ATOM     33  H   UNL A   1      32.277  30.391  24.811  1.00  0.00     0.163 HD
ATOM     34  O   UNL A   1      32.214  31.777  26.798  1.00  0.00    -0.269 OA
BRANCH  32  35
ATOM     35  C   UNL A   1      34.224  30.769  27.485  1.00  0.00     0.039 A 
ATOM     36  C   UNL A   1      34.371  29.570  28.187  1.00  0.00     0.014 A 
ATOM     37  C   UNL A   1      35.157  31.798  27.647  1.00  0.00     0.014 A 
ATOM     38  C   UNL A   1      35.499  29.371  28.989  1.00  0.00     0.010 A 
ATOM     39  C   UNL A   1      36.306  31.577  28.402  1.00  0.00     0.010 A 
ATOM     40  C   UNL A   1      36.496  30.356  29.068  1.00  0.00    -0.014 A 
BRANCH  40  41
ATOM     41  C   UNL A   1      37.769  30.112  29.796  1.00  0.00     0.031 A 
ATOM     42  C   UNL A   1      38.803  29.180  29.228  1.00  0.00     0.074 A 
ATOM     43  C   UNL A   1      37.944  30.659  31.016  1.00  0.00     0.049 A 
ATOM     44  N   UNL A   1      39.918  28.757  29.767  1.00  0.00    -0.248 NA
ATOM     45  C   UNL A   1      38.535  28.631  27.891  1.00  0.00     0.031 C 
ATOM     46  C   UNL A   1      36.988  31.545  31.687  1.00  0.00     0.029 A 
ATOM     47  N   UNL A   1      38.969  30.535  31.920  1.00  0.00    -0.354 N 
ATOM     48  C   UNL A   1      40.479  27.881  28.844  1.00  0.00     0.074 A 
ATOM     49  C   UNL A   1      39.559  27.804  27.729  1.00  0.00     0.031 C 
ATOM     50  C   UNL A   1      37.471  31.882  32.892  1.00  0.00     0.029 A 
ATOM     51  C   UNL A   1      38.746  31.202  33.104  1.00  0.00     0.049 A 
ATOM     52  H   UNL A   1      39.787  30.019  31.740  1.00  0.00     0.167 HD
ATOM     53  C   UNL A   1      41.657  27.215  28.920  1.00  0.00     0.034 A 
ATOM     54  C   UNL A   1      39.468  31.239  34.241  1.00  0.00     0.034 A 
ATOM     55  C   UNL A   1      42.570  27.320  30.031  1.00  0.00     0.049 A 
ATOM     56  C   UNL A   1      40.759  30.466  34.309  1.00  0.00     0.074 A 
ATOM     57  C   UNL A   1      43.836  26.774  30.161  1.00  0.00     0.029 A 
ATOM     58  N   UNL A   1      42.310  28.001  31.214  1.00  0.00    -0.354 N 
ATOM     59  N   UNL A   1      41.315  29.708  33.392  1.00  0.00    -0.248 NA
ATOM     60  C   UNL A   1      41.523  30.554  35.561  1.00  0.00     0.031 C 
ATOM     61  C   UNL A   1      44.309  27.062  31.446  1.00  0.00     0.029 A 
ATOM     62  C   UNL A   1      43.369  27.845  32.096  1.00  0.00     0.049 A 
ATOM     63  H   UNL A   1      41.493  28.517  31.399  1.00  0.00     0.167 HD
ATOM     64  C   UNL A   1      42.498  29.241  33.953  1.00  0.00     0.074 A 
ATOM     65  C   UNL A   1      42.589  29.821  35.277  1.00  0.00     0.031 C 
ATOM     66  C   UNL A   1      43.429  28.407  33.423  1.00  0.00     0.034 A 
BRANCH  53  67
ATOM     67  C   UNL A   1      42.015  26.289  27.783  1.00  0.00     0.023 A 
ATOM     68  C   UNL A   1      41.620  24.941  27.772  1.00  0.00     0.031 A 
ATOM     69  C   UNL A   1      42.754  26.768  26.687  1.00  0.00     0.131 A 
ATOM     70  C   UNL A   1      42.014  24.103  26.717  1.00  0.00     0.055 A 
ATOM     71  C   UNL A   1      43.086  25.949  25.607  1.00  0.00     0.041 A 
ATOM     72  F   UNL A   1      43.173  28.043  26.652  1.00  0.00    -0.206 F 
ATOM     73  C   UNL A   1      42.725  24.605  25.623  1.00  0.00     0.022 A 
BRANCH  70  74
ATOM     74  S   UNL A   1      41.681  22.326  26.846  1.00  0.00     0.124 S 
ATOM     75  O   UNL A   1      40.248  22.315  27.133  1.00  0.00    -0.237 OA
ATOM     76  O   UNL A   1      42.072  21.836  25.530  1.00  0.00    -0.237 OA
ATOM     77  O   UNL A   1      42.533  21.896  27.951  1.00  0.00    -0.744 OA
ENDBRANCH  70  74
ENDBRANCH  53  67
BRANCH  54  78
ATOM     78  C   UNL A   1      38.971  31.993  35.428  1.00  0.00     0.023 A 
ATOM     79  C   UNL A   1      38.373  31.330  36.511  1.00  0.00     0.031 A 
ATOM     80  C   UNL A   1      39.044  33.397  35.474  1.00  0.00     0.131 A 
ATOM     81  C   UNL A   1      37.829  32.072  37.571  1.00  0.00     0.055 A 
ATOM     82  C   UNL A   1      38.549  34.128  36.555  1.00  0.00     0.041 A 
ATOM     83  F   UNL A   1      39.609  34.081  34.466  1.00  0.00    -0.206 F 
ATOM     84  C   UNL A   1      37.925  33.466  37.606  1.00  0.00     0.022 A 
BRANCH  81  85
ATOM     85  S   UNL A   1      36.912  31.193  38.865  1.00  0.00     0.124 S 
ATOM     86  O   UNL A   1      36.771  29.864  38.280  1.00  0.00    -0.237 OA
ATOM     87  O   UNL A   1      37.819  31.302  40.004  1.00  0.00    -0.237 OA
ATOM     88  O   UNL A   1      35.672  31.958  38.982  1.00  0.00    -0.744 OA
ENDBRANCH  81  85
ENDBRANCH  54  78
BRANCH  66  89
ATOM     89  C   UNL A   1      44.627  28.089  34.282  1.00  0.00     0.023 A 
ATOM     90  C   UNL A   1      44.573  27.092  35.272  1.00  0.00     0.031 A 
ATOM     91  C   UNL A   1      45.831  28.795  34.115  1.00  0.00     0.131 A 
ATOM     92  C   UNL A   1      45.690  26.859  36.089  1.00  0.00     0.055 A 
ATOM     93  C   UNL A   1      46.955  28.521  34.894  1.00  0.00     0.041 A 
ATOM     94  F   UNL A   1      45.934  29.760  33.187  1.00  0.00    -0.206 F 
ATOM     95  C   UNL A   1      46.885  27.556  35.895  1.00  0.00     0.022 A 
BRANCH  92  96
ATOM     96  S   UNL A   1      45.536  25.679  37.457  1.00  0.00     0.124 S 
ATOM     97  O   UNL A   1      44.379  26.201  38.178  1.00  0.00    -0.237 OA
ATOM     98  O   UNL A   1      45.334  24.414  36.760  1.00  0.00    -0.237 OA
ATOM     99  O   UNL A   1      46.812  25.802  38.160  1.00  0.00    -0.744 OA
ENDBRANCH  92  96
ENDBRANCH  66  89
ENDBRANCH  40  41
ENDBRANCH  32  35
ENDBRANCH  30  31
ENDBRANCH  29  30
ENDBRANCH   1  29
TORSDOF 20
ENDMDL
MODEL 3
REMARK VINA RESULT:     -10.6      3.665      9.103
REMARK SMILES COc1cc(Nc2cn[nH]c(=O)n2)c(C(=O)NCCCCCCNC(=O)c2ccc(-c3c4nc(c(-c5cc(S(=O)(=O)[O-])ccc5F)c5ccc([nH]5)c(-c5cc(S(=O)(=O)[O-])ccc5F)c5nc(c(-c6cc(S(=O)(=O)[O-])ccc6F)c6ccc3[nH]6)C=C5)C=C4)cc2)cc1OC
REMARK SMILES IDX 21 1 20 2 19 3 18 4 17 5 15 6 16 7 14 9 3 10 4 11 91 12 5 13
REMARK SMILES IDX 90 14 2 15 1 16 92 17 93 18 6 19 7 21 8 22 13 23 9 24 11 25
REMARK SMILES IDX 10 26 12 27 22 29 23 30 24 31 25 32 26 34 27 35 28 36 89 37
REMARK SMILES IDX 29 38 88 39 30 40 31 41 32 42 82 43 33 44 87 45 81 46 83 47
REMARK SMILES IDX 34 48 86 49 80 50 79 51 35 53 67 54 47 55 66 56 48 57 51 58
REMARK SMILES IDX 65 59 84 60 49 61 50 62 64 64 85 65 52 66 36 67 37 68 45 69
REMARK SMILES IDX 38 70 44 71 46 72 43 73 39 74 40 75 41 76 42 77 68 78 69 79
REMARK SMILES IDX 77 80 70 81 76 82 78 83 75 84 71 85 72 86 73 87 74 88 53 89
REMARK SMILES IDX 54 90 62 91 55 92 61 93 63 94 60 95 56 96 57 97 58 98 59 99
REMARK H PARENT 17 8 6 20 10 28 24 33 83 52 51 63
REMARK Flexibility Score: inf
ROOT
ATOM      1  C   UNL A   1      35.062  32.328  27.707  1.00  0.00     0.002 C 
ENDROOT
BRANCH   1   2
ATOM      2  C   UNL A   1      34.037  31.227  28.002  1.00  0.00     0.002 C 
BRANCH   2   3
ATOM      3  C   UNL A   1      34.076  30.034  27.037  1.00  0.00     0.021 C 
BRANCH   3   4
ATOM      4  C   UNL A   1      32.858  29.962  26.111  1.00  0.00     0.116 C 
BRANCH   4   5
ATOM      5  N   UNL A   1      33.294  29.879  24.727  1.00  0.00    -0.352 N 
ATOM      6  C   UNL A   1      33.303  28.855  23.817  1.00  0.00     0.253 C 
ATOM      7  O   UNL A   1      33.792  29.088  22.705  1.00  0.00    -0.269 OA
ATOM      8  H   UNL A   1      33.657  30.724  24.375  1.00  0.00     0.163 HD
BRANCH   6   9
ATOM      9  C   UNL A   1      32.701  27.505  24.060  1.00  0.00     0.067 A 
ATOM     10  C   UNL A   1      31.519  24.994  24.524  1.00  0.00     0.162 A 
ATOM     11  C   UNL A   1      30.988  25.852  23.552  1.00  0.00     0.077 A 
ATOM     12  C   UNL A   1      32.672  25.360  25.221  1.00  0.00     0.161 A 
ATOM     13  C   UNL A   1      31.580  27.100  23.284  1.00  0.00     0.057 A 
ATOM     14  C   UNL A   1      33.267  26.597  24.961  1.00  0.00     0.066 A 
BRANCH  10  15
ATOM     15  O   UNL A   1      30.998  23.738  24.676  1.00  0.00    -0.493 OA
ATOM     16  C   UNL A   1      31.523  22.809  23.729  1.00  0.00     0.278 C 
ENDBRANCH  10  15
BRANCH  12  17
ATOM     17  O   UNL A   1      33.350  24.599  26.134  1.00  0.00    -0.493 OA
ATOM     18  C   UNL A   1      34.639  24.149  25.728  1.00  0.00     0.278 C 
ENDBRANCH  12  17
BRANCH  13  19
ATOM     19  N   UNL A   1      31.107  27.932  22.234  1.00  0.00    -0.338 N 
ATOM     20  H   UNL A   1      31.676  28.000  21.433  1.00  0.00     0.168 HD
BRANCH  19  21
ATOM     21  C   UNL A   1      29.937  28.651  22.222  1.00  0.00     0.156 A 
ATOM     22  C   UNL A   1      28.797  28.065  23.026  1.00  0.00     0.180 A 
ATOM     23  N   UNL A   1      29.766  29.759  21.572  1.00  0.00    -0.173 NA
ATOM     24  N   UNL A   1      27.639  28.632  23.089  1.00  0.00    -0.176 NA
ATOM     25  C   UNL A   1      28.532  30.351  21.598  1.00  0.00     0.363 A 
ATOM     26  N   UNL A   1      27.535  29.778  22.363  1.00  0.00    -0.227 N 
ATOM     27  O   UNL A   1      28.278  31.371  20.961  1.00  0.00    -0.244 OA
ATOM     28  H   UNL A   1      26.668  30.243  22.384  1.00  0.00     0.195 HD
ENDBRANCH  19  21
ENDBRANCH  13  19
ENDBRANCH   6   9
ENDBRANCH   4   5
ENDBRANCH   3   4
ENDBRANCH   2   3
ENDBRANCH   1   2
BRANCH   1  29
ATOM     29  C   UNL A   1      34.496  33.751  27.656  1.00  0.00     0.021 C 
BRANCH  29  30
ATOM     30  C   UNL A   1      33.060  33.886  28.162  1.00  0.00     0.116 C 
BRANCH  30  31
ATOM     31  N   UNL A   1      32.940  34.929  29.169  1.00  0.00    -0.352 N 
ATOM     32  C   UNL A   1      33.562  35.037  30.390  1.00  0.00     0.251 C 
ATOM     33  H   UNL A   1      32.325  35.664  28.943  1.00  0.00     0.163 HD
ATOM     34  O   UNL A   1      33.167  35.863  31.206  1.00  0.00    -0.269 OA
BRANCH  32  35
ATOM     35  C   UNL A   1      34.692  34.141  30.720  1.00  0.00     0.039 A 
ATOM     36  C   UNL A   1      35.992  34.538  30.396  1.00  0.00     0.014 A 
ATOM     37  C   UNL A   1      34.469  32.913  31.351  1.00  0.00     0.014 A 
ATOM     38  C   UNL A   1      37.075  33.742  30.779  1.00  0.00     0.010 A 
ATOM     39  C   UNL A   1      35.551  32.148  31.779  1.00  0.00     0.010 A 
ATOM     40  C   UNL A   1      36.866  32.563  31.511  1.00  0.00    -0.014 A 
BRANCH  40  41
ATOM     41  C   UNL A   1      38.004  31.776  32.054  1.00  0.00     0.031 A 
ATOM     42  C   UNL A   1      38.629  32.149  33.370  1.00  0.00     0.074 A 
ATOM     43  C   UNL A   1      38.532  30.785  31.307  1.00  0.00     0.049 A 
ATOM     44  N   UNL A   1      39.693  31.655  33.947  1.00  0.00    -0.248 NA
ATOM     45  C   UNL A   1      37.986  33.238  34.120  1.00  0.00     0.031 C 
ATOM     46  C   UNL A   1      38.037  30.363  29.993  1.00  0.00     0.029 A 
ATOM     47  N   UNL A   1      39.614  29.969  31.529  1.00  0.00    -0.354 N 
ATOM     48  C   UNL A   1      39.860  32.381  35.121  1.00  0.00     0.074 A 
ATOM     49  C   UNL A   1      38.809  33.376  35.151  1.00  0.00     0.031 C 
ATOM     50  C   UNL A   1      38.811  29.370  29.529  1.00  0.00     0.029 A 
ATOM     51  C   UNL A   1      39.885  29.115  30.484  1.00  0.00     0.049 A 
ATOM     52  H   UNL A   1      40.145  29.991  32.357  1.00  0.00     0.167 HD
ATOM     53  C   UNL A   1      40.799  32.221  36.087  1.00  0.00     0.034 A 
ATOM     54  C   UNL A   1      40.899  28.246  30.300  1.00  0.00     0.034 A 
ATOM     55  C   UNL A   1      41.827  31.211  36.049  1.00  0.00     0.049 A 
ATOM     56  C   UNL A   1      41.944  28.109  31.376  1.00  0.00     0.074 A 
ATOM     57  C   UNL A   1      42.758  30.893  37.023  1.00  0.00     0.029 A 
ATOM     58  N   UNL A   1      42.075  30.366  34.974  1.00  0.00    -0.354 N 
ATOM     59  N   UNL A   1      42.038  28.747  32.520  1.00  0.00    -0.248 NA
ATOM     60  C   UNL A   1      43.019  27.134  31.141  1.00  0.00     0.031 C 
ATOM     61  C   UNL A   1      43.613  29.910  36.510  1.00  0.00     0.029 A 
ATOM     62  C   UNL A   1      43.175  29.565  35.242  1.00  0.00     0.049 A 
ATOM     63  H   UNL A   1      41.547  30.341  34.144  1.00  0.00     0.167 HD
ATOM     64  C   UNL A   1      43.174  28.241  33.144  1.00  0.00     0.074 A 
ATOM     65  C   UNL A   1      43.717  27.228  32.262  1.00  0.00     0.031 C 
ATOM     66  C   UNL A   1      43.720  28.580  34.339  1.00  0.00     0.034 A 
BRANCH  53  67
ATOM     67  C   UNL A   1      40.776  33.178  37.254  1.00  0.00     0.023 A 
ATOM     68  C   UNL A   1      39.997  32.934  38.397  1.00  0.00     0.031 A 
ATOM     69  C   UNL A   1      41.556  34.347  37.224  1.00  0.00     0.131 A 
ATOM     70  C   UNL A   1      39.969  33.875  39.440  1.00  0.00     0.055 A 
ATOM     71  C   UNL A   1      41.578  35.245  38.292  1.00  0.00     0.041 A 
ATOM     72  F   UNL A   1      42.306  34.640  36.150  1.00  0.00    -0.206 F 
ATOM     73  C   UNL A   1      40.773  35.017  39.404  1.00  0.00     0.022 A 
BRANCH  70  74
ATOM     74  S   UNL A   1      38.786  33.638  40.793  1.00  0.00     0.124 S 
ATOM     75  O   UNL A   1      39.522  32.735  41.674  1.00  0.00    -0.237 OA
ATOM     76  O   UNL A   1      38.596  34.997  41.286  1.00  0.00    -0.237 OA
ATOM     77  O   UNL A   1      37.625  33.045  40.134  1.00  0.00    -0.744 OA
ENDBRANCH  70  74
ENDBRANCH  53  67
BRANCH  54  78
ATOM     78  C   UNL A   1      41.010  27.471  29.030  1.00  0.00     0.023 A 
ATOM     79  C   UNL A   1      41.988  27.783  28.072  1.00  0.00     0.031 A 
ATOM     80  C   UNL A   1      40.105  26.436  28.735  1.00  0.00     0.131 A 
ATOM     81  C   UNL A   1      42.009  27.099  26.847  1.00  0.00     0.055 A 
ATOM     82  C   UNL A   1      40.162  25.724  27.536  1.00  0.00     0.041 A 
ATOM     83  F   UNL A   1      39.152  26.095  29.617  1.00  0.00    -0.206 F 
ATOM     84  C   UNL A   1      41.110  26.063  26.577  1.00  0.00     0.022 A 
BRANCH  81  85
ATOM     85  S   UNL A   1      43.172  27.646  25.568  1.00  0.00     0.124 S 
ATOM     86  O   UNL A   1      43.803  26.389  25.182  1.00  0.00    -0.237 OA
ATOM     87  O   UNL A   1      42.277  28.246  24.583  1.00  0.00    -0.237 OA
ATOM     88  O   UNL A   1      44.037  28.587  26.276  1.00  0.00    -0.744 OA
ENDBRANCH  81  85
ENDBRANCH  54  78
BRANCH  66  89
ATOM     89  C   UNL A   1      44.963  27.836  34.756  1.00  0.00     0.023 A 
ATOM     90  C   UNL A   1      44.888  26.631  35.476  1.00  0.00     0.031 A 
ATOM     91  C   UNL A   1      46.236  28.341  34.437  1.00  0.00     0.131 A 
ATOM     92  C   UNL A   1      46.066  25.994  35.894  1.00  0.00     0.055 A 
ATOM     93  C   UNL A   1      47.403  27.674  34.808  1.00  0.00     0.041 A 
ATOM     94  F   UNL A   1      46.364  29.490  33.754  1.00  0.00    -0.206 F 
ATOM     95  C   UNL A   1      47.322  26.499  35.551  1.00  0.00     0.022 A 
BRANCH  92  96
ATOM     96  S   UNL A   1      45.933  24.530  36.956  1.00  0.00     0.124 S 
ATOM     97  O   UNL A   1      44.717  24.814  37.712  1.00  0.00    -0.237 OA
ATOM     98  O   UNL A   1      45.839  23.445  35.985  1.00  0.00    -0.237 OA
ATOM     99  O   UNL A   1      47.169  24.559  37.735  1.00  0.00    -0.744 OA
ENDBRANCH  92  96
ENDBRANCH  66  89
ENDBRANCH  40  41
ENDBRANCH  32  35
ENDBRANCH  30  31
ENDBRANCH  29  30
ENDBRANCH   1  29
TORSDOF 20
ENDMDL
