MODEL 1
REMARK VINA RESULT:     -12.0      0.000      0.000
REMARK SMILES C[NH+]1CCC(NC(=O)N[C@H]2C=C[C@H](C(=O)NCCCCCCNC(=O)c3ccc(-c4c5nc(c(-c6cc(S(=O)(=O)[O-])ccc6F)c6ccc([nH]6)c(-c6cc(S(=O)(=O)[O-])ccc6F)c6nc(c(-c7cc(S(=O)(=O)[O-])ccc7F)c7ccc4[nH]7)C=C6)C=C5)cc3)C2)CC1
REMARK SMILES IDX 20 1 19 2 18 3 17 4 16 5 14 6 15 7 13 9 10 10 11 11 89 12
REMARK SMILES IDX 12 13 9 14 6 15 7 16 8 18 5 20 1 21 2 22 3 23 91 24 4 26
REMARK SMILES IDX 90 27 21 28 22 29 23 30 24 31 25 33 26 34 27 35 88 36 28 37
REMARK SMILES IDX 87 38 29 39 30 40 31 41 81 42 32 43 86 44 80 45 82 46 33 47
REMARK SMILES IDX 85 48 79 49 78 50 34 52 66 53 46 54 65 55 47 56 50 57 64 58
REMARK SMILES IDX 83 59 48 60 49 61 63 63 84 64 51 65 35 66 36 67 44 68 37 69
REMARK SMILES IDX 43 70 45 71 42 72 38 73 39 74 40 75 41 76 67 77 68 78 76 79
REMARK SMILES IDX 69 80 75 81 77 82 74 83 70 84 71 85 72 86 73 87 52 88 53 89
REMARK SMILES IDX 61 90 54 91 60 92 62 93 59 94 55 95 56 96 57 97 58 98
REMARK H PARENT 16 8 6 17 9 19 2 25 23 32 82 51 50 62
REMARK Flexibility Score: inf
ROOT
ATOM      1  C   UNL A   1      32.031  29.845  25.625  1.00  0.00     0.002 C 
ENDROOT
BRANCH   1   2
ATOM      2  C   UNL A   1      31.001  29.370  24.590  1.00  0.00     0.002 C 
BRANCH   2   3
ATOM      3  C   UNL A   1      31.578  29.043  23.207  1.00  0.00     0.021 C 
BRANCH   3   4
ATOM      4  C   UNL A   1      31.101  27.699  22.646  1.00  0.00     0.116 C 
BRANCH   4   5
ATOM      5  N   UNL A   1      32.111  26.996  21.867  1.00  0.00    -0.356 N 
ATOM      6  C   UNL A   1      32.660  25.755  22.074  1.00  0.00     0.227 C 
ATOM      7  O   UNL A   1      33.305  25.234  21.162  1.00  0.00    -0.274 OA
ATOM      8  H   UNL A   1      32.449  27.481  21.080  1.00  0.00     0.163 HD
BRANCH   6   9
ATOM      9  C   UNL A   1      32.465  25.071  23.429  1.00  0.00     0.103 C 
ATOM     10  C   UNL A   1      30.763  25.374  25.176  1.00  0.00     0.107 C 
ATOM     11  C   UNL A   1      32.068  25.956  25.582  1.00  0.00    -0.006 C 
ATOM     12  C   UNL A   1      30.984  24.805  23.772  1.00  0.00     0.047 C 
ATOM     13  C   UNL A   1      32.975  25.866  24.601  1.00  0.00    -0.016 C 
BRANCH  10  14
ATOM     14  N   UNL A   1      30.164  24.516  26.190  1.00  0.00    -0.332 N 
ATOM     15  N   UNL A   1      31.384  22.552  26.765  1.00  0.00    -0.335 N 
ATOM     16  C   UNL A   1      30.339  23.374  26.853  1.00  0.00     0.315 C 
ATOM     17  H   UNL A   1      31.270  21.723  27.284  1.00  0.00     0.165 HD
ATOM     18  O   UNL A   1      29.431  23.047  27.627  1.00  0.00    -0.249 OA
ATOM     19  H   UNL A   1      29.325  24.931  26.495  1.00  0.00     0.165 HD
BRANCH  15  20
ATOM     20  C   UNL A   1      32.644  22.622  26.069  1.00  0.00     0.095 C 
ATOM     21  C   UNL A   1      36.467  22.200  24.318  1.00  0.00     0.332 C 
ATOM     22  N   UNL A   1      35.273  21.865  25.097  1.00  0.00    -0.337 N 
ATOM     23  C   UNL A   1      34.094  21.723  24.236  1.00  0.00     0.264 C 
ATOM     24  C   UNL A   1      35.112  22.820  26.200  1.00  0.00     0.264 C 
ATOM     25  H   UNL A   1      35.388  20.947  25.528  1.00  0.00     0.347 HD
ATOM     26  C   UNL A   1      32.789  21.530  25.013  1.00  0.00     0.086 C 
ATOM     27  C   UNL A   1      33.841  22.570  27.009  1.00  0.00     0.086 C 
ENDBRANCH  15  20
ENDBRANCH  10  14
ENDBRANCH   6   9
ENDBRANCH   4   5
ENDBRANCH   3   4
ENDBRANCH   2   3
ENDBRANCH   1   2
BRANCH   1  28
ATOM     28  C   UNL A   1      31.704  31.159  26.341  1.00  0.00     0.021 C 
BRANCH  28  29
ATOM     29  C   UNL A   1      32.831  31.749  27.184  1.00  0.00     0.116 C 
BRANCH  29  30
ATOM     30  N   UNL A   1      32.670  33.180  27.401  1.00  0.00    -0.352 N 
ATOM     31  C   UNL A   1      33.269  34.011  28.312  1.00  0.00     0.251 C 
ATOM     32  H   UNL A   1      32.028  33.619  26.798  1.00  0.00     0.163 HD
ATOM     33  O   UNL A   1      32.827  35.151  28.466  1.00  0.00    -0.269 OA
BRANCH  31  34
ATOM     34  C   UNL A   1      34.420  33.547  29.116  1.00  0.00     0.039 A 
ATOM     35  C   UNL A   1      34.191  32.691  30.196  1.00  0.00     0.014 A 
ATOM     36  C   UNL A   1      35.720  33.973  28.828  1.00  0.00     0.014 A 
ATOM     37  C   UNL A   1      35.269  32.209  30.942  1.00  0.00     0.010 A 
ATOM     38  C   UNL A   1      36.800  33.430  29.523  1.00  0.00     0.010 A 
ATOM     39  C   UNL A   1      36.587  32.542  30.588  1.00  0.00    -0.014 A 
BRANCH  39  40
ATOM     40  C   UNL A   1      37.749  31.966  31.315  1.00  0.00     0.031 A 
ATOM     41  C   UNL A   1      38.586  30.889  30.677  1.00  0.00     0.074 A 
ATOM     42  C   UNL A   1      38.016  32.374  32.572  1.00  0.00     0.049 A 
ATOM     43  N   UNL A   1      39.592  30.218  31.177  1.00  0.00    -0.248 NA
ATOM     44  C   UNL A   1      38.225  30.498  29.306  1.00  0.00     0.031 C 
ATOM     45  C   UNL A   1      37.256  33.386  33.308  1.00  0.00     0.029 A 
ATOM     46  N   UNL A   1      38.992  31.988  33.456  1.00  0.00    -0.354 N 
ATOM     47  C   UNL A   1      39.980  29.321  30.187  1.00  0.00     0.074 A 
ATOM     48  C   UNL A   1      39.056  29.491  29.084  1.00  0.00     0.031 C 
ATOM     49  C   UNL A   1      37.812  33.562  34.517  1.00  0.00     0.029 A 
ATOM     50  C   UNL A   1      38.931  32.639  34.668  1.00  0.00     0.049 A 
ATOM     51  H   UNL A   1      39.672  31.309  33.244  1.00  0.00     0.167 HD
ATOM     52  C   UNL A   1      41.023  28.453  30.187  1.00  0.00     0.034 A 
ATOM     53  C   UNL A   1      39.682  32.499  35.778  1.00  0.00     0.034 A 
ATOM     54  C   UNL A   1      41.937  28.300  31.295  1.00  0.00     0.049 A 
ATOM     55  C   UNL A   1      40.806  31.494  35.773  1.00  0.00     0.074 A 
ATOM     56  C   UNL A   1      43.053  27.488  31.384  1.00  0.00     0.029 A 
ATOM     57  N   UNL A   1      41.833  28.963  32.512  1.00  0.00    -0.354 N 
ATOM     58  N   UNL A   1      41.190  30.687  34.808  1.00  0.00    -0.248 NA
ATOM     59  C   UNL A   1      41.603  31.385  37.000  1.00  0.00     0.031 C 
ATOM     60  C   UNL A   1      43.576  27.599  32.676  1.00  0.00     0.029 A 
ATOM     61  C   UNL A   1      42.841  28.549  33.368  1.00  0.00     0.049 A 
ATOM     62  H   UNL A   1      41.143  29.631  32.733  1.00  0.00     0.167 HD
ATOM     63  C   UNL A   1      42.294  30.000  35.306  1.00  0.00     0.074 A 
ATOM     64  C   UNL A   1      42.524  30.501  36.646  1.00  0.00     0.031 C 
ATOM     65  C   UNL A   1      43.053  29.046  34.709  1.00  0.00     0.034 A 
BRANCH  52  66
ATOM     66  C   UNL A   1      41.212  27.588  28.963  1.00  0.00     0.023 A 
ATOM     67  C   UNL A   1      42.223  27.851  28.021  1.00  0.00     0.031 A 
ATOM     68  C   UNL A   1      40.358  26.497  28.721  1.00  0.00     0.131 A 
ATOM     69  C   UNL A   1      42.306  27.085  26.847  1.00  0.00     0.055 A 
ATOM     70  C   UNL A   1      40.501  25.684  27.594  1.00  0.00     0.041 A 
ATOM     71  F   UNL A   1      39.359  26.207  29.570  1.00  0.00    -0.206 F 
ATOM     72  C   UNL A   1      41.469  25.985  26.641  1.00  0.00     0.022 A 
BRANCH  69  73
ATOM     73  S   UNL A   1      43.419  27.641  25.529  1.00  0.00     0.124 S 
ATOM     74  O   UNL A   1      42.478  27.914  24.445  1.00  0.00    -0.237 OA
ATOM     75  O   UNL A   1      44.060  28.805  26.127  1.00  0.00    -0.237 OA
ATOM     76  O   UNL A   1      44.293  26.490  25.309  1.00  0.00    -0.744 OA
ENDBRANCH  69  73
ENDBRANCH  52  66
BRANCH  53  77
ATOM     77  C   UNL A   1      39.393  33.313  36.995  1.00  0.00     0.023 A 
ATOM     78  C   UNL A   1      40.048  34.534  37.220  1.00  0.00     0.031 A 
ATOM     79  C   UNL A   1      38.494  32.859  37.976  1.00  0.00     0.131 A 
ATOM     80  C   UNL A   1      39.834  35.235  38.418  1.00  0.00     0.055 A 
ATOM     81  C   UNL A   1      38.238  33.589  39.138  1.00  0.00     0.041 A 
ATOM     82  F   UNL A   1      37.838  31.699  37.813  1.00  0.00    -0.206 F 
ATOM     83  C   UNL A   1      38.921  34.778  39.370  1.00  0.00     0.022 A 
BRANCH  80  84
ATOM     84  S   UNL A   1      40.841  36.704  38.756  1.00  0.00     0.124 S 
ATOM     85  O   UNL A   1      41.638  36.803  37.539  1.00  0.00    -0.237 OA
ATOM     86  O   UNL A   1      39.823  37.733  38.942  1.00  0.00    -0.237 OA
ATOM     87  O   UNL A   1      41.582  36.338  39.962  1.00  0.00    -0.744 OA
ENDBRANCH  80  84
ENDBRANCH  53  77
BRANCH  65  88
ATOM     88  C   UNL A   1      44.230  28.513  35.491  1.00  0.00     0.023 A 
ATOM     89  C   UNL A   1      44.092  27.464  36.417  1.00  0.00     0.031 A 
ATOM     90  C   UNL A   1      45.508  29.073  35.314  1.00  0.00     0.131 A 
ATOM     91  C   UNL A   1      45.198  27.049  37.174  1.00  0.00     0.055 A 
ATOM     92  C   UNL A   1      46.619  28.609  36.019  1.00  0.00     0.041 A 
ATOM     93  F   UNL A   1      45.698  30.082  34.448  1.00  0.00    -0.206 F 
ATOM     94  C   UNL A   1      46.466  27.601  36.966  1.00  0.00     0.022 A 
BRANCH  91  95
ATOM     95  S   UNL A   1      44.940  25.847  38.506  1.00  0.00     0.124 S 
ATOM     96  O   UNL A   1      44.077  26.589  39.421  1.00  0.00    -0.237 OA
ATOM     97  O   UNL A   1      44.315  24.731  37.804  1.00  0.00    -0.237 OA
ATOM     98  O   UNL A   1      46.291  25.588  39.001  1.00  0.00    -0.744 OA
ENDBRANCH  91  95
ENDBRANCH  65  88
ENDBRANCH  39  40
ENDBRANCH  31  34
ENDBRANCH  29  30
ENDBRANCH  28  29
ENDBRANCH   1  28
TORSDOF 18
ENDMDL
MODEL 2
REMARK VINA RESULT:     -11.9      5.298      8.639
REMARK SMILES C[NH+]1CCC(NC(=O)N[C@H]2C=C[C@H](C(=O)NCCCCCCNC(=O)c3ccc(-c4c5nc(c(-c6cc(S(=O)(=O)[O-])ccc6F)c6ccc([nH]6)c(-c6cc(S(=O)(=O)[O-])ccc6F)c6nc(c(-c7cc(S(=O)(=O)[O-])ccc7F)c7ccc4[nH]7)C=C6)C=C5)cc3)C2)CC1
REMARK SMILES IDX 20 1 19 2 18 3 17 4 16 5 14 6 15 7 13 9 10 10 11 11 89 12
REMARK SMILES IDX 12 13 9 14 6 15 7 16 8 18 5 20 1 21 2 22 3 23 91 24 4 26
REMARK SMILES IDX 90 27 21 28 22 29 23 30 24 31 25 33 26 34 27 35 88 36 28 37
REMARK SMILES IDX 87 38 29 39 30 40 31 41 81 42 32 43 86 44 80 45 82 46 33 47
REMARK SMILES IDX 85 48 79 49 78 50 34 52 66 53 46 54 65 55 47 56 50 57 64 58
REMARK SMILES IDX 83 59 48 60 49 61 63 63 84 64 51 65 35 66 36 67 44 68 37 69
REMARK SMILES IDX 43 70 45 71 42 72 38 73 39 74 40 75 41 76 67 77 68 78 76 79
REMARK SMILES IDX 69 80 75 81 77 82 74 83 70 84 71 85 72 86 73 87 52 88 53 89
REMARK SMILES IDX 61 90 54 91 60 92 62 93 59 94 55 95 56 96 57 97 58 98
REMARK H PARENT 16 8 6 17 9 19 2 25 23 32 82 51 50 62
REMARK Flexibility Score: inf
ROOT
ATOM      1  C   UNL A   1      34.803  20.818  24.597  1.00  0.00     0.002 C 
ENDROOT
BRANCH   1   2
ATOM      2  C   UNL A   1      34.023  19.536  24.928  1.00  0.00     0.002 C 
BRANCH   2   3
ATOM      3  C   UNL A   1      32.560  19.757  25.332  1.00  0.00     0.021 C 
BRANCH   3   4
ATOM      4  C   UNL A   1      32.024  21.144  24.959  1.00  0.00     0.116 C 
BRANCH   4   5
ATOM      5  N   UNL A   1      31.638  21.953  26.106  1.00  0.00    -0.356 N 
ATOM      6  C   UNL A   1      31.446  23.309  26.188  1.00  0.00     0.227 C 
ATOM      7  O   UNL A   1      30.873  23.767  27.177  1.00  0.00    -0.274 OA
ATOM      8  H   UNL A   1      31.496  21.455  26.944  1.00  0.00     0.163 HD
BRANCH   6   9
ATOM      9  C   UNL A   1      31.963  24.203  25.058  1.00  0.00     0.103 C 
ATOM     10  C   UNL A   1      32.895  23.662  22.849  1.00  0.00     0.107 C 
ATOM     11  C   UNL A   1      33.952  24.123  23.788  1.00  0.00    -0.006 C 
ATOM     12  C   UNL A   1      31.592  23.687  23.651  1.00  0.00     0.047 C 
ATOM     13  C   UNL A   1      33.460  24.340  25.014  1.00  0.00    -0.016 C 
BRANCH  10  14
ATOM     14  N   UNL A   1      32.930  24.329  21.555  1.00  0.00    -0.332 N 
ATOM     15  N   UNL A   1      32.583  26.685  21.572  1.00  0.00    -0.335 N 
ATOM     16  C   UNL A   1      32.794  25.517  20.968  1.00  0.00     0.315 C 
ATOM     17  H   UNL A   1      32.432  27.427  20.942  1.00  0.00     0.165 HD
ATOM     18  O   UNL A   1      32.868  25.528  19.734  1.00  0.00    -0.249 OA
ATOM     19  H   UNL A   1      33.126  23.657  20.862  1.00  0.00     0.165 HD
BRANCH  15  20
ATOM     20  C   UNL A   1      32.528  27.092  22.955  1.00  0.00     0.095 C 
ATOM     21  C   UNL A   1      32.209  28.917  26.753  1.00  0.00     0.332 C 
ATOM     22  N   UNL A   1      32.172  28.771  25.295  1.00  0.00    -0.337 N 
ATOM     23  C   UNL A   1      31.113  27.847  24.876  1.00  0.00     0.264 C 
ATOM     24  C   UNL A   1      33.510  28.434  24.793  1.00  0.00     0.264 C 
ATOM     25  H   UNL A   1      31.920  29.662  24.866  1.00  0.00     0.347 HD
ATOM     26  C   UNL A   1      31.131  27.535  23.378  1.00  0.00     0.086 C 
ATOM     27  C   UNL A   1      33.524  28.195  23.285  1.00  0.00     0.086 C 
ENDBRANCH  15  20
ENDBRANCH  10  14
ENDBRANCH   6   9
ENDBRANCH   4   5
ENDBRANCH   3   4
ENDBRANCH   2   3
ENDBRANCH   1   2
BRANCH   1  28
ATOM     28  C   UNL A   1      35.765  21.314  25.681  1.00  0.00     0.021 C 
BRANCH  28  29
ATOM     29  C   UNL A   1      37.179  21.642  25.208  1.00  0.00     0.116 C 
BRANCH  29  30
ATOM     30  N   UNL A   1      38.154  20.658  25.653  1.00  0.00    -0.352 N 
ATOM     31  C   UNL A   1      39.408  20.829  26.182  1.00  0.00     0.251 C 
ATOM     32  H   UNL A   1      37.868  19.721  25.560  1.00  0.00     0.163 HD
ATOM     33  O   UNL A   1      40.152  19.852  26.290  1.00  0.00    -0.269 OA
BRANCH  31  34
ATOM     34  C   UNL A   1      39.876  22.167  26.601  1.00  0.00     0.039 A 
ATOM     35  C   UNL A   1      40.916  22.261  27.530  1.00  0.00     0.014 A 
ATOM     36  C   UNL A   1      39.278  23.329  26.105  1.00  0.00     0.014 A 
ATOM     37  C   UNL A   1      41.400  23.516  27.907  1.00  0.00     0.010 A 
ATOM     38  C   UNL A   1      39.813  24.577  26.422  1.00  0.00     0.010 A 
ATOM     39  C   UNL A   1      40.880  24.685  27.326  1.00  0.00    -0.014 A 
BRANCH  39  40
ATOM     40  C   UNL A   1      41.444  26.022  27.648  1.00  0.00     0.031 A 
ATOM     41  C   UNL A   1      42.834  26.389  27.199  1.00  0.00     0.074 A 
ATOM     42  C   UNL A   1      40.725  26.885  28.395  1.00  0.00     0.049 A 
ATOM     43  N   UNL A   1      43.522  27.475  27.442  1.00  0.00    -0.248 NA
ATOM     44  C   UNL A   1      43.552  25.389  26.395  1.00  0.00     0.031 C 
ATOM     45  C   UNL A   1      39.381  26.630  28.917  1.00  0.00     0.029 A 
ATOM     46  N   UNL A   1      41.020  28.146  28.850  1.00  0.00    -0.354 N 
ATOM     47  C   UNL A   1      44.756  27.288  26.827  1.00  0.00     0.074 A 
ATOM     48  C   UNL A   1      44.741  25.956  26.258  1.00  0.00     0.031 C 
ATOM     49  C   UNL A   1      38.958  27.710  29.592  1.00  0.00     0.029 A 
ATOM     50  C   UNL A   1      40.017  28.713  29.602  1.00  0.00     0.049 A 
ATOM     51  H   UNL A   1      41.871  28.603  28.656  1.00  0.00     0.167 HD
ATOM     52  C   UNL A   1      45.795  28.155  26.725  1.00  0.00     0.034 A 
ATOM     53  C   UNL A   1      39.961  29.899  30.239  1.00  0.00     0.034 A 
ATOM     54  C   UNL A   1      45.790  29.481  27.296  1.00  0.00     0.049 A 
ATOM     55  C   UNL A   1      41.147  30.827  30.153  1.00  0.00     0.074 A 
ATOM     56  C   UNL A   1      46.766  30.458  27.214  1.00  0.00     0.029 A 
ATOM     57  N   UNL A   1      44.764  30.014  28.067  1.00  0.00    -0.354 N 
ATOM     58  N   UNL A   1      42.288  30.654  29.525  1.00  0.00    -0.248 NA
ATOM     59  C   UNL A   1      41.035  32.112  30.853  1.00  0.00     0.031 C 
ATOM     60  C   UNL A   1      46.368  31.547  27.996  1.00  0.00     0.029 A 
ATOM     61  C   UNL A   1      45.101  31.289  28.496  1.00  0.00     0.049 A 
ATOM     62  H   UNL A   1      43.918  29.554  28.277  1.00  0.00     0.167 HD
ATOM     63  C   UNL A   1      43.015  31.824  29.730  1.00  0.00     0.074 A 
ATOM     64  C   UNL A   1      42.175  32.699  30.522  1.00  0.00     0.031 C 
ATOM     65  C   UNL A   1      44.261  32.148  29.298  1.00  0.00     0.034 A 
BRANCH  52  66
ATOM     66  C   UNL A   1      47.029  27.683  25.992  1.00  0.00     0.023 A 
ATOM     67  C   UNL A   1      47.242  27.982  24.635  1.00  0.00     0.031 A 
ATOM     68  C   UNL A   1      47.996  26.905  26.651  1.00  0.00     0.131 A 
ATOM     69  C   UNL A   1      48.351  27.444  23.963  1.00  0.00     0.055 A 
ATOM     70  C   UNL A   1      49.144  26.445  26.000  1.00  0.00     0.041 A 
ATOM     71  F   UNL A   1      47.840  26.565  27.941  1.00  0.00    -0.206 F 
ATOM     72  C   UNL A   1      49.318  26.701  24.643  1.00  0.00     0.022 A 
BRANCH  69  73
ATOM     73  S   UNL A   1      48.428  27.602  22.158  1.00  0.00     0.124 S 
ATOM     74  O   UNL A   1      49.567  28.502  21.990  1.00  0.00    -0.237 OA
ATOM     75  O   UNL A   1      48.634  26.225  21.729  1.00  0.00    -0.237 OA
ATOM     76  O   UNL A   1      47.132  28.179  21.808  1.00  0.00    -0.744 OA
ENDBRANCH  69  73
ENDBRANCH  52  66
BRANCH  53  77
ATOM     77  C   UNL A   1      38.753  30.278  31.029  1.00  0.00     0.023 A 
ATOM     78  C   UNL A   1      37.700  30.997  30.441  1.00  0.00     0.031 A 
ATOM     79  C   UNL A   1      38.653  29.970  32.397  1.00  0.00     0.131 A 
ATOM     80  C   UNL A   1      36.619  31.428  31.226  1.00  0.00     0.055 A 
ATOM     81  C   UNL A   1      37.547  30.347  33.162  1.00  0.00     0.041 A 
ATOM     82  F   UNL A   1      39.629  29.283  33.012  1.00  0.00    -0.206 F 
ATOM     83  C   UNL A   1      36.528  31.093  32.579  1.00  0.00     0.022 A 
BRANCH  80  84
ATOM     84  S   UNL A   1      35.379  32.517  30.474  1.00  0.00     0.124 S 
ATOM     85  O   UNL A   1      34.342  32.535  31.500  1.00  0.00    -0.237 OA
ATOM     86  O   UNL A   1      36.131  33.755  30.298  1.00  0.00    -0.237 OA
ATOM     87  O   UNL A   1      35.023  31.824  29.238  1.00  0.00    -0.744 OA
ENDBRANCH  80  84
ENDBRANCH  53  77
BRANCH  65  88
ATOM     88  C   UNL A   1      44.770  33.527  29.642  1.00  0.00     0.023 A 
ATOM     89  C   UNL A   1      44.584  34.623  28.781  1.00  0.00     0.031 A 
ATOM     90  C   UNL A   1      45.463  33.745  30.847  1.00  0.00     0.131 A 
ATOM     91  C   UNL A   1      45.136  35.871  29.108  1.00  0.00     0.055 A 
ATOM     92  C   UNL A   1      45.950  35.005  31.199  1.00  0.00     0.041 A 
ATOM     93  F   UNL A   1      45.676  32.734  31.705  1.00  0.00    -0.206 F 
ATOM     94  C   UNL A   1      45.800  36.074  30.321  1.00  0.00     0.022 A 
BRANCH  91  95
ATOM     95  S   UNL A   1      45.063  37.204  27.881  1.00  0.00     0.124 S 
ATOM     96  O   UNL A   1      46.061  38.140  28.390  1.00  0.00    -0.237 OA
ATOM     97  O   UNL A   1      45.412  36.510  26.645  1.00  0.00    -0.237 OA
ATOM     98  O   UNL A   1      43.680  37.668  27.961  1.00  0.00    -0.744 OA
ENDBRANCH  91  95
ENDBRANCH  65  88
ENDBRANCH  39  40
ENDBRANCH  31  34
ENDBRANCH  29  30
ENDBRANCH  28  29
ENDBRANCH   1  28
TORSDOF 18
ENDMDL
MODEL 3
REMARK VINA RESULT:     -11.9      3.065      8.577
REMARK SMILES C[NH+]1CCC(NC(=O)N[C@H]2C=C[C@H](C(=O)NCCCCCCNC(=O)c3ccc(-c4c5nc(c(-c6cc(S(=O)(=O)[O-])ccc6F)c6ccc([nH]6)c(-c6cc(S(=O)(=O)[O-])ccc6F)c6nc(c(-c7cc(S(=O)(=O)[O-])ccc7F)c7ccc4[nH]7)C=C6)C=C5)cc3)C2)CC1
REMARK SMILES IDX 20 1 19 2 18 3 17 4 16 5 14 6 15 7 13 9 10 10 11 11 89 12
REMARK SMILES IDX 12 13 9 14 6 15 7 16 8 18 5 20 1 21 2 22 3 23 91 24 4 26
REMARK SMILES IDX 90 27 21 28 22 29 23 30 24 31 25 33 26 34 27 35 88 36 28 37
REMARK SMILES IDX 87 38 29 39 30 40 31 41 81 42 32 43 86 44 80 45 82 46 33 47
REMARK SMILES IDX 85 48 79 49 78 50 34 52 66 53 46 54 65 55 47 56 50 57 64 58
REMARK SMILES IDX 83 59 48 60 49 61 63 63 84 64 51 65 35 66 36 67 44 68 37 69
REMARK SMILES IDX 43 70 45 71 42 72 38 73 39 74 40 75 41 76 67 77 68 78 76 79
REMARK SMILES IDX 69 80 75 81 77 82 74 83 70 84 71 85 72 86 73 87 52 88 53 89
REMARK SMILES IDX 61 90 54 91 60 92 62 93 59 94 55 95 56 96 57 97 58 98
REMARK H PARENT 16 8 6 17 9 19 2 25 23 32 82 51 50 62
REMARK Flexibility Score: inf
ROOT
ATOM      1  C   UNL A   1      31.749  28.255  27.360  1.00  0.00     0.002 C 
ENDROOT
BRANCH   1   2
ATOM      2  C   UNL A   1      31.460  26.844  26.824  1.00  0.00     0.002 C 
BRANCH   2   3
ATOM      3  C   UNL A   1      30.411  26.781  25.707  1.00  0.00     0.021 C 
BRANCH   3   4
ATOM      4  C   UNL A   1      30.271  25.390  25.077  1.00  0.00     0.116 C 
BRANCH   4   5
ATOM      5  N   UNL A   1      29.776  24.376  25.996  1.00  0.00    -0.356 N 
ATOM      6  C   UNL A   1      30.474  23.437  26.714  1.00  0.00     0.227 C 
ATOM      7  O   UNL A   1      29.900  22.845  27.628  1.00  0.00    -0.274 OA
ATOM      8  H   UNL A   1      28.799  24.360  26.120  1.00  0.00     0.163 HD
BRANCH   6   9
ATOM      9  C   UNL A   1      31.932  23.152  26.344  1.00  0.00     0.103 C 
ATOM     10  C   UNL A   1      33.382  21.222  26.809  1.00  0.00     0.107 C 
ATOM     11  C   UNL A   1      33.753  22.395  27.643  1.00  0.00    -0.006 C 
ATOM     12  C   UNL A   1      32.189  21.677  25.965  1.00  0.00     0.047 C 
ATOM     13  C   UNL A   1      32.914  23.421  27.451  1.00  0.00    -0.016 C 
BRANCH  10  14
ATOM     14  N   UNL A   1      34.514  20.600  26.137  1.00  0.00    -0.332 N 
ATOM     15  N   UNL A   1      35.330  21.711  24.195  1.00  0.00    -0.335 N 
ATOM     16  C   UNL A   1      35.324  20.722  25.087  1.00  0.00     0.315 C 
ATOM     17  H   UNL A   1      35.960  21.561  23.453  1.00  0.00     0.165 HD
ATOM     18  O   UNL A   1      36.152  19.817  24.928  1.00  0.00    -0.249 OA
ATOM     19  H   UNL A   1      34.775  19.797  26.643  1.00  0.00     0.165 HD
BRANCH  15  20
ATOM     20  C   UNL A   1      34.607  22.954  24.088  1.00  0.00     0.095 C 
ATOM     21  C   UNL A   1      33.044  26.821  23.408  1.00  0.00     0.332 C 
ATOM     22  N   UNL A   1      33.967  25.686  23.341  1.00  0.00    -0.337 N 
ATOM     23  C   UNL A   1      33.378  24.558  22.611  1.00  0.00     0.264 C 
ATOM     24  C   UNL A   1      34.450  25.354  24.688  1.00  0.00     0.264 C 
ATOM     25  H   UNL A   1      34.791  25.942  22.796  1.00  0.00     0.347 HD
ATOM     26  C   UNL A   1      34.235  23.291  22.647  1.00  0.00     0.086 C 
ATOM     27  C   UNL A   1      35.361  24.129  24.697  1.00  0.00     0.086 C 
ENDBRANCH  15  20
ENDBRANCH  10  14
ENDBRANCH   6   9
ENDBRANCH   4   5
ENDBRANCH   3   4
ENDBRANCH   2   3
ENDBRANCH   1   2
BRANCH   1  28
ATOM     28  C   UNL A   1      32.178  29.292  26.317  1.00  0.00     0.021 C 
BRANCH  28  29
ATOM     29  C   UNL A   1      33.587  29.854  26.487  1.00  0.00     0.116 C 
BRANCH  29  30
ATOM     30  N   UNL A   1      33.584  31.190  27.063  1.00  0.00    -0.352 N 
ATOM     31  C   UNL A   1      34.399  31.747  28.015  1.00  0.00     0.251 C 
ATOM     32  H   UNL A   1      32.886  31.790  26.714  1.00  0.00     0.163 HD
ATOM     33  O   UNL A   1      34.086  32.828  28.516  1.00  0.00    -0.269 OA
BRANCH  31  34
ATOM     34  C   UNL A   1      35.630  31.055  28.455  1.00  0.00     0.039 A 
ATOM     35  C   UNL A   1      36.869  31.543  28.031  1.00  0.00     0.014 A 
ATOM     36  C   UNL A   1      35.569  29.914  29.260  1.00  0.00     0.014 A 
ATOM     37  C   UNL A   1      38.045  30.929  28.470  1.00  0.00     0.010 A 
ATOM     38  C   UNL A   1      36.742  29.351  29.759  1.00  0.00     0.010 A 
ATOM     39  C   UNL A   1      37.993  29.852  29.370  1.00  0.00    -0.014 A 
BRANCH  39  40
ATOM     40  C   UNL A   1      39.236  29.244  29.917  1.00  0.00     0.031 A 
ATOM     41  C   UNL A   1      39.887  29.823  31.144  1.00  0.00     0.074 A 
ATOM     42  C   UNL A   1      39.808  28.206  29.274  1.00  0.00     0.049 A 
ATOM     43  N   UNL A   1      41.006  29.478  31.728  1.00  0.00    -0.248 NA
ATOM     44  C   UNL A   1      39.203  30.958  31.782  1.00  0.00     0.031 C 
ATOM     45  C   UNL A   1      39.288  27.581  28.056  1.00  0.00     0.029 A 
ATOM     46  N   UNL A   1      40.950  27.496  29.546  1.00  0.00    -0.354 N 
ATOM     47  C   UNL A   1      41.164  30.355  32.796  1.00  0.00     0.074 A 
ATOM     48  C   UNL A   1      40.059  31.289  32.736  1.00  0.00     0.031 C 
ATOM     49  C   UNL A   1      40.091  26.564  27.706  1.00  0.00     0.029 A 
ATOM     50  C   UNL A   1      41.212  26.496  28.637  1.00  0.00     0.049 A 
ATOM     51  H   UNL A   1      41.528  27.684  30.321  1.00  0.00     0.167 HD
ATOM     52  C   UNL A   1      42.128  30.366  33.751  1.00  0.00     0.034 A 
ATOM     53  C   UNL A   1      42.244  25.634  28.554  1.00  0.00     0.034 A 
ATOM     54  C   UNL A   1      43.222  29.424  33.797  1.00  0.00     0.049 A 
ATOM     55  C   UNL A   1      43.329  25.696  29.600  1.00  0.00     0.074 A 
ATOM     56  C   UNL A   1      44.224  29.314  34.744  1.00  0.00     0.029 A 
ATOM     57  N   UNL A   1      43.464  28.438  32.849  1.00  0.00    -0.354 N 
ATOM     58  N   UNL A   1      43.437  26.502  30.632  1.00  0.00    -0.248 NA
ATOM     59  C   UNL A   1      44.426  24.729  29.474  1.00  0.00     0.031 C 
ATOM     60  C   UNL A   1      45.114  28.318  34.329  1.00  0.00     0.029 A 
ATOM     61  C   UNL A   1      44.620  27.742  33.169  1.00  0.00     0.049 A 
ATOM     62  H   UNL A   1      42.897  28.257  32.064  1.00  0.00     0.167 HD
ATOM     63  C   UNL A   1      44.598  26.114  31.295  1.00  0.00     0.074 A 
ATOM     64  C   UNL A   1      45.142  24.993  30.556  1.00  0.00     0.031 C 
ATOM     65  C   UNL A   1      45.161  26.634  32.416  1.00  0.00     0.034 A 
BRANCH  52  66
ATOM     66  C   UNL A   1      42.054  31.446  34.806  1.00  0.00     0.023 A 
ATOM     67  C   UNL A   1      41.024  31.475  35.763  1.00  0.00     0.031 A 
ATOM     68  C   UNL A   1      43.011  32.475  34.843  1.00  0.00     0.131 A 
ATOM     69  C   UNL A   1      40.933  32.547  36.665  1.00  0.00     0.055 A 
ATOM     70  C   UNL A   1      42.965  33.492  35.799  1.00  0.00     0.041 A 
ATOM     71  F   UNL A   1      44.006  32.517  33.942  1.00  0.00    -0.206 F 
ATOM     72  C   UNL A   1      41.912  33.542  36.707  1.00  0.00     0.022 A 
BRANCH  69  73
ATOM     73  S   UNL A   1      39.434  32.702  37.674  1.00  0.00     0.124 S 
ATOM     74  O   UNL A   1      38.902  33.984  37.216  1.00  0.00    -0.237 OA
ATOM     75  O   UNL A   1      38.672  31.521  37.291  1.00  0.00    -0.237 OA
ATOM     76  O   UNL A   1      39.942  32.702  39.045  1.00  0.00    -0.744 OA
ENDBRANCH  69  73
ENDBRANCH  52  66
BRANCH  53  77
ATOM     77  C   UNL A   1      42.318  24.647  27.437  1.00  0.00     0.023 A 
ATOM     78  C   UNL A   1      41.522  23.490  27.440  1.00  0.00     0.031 A 
ATOM     79  C   UNL A   1      43.220  24.821  26.372  1.00  0.00     0.131 A 
ATOM     80  C   UNL A   1      41.679  22.528  26.430  1.00  0.00     0.055 A 
ATOM     81  C   UNL A   1      43.329  23.891  25.336  1.00  0.00     0.041 A 
ATOM     82  F   UNL A   1      44.004  25.909  26.317  1.00  0.00    -0.206 F 
ATOM     83  C   UNL A   1      42.565  22.729  25.370  1.00  0.00     0.022 A 
BRANCH  80  84
ATOM     84  S   UNL A   1      40.775  20.962  26.574  1.00  0.00     0.124 S 
ATOM     85  O   UNL A   1      41.544  20.095  25.689  1.00  0.00    -0.237 OA
ATOM     86  O   UNL A   1      40.883  20.681  28.002  1.00  0.00    -0.237 OA
ATOM     87  O   UNL A   1      39.432  21.301  26.107  1.00  0.00    -0.744 OA
ENDBRANCH  80  84
ENDBRANCH  53  77
BRANCH  65  88
ATOM     88  C   UNL A   1      46.411  25.962  32.932  1.00  0.00     0.023 A 
ATOM     89  C   UNL A   1      46.357  24.882  33.831  1.00  0.00     0.031 A 
ATOM     90  C   UNL A   1      47.679  26.418  32.526  1.00  0.00     0.131 A 
ATOM     91  C   UNL A   1      47.544  24.334  34.339  1.00  0.00     0.055 A 
ATOM     92  C   UNL A   1      48.856  25.823  32.981  1.00  0.00     0.041 A 
ATOM     93  F   UNL A   1      47.792  27.450  31.674  1.00  0.00    -0.206 F 
ATOM     94  C   UNL A   1      48.794  24.785  33.904  1.00  0.00     0.022 A 
BRANCH  91  95
ATOM     95  S   UNL A   1      47.436  23.090  35.655  1.00  0.00     0.124 S 
ATOM     96  O   UNL A   1      46.057  22.630  35.524  1.00  0.00    -0.237 OA
ATOM     97  O   UNL A   1      48.467  22.133  35.266  1.00  0.00    -0.237 OA
ATOM     98  O   UNL A   1      47.724  23.851  36.870  1.00  0.00    -0.744 OA
ENDBRANCH  91  95
ENDBRANCH  65  88
ENDBRANCH  39  40
ENDBRANCH  31  34
ENDBRANCH  29  30
ENDBRANCH  28  29
ENDBRANCH   1  28
TORSDOF 18
ENDMDL
