MODEL 1
REMARK VINA RESULT:     -10.8      0.000      0.000
REMARK SMILES Cc1cc(NC[C@H](C)[NH+](C)C)cc(C(=O)NCCCCCCNC(=O)c2ccc(-c3c4nc(c(-c5cc(S(=O)(=O)[O-])ccc5F)c5ccc([nH]5)c(-c5cc(S(=O)(=O)[O-])ccc5F)c5nc(c(-c6cc(S(=O)(=O)[O-])ccc6F)c6ccc3[nH]6)C=C5)C=C4)cc2)c1N
REMARK SMILES IDX 19 1 18 2 17 3 16 4 14 5 15 6 13 8 1 9 2 10 3 11 89 12 4 13
REMARK SMILES IDX 12 14 90 15 5 18 6 20 7 21 8 22 9 23 10 24 11 25 20 27 21 28
REMARK SMILES IDX 22 29 23 30 24 31 25 33 26 34 27 35 88 36 28 37 87 38 29 39
REMARK SMILES IDX 30 40 31 41 81 42 32 43 86 44 80 45 82 46 33 47 85 48 79 49
REMARK SMILES IDX 78 50 34 52 66 53 46 54 65 55 47 56 50 57 64 58 83 59 48 60
REMARK SMILES IDX 49 61 63 63 84 64 51 65 35 66 36 67 44 68 37 69 43 70 45 71
REMARK SMILES IDX 42 72 38 73 39 74 40 75 41 76 67 77 68 78 76 79 69 80 75 81
REMARK SMILES IDX 77 82 74 83 70 84 71 85 72 86 73 87 52 88 53 89 61 90 54 91
REMARK SMILES IDX 60 92 62 93 59 94 55 95 56 96 57 97 58 98
REMARK H PARENT 16 7 90 16 90 17 5 19 9 26 23 32 82 51 50 62
REMARK Flexibility Score: inf
ROOT
ATOM      1  C   UNL A   1      32.146  29.576  27.012  1.00  0.00     0.002 C 
ENDROOT
BRANCH   1   2
ATOM      2  C   UNL A   1      33.652  29.283  26.970  1.00  0.00     0.021 C 
BRANCH   2   3
ATOM      3  C   UNL A   1      34.000  28.097  26.063  1.00  0.00     0.116 C 
BRANCH   3   4
ATOM      4  N   UNL A   1      34.080  28.545  24.683  1.00  0.00    -0.352 N 
ATOM      5  C   UNL A   1      33.274  28.378  23.581  1.00  0.00     0.253 C 
ATOM      6  O   UNL A   1      33.703  28.848  22.523  1.00  0.00    -0.269 OA
ATOM      7  H   UNL A   1      34.882  29.084  24.497  1.00  0.00     0.163 HD
BRANCH   5   8
ATOM      8  C   UNL A   1      31.923  27.726  23.617  1.00  0.00     0.065 A 
ATOM      9  C   UNL A   1      28.253  28.567  22.928  1.00  0.00     0.046 C 
ATOM     10  C   UNL A   1      29.505  27.851  23.359  1.00  0.00    -0.025 A 
ATOM     11  C   UNL A   1      29.397  26.557  23.904  1.00  0.00     0.031 A 
ATOM     12  C   UNL A   1      30.774  28.456  23.228  1.00  0.00     0.047 A 
ATOM     13  C   UNL A   1      30.525  25.823  24.270  1.00  0.00     0.035 A 
ATOM     14  C   UNL A   1      31.771  26.390  24.002  1.00  0.00     0.041 A 
BRANCH  12  15
ATOM     15  N   UNL A   1      30.861  29.803  22.857  1.00  0.00    -0.398 N 
ATOM     16  H   UNL A   1      31.263  30.459  23.473  1.00  0.00     0.156 HD
ATOM     17  H   UNL A   1      30.521  30.096  21.981  1.00  0.00     0.156 HD
ENDBRANCH  12  15
BRANCH  13  18
ATOM     18  N   UNL A   1      30.391  24.575  24.863  1.00  0.00    -0.379 N 
ATOM     19  H   UNL A   1      29.577  24.045  24.700  1.00  0.00     0.160 HD
BRANCH  18  20
ATOM     20  C   UNL A   1      31.443  24.032  25.730  1.00  0.00     0.177 C 
BRANCH  20  21
ATOM     21  C   UNL A   1      32.345  22.973  25.033  1.00  0.00     0.199 C 
ATOM     22  C   UNL A   1      31.725  21.580  25.255  1.00  0.00     0.077 C 
BRANCH  21  23
ATOM     23  N   UNL A   1      33.783  22.963  25.393  1.00  0.00    -0.336 N 
ATOM     24  C   UNL A   1      34.545  21.946  24.676  1.00  0.00     0.332 C 
ATOM     25  C   UNL A   1      34.452  24.259  25.291  1.00  0.00     0.332 C 
ATOM     26  H   UNL A   1      33.770  22.722  26.384  1.00  0.00     0.347 HD
ENDBRANCH  21  23
ENDBRANCH  20  21
ENDBRANCH  18  20
ENDBRANCH  13  18
ENDBRANCH   5   8
ENDBRANCH   3   4
ENDBRANCH   2   3
ENDBRANCH   1   2
BRANCH   1  27
ATOM     27  C   UNL A   1      31.708  30.762  26.144  1.00  0.00     0.002 C 
BRANCH  27  28
ATOM     28  C   UNL A   1      31.546  32.084  26.900  1.00  0.00     0.021 C 
BRANCH  28  29
ATOM     29  C   UNL A   1      32.866  32.756  27.265  1.00  0.00     0.116 C 
BRANCH  29  30
ATOM     30  N   UNL A   1      32.666  34.147  27.636  1.00  0.00    -0.352 N 
ATOM     31  C   UNL A   1      33.195  34.848  28.691  1.00  0.00     0.251 C 
ATOM     32  H   UNL A   1      32.066  34.660  27.046  1.00  0.00     0.163 HD
ATOM     33  O   UNL A   1      32.708  35.925  29.014  1.00  0.00    -0.269 OA
BRANCH  31  34
ATOM     34  C   UNL A   1      34.343  34.288  29.436  1.00  0.00     0.039 A 
ATOM     35  C   UNL A   1      34.107  33.585  30.620  1.00  0.00     0.014 A 
ATOM     36  C   UNL A   1      35.649  34.470  28.973  1.00  0.00     0.014 A 
ATOM     37  C   UNL A   1      35.181  33.020  31.312  1.00  0.00     0.010 A 
ATOM     38  C   UNL A   1      36.709  33.843  29.624  1.00  0.00     0.010 A 
ATOM     39  C   UNL A   1      36.487  33.118  30.802  1.00  0.00    -0.014 A 
BRANCH  39  40
ATOM     40  C   UNL A   1      37.633  32.475  31.497  1.00  0.00     0.031 A 
ATOM     41  C   UNL A   1      38.390  31.360  30.826  1.00  0.00     0.074 A 
ATOM     42  C   UNL A   1      37.952  32.857  32.749  1.00  0.00     0.049 A 
ATOM     43  N   UNL A   1      39.365  30.624  31.293  1.00  0.00    -0.248 NA
ATOM     44  C   UNL A   1      37.976  31.009  29.459  1.00  0.00     0.031 C 
ATOM     45  C   UNL A   1      37.268  33.902  33.513  1.00  0.00     0.029 A 
ATOM     46  N   UNL A   1      38.926  32.408  33.607  1.00  0.00    -0.354 N 
ATOM     47  C   UNL A   1      39.673  29.717  30.285  1.00  0.00     0.074 A 
ATOM     48  C   UNL A   1      38.740  29.957  29.205  1.00  0.00     0.031 C 
ATOM     49  C   UNL A   1      37.858  34.031  34.712  1.00  0.00     0.029 A 
ATOM     50  C   UNL A   1      38.929  33.045  34.826  1.00  0.00     0.049 A 
ATOM     51  H   UNL A   1      39.564  31.696  33.370  1.00  0.00     0.167 HD
ATOM     52  C   UNL A   1      40.658  28.785  30.255  1.00  0.00     0.034 A 
ATOM     53  C   UNL A   1      39.694  32.847  35.917  1.00  0.00     0.034 A 
ATOM     54  C   UNL A   1      41.588  28.570  31.337  1.00  0.00     0.049 A 
ATOM     55  C   UNL A   1      40.762  31.782  35.870  1.00  0.00     0.074 A 
ATOM     56  C   UNL A   1      42.656  27.691  31.391  1.00  0.00     0.029 A 
ATOM     57  N   UNL A   1      41.559  29.231  32.557  1.00  0.00    -0.354 N 
ATOM     58  N   UNL A   1      41.073  30.966  34.887  1.00  0.00    -0.248 NA
ATOM     59  C   UNL A   1      41.590  31.618  37.071  1.00  0.00     0.031 C 
ATOM     60  C   UNL A   1      43.223  27.766  32.667  1.00  0.00     0.029 A 
ATOM     61  C   UNL A   1      42.567  28.756  33.382  1.00  0.00     0.049 A 
ATOM     62  H   UNL A   1      40.915  29.935  32.802  1.00  0.00     0.167 HD
ATOM     63  C   UNL A   1      42.157  30.220  35.343  1.00  0.00     0.074 A 
ATOM     64  C   UNL A   1      42.454  30.695  36.679  1.00  0.00     0.031 C 
ATOM     65  C   UNL A   1      42.850  29.236  34.714  1.00  0.00     0.034 A 
BRANCH  52  66
ATOM     66  C   UNL A   1      40.762  27.915  29.025  1.00  0.00     0.023 A 
ATOM     67  C   UNL A   1      41.756  28.121  28.053  1.00  0.00     0.031 A 
ATOM     68  C   UNL A   1      39.851  26.864  28.819  1.00  0.00     0.131 A 
ATOM     69  C   UNL A   1      41.776  27.334  26.892  1.00  0.00     0.055 A 
ATOM     70  C   UNL A   1      39.925  26.031  27.701  1.00  0.00     0.041 A 
ATOM     71  F   UNL A   1      38.864  26.631  29.700  1.00  0.00    -0.206 F 
ATOM     72  C   UNL A   1      40.885  26.273  26.721  1.00  0.00     0.022 A 
BRANCH  69  73
ATOM     73  S   UNL A   1      42.898  27.802  25.546  1.00  0.00     0.124 S 
ATOM     74  O   UNL A   1      43.291  26.495  25.024  1.00  0.00    -0.237 OA
ATOM     75  O   UNL A   1      42.040  28.603  24.681  1.00  0.00    -0.237 OA
ATOM     76  O   UNL A   1      43.962  28.537  26.226  1.00  0.00    -0.744 OA
ENDBRANCH  69  73
ENDBRANCH  52  66
BRANCH  53  77
ATOM     77  C   UNL A   1      39.479  33.652  37.155  1.00  0.00     0.023 A 
ATOM     78  C   UNL A   1      40.202  34.834  37.384  1.00  0.00     0.031 A 
ATOM     79  C   UNL A   1      38.592  33.220  38.158  1.00  0.00     0.131 A 
ATOM     80  C   UNL A   1      40.073  35.509  38.607  1.00  0.00     0.055 A 
ATOM     81  C   UNL A   1      38.420  33.930  39.348  1.00  0.00     0.041 A 
ATOM     82  F   UNL A   1      37.873  32.099  37.993  1.00  0.00    -0.206 F 
ATOM     83  C   UNL A   1      39.176  35.074  39.585  1.00  0.00     0.022 A 
BRANCH  80  84
ATOM     84  S   UNL A   1      41.180  36.905  38.949  1.00  0.00     0.124 S 
ATOM     85  O   UNL A   1      41.833  36.469  40.179  1.00  0.00    -0.237 OA
ATOM     86  O   UNL A   1      42.013  36.929  37.753  1.00  0.00    -0.237 OA
ATOM     87  O   UNL A   1      40.266  38.036  39.094  1.00  0.00    -0.744 OA
ENDBRANCH  80  84
ENDBRANCH  53  77
BRANCH  65  88
ATOM     88  C   UNL A   1      44.030  28.648  35.449  1.00  0.00     0.023 A 
ATOM     89  C   UNL A   1      43.884  27.595  36.368  1.00  0.00     0.031 A 
ATOM     90  C   UNL A   1      45.322  29.157  35.226  1.00  0.00     0.131 A 
ATOM     91  C   UNL A   1      45.002  27.126  37.075  1.00  0.00     0.055 A 
ATOM     92  C   UNL A   1      46.440  28.641  35.883  1.00  0.00     0.041 A 
ATOM     93  F   UNL A   1      45.521  30.164  34.361  1.00  0.00    -0.206 F 
ATOM     94  C   UNL A   1      46.281  27.629  36.824  1.00  0.00     0.022 A 
BRANCH  91  95
ATOM     95  S   UNL A   1      44.748  25.915  38.401  1.00  0.00     0.124 S 
ATOM     96  O   UNL A   1      43.535  26.416  39.041  1.00  0.00    -0.237 OA
ATOM     97  O   UNL A   1      44.608  24.665  37.661  1.00  0.00    -0.237 OA
ATOM     98  O   UNL A   1      45.963  26.025  39.205  1.00  0.00    -0.744 OA
ENDBRANCH  91  95
ENDBRANCH  65  88
ENDBRANCH  39  40
ENDBRANCH  31  34
ENDBRANCH  29  30
ENDBRANCH  28  29
ENDBRANCH  27  28
ENDBRANCH   1  27
TORSDOF 21
ENDMDL
MODEL 2
REMARK VINA RESULT:     -10.8      5.451     10.521
REMARK SMILES Cc1cc(NC[C@H](C)[NH+](C)C)cc(C(=O)NCCCCCCNC(=O)c2ccc(-c3c4nc(c(-c5cc(S(=O)(=O)[O-])ccc5F)c5ccc([nH]5)c(-c5cc(S(=O)(=O)[O-])ccc5F)c5nc(c(-c6cc(S(=O)(=O)[O-])ccc6F)c6ccc3[nH]6)C=C5)C=C4)cc2)c1N
REMARK SMILES IDX 19 1 18 2 17 3 16 4 14 5 15 6 13 8 1 9 2 10 3 11 89 12 4 13
REMARK SMILES IDX 12 14 90 15 5 18 6 20 7 21 8 22 9 23 10 24 11 25 20 27 21 28
REMARK SMILES IDX 22 29 23 30 24 31 25 33 26 34 27 35 88 36 28 37 87 38 29 39
REMARK SMILES IDX 30 40 31 41 81 42 32 43 86 44 80 45 82 46 33 47 85 48 79 49
REMARK SMILES IDX 78 50 34 52 66 53 46 54 65 55 47 56 50 57 64 58 83 59 48 60
REMARK SMILES IDX 49 61 63 63 84 64 51 65 35 66 36 67 44 68 37 69 43 70 45 71
REMARK SMILES IDX 42 72 38 73 39 74 40 75 41 76 67 77 68 78 76 79 69 80 75 81
REMARK SMILES IDX 77 82 74 83 70 84 71 85 72 86 73 87 52 88 53 89 61 90 54 91
REMARK SMILES IDX 60 92 62 93 59 94 55 95 56 96 57 97 58 98
REMARK H PARENT 16 7 90 16 90 17 5 19 9 26 23 32 82 51 50 62
REMARK Flexibility Score: inf
ROOT
ATOM      1  C   UNL A   1      33.513  24.345  24.167  1.00  0.00     0.002 C 
ENDROOT
BRANCH   1   2
ATOM      2  C   UNL A   1      32.633  23.364  24.952  1.00  0.00     0.021 C 
BRANCH   2   3
ATOM      3  C   UNL A   1      31.192  23.313  24.431  1.00  0.00     0.116 C 
BRANCH   3   4
ATOM      4  N   UNL A   1      30.287  23.823  25.446  1.00  0.00    -0.352 N 
ATOM      5  C   UNL A   1      29.969  25.085  25.891  1.00  0.00     0.253 C 
ATOM      6  O   UNL A   1      29.192  25.141  26.848  1.00  0.00    -0.269 OA
ATOM      7  H   UNL A   1      29.794  23.113  25.917  1.00  0.00     0.163 HD
BRANCH   5   8
ATOM      8  C   UNL A   1      30.463  26.351  25.252  1.00  0.00     0.065 A 
ATOM      9  C   UNL A   1      32.982  29.159  25.897  1.00  0.00     0.046 C 
ATOM     10  C   UNL A   1      31.872  28.336  25.301  1.00  0.00    -0.025 A 
ATOM     11  C   UNL A   1      31.208  28.815  24.155  1.00  0.00     0.031 A 
ATOM     12  C   UNL A   1      31.490  27.102  25.873  1.00  0.00     0.047 A 
ATOM     13  C   UNL A   1      30.210  28.072  23.527  1.00  0.00     0.035 A 
ATOM     14  C   UNL A   1      29.948  26.798  24.031  1.00  0.00     0.041 A 
BRANCH  12  15
ATOM     15  N   UNL A   1      32.027  26.718  27.107  1.00  0.00    -0.398 N 
ATOM     16  H   UNL A   1      31.434  26.380  27.818  1.00  0.00     0.156 HD
ATOM     17  H   UNL A   1      32.995  26.786  27.266  1.00  0.00     0.156 HD
ENDBRANCH  12  15
BRANCH  13  18
ATOM     18  N   UNL A   1      29.525  28.592  22.436  1.00  0.00    -0.379 N 
ATOM     19  H   UNL A   1      28.844  28.043  21.985  1.00  0.00     0.160 HD
BRANCH  18  20
ATOM     20  C   UNL A   1      29.802  29.947  21.946  1.00  0.00     0.177 C 
BRANCH  20  21
ATOM     21  C   UNL A   1      29.074  31.064  22.747  1.00  0.00     0.199 C 
ATOM     22  C   UNL A   1      27.629  30.606  23.021  1.00  0.00     0.077 C 
BRANCH  21  23
ATOM     23  N   UNL A   1      29.085  32.429  22.170  1.00  0.00    -0.336 N 
ATOM     24  C   UNL A   1      28.017  32.648  21.199  1.00  0.00     0.332 C 
ATOM     25  C   UNL A   1      29.101  33.512  23.152  1.00  0.00     0.332 C 
ATOM     26  H   UNL A   1      29.980  32.467  21.683  1.00  0.00     0.347 HD
ENDBRANCH  21  23
ENDBRANCH  20  21
ENDBRANCH  18  20
ENDBRANCH  13  18
ENDBRANCH   5   8
ENDBRANCH   3   4
ENDBRANCH   2   3
ENDBRANCH   1   2
BRANCH   1  27
ATOM     27  C   UNL A   1      35.016  24.043  24.237  1.00  0.00     0.002 C 
BRANCH  27  28
ATOM     28  C   UNL A   1      35.365  22.558  24.368  1.00  0.00     0.021 C 
BRANCH  28  29
ATOM     29  C   UNL A   1      35.934  22.173  25.730  1.00  0.00     0.116 C 
BRANCH  29  30
ATOM     30  N   UNL A   1      36.857  21.055  25.621  1.00  0.00    -0.352 N 
ATOM     31  C   UNL A   1      38.228  21.052  25.686  1.00  0.00     0.251 C 
ATOM     32  H   UNL A   1      36.438  20.174  25.480  1.00  0.00     0.163 HD
ATOM     33  O   UNL A   1      38.855  20.072  25.299  1.00  0.00    -0.269 OA
BRANCH  31  34
ATOM     34  C   UNL A   1      38.936  22.238  26.213  1.00  0.00     0.039 A 
ATOM     35  C   UNL A   1      39.985  22.057  27.117  1.00  0.00     0.014 A 
ATOM     36  C   UNL A   1      38.554  23.525  25.825  1.00  0.00     0.014 A 
ATOM     37  C   UNL A   1      40.685  23.169  27.592  1.00  0.00     0.010 A 
ATOM     38  C   UNL A   1      39.300  24.625  26.241  1.00  0.00     0.010 A 
ATOM     39  C   UNL A   1      40.369  24.458  27.134  1.00  0.00    -0.014 A 
BRANCH  39  40
ATOM     40  C   UNL A   1      41.139  25.646  27.586  1.00  0.00     0.031 A 
ATOM     41  C   UNL A   1      40.462  26.720  28.394  1.00  0.00     0.074 A 
ATOM     42  C   UNL A   1      42.429  25.781  27.221  1.00  0.00     0.049 A 
ATOM     43  N   UNL A   1      40.938  27.862  28.816  1.00  0.00    -0.248 NA
ATOM     44  C   UNL A   1      39.053  26.490  28.750  1.00  0.00     0.031 C 
ATOM     45  C   UNL A   1      43.182  24.822  26.410  1.00  0.00     0.029 A 
ATOM     46  N   UNL A   1      43.337  26.780  27.474  1.00  0.00    -0.354 N 
ATOM     47  C   UNL A   1      39.888  28.492  29.476  1.00  0.00     0.074 A 
ATOM     48  C   UNL A   1      38.733  27.629  29.344  1.00  0.00     0.031 C 
ATOM     49  C   UNL A   1      44.440  25.265  26.255  1.00  0.00     0.029 A 
ATOM     50  C   UNL A   1      44.572  26.564  26.909  1.00  0.00     0.049 A 
ATOM     51  H   UNL A   1      43.123  27.577  28.011  1.00  0.00     0.167 HD
ATOM     52  C   UNL A   1      39.894  29.670  30.148  1.00  0.00     0.034 A 
ATOM     53  C   UNL A   1      45.680  27.331  26.903  1.00  0.00     0.034 A 
ATOM     54  C   UNL A   1      41.059  30.510  30.280  1.00  0.00     0.049 A 
ATOM     55  C   UNL A   1      45.651  28.652  27.631  1.00  0.00     0.074 A 
ATOM     56  C   UNL A   1      41.190  31.695  30.982  1.00  0.00     0.029 A 
ATOM     57  N   UNL A   1      42.292  30.260  29.692  1.00  0.00    -0.354 N 
ATOM     58  N   UNL A   1      44.662  29.209  28.294  1.00  0.00    -0.248 NA
ATOM     59  C   UNL A   1      46.888  29.443  27.622  1.00  0.00     0.031 C 
ATOM     60  C   UNL A   1      42.475  32.200  30.757  1.00  0.00     0.029 A 
ATOM     61  C   UNL A   1      43.178  31.285  29.987  1.00  0.00     0.049 A 
ATOM     62  H   UNL A   1      42.507  29.471  29.144  1.00  0.00     0.167 HD
ATOM     63  C   UNL A   1      45.174  30.397  28.810  1.00  0.00     0.074 A 
ATOM     64  C   UNL A   1      46.560  30.466  28.396  1.00  0.00     0.031 C 
ATOM     65  C   UNL A   1      44.557  31.344  29.564  1.00  0.00     0.034 A 
BRANCH  52  66
ATOM     66  C   UNL A   1      38.595  30.129  30.769  1.00  0.00     0.023 A 
ATOM     67  C   UNL A   1      37.631  30.838  30.032  1.00  0.00     0.031 A 
ATOM     68  C   UNL A   1      38.318  29.856  32.120  1.00  0.00     0.131 A 
ATOM     69  C   UNL A   1      36.470  31.306  30.663  1.00  0.00     0.055 A 
ATOM     70  C   UNL A   1      37.123  30.253  32.723  1.00  0.00     0.041 A 
ATOM     71  F   UNL A   1      39.209  29.202  32.883  1.00  0.00    -0.206 F 
ATOM     72  C   UNL A   1      36.195  30.995  31.997  1.00  0.00     0.022 A 
BRANCH  69  73
ATOM     73  S   UNL A   1      35.384  32.439  29.754  1.00  0.00     0.124 S 
ATOM     74  O   UNL A   1      34.436  32.835  30.793  1.00  0.00    -0.237 OA
ATOM     75  O   UNL A   1      36.309  33.474  29.307  1.00  0.00    -0.237 OA
ATOM     76  O   UNL A   1      34.823  31.602  28.696  1.00  0.00    -0.744 OA
ENDBRANCH  69  73
ENDBRANCH  52  66
BRANCH  53  77
ATOM     77  C   UNL A   1      46.908  26.891  26.178  1.00  0.00     0.023 A 
ATOM     78  C   UNL A   1      47.956  26.245  26.853  1.00  0.00     0.031 A 
ATOM     79  C   UNL A   1      47.079  27.166  24.808  1.00  0.00     0.131 A 
ATOM     80  C   UNL A   1      49.149  25.950  26.176  1.00  0.00     0.055 A 
ATOM     81  C   UNL A   1      48.244  26.812  24.124  1.00  0.00     0.041 A 
ATOM     82  F   UNL A   1      46.110  27.778  24.111  1.00  0.00    -0.206 F 
ATOM     83  C   UNL A   1      49.296  26.216  24.813  1.00  0.00     0.022 A 
BRANCH  80  84
ATOM     84  S   UNL A   1      50.554  25.315  27.132  1.00  0.00     0.124 S 
ATOM     85  O   UNL A   1      49.936  24.220  27.873  1.00  0.00    -0.237 OA
ATOM     86  O   UNL A   1      51.487  24.930  26.079  1.00  0.00    -0.237 OA
ATOM     87  O   UNL A   1      50.964  26.462  27.938  1.00  0.00    -0.744 OA
ENDBRANCH  80  84
ENDBRANCH  53  77
BRANCH  65  88
ATOM     88  C   UNL A   1      45.398  32.507  30.031  1.00  0.00     0.023 A 
ATOM     89  C   UNL A   1      45.468  33.711  29.311  1.00  0.00     0.031 A 
ATOM     90  C   UNL A   1      46.147  32.402  31.217  1.00  0.00     0.131 A 
ATOM     91  C   UNL A   1      46.315  34.739  29.750  1.00  0.00     0.055 A 
ATOM     92  C   UNL A   1      46.936  33.453  31.685  1.00  0.00     0.041 A 
ATOM     93  F   UNL A   1      46.121  31.274  31.945  1.00  0.00    -0.206 F 
ATOM     94  C   UNL A   1      47.034  34.626  30.942  1.00  0.00     0.022 A 
BRANCH  91  95
ATOM     95  S   UNL A   1      46.542  36.194  28.690  1.00  0.00     0.124 S 
ATOM     96  O   UNL A   1      46.762  35.584  27.381  1.00  0.00    -0.237 OA
ATOM     97  O   UNL A   1      45.278  36.903  28.857  1.00  0.00    -0.237 OA
ATOM     98  O   UNL A   1      47.707  36.861  29.266  1.00  0.00    -0.744 OA
ENDBRANCH  91  95
ENDBRANCH  65  88
ENDBRANCH  39  40
ENDBRANCH  31  34
ENDBRANCH  29  30
ENDBRANCH  28  29
ENDBRANCH  27  28
ENDBRANCH   1  27
TORSDOF 21
ENDMDL
MODEL 3
REMARK VINA RESULT:     -10.6      1.899      2.885
REMARK SMILES Cc1cc(NC[C@H](C)[NH+](C)C)cc(C(=O)NCCCCCCNC(=O)c2ccc(-c3c4nc(c(-c5cc(S(=O)(=O)[O-])ccc5F)c5ccc([nH]5)c(-c5cc(S(=O)(=O)[O-])ccc5F)c5nc(c(-c6cc(S(=O)(=O)[O-])ccc6F)c6ccc3[nH]6)C=C5)C=C4)cc2)c1N
REMARK SMILES IDX 19 1 18 2 17 3 16 4 14 5 15 6 13 8 1 9 2 10 3 11 89 12 4 13
REMARK SMILES IDX 12 14 90 15 5 18 6 20 7 21 8 22 9 23 10 24 11 25 20 27 21 28
REMARK SMILES IDX 22 29 23 30 24 31 25 33 26 34 27 35 88 36 28 37 87 38 29 39
REMARK SMILES IDX 30 40 31 41 81 42 32 43 86 44 80 45 82 46 33 47 85 48 79 49
REMARK SMILES IDX 78 50 34 52 66 53 46 54 65 55 47 56 50 57 64 58 83 59 48 60
REMARK SMILES IDX 49 61 63 63 84 64 51 65 35 66 36 67 44 68 37 69 43 70 45 71
REMARK SMILES IDX 42 72 38 73 39 74 40 75 41 76 67 77 68 78 76 79 69 80 75 81
REMARK SMILES IDX 77 82 74 83 70 84 71 85 72 86 73 87 52 88 53 89 61 90 54 91
REMARK SMILES IDX 60 92 62 93 59 94 55 95 56 96 57 97 58 98
REMARK H PARENT 16 7 90 16 90 17 5 19 9 26 23 32 82 51 50 62
REMARK Flexibility Score: inf
ROOT
ATOM      1  C   UNL A   1      31.781  29.403  26.201  1.00  0.00     0.002 C 
ENDROOT
BRANCH   1   2
ATOM      2  C   UNL A   1      32.589  28.607  25.167  1.00  0.00     0.021 C 
BRANCH   2   3
ATOM      3  C   UNL A   1      31.719  27.648  24.347  1.00  0.00     0.116 C 
BRANCH   3   4
ATOM      4  N   UNL A   1      30.839  26.907  25.234  1.00  0.00    -0.352 N 
ATOM      5  C   UNL A   1      30.731  25.579  25.576  1.00  0.00     0.253 C 
ATOM      6  O   UNL A   1      29.792  25.288  26.322  1.00  0.00    -0.269 OA
ATOM      7  H   UNL A   1      30.179  27.478  25.689  1.00  0.00     0.163 HD
BRANCH   5   8
ATOM      8  C   UNL A   1      31.700  24.517  25.143  1.00  0.00     0.065 A 
ATOM      9  C   UNL A   1      32.083  21.840  22.434  1.00  0.00     0.046 C 
ATOM     10  C   UNL A   1      32.305  22.681  23.663  1.00  0.00    -0.025 A 
ATOM     11  C   UNL A   1      33.411  22.403  24.488  1.00  0.00     0.031 A 
ATOM     12  C   UNL A   1      31.425  23.735  23.996  1.00  0.00     0.047 A 
ATOM     13  C   UNL A   1      33.700  23.182  25.609  1.00  0.00     0.035 A 
ATOM     14  C   UNL A   1      32.895  24.298  25.836  1.00  0.00     0.041 A 
BRANCH  12  15
ATOM     15  N   UNL A   1      30.234  23.892  23.276  1.00  0.00    -0.398 N 
ATOM     16  H   UNL A   1      29.367  23.757  23.724  1.00  0.00     0.156 HD
ATOM     17  H   UNL A   1      30.263  24.138  22.324  1.00  0.00     0.156 HD
ENDBRANCH  12  15
BRANCH  13  18
ATOM     18  N   UNL A   1      34.759  22.850  26.443  1.00  0.00    -0.379 N 
ATOM     19  H   UNL A   1      34.855  23.308  27.309  1.00  0.00     0.160 HD
BRANCH  18  20
ATOM     20  C   UNL A   1      35.737  21.827  26.055  1.00  0.00     0.177 C 
BRANCH  20  21
ATOM     21  C   UNL A   1      37.191  22.365  25.933  1.00  0.00     0.199 C 
ATOM     22  C   UNL A   1      37.148  23.740  25.238  1.00  0.00     0.077 C 
BRANCH  21  23
ATOM     23  N   UNL A   1      38.187  21.485  25.277  1.00  0.00    -0.336 N 
ATOM     24  C   UNL A   1      39.435  21.375  26.027  1.00  0.00     0.332 C 
ATOM     25  C   UNL A   1      37.694  20.155  24.923  1.00  0.00     0.332 C 
ATOM     26  H   UNL A   1      38.377  21.966  24.398  1.00  0.00     0.347 HD
ENDBRANCH  21  23
ENDBRANCH  20  21
ENDBRANCH  18  20
ENDBRANCH  13  18
ENDBRANCH   5   8
ENDBRANCH   3   4
ENDBRANCH   2   3
ENDBRANCH   1   2
BRANCH   1  27
ATOM     27  C   UNL A   1      31.453  30.841  25.779  1.00  0.00     0.002 C 
BRANCH  27  28
ATOM     28  C   UNL A   1      31.484  31.866  26.917  1.00  0.00     0.021 C 
BRANCH  28  29
ATOM     29  C   UNL A   1      32.834  32.553  27.095  1.00  0.00     0.116 C 
BRANCH  29  30
ATOM     30  N   UNL A   1      32.678  33.894  27.634  1.00  0.00    -0.352 N 
ATOM     31  C   UNL A   1      33.269  34.460  28.736  1.00  0.00     0.251 C 
ATOM     32  H   UNL A   1      32.060  34.479  27.138  1.00  0.00     0.163 HD
ATOM     33  O   UNL A   1      32.817  35.499  29.205  1.00  0.00    -0.269 OA
BRANCH  31  34
ATOM     34  C   UNL A   1      34.440  33.803  29.354  1.00  0.00     0.039 A 
ATOM     35  C   UNL A   1      35.723  34.213  28.984  1.00  0.00     0.014 A 
ATOM     36  C   UNL A   1      34.270  32.776  30.287  1.00  0.00     0.014 A 
ATOM     37  C   UNL A   1      36.836  33.626  29.591  1.00  0.00     0.010 A 
ATOM     38  C   UNL A   1      35.378  32.245  30.943  1.00  0.00     0.010 A 
ATOM     39  C   UNL A   1      36.671  32.659  30.597  1.00  0.00    -0.014 A 
BRANCH  39  40
ATOM     40  C   UNL A   1      37.843  32.064  31.291  1.00  0.00     0.031 A 
ATOM     41  C   UNL A   1      38.614  30.945  30.643  1.00  0.00     0.074 A 
ATOM     42  C   UNL A   1      38.175  32.493  32.525  1.00  0.00     0.049 A 
ATOM     43  N   UNL A   1      39.613  30.246  31.115  1.00  0.00    -0.248 NA
ATOM     44  C   UNL A   1      38.184  30.542  29.295  1.00  0.00     0.031 C 
ATOM     45  C   UNL A   1      37.481  33.548  33.267  1.00  0.00     0.029 A 
ATOM     46  N   UNL A   1      39.173  32.093  33.379  1.00  0.00    -0.354 N 
ATOM     47  C   UNL A   1      39.924  29.314  30.131  1.00  0.00     0.074 A 
ATOM     48  C   UNL A   1      38.967  29.499  29.061  1.00  0.00     0.031 C 
ATOM     49  C   UNL A   1      38.089  33.728  34.451  1.00  0.00     0.029 A 
ATOM     50  C   UNL A   1      39.183  32.770  34.577  1.00  0.00     0.049 A 
ATOM     51  H   UNL A   1      39.823  31.388  33.153  1.00  0.00     0.167 HD
ATOM     52  C   UNL A   1      40.929  28.404  30.113  1.00  0.00     0.034 A 
ATOM     53  C   UNL A   1      39.971  32.623  35.660  1.00  0.00     0.034 A 
ATOM     54  C   UNL A   1      41.882  28.243  31.185  1.00  0.00     0.049 A 
ATOM     55  C   UNL A   1      41.062  31.581  35.627  1.00  0.00     0.074 A 
ATOM     56  C   UNL A   1      42.970  27.391  31.247  1.00  0.00     0.029 A 
ATOM     57  N   UNL A   1      41.858  28.943  32.384  1.00  0.00    -0.354 N 
ATOM     58  N   UNL A   1      41.374  30.741  34.666  1.00  0.00    -0.248 NA
ATOM     59  C   UNL A   1      41.914  31.474  36.818  1.00  0.00     0.031 C 
ATOM     60  C   UNL A   1      43.557  27.519  32.510  1.00  0.00     0.029 A 
ATOM     61  C   UNL A   1      42.891  28.517  33.205  1.00  0.00     0.049 A 
ATOM     62  H   UNL A   1      41.204  29.640  32.618  1.00  0.00     0.167 HD
ATOM     63  C   UNL A   1      42.482  30.034  35.126  1.00  0.00     0.074 A 
ATOM     64  C   UNL A   1      42.791  30.558  36.440  1.00  0.00     0.031 C 
ATOM     65  C   UNL A   1      43.186  29.046  34.516  1.00  0.00     0.034 A 
BRANCH  52  66
ATOM     66  C   UNL A   1      41.031  27.496  28.910  1.00  0.00     0.023 A 
ATOM     67  C   UNL A   1      42.047  27.649  27.951  1.00  0.00     0.031 A 
ATOM     68  C   UNL A   1      40.095  26.465  28.716  1.00  0.00     0.131 A 
ATOM     69  C   UNL A   1      42.066  26.830  26.812  1.00  0.00     0.055 A 
ATOM     70  C   UNL A   1      40.167  25.599  27.623  1.00  0.00     0.041 A 
ATOM     71  F   UNL A   1      39.088  26.283  29.585  1.00  0.00    -0.206 F 
ATOM     72  C   UNL A   1      41.150  25.788  26.655  1.00  0.00     0.022 A 
BRANCH  69  73
ATOM     73  S   UNL A   1      43.225  27.229  25.475  1.00  0.00     0.124 S 
ATOM     74  O   UNL A   1      42.396  28.061  24.607  1.00  0.00    -0.237 OA
ATOM     75  O   UNL A   1      44.299  27.917  26.182  1.00  0.00    -0.237 OA
ATOM     76  O   UNL A   1      43.576  25.923  24.924  1.00  0.00    -0.744 OA
ENDBRANCH  69  73
ENDBRANCH  52  66
BRANCH  53  77
ATOM     77  C   UNL A   1      39.760  33.463  36.875  1.00  0.00     0.023 A 
ATOM     78  C   UNL A   1      39.104  32.950  38.005  1.00  0.00     0.031 A 
ATOM     79  C   UNL A   1      40.156  34.814  36.902  1.00  0.00     0.131 A 
ATOM     80  C   UNL A   1      38.809  33.793  39.088  1.00  0.00     0.055 A 
ATOM     81  C   UNL A   1      39.917  35.631  38.008  1.00  0.00     0.041 A 
ATOM     82  F   UNL A   1      40.789  35.357  35.851  1.00  0.00    -0.206 F 
ATOM     83  C   UNL A   1      39.224  35.126  39.104  1.00  0.00     0.022 A 
BRANCH  80  84
ATOM     84  S   UNL A   1      37.774  33.149  40.431  1.00  0.00     0.124 S 
ATOM     85  O   UNL A   1      38.699  32.249  41.112  1.00  0.00    -0.237 OA
ATOM     86  O   UNL A   1      37.420  34.368  41.149  1.00  0.00    -0.237 OA
ATOM     87  O   UNL A   1      36.671  32.498  39.728  1.00  0.00    -0.744 OA
ENDBRANCH  80  84
ENDBRANCH  53  77
BRANCH  65  88
ATOM     88  C   UNL A   1      44.392  28.507  35.247  1.00  0.00     0.023 A 
ATOM     89  C   UNL A   1      44.306  27.399  36.107  1.00  0.00     0.031 A 
ATOM     90  C   UNL A   1      45.646  29.121  35.084  1.00  0.00     0.131 A 
ATOM     91  C   UNL A   1      45.441  26.976  36.816  1.00  0.00     0.055 A 
ATOM     92  C   UNL A   1      46.786  28.654  35.740  1.00  0.00     0.041 A 
ATOM     93  F   UNL A   1      45.787  30.185  34.277  1.00  0.00    -0.206 F 
ATOM     94  C   UNL A   1      46.683  27.584  36.623  1.00  0.00     0.022 A 
BRANCH  91  95
ATOM     95  S   UNL A   1      45.251  25.680  38.071  1.00  0.00     0.124 S 
ATOM     96  O   UNL A   1      44.058  24.980  37.605  1.00  0.00    -0.237 OA
ATOM     97  O   UNL A   1      46.507  24.945  37.954  1.00  0.00    -0.237 OA
ATOM     98  O   UNL A   1      45.085  26.428  39.315  1.00  0.00    -0.744 OA
ENDBRANCH  91  95
ENDBRANCH  65  88
ENDBRANCH  39  40
ENDBRANCH  31  34
ENDBRANCH  29  30
ENDBRANCH  28  29
ENDBRANCH  27  28
ENDBRANCH   1  27
TORSDOF 21
ENDMDL
