MODEL 1
REMARK VINA RESULT:     -10.4      0.000      0.000
REMARK SMILES C[N@@H+]1CCC[C@@H](C[NH2+]CC(=O)NCCCCCCNC(=O)c2ccc(-c3c4nc(c(-c5cc(S(=O)(=O)[O-])ccc5F)c5ccc([nH]5)c(-c5cc(S(=O)(=O)[O-])ccc5F)c5nc(c(-c6cc(S(=O)(=O)[O-])ccc6F)c6ccc3[nH]6)C=C5)C=C4)cc2)C1
REMARK SMILES IDX 15 1 14 2 13 3 12 4 10 5 11 6 9 8 8 9 7 12 6 13 1 14 2 15
REMARK SMILES IDX 3 16 85 17 4 19 5 20 16 21 17 22 18 23 19 24 20 25 21 27
REMARK SMILES IDX 22 28 23 29 84 30 24 31 83 32 25 33 26 34 27 35 77 36 28 37
REMARK SMILES IDX 82 38 76 39 78 40 29 41 81 42 75 43 74 44 30 46 62 47 42 48
REMARK SMILES IDX 61 49 43 50 46 51 60 52 79 53 44 54 45 55 59 57 80 58 47 59
REMARK SMILES IDX 31 60 32 61 40 62 33 63 39 64 41 65 38 66 34 67 35 68 36 69
REMARK SMILES IDX 37 70 63 71 64 72 72 73 65 74 71 75 73 76 70 77 66 78 67 79
REMARK SMILES IDX 68 80 69 81 48 82 49 83 57 84 50 85 56 86 58 87 55 88 51 89
REMARK SMILES IDX 52 90 53 91 54 92
REMARK H PARENT 12 7 8 10 8 11 2 18 19 26 78 45 46 56
REMARK Flexibility Score: inf
ROOT
ATOM      1  C   UNL A   1      31.838  29.471  27.083  1.00  0.00     0.002 C 
ENDROOT
BRANCH   1   2
ATOM      2  C   UNL A   1      33.019  28.579  26.708  1.00  0.00     0.021 C 
BRANCH   2   3
ATOM      3  C   UNL A   1      33.381  28.536  25.222  1.00  0.00     0.116 C 
BRANCH   3   4
ATOM      4  N   UNL A   1      33.021  27.251  24.647  1.00  0.00    -0.351 N 
ATOM      5  C   UNL A   1      31.855  26.853  24.058  1.00  0.00     0.275 C 
ATOM      6  O   UNL A   1      31.694  25.645  23.856  1.00  0.00    -0.269 OA
ATOM      7  H   UNL A   1      33.725  26.562  24.688  1.00  0.00     0.163 HD
BRANCH   5   8
ATOM      8  C   UNL A   1      30.778  27.870  23.642  1.00  0.00     0.361 C 
BRANCH   8   9
ATOM      9  N   UNL A   1      30.925  28.307  22.236  1.00  0.00    -0.338 N 
ATOM     10  H   UNL A   1      31.912  28.277  21.981  1.00  0.00     0.346 HD
ATOM     11  H   UNL A   1      30.377  27.678  21.648  1.00  0.00     0.346 HD
BRANCH   9  12
ATOM     12  C   UNL A   1      30.425  29.669  22.039  1.00  0.00     0.270 C 
BRANCH  12  13
ATOM     13  C   UNL A   1      29.047  29.969  22.670  1.00  0.00     0.099 C 
ATOM     14  C   UNL A   1      29.396  33.661  23.373  1.00  0.00     0.332 C 
ATOM     15  N   UNL A   1      29.230  32.438  22.591  1.00  0.00    -0.337 N 
ATOM     16  C   UNL A   1      28.107  32.572  21.651  1.00  0.00     0.262 C 
ATOM     17  C   UNL A   1      29.015  31.280  23.472  1.00  0.00     0.271 C 
ATOM     18  H   UNL A   1      30.086  32.287  22.057  1.00  0.00     0.347 HD
ATOM     19  C   UNL A   1      27.963  31.327  20.777  1.00  0.00     0.062 C 
ATOM     20  C   UNL A   1      27.954  30.022  21.579  1.00  0.00     0.021 C 
ENDBRANCH  12  13
ENDBRANCH   9  12
ENDBRANCH   8   9
ENDBRANCH   5   8
ENDBRANCH   3   4
ENDBRANCH   2   3
ENDBRANCH   1   2
BRANCH   1  21
ATOM     21  C   UNL A   1      31.509  30.563  26.063  1.00  0.00     0.002 C 
BRANCH  21  22
ATOM     22  C   UNL A   1      31.460  32.000  26.601  1.00  0.00     0.021 C 
BRANCH  22  23
ATOM     23  C   UNL A   1      32.764  32.538  27.192  1.00  0.00     0.116 C 
BRANCH  23  24
ATOM     24  N   UNL A   1      32.638  33.911  27.652  1.00  0.00    -0.352 N 
ATOM     25  C   UNL A   1      33.271  34.560  28.681  1.00  0.00     0.251 C 
ATOM     26  H   UNL A   1      31.997  34.461  27.147  1.00  0.00     0.163 HD
ATOM     27  O   UNL A   1      32.858  35.669  29.037  1.00  0.00    -0.269 OA
BRANCH  25  28
ATOM     28  C   UNL A   1      34.420  33.946  29.382  1.00  0.00     0.039 A 
ATOM     29  C   UNL A   1      34.173  33.046  30.424  1.00  0.00     0.014 A 
ATOM     30  C   UNL A   1      35.738  34.278  29.052  1.00  0.00     0.014 A 
ATOM     31  C   UNL A   1      35.241  32.432  31.086  1.00  0.00     0.010 A 
ATOM     32  C   UNL A   1      36.801  33.619  29.672  1.00  0.00     0.010 A 
ATOM     33  C   UNL A   1      36.566  32.686  30.694  1.00  0.00    -0.014 A 
BRANCH  33  34
ATOM     34  C   UNL A   1      37.708  31.980  31.339  1.00  0.00     0.031 A 
ATOM     35  C   UNL A   1      38.203  32.412  32.693  1.00  0.00     0.074 A 
ATOM     36  C   UNL A   1      38.331  30.980  30.682  1.00  0.00     0.049 A 
ATOM     37  N   UNL A   1      39.224  31.967  33.382  1.00  0.00    -0.248 NA
ATOM     38  C   UNL A   1      37.466  33.502  33.348  1.00  0.00     0.031 C 
ATOM     39  C   UNL A   1      37.965  30.487  29.353  1.00  0.00     0.029 A 
ATOM     40  N   UNL A   1      39.407  30.204  31.037  1.00  0.00    -0.354 N 
ATOM     41  C   UNL A   1      39.258  32.728  34.547  1.00  0.00     0.074 A 
ATOM     42  C   UNL A   1      38.188  33.699  34.441  1.00  0.00     0.031 C 
ATOM     43  C   UNL A   1      38.787  29.480  29.015  1.00  0.00     0.029 A 
ATOM     44  C   UNL A   1      39.769  29.285  30.078  1.00  0.00     0.049 A 
ATOM     45  H   UNL A   1      39.877  30.296  31.898  1.00  0.00     0.167 HD
ATOM     46  C   UNL A   1      40.088  32.614  35.614  1.00  0.00     0.034 A 
ATOM     47  C   UNL A   1      40.782  28.396  30.049  1.00  0.00     0.034 A 
ATOM     48  C   UNL A   1      41.146  31.635  35.711  1.00  0.00     0.049 A 
ATOM     49  C   UNL A   1      41.714  28.313  31.231  1.00  0.00     0.074 A 
ATOM     50  C   UNL A   1      42.013  31.407  36.765  1.00  0.00     0.029 A 
ATOM     51  N   UNL A   1      41.483  30.726  34.717  1.00  0.00    -0.354 N 
ATOM     52  N   UNL A   1      41.706  29.013  32.342  1.00  0.00    -0.248 NA
ATOM     53  C   UNL A   1      42.787  27.311  31.162  1.00  0.00     0.031 C 
ATOM     54  C   UNL A   1      42.917  30.408  36.384  1.00  0.00     0.029 A 
ATOM     55  C   UNL A   1      42.566  29.958  35.122  1.00  0.00     0.049 A 
ATOM     56  H   UNL A   1      41.023  30.640  33.851  1.00  0.00     0.167 HD
ATOM     57  C   UNL A   1      42.749  28.512  33.115  1.00  0.00     0.074 A 
ATOM     58  C   UNL A   1      43.356  27.442  32.351  1.00  0.00     0.031 C 
ATOM     59  C   UNL A   1      43.167  28.897  34.348  1.00  0.00     0.034 A 
BRANCH  46  60
ATOM     60  C   UNL A   1      39.899  33.590  36.752  1.00  0.00     0.023 A 
ATOM     61  C   UNL A   1      40.767  34.679  36.942  1.00  0.00     0.031 A 
ATOM     62  C   UNL A   1      38.843  33.424  37.666  1.00  0.00     0.131 A 
ATOM     63  C   UNL A   1      40.609  35.516  38.057  1.00  0.00     0.055 A 
ATOM     64  C   UNL A   1      38.642  34.308  38.728  1.00  0.00     0.041 A 
ATOM     65  F   UNL A   1      37.992  32.393  37.547  1.00  0.00    -0.206 F 
ATOM     66  C   UNL A   1      39.536  35.354  38.937  1.00  0.00     0.022 A 
BRANCH  63  67
ATOM     67  S   UNL A   1      41.902  36.736  38.416  1.00  0.00     0.124 S 
ATOM     68  O   UNL A   1      42.792  35.973  39.288  1.00  0.00    -0.237 OA
ATOM     69  O   UNL A   1      42.419  37.047  37.089  1.00  0.00    -0.237 OA
ATOM     70  O   UNL A   1      41.177  37.821  39.075  1.00  0.00    -0.744 OA
ENDBRANCH  63  67
ENDBRANCH  46  60
BRANCH  47  71
ATOM     71  C   UNL A   1      40.989  27.520  28.859  1.00  0.00     0.023 A 
ATOM     72  C   UNL A   1      41.985  27.810  27.912  1.00  0.00     0.031 A 
ATOM     73  C   UNL A   1      40.156  26.413  28.620  1.00  0.00     0.131 A 
ATOM     74  C   UNL A   1      42.088  27.036  26.746  1.00  0.00     0.055 A 
ATOM     75  C   UNL A   1      40.301  25.612  27.485  1.00  0.00     0.041 A 
ATOM     76  F   UNL A   1      39.190  26.088  29.494  1.00  0.00    -0.206 F 
ATOM     77  C   UNL A   1      41.261  25.932  26.532  1.00  0.00     0.022 A 
BRANCH  74  78
ATOM     78  S   UNL A   1      43.257  27.558  25.460  1.00  0.00     0.124 S 
ATOM     79  O   UNL A   1      43.801  26.280  25.017  1.00  0.00    -0.237 OA
ATOM     80  O   UNL A   1      42.381  28.245  24.517  1.00  0.00    -0.237 OA
ATOM     81  O   UNL A   1      44.192  28.420  26.180  1.00  0.00    -0.744 OA
ENDBRANCH  74  78
ENDBRANCH  47  71
BRANCH  59  82
ATOM     82  C   UNL A   1      44.305  28.118  34.963  1.00  0.00     0.023 A 
ATOM     83  C   UNL A   1      44.079  27.003  35.789  1.00  0.00     0.031 A 
ATOM     84  C   UNL A   1      45.635  28.509  34.728  1.00  0.00     0.131 A 
ATOM     85  C   UNL A   1      45.164  26.351  36.395  1.00  0.00     0.055 A 
ATOM     86  C   UNL A   1      46.713  27.819  35.285  1.00  0.00     0.041 A 
ATOM     87  F   UNL A   1      45.909  29.567  33.950  1.00  0.00    -0.206 F 
ATOM     88  C   UNL A   1      46.480  26.742  36.135  1.00  0.00     0.022 A 
BRANCH  85  89
ATOM     89  S   UNL A   1      44.829  25.038  37.601  1.00  0.00     0.124 S 
ATOM     90  O   UNL A   1      43.485  24.613  37.222  1.00  0.00    -0.237 OA
ATOM     91  O   UNL A   1      45.898  24.083  37.328  1.00  0.00    -0.237 OA
ATOM     92  O   UNL A   1      44.924  25.723  38.889  1.00  0.00    -0.744 OA
ENDBRANCH  85  89
ENDBRANCH  59  82
ENDBRANCH  33  34
ENDBRANCH  25  28
ENDBRANCH  23  24
ENDBRANCH  22  23
ENDBRANCH  21  22
ENDBRANCH   1  21
TORSDOF 19
ENDMDL
MODEL 2
REMARK VINA RESULT:     -10.2      1.933      2.187
REMARK SMILES C[N@@H+]1CCC[C@@H](C[NH2+]CC(=O)NCCCCCCNC(=O)c2ccc(-c3c4nc(c(-c5cc(S(=O)(=O)[O-])ccc5F)c5ccc([nH]5)c(-c5cc(S(=O)(=O)[O-])ccc5F)c5nc(c(-c6cc(S(=O)(=O)[O-])ccc6F)c6ccc3[nH]6)C=C5)C=C4)cc2)C1
REMARK SMILES IDX 15 1 14 2 13 3 12 4 10 5 11 6 9 8 8 9 7 12 6 13 1 14 2 15
REMARK SMILES IDX 3 16 85 17 4 19 5 20 16 21 17 22 18 23 19 24 20 25 21 27
REMARK SMILES IDX 22 28 23 29 84 30 24 31 83 32 25 33 26 34 27 35 77 36 28 37
REMARK SMILES IDX 82 38 76 39 78 40 29 41 81 42 75 43 74 44 30 46 62 47 42 48
REMARK SMILES IDX 61 49 43 50 46 51 60 52 79 53 44 54 45 55 59 57 80 58 47 59
REMARK SMILES IDX 31 60 32 61 40 62 33 63 39 64 41 65 38 66 34 67 35 68 36 69
REMARK SMILES IDX 37 70 63 71 64 72 72 73 65 74 71 75 73 76 70 77 66 78 67 79
REMARK SMILES IDX 68 80 69 81 48 82 49 83 57 84 50 85 56 86 58 87 55 88 51 89
REMARK SMILES IDX 52 90 53 91 54 92
REMARK H PARENT 12 7 8 10 8 11 2 18 19 26 78 45 46 56
REMARK Flexibility Score: inf
ROOT
ATOM      1  C   UNL A   1      31.722  29.312  27.009  1.00  0.00     0.002 C 
ENDROOT
BRANCH   1   2
ATOM      2  C   UNL A   1      32.814  28.298  26.677  1.00  0.00     0.021 C 
BRANCH   2   3
ATOM      3  C   UNL A   1      33.276  28.262  25.219  1.00  0.00     0.116 C 
BRANCH   3   4
ATOM      4  N   UNL A   1      32.892  27.008  24.593  1.00  0.00    -0.351 N 
ATOM      5  C   UNL A   1      31.721  26.658  23.985  1.00  0.00     0.275 C 
ATOM      6  O   UNL A   1      31.537  25.462  23.736  1.00  0.00    -0.269 OA
ATOM      7  H   UNL A   1      33.582  26.304  24.611  1.00  0.00     0.163 HD
BRANCH   5   8
ATOM      8  C   UNL A   1      30.667  27.712  23.605  1.00  0.00     0.361 C 
BRANCH   8   9
ATOM      9  N   UNL A   1      30.896  28.282  22.257  1.00  0.00    -0.338 N 
ATOM     10  H   UNL A   1      31.891  28.226  22.040  1.00  0.00     0.346 HD
ATOM     11  H   UNL A   1      30.345  27.744  21.587  1.00  0.00     0.346 HD
BRANCH   9  12
ATOM     12  C   UNL A   1      30.471  29.681  22.184  1.00  0.00     0.270 C 
BRANCH  12  13
ATOM     13  C   UNL A   1      29.067  29.979  22.756  1.00  0.00     0.099 C 
ATOM     14  C   UNL A   1      29.337  33.698  23.344  1.00  0.00     0.332 C 
ATOM     15  N   UNL A   1      29.216  32.447  22.599  1.00  0.00    -0.337 N 
ATOM     16  C   UNL A   1      28.125  32.532  21.617  1.00  0.00     0.262 C 
ATOM     17  C   UNL A   1      28.988  31.316  23.511  1.00  0.00     0.271 C 
ATOM     18  H   UNL A   1      30.093  32.292  22.100  1.00  0.00     0.347 HD
ATOM     19  C   UNL A   1      28.031  31.256  20.782  1.00  0.00     0.062 C 
ATOM     20  C   UNL A   1      28.013  29.979  21.627  1.00  0.00     0.021 C 
ENDBRANCH  12  13
ENDBRANCH   9  12
ENDBRANCH   8   9
ENDBRANCH   5   8
ENDBRANCH   3   4
ENDBRANCH   2   3
ENDBRANCH   1   2
BRANCH   1  21
ATOM     21  C   UNL A   1      31.528  30.411  25.962  1.00  0.00     0.002 C 
BRANCH  21  22
ATOM     22  C   UNL A   1      31.441  31.847  26.496  1.00  0.00     0.021 C 
BRANCH  22  23
ATOM     23  C   UNL A   1      32.705  32.389  27.167  1.00  0.00     0.116 C 
BRANCH  23  24
ATOM     24  N   UNL A   1      32.553  33.769  27.600  1.00  0.00    -0.352 N 
ATOM     25  C   UNL A   1      33.216  34.466  28.576  1.00  0.00     0.251 C 
ATOM     26  H   UNL A   1      31.866  34.283  27.117  1.00  0.00     0.163 HD
ATOM     27  O   UNL A   1      32.783  35.569  28.928  1.00  0.00    -0.269 OA
BRANCH  25  28
ATOM     28  C   UNL A   1      34.424  33.912  29.227  1.00  0.00     0.039 A 
ATOM     29  C   UNL A   1      34.266  33.040  30.310  1.00  0.00     0.014 A 
ATOM     30  C   UNL A   1      35.709  34.273  28.810  1.00  0.00     0.014 A 
ATOM     31  C   UNL A   1      35.390  32.482  30.928  1.00  0.00     0.010 A 
ATOM     32  C   UNL A   1      36.826  33.668  29.388  1.00  0.00     0.010 A 
ATOM     33  C   UNL A   1      36.681  32.763  30.451  1.00  0.00    -0.014 A 
BRANCH  33  34
ATOM     34  C   UNL A   1      37.881  32.115  31.050  1.00  0.00     0.031 A 
ATOM     35  C   UNL A   1      38.520  32.689  32.286  1.00  0.00     0.074 A 
ATOM     36  C   UNL A   1      38.425  31.035  30.451  1.00  0.00     0.049 A 
ATOM     37  N   UNL A   1      39.605  32.308  32.911  1.00  0.00    -0.248 NA
ATOM     38  C   UNL A   1      37.863  33.860  32.884  1.00  0.00     0.031 C 
ATOM     39  C   UNL A   1      37.917  30.401  29.233  1.00  0.00     0.029 A 
ATOM     40  N   UNL A   1      39.528  30.285  30.779  1.00  0.00    -0.354 N 
ATOM     41  C   UNL A   1      39.767  33.195  33.970  1.00  0.00     0.074 A 
ATOM     42  C   UNL A   1      38.698  34.168  33.865  1.00  0.00     0.031 C 
ATOM     43  C   UNL A   1      38.692  29.347  28.929  1.00  0.00     0.029 A 
ATOM     44  C   UNL A   1      39.780  29.257  29.899  1.00  0.00     0.049 A 
ATOM     45  H   UNL A   1      40.087  30.466  31.569  1.00  0.00     0.167 HD
ATOM     46  C   UNL A   1      40.705  33.189  34.950  1.00  0.00     0.034 A 
ATOM     47  C   UNL A   1      40.780  28.352  29.867  1.00  0.00     0.034 A 
ATOM     48  C   UNL A   1      41.761  32.209  35.049  1.00  0.00     0.049 A 
ATOM     49  C   UNL A   1      41.832  28.387  30.947  1.00  0.00     0.074 A 
ATOM     50  C   UNL A   1      42.734  32.086  36.025  1.00  0.00     0.029 A 
ATOM     51  N   UNL A   1      41.986  31.186  34.136  1.00  0.00    -0.354 N 
ATOM     52  N   UNL A   1      41.945  29.210  31.964  1.00  0.00    -0.248 NA
ATOM     53  C   UNL A   1      42.885  27.365  30.881  1.00  0.00     0.031 C 
ATOM     54  C   UNL A   1      43.587  31.034  35.669  1.00  0.00     0.029 A 
ATOM     55  C   UNL A   1      43.101  30.449  34.512  1.00  0.00     0.049 A 
ATOM     56  H   UNL A   1      41.436  31.010  33.339  1.00  0.00     0.167 HD
ATOM     57  C   UNL A   1      43.062  28.781  32.676  1.00  0.00     0.074 A 
ATOM     58  C   UNL A   1      43.578  27.620  31.982  1.00  0.00     0.031 C 
ATOM     59  C   UNL A   1      43.610  29.297  33.806  1.00  0.00     0.034 A 
BRANCH  46  60
ATOM     60  C   UNL A   1      40.643  34.292  35.982  1.00  0.00     0.023 A 
ATOM     61  C   UNL A   1      40.144  34.065  37.276  1.00  0.00     0.031 A 
ATOM     62  C   UNL A   1      41.079  35.590  35.663  1.00  0.00     0.131 A 
ATOM     63  C   UNL A   1      40.025  35.132  38.179  1.00  0.00     0.055 A 
ATOM     64  C   UNL A   1      41.034  36.631  36.594  1.00  0.00     0.041 A 
ATOM     65  F   UNL A   1      41.549  35.873  34.439  1.00  0.00    -0.206 F 
ATOM     66  C   UNL A   1      40.491  36.409  37.856  1.00  0.00     0.022 A 
BRANCH  63  67
ATOM     67  S   UNL A   1      39.129  34.857  39.732  1.00  0.00     0.124 S 
ATOM     68  O   UNL A   1      40.185  34.325  40.591  1.00  0.00    -0.237 OA
ATOM     69  O   UNL A   1      38.652  36.194  40.061  1.00  0.00    -0.237 OA
ATOM     70  O   UNL A   1      38.092  33.896  39.364  1.00  0.00    -0.744 OA
ENDBRANCH  63  67
ENDBRANCH  46  60
BRANCH  47  71
ATOM     71  C   UNL A   1      40.854  27.342  28.771  1.00  0.00     0.023 A 
ATOM     72  C   UNL A   1      41.818  27.448  27.755  1.00  0.00     0.031 A 
ATOM     73  C   UNL A   1      39.926  26.290  28.690  1.00  0.00     0.131 A 
ATOM     74  C   UNL A   1      41.799  26.551  26.675  1.00  0.00     0.055 A 
ATOM     75  C   UNL A   1      39.947  25.366  27.643  1.00  0.00     0.041 A 
ATOM     76  F   UNL A   1      38.984  26.140  29.636  1.00  0.00    -0.206 F 
ATOM     77  C   UNL A   1      40.877  25.503  26.620  1.00  0.00     0.022 A 
BRANCH  74  78
ATOM     78  S   UNL A   1      42.935  26.837  25.290  1.00  0.00     0.124 S 
ATOM     79  O   UNL A   1      42.878  25.558  24.591  1.00  0.00    -0.237 OA
ATOM     80  O   UNL A   1      42.308  27.967  24.614  1.00  0.00    -0.237 OA
ATOM     81  O   UNL A   1      44.205  27.133  25.949  1.00  0.00    -0.744 OA
ENDBRANCH  74  78
ENDBRANCH  47  71
BRANCH  59  82
ATOM     82  C   UNL A   1      44.802  28.572  34.384  1.00  0.00     0.023 A 
ATOM     83  C   UNL A   1      46.119  28.905  34.023  1.00  0.00     0.031 A 
ATOM     84  C   UNL A   1      44.612  27.522  35.301  1.00  0.00     0.131 A 
ATOM     85  C   UNL A   1      47.193  28.159  34.534  1.00  0.00     0.055 A 
ATOM     86  C   UNL A   1      45.687  26.824  35.852  1.00  0.00     0.041 A 
ATOM     87  F   UNL A   1      43.376  27.161  35.679  1.00  0.00    -0.206 F 
ATOM     88  C   UNL A   1      46.986  27.132  35.458  1.00  0.00     0.022 A 
BRANCH  85  89
ATOM     89  S   UNL A   1      48.861  28.490  33.904  1.00  0.00     0.124 S 
ATOM     90  O   UNL A   1      48.707  28.220  32.478  1.00  0.00    -0.237 OA
ATOM     91  O   UNL A   1      49.061  29.889  34.269  1.00  0.00    -0.237 OA
ATOM     92  O   UNL A   1      49.698  27.537  34.630  1.00  0.00    -0.744 OA
ENDBRANCH  85  89
ENDBRANCH  59  82
ENDBRANCH  33  34
ENDBRANCH  25  28
ENDBRANCH  23  24
ENDBRANCH  22  23
ENDBRANCH  21  22
ENDBRANCH   1  21
TORSDOF 19
ENDMDL
MODEL 3
REMARK VINA RESULT:     -10.1      6.339     12.269
REMARK SMILES C[N@@H+]1CCC[C@@H](C[NH2+]CC(=O)NCCCCCCNC(=O)c2ccc(-c3c4nc(c(-c5cc(S(=O)(=O)[O-])ccc5F)c5ccc([nH]5)c(-c5cc(S(=O)(=O)[O-])ccc5F)c5nc(c(-c6cc(S(=O)(=O)[O-])ccc6F)c6ccc3[nH]6)C=C5)C=C4)cc2)C1
REMARK SMILES IDX 15 1 14 2 13 3 12 4 10 5 11 6 9 8 8 9 7 12 6 13 1 14 2 15
REMARK SMILES IDX 3 16 85 17 4 19 5 20 16 21 17 22 18 23 19 24 20 25 21 27
REMARK SMILES IDX 22 28 23 29 84 30 24 31 83 32 25 33 26 34 27 35 77 36 28 37
REMARK SMILES IDX 82 38 76 39 78 40 29 41 81 42 75 43 74 44 30 46 62 47 42 48
REMARK SMILES IDX 61 49 43 50 46 51 60 52 79 53 44 54 45 55 59 57 80 58 47 59
REMARK SMILES IDX 31 60 32 61 40 62 33 63 39 64 41 65 38 66 34 67 35 68 36 69
REMARK SMILES IDX 37 70 63 71 64 72 72 73 65 74 71 75 73 76 70 77 66 78 67 79
REMARK SMILES IDX 68 80 69 81 48 82 49 83 57 84 50 85 56 86 58 87 55 88 51 89
REMARK SMILES IDX 52 90 53 91 54 92
REMARK H PARENT 12 7 8 10 8 11 2 18 19 26 78 45 46 56
REMARK Flexibility Score: inf
ROOT
ATOM      1  C   UNL A   1      42.531  18.548  27.835  1.00  0.00     0.002 C 
ENDROOT
BRANCH   1   2
ATOM      2  C   UNL A   1      43.270  17.744  26.769  1.00  0.00     0.021 C 
BRANCH   2   3
ATOM      3  C   UNL A   1      43.786  18.538  25.567  1.00  0.00     0.116 C 
BRANCH   3   4
ATOM      4  N   UNL A   1      45.232  18.670  25.627  1.00  0.00    -0.351 N 
ATOM      5  C   UNL A   1      46.050  19.592  25.039  1.00  0.00     0.275 C 
ATOM      6  O   UNL A   1      47.264  19.367  25.038  1.00  0.00    -0.269 OA
ATOM      7  H   UNL A   1      45.691  17.992  26.175  1.00  0.00     0.163 HD
BRANCH   5   8
ATOM      8  C   UNL A   1      45.488  20.878  24.409  1.00  0.00     0.361 C 
BRANCH   8   9
ATOM      9  N   UNL A   1      46.487  21.969  24.362  1.00  0.00    -0.338 N 
ATOM     10  H   UNL A   1      47.019  21.968  25.232  1.00  0.00     0.346 HD
ATOM     11  H   UNL A   1      47.097  21.807  23.560  1.00  0.00     0.346 HD
BRANCH   9  12
ATOM     12  C   UNL A   1      45.850  23.277  24.196  1.00  0.00     0.270 C 
BRANCH  12  13
ATOM     13  C   UNL A   1      45.291  23.913  25.489  1.00  0.00     0.099 C 
ATOM     14  C   UNL A   1      48.499  24.846  27.245  1.00  0.00     0.332 C 
ATOM     15  N   UNL A   1      47.423  24.912  26.259  1.00  0.00    -0.337 N 
ATOM     16  C   UNL A   1      46.918  26.287  26.134  1.00  0.00     0.262 C 
ATOM     17  C   UNL A   1      46.326  24.002  26.622  1.00  0.00     0.271 C 
ATOM     18  H   UNL A   1      47.804  24.621  25.358  1.00  0.00     0.347 HD
ATOM     19  C   UNL A   1      45.839  26.385  25.056  1.00  0.00     0.062 C 
ATOM     20  C   UNL A   1      44.741  25.328  25.200  1.00  0.00     0.021 C 
ENDBRANCH  12  13
ENDBRANCH   9  12
ENDBRANCH   8   9
ENDBRANCH   5   8
ENDBRANCH   3   4
ENDBRANCH   2   3
ENDBRANCH   1   2
BRANCH   1  21
ATOM     21  C   UNL A   1      41.556  19.594  27.288  1.00  0.00     0.002 C 
BRANCH  21  22
ATOM     22  C   UNL A   1      42.013  21.057  27.379  1.00  0.00     0.021 C 
BRANCH  22  23
ATOM     23  C   UNL A   1      41.590  21.963  26.221  1.00  0.00     0.116 C 
BRANCH  23  24
ATOM     24  N   UNL A   1      40.156  21.922  25.983  1.00  0.00    -0.352 N 
ATOM     25  C   UNL A   1      39.183  22.838  26.291  1.00  0.00     0.251 C 
ATOM     26  H   UNL A   1      39.832  21.110  25.531  1.00  0.00     0.163 HD
ATOM     27  O   UNL A   1      37.995  22.510  26.193  1.00  0.00    -0.269 OA
BRANCH  25  28
ATOM     28  C   UNL A   1      39.532  24.198  26.758  1.00  0.00     0.039 A 
ATOM     29  C   UNL A   1      39.291  24.535  28.095  1.00  0.00     0.014 A 
ATOM     30  C   UNL A   1      40.054  25.158  25.885  1.00  0.00     0.014 A 
ATOM     31  C   UNL A   1      39.634  25.806  28.568  1.00  0.00     0.010 A 
ATOM     32  C   UNL A   1      40.452  26.403  26.374  1.00  0.00     0.010 A 
ATOM     33  C   UNL A   1      40.250  26.741  27.721  1.00  0.00    -0.014 A 
BRANCH  33  34
ATOM     34  C   UNL A   1      40.692  28.069  28.233  1.00  0.00     0.031 A 
ATOM     35  C   UNL A   1      42.154  28.423  28.270  1.00  0.00     0.074 A 
ATOM     36  C   UNL A   1      39.777  28.938  28.711  1.00  0.00     0.049 A 
ATOM     37  N   UNL A   1      42.735  29.497  28.744  1.00  0.00    -0.248 NA
ATOM     38  C   UNL A   1      43.087  27.427  27.723  1.00  0.00     0.031 C 
ATOM     39  C   UNL A   1      38.333  28.701  28.757  1.00  0.00     0.029 A 
ATOM     40  N   UNL A   1      39.924  30.189  29.257  1.00  0.00    -0.354 N 
ATOM     41  C   UNL A   1      44.100  29.305  28.559  1.00  0.00     0.074 A 
ATOM     42  C   UNL A   1      44.261  27.985  27.984  1.00  0.00     0.031 C 
ATOM     43  C   UNL A   1      37.726  29.780  29.280  1.00  0.00     0.029 A 
ATOM     44  C   UNL A   1      38.737  30.765  29.652  1.00  0.00     0.049 A 
ATOM     45  H   UNL A   1      40.797  30.634  29.356  1.00  0.00     0.167 HD
ATOM     46  C   UNL A   1      45.123  30.156  28.825  1.00  0.00     0.034 A 
ATOM     47  C   UNL A   1      38.490  31.944  30.258  1.00  0.00     0.034 A 
ATOM     48  C   UNL A   1      44.949  31.473  29.391  1.00  0.00     0.049 A 
ATOM     49  C   UNL A   1      39.647  32.857  30.576  1.00  0.00     0.074 A 
ATOM     50  C   UNL A   1      45.913  32.430  29.658  1.00  0.00     0.029 A 
ATOM     51  N   UNL A   1      43.733  32.017  29.783  1.00  0.00    -0.354 N 
ATOM     52  N   UNL A   1      40.929  32.675  30.358  1.00  0.00    -0.248 NA
ATOM     53  C   UNL A   1      39.323  34.141  31.213  1.00  0.00     0.031 C 
ATOM     54  C   UNL A   1      45.291  33.523  30.272  1.00  0.00     0.029 A 
ATOM     55  C   UNL A   1      43.928  33.284  30.317  1.00  0.00     0.049 A 
ATOM     56  H   UNL A   1      42.860  31.570  29.695  1.00  0.00     0.167 HD
ATOM     57  C   UNL A   1      41.558  33.836  30.800  1.00  0.00     0.074 A 
ATOM     58  C   UNL A   1      40.515  34.716  31.283  1.00  0.00     0.031 C 
ATOM     59  C   UNL A   1      42.879  34.150  30.802  1.00  0.00     0.034 A 
BRANCH  46  60
ATOM     60  C   UNL A   1      46.525  29.676  28.527  1.00  0.00     0.023 A 
ATOM     61  C   UNL A   1      47.259  28.920  29.457  1.00  0.00     0.031 A 
ATOM     62  C   UNL A   1      47.140  29.987  27.301  1.00  0.00     0.131 A 
ATOM     63  C   UNL A   1      48.587  28.563  29.179  1.00  0.00     0.055 A 
ATOM     64  C   UNL A   1      48.433  29.559  26.997  1.00  0.00     0.041 A 
ATOM     65  F   UNL A   1      46.496  30.721  26.380  1.00  0.00    -0.206 F 
ATOM     66  C   UNL A   1      49.171  28.855  27.944  1.00  0.00     0.022 A 
BRANCH  63  67
ATOM     67  S   UNL A   1      49.584  27.830  30.505  1.00  0.00     0.124 S 
ATOM     68  O   UNL A   1      49.158  28.615  31.661  1.00  0.00    -0.237 OA
ATOM     69  O   UNL A   1      49.158  26.437  30.487  1.00  0.00    -0.237 OA
ATOM     70  O   UNL A   1      50.960  28.069  30.072  1.00  0.00    -0.744 OA
ENDBRANCH  63  67
ENDBRANCH  46  60
BRANCH  47  71
ATOM     71  C   UNL A   1      37.097  32.332  30.623  1.00  0.00     0.023 A 
ATOM     72  C   UNL A   1      36.220  32.864  29.664  1.00  0.00     0.031 A 
ATOM     73  C   UNL A   1      36.641  32.232  31.949  1.00  0.00     0.131 A 
ATOM     74  C   UNL A   1      34.952  33.325  30.054  1.00  0.00     0.055 A 
ATOM     75  C   UNL A   1      35.357  32.640  32.321  1.00  0.00     0.041 A 
ATOM     76  F   UNL A   1      37.437  31.730  32.906  1.00  0.00    -0.206 F 
ATOM     77  C   UNL A   1      34.511  33.204  31.373  1.00  0.00     0.022 A 
BRANCH  74  78
ATOM     78  S   UNL A   1      33.925  34.179  28.826  1.00  0.00     0.124 S 
ATOM     79  O   UNL A   1      34.846  35.190  28.321  1.00  0.00    -0.237 OA
ATOM     80  O   UNL A   1      33.591  33.097  27.907  1.00  0.00    -0.237 OA
ATOM     81  O   UNL A   1      32.807  34.690  29.616  1.00  0.00    -0.744 OA
ENDBRANCH  74  78
ENDBRANCH  47  71
BRANCH  59  82
ATOM     82  C   UNL A   1      43.258  35.524  31.299  1.00  0.00     0.023 A 
ATOM     83  C   UNL A   1      43.473  36.598  30.417  1.00  0.00     0.031 A 
ATOM     84  C   UNL A   1      43.421  35.756  32.677  1.00  0.00     0.131 A 
ATOM     85  C   UNL A   1      43.891  37.841  30.919  1.00  0.00     0.055 A 
ATOM     86  C   UNL A   1      43.778  37.010  33.174  1.00  0.00     0.041 A 
ATOM     87  F   UNL A   1      43.231  34.766  33.563  1.00  0.00    -0.206 F 
ATOM     88  C   UNL A   1      44.029  38.057  32.292  1.00  0.00     0.022 A 
BRANCH  85  89
ATOM     89  S   UNL A   1      44.341  39.147  29.744  1.00  0.00     0.124 S 
ATOM     90  O   UNL A   1      45.796  39.170  29.857  1.00  0.00    -0.237 OA
ATOM     91  O   UNL A   1      43.809  38.634  28.486  1.00  0.00    -0.237 OA
ATOM     92  O   UNL A   1      43.659  40.330  30.267  1.00  0.00    -0.744 OA
ENDBRANCH  85  89
ENDBRANCH  59  82
ENDBRANCH  33  34
ENDBRANCH  25  28
ENDBRANCH  23  24
ENDBRANCH  22  23
ENDBRANCH  21  22
ENDBRANCH   1  21
TORSDOF 19
ENDMDL
