MODEL 1
REMARK VINA RESULT:     -12.2      0.000      0.000
REMARK SMILES C[C@H]1c2ccc(O)cc2OC(=O)[C@@H]1CC(=O)N[C@@H](CC1=c2ccccc2=NC1)C(=O)NCCCCCCNC(=O)c1ccc(-c2c3nc(c(-c4cc(S(=O)(=O)[O-])ccc4F)c4ccc([nH]4)c(-c4cc(S(=O)(=O)[O-])ccc4F)c4nc(c(-c5cc(S(=O)(=O)[O-])ccc5F)c5ccc2[nH]5)C=C4)C=C3)cc1
REMARK SMILES IDX 34 1 33 2 32 3 31 4 29 5 30 6 18 8 17 9 15 10 16 11 14 13
REMARK SMILES IDX 13 14 1 15 2 16 3 17 4 18 9 19 11 20 5 21 8 22 10 23 12 24
REMARK SMILES IDX 6 25 7 26 19 28 20 29 21 30 28 31 22 32 26 33 27 34 23 35
REMARK SMILES IDX 25 36 24 37 35 38 36 39 37 40 38 41 39 42 40 44 41 45 42 46
REMARK SMILES IDX 103 47 43 48 102 49 44 50 45 51 46 52 96 53 47 54 101 55
REMARK SMILES IDX 95 56 97 57 48 58 100 59 94 60 93 61 49 63 81 64 61 65 80 66
REMARK SMILES IDX 62 67 65 68 79 69 98 70 63 71 64 72 78 74 99 75 66 76 50 77
REMARK SMILES IDX 51 78 59 79 52 80 58 81 60 82 57 83 53 84 54 85 55 86 56 87
REMARK SMILES IDX 82 88 83 89 91 90 84 91 90 92 92 93 89 94 85 95 86 96 87 97
REMARK SMILES IDX 88 98 67 99 68 100 76 101 69 102 75 103 77 104 74 105 70 106
REMARK SMILES IDX 71 107 72 108 73 109
REMARK H PARENT 31 7 17 12 7 27 38 43 97 62 65 73
REMARK Flexibility Score: inf
ROOT
ATOM      1  C   UNL A   1      39.705  23.753  26.538  1.00  0.00     0.002 C 
ENDROOT
BRANCH   1   2
ATOM      2  C   UNL A   1      38.254  24.220  26.763  1.00  0.00     0.021 C 
BRANCH   2   3
ATOM      3  C   UNL A   1      37.157  23.478  26.012  1.00  0.00     0.116 C 
BRANCH   3   4
ATOM      4  N   UNL A   1      37.412  22.836  24.753  1.00  0.00    -0.354 N 
ATOM      5  C   UNL A   1      36.452  22.730  23.768  1.00  0.00     0.242 C 
ATOM      6  O   UNL A   1      36.830  22.940  22.608  1.00  0.00    -0.273 OA
ATOM      7  H   UNL A   1      38.306  22.458  24.587  1.00  0.00     0.163 HD
BRANCH   5   8
ATOM      8  C   UNL A   1      34.934  22.391  24.035  1.00  0.00     0.175 C 
BRANCH   8   9
ATOM      9  N   UNL A   1      33.920  22.794  23.054  1.00  0.00    -0.344 N 
ATOM     10  C   UNL A   1      32.780  23.523  23.239  1.00  0.00     0.221 C 
ATOM     11  O   UNL A   1      31.955  23.568  22.323  1.00  0.00    -0.275 OA
ATOM     12  H   UNL A   1      34.086  22.497  22.129  1.00  0.00     0.164 HD
BRANCH  10  13
ATOM     13  C   UNL A   1      32.548  24.321  24.517  1.00  0.00     0.116 C 
BRANCH  13  14
ATOM     14  C   UNL A   1      31.090  24.767  24.779  1.00  0.00     0.116 C 
ATOM     15  C   UNL A   1      29.244  26.457  24.231  1.00  0.00     0.014 C 
ATOM     16  C   UNL A   1      30.738  26.120  24.113  1.00  0.00     0.034 C 
ATOM     17  C   UNL A   1      31.577  27.205  24.748  1.00  0.00    -0.001 A 
ATOM     18  C   UNL A   1      31.960  28.352  24.050  1.00  0.00     0.011 A 
ATOM     19  C   UNL A   1      32.031  27.036  26.061  1.00  0.00     0.138 A 
ATOM     20  C   UNL A   1      30.813  24.980  26.249  1.00  0.00     0.315 C 
ATOM     21  C   UNL A   1      32.837  29.270  24.639  1.00  0.00     0.047 A 
ATOM     22  C   UNL A   1      32.930  27.921  26.646  1.00  0.00     0.093 A 
ATOM     23  O   UNL A   1      31.567  25.974  26.853  1.00  0.00    -0.426 OA
ATOM     24  O   UNL A   1      29.992  24.322  26.876  1.00  0.00    -0.251 OA
ATOM     25  C   UNL A   1      33.334  29.031  25.920  1.00  0.00     0.119 A 
BRANCH  25  26
ATOM     26  O   UNL A   1      34.225  29.883  26.504  1.00  0.00    -0.508 OA
ATOM     27  H   UNL A   1      35.016  30.111  26.058  1.00  0.00     0.293 HD
ENDBRANCH  25  26
ENDBRANCH  13  14
ENDBRANCH  10  13
ENDBRANCH   8   9
BRANCH   8  28
ATOM     28  C   UNL A   1      34.527  21.070  24.793  1.00  0.00     0.068 C 
BRANCH  28  29
ATOM     29  C   UNL A   1      33.876  19.871  24.102  1.00  0.00    -0.037 C 
ATOM     30  C   UNL A   1      34.215  18.593  24.385  1.00  0.00     0.001 A 
ATOM     31  C   UNL A   1      32.399  19.977  23.982  1.00  0.00     0.174 C 
ATOM     32  C   UNL A   1      34.230  17.449  23.454  1.00  0.00     0.010 A 
ATOM     33  C   UNL A   1      33.020  18.329  25.242  1.00  0.00     0.065 A 
ATOM     34  N   UNL A   1      31.961  19.032  25.022  1.00  0.00    -0.280 NA
ATOM     35  C   UNL A   1      33.861  16.235  23.925  1.00  0.00     0.001 A 
ATOM     36  C   UNL A   1      33.098  17.116  26.062  1.00  0.00     0.028 A 
ATOM     37  C   UNL A   1      33.513  16.064  25.336  1.00  0.00     0.002 A 
ENDBRANCH  28  29
ENDBRANCH   8  28
ENDBRANCH   5   8
ENDBRANCH   3   4
ENDBRANCH   2   3
ENDBRANCH   1   2
BRANCH   1  38
ATOM     38  C   UNL A   1      40.279  22.559  27.323  1.00  0.00     0.002 C 
BRANCH  38  39
ATOM     39  C   UNL A   1      40.190  21.146  26.745  1.00  0.00     0.021 C 
BRANCH  39  40
ATOM     40  C   UNL A   1      41.137  20.086  27.280  1.00  0.00     0.116 C 
BRANCH  40  41
ATOM     41  N   UNL A   1      41.995  19.530  26.252  1.00  0.00    -0.352 N 
ATOM     42  C   UNL A   1      43.022  20.110  25.538  1.00  0.00     0.251 C 
ATOM     43  H   UNL A   1      41.815  18.588  26.028  1.00  0.00     0.163 HD
ATOM     44  O   UNL A   1      43.527  19.502  24.610  1.00  0.00    -0.269 OA
BRANCH  42  45
ATOM     45  C   UNL A   1      43.480  21.482  25.872  1.00  0.00     0.039 A 
ATOM     46  C   UNL A   1      44.138  21.760  27.072  1.00  0.00     0.014 A 
ATOM     47  C   UNL A   1      43.242  22.513  24.956  1.00  0.00     0.014 A 
ATOM     48  C   UNL A   1      44.400  23.079  27.429  1.00  0.00     0.010 A 
ATOM     49  C   UNL A   1      43.583  23.830  25.283  1.00  0.00     0.010 A 
ATOM     50  C   UNL A   1      44.118  24.132  26.543  1.00  0.00    -0.014 A 
BRANCH  50  51
ATOM     51  C   UNL A   1      44.398  25.537  26.947  1.00  0.00     0.031 A 
ATOM     52  C   UNL A   1      45.768  26.134  26.765  1.00  0.00     0.074 A 
ATOM     53  C   UNL A   1      43.399  26.287  27.453  1.00  0.00     0.049 A 
ATOM     54  N   UNL A   1      46.184  27.341  27.051  1.00  0.00    -0.248 NA
ATOM     55  C   UNL A   1      46.807  25.266  26.187  1.00  0.00     0.031 C 
ATOM     56  C   UNL A   1      42.032  25.815  27.667  1.00  0.00     0.029 A 
ATOM     57  N   UNL A   1      43.368  27.597  27.862  1.00  0.00    -0.354 N 
ATOM     58  C   UNL A   1      47.531  27.375  26.704  1.00  0.00     0.074 A 
ATOM     59  C   UNL A   1      47.873  26.057  26.219  1.00  0.00     0.031 C 
ATOM     60  C   UNL A   1      41.285  26.828  28.124  1.00  0.00     0.029 A 
ATOM     61  C   UNL A   1      42.133  28.003  28.311  1.00  0.00     0.049 A 
ATOM     62  H   UNL A   1      44.154  28.190  27.837  1.00  0.00     0.167 HD
ATOM     63  C   UNL A   1      48.394  28.417  26.769  1.00  0.00     0.034 A 
ATOM     64  C   UNL A   1      41.725  29.178  28.836  1.00  0.00     0.034 A 
ATOM     65  C   UNL A   1      48.028  29.731  27.239  1.00  0.00     0.049 A 
ATOM     66  C   UNL A   1      42.717  30.306  28.949  1.00  0.00     0.074 A 
ATOM     67  C   UNL A   1      48.820  30.865  27.297  1.00  0.00     0.029 A 
ATOM     68  N   UNL A   1      46.782  30.090  27.733  1.00  0.00    -0.354 N 
ATOM     69  N   UNL A   1      43.970  30.339  28.560  1.00  0.00    -0.248 NA
ATOM     70  C   UNL A   1      42.251  31.551  29.573  1.00  0.00     0.031 C 
ATOM     71  C   UNL A   1      48.078  31.886  27.890  1.00  0.00     0.029 A 
ATOM     72  C   UNL A   1      46.797  31.416  28.134  1.00  0.00     0.049 A 
ATOM     73  H   UNL A   1      46.004  29.490  27.789  1.00  0.00     0.167 HD
ATOM     74  C   UNL A   1      44.439  31.609  28.884  1.00  0.00     0.074 A 
ATOM     75  C   UNL A   1      43.325  32.325  29.471  1.00  0.00     0.031 C 
ATOM     76  C   UNL A   1      45.682  32.127  28.718  1.00  0.00     0.034 A 
BRANCH  63  77
ATOM     77  C   UNL A   1      49.820  28.215  26.316  1.00  0.00     0.023 A 
ATOM     78  C   UNL A   1      50.132  28.226  24.942  1.00  0.00     0.031 A 
ATOM     79  C   UNL A   1      50.837  27.867  27.225  1.00  0.00     0.131 A 
ATOM     80  C   UNL A   1      51.415  27.861  24.515  1.00  0.00     0.055 A 
ATOM     81  C   UNL A   1      52.126  27.545  26.795  1.00  0.00     0.041 A 
ATOM     82  F   UNL A   1      50.592  27.835  28.544  1.00  0.00    -0.206 F 
ATOM     83  C   UNL A   1      52.415  27.528  25.434  1.00  0.00     0.022 A 
BRANCH  80  84
ATOM     84  S   UNL A   1      51.817  27.731  22.751  1.00  0.00     0.124 S 
ATOM     85  O   UNL A   1      50.665  26.993  22.235  1.00  0.00    -0.237 OA
ATOM     86  O   UNL A   1      51.890  29.133  22.350  1.00  0.00    -0.237 OA
ATOM     87  O   UNL A   1      53.081  27.002  22.731  1.00  0.00    -0.744 OA
ENDBRANCH  80  84
ENDBRANCH  63  77
BRANCH  64  88
ATOM     88  C   UNL A   1      40.300  29.325  29.254  1.00  0.00     0.023 A 
ATOM     89  C   UNL A   1      39.931  29.221  30.608  1.00  0.00     0.031 A 
ATOM     90  C   UNL A   1      39.275  29.433  28.299  1.00  0.00     0.131 A 
ATOM     91  C   UNL A   1      38.579  29.130  30.959  1.00  0.00     0.055 A 
ATOM     92  C   UNL A   1      37.927  29.424  28.662  1.00  0.00     0.041 A 
ATOM     93  F   UNL A   1      39.575  29.524  26.994  1.00  0.00    -0.206 F 
ATOM     94  C   UNL A   1      37.573  29.248  29.996  1.00  0.00     0.022 A 
BRANCH  91  95
ATOM     95  S   UNL A   1      38.087  28.693  32.651  1.00  0.00     0.124 S 
ATOM     96  O   UNL A   1      39.096  29.383  33.449  1.00  0.00    -0.237 OA
ATOM     97  O   UNL A   1      36.738  29.250  32.721  1.00  0.00    -0.237 OA
ATOM     98  O   UNL A   1      38.157  27.236  32.665  1.00  0.00    -0.744 OA
ENDBRANCH  91  95
ENDBRANCH  64  88
BRANCH  76  99
ATOM     99  C   UNL A   1      45.947  33.539  29.182  1.00  0.00     0.023 A 
ATOM    100  C   UNL A   1      45.825  34.615  28.281  1.00  0.00     0.031 A 
ATOM    101  C   UNL A   1      46.486  33.795  30.455  1.00  0.00     0.131 A 
ATOM    102  C   UNL A   1      46.292  35.885  28.644  1.00  0.00     0.055 A 
ATOM    103  C   UNL A   1      46.899  35.074  30.832  1.00  0.00     0.041 A 
ATOM    104  F   UNL A   1      46.629  32.802  31.347  1.00  0.00    -0.206 F 
ATOM    105  C   UNL A   1      46.819  36.121  29.918  1.00  0.00     0.022 A 
BRANCH 102 106
ATOM    106  S   UNL A   1      46.318  37.249  27.450  1.00  0.00     0.124 S 
ATOM    107  O   UNL A   1      44.970  37.796  27.584  1.00  0.00    -0.237 OA
ATOM    108  O   UNL A   1      47.389  38.093  27.973  1.00  0.00    -0.237 OA
ATOM    109  O   UNL A   1      46.598  36.595  26.175  1.00  0.00    -0.744 OA
ENDBRANCH 102 106
ENDBRANCH  76  99
ENDBRANCH  50  51
ENDBRANCH  42  45
ENDBRANCH  40  41
ENDBRANCH  39  40
ENDBRANCH  38  39
ENDBRANCH   1  38
TORSDOF 22
ENDMDL
MODEL 2
REMARK VINA RESULT:     -12.1      1.785      2.635
REMARK SMILES C[C@H]1c2ccc(O)cc2OC(=O)[C@@H]1CC(=O)N[C@@H](CC1=c2ccccc2=NC1)C(=O)NCCCCCCNC(=O)c1ccc(-c2c3nc(c(-c4cc(S(=O)(=O)[O-])ccc4F)c4ccc([nH]4)c(-c4cc(S(=O)(=O)[O-])ccc4F)c4nc(c(-c5cc(S(=O)(=O)[O-])ccc5F)c5ccc2[nH]5)C=C4)C=C3)cc1
REMARK SMILES IDX 34 1 33 2 32 3 31 4 29 5 30 6 18 8 17 9 15 10 16 11 14 13
REMARK SMILES IDX 13 14 1 15 2 16 3 17 4 18 9 19 11 20 5 21 8 22 10 23 12 24
REMARK SMILES IDX 6 25 7 26 19 28 20 29 21 30 28 31 22 32 26 33 27 34 23 35
REMARK SMILES IDX 25 36 24 37 35 38 36 39 37 40 38 41 39 42 40 44 41 45 42 46
REMARK SMILES IDX 103 47 43 48 102 49 44 50 45 51 46 52 96 53 47 54 101 55
REMARK SMILES IDX 95 56 97 57 48 58 100 59 94 60 93 61 49 63 81 64 61 65 80 66
REMARK SMILES IDX 62 67 65 68 79 69 98 70 63 71 64 72 78 74 99 75 66 76 50 77
REMARK SMILES IDX 51 78 59 79 52 80 58 81 60 82 57 83 53 84 54 85 55 86 56 87
REMARK SMILES IDX 82 88 83 89 91 90 84 91 90 92 92 93 89 94 85 95 86 96 87 97
REMARK SMILES IDX 88 98 67 99 68 100 76 101 69 102 75 103 77 104 74 105 70 106
REMARK SMILES IDX 71 107 72 108 73 109
REMARK H PARENT 31 7 17 12 7 27 38 43 97 62 65 73
REMARK Flexibility Score: inf
ROOT
ATOM      1  C   UNL A   1      36.863  21.463  23.965  1.00  0.00     0.002 C 
ENDROOT
BRANCH   1   2
ATOM      2  C   UNL A   1      36.600  22.939  24.322  1.00  0.00     0.021 C 
BRANCH   2   3
ATOM      3  C   UNL A   1      35.530  23.670  23.524  1.00  0.00     0.116 C 
BRANCH   3   4
ATOM      4  N   UNL A   1      34.452  22.963  22.891  1.00  0.00    -0.354 N 
ATOM      5  C   UNL A   1      33.235  22.761  23.510  1.00  0.00     0.242 C 
ATOM      6  O   UNL A   1      32.229  22.915  22.806  1.00  0.00    -0.273 OA
ATOM      7  H   UNL A   1      34.586  22.610  21.982  1.00  0.00     0.163 HD
BRANCH   5   8
ATOM      8  C   UNL A   1      33.061  22.381  25.032  1.00  0.00     0.175 C 
BRANCH   8   9
ATOM      9  N   UNL A   1      32.029  23.051  25.830  1.00  0.00    -0.344 N 
ATOM     10  C   UNL A   1      32.078  24.258  26.469  1.00  0.00     0.221 C 
ATOM     11  O   UNL A   1      31.178  24.541  27.263  1.00  0.00    -0.275 OA
ATOM     12  H   UNL A   1      31.179  22.562  25.918  1.00  0.00     0.164 HD
BRANCH  10  13
ATOM     13  C   UNL A   1      33.178  25.269  26.167  1.00  0.00     0.116 C 
BRANCH  13  14
ATOM     14  C   UNL A   1      32.755  26.758  26.202  1.00  0.00     0.116 C 
ATOM     15  C   UNL A   1      31.002  28.494  25.509  1.00  0.00     0.014 C 
ATOM     16  C   UNL A   1      31.516  27.058  25.323  1.00  0.00     0.034 C 
ATOM     17  C   UNL A   1      31.877  26.809  23.876  1.00  0.00    -0.001 A 
ATOM     18  C   UNL A   1      30.929  26.406  22.933  1.00  0.00     0.011 A 
ATOM     19  C   UNL A   1      33.211  26.934  23.474  1.00  0.00     0.138 A 
ATOM     20  C   UNL A   1      33.833  27.671  25.669  1.00  0.00     0.315 C 
ATOM     21  C   UNL A   1      31.331  26.071  21.635  1.00  0.00     0.047 A 
ATOM     22  C   UNL A   1      33.631  26.570  22.200  1.00  0.00     0.093 A 
ATOM     23  O   UNL A   1      34.178  27.465  24.342  1.00  0.00    -0.426 OA
ATOM     24  O   UNL A   1      34.379  28.529  26.352  1.00  0.00    -0.251 OA
ATOM     25  C   UNL A   1      32.681  26.131  21.290  1.00  0.00     0.119 A 
BRANCH  25  26
ATOM     26  O   UNL A   1      33.111  25.767  20.048  1.00  0.00    -0.508 OA
ATOM     27  H   UNL A   1      32.659  25.098  19.573  1.00  0.00     0.293 HD
ENDBRANCH  25  26
ENDBRANCH  13  14
ENDBRANCH  10  13
ENDBRANCH   8   9
BRANCH   8  28
ATOM     28  C   UNL A   1      33.323  20.906  25.527  1.00  0.00     0.068 C 
BRANCH  28  29
ATOM     29  C   UNL A   1      33.578  19.734  24.578  1.00  0.00    -0.037 C 
ATOM     30  C   UNL A   1      34.087  18.554  24.996  1.00  0.00     0.001 A 
ATOM     31  C   UNL A   1      32.467  19.484  23.624  1.00  0.00     0.174 C 
ATOM     32  C   UNL A   1      34.971  17.648  24.239  1.00  0.00     0.010 A 
ATOM     33  C   UNL A   1      32.775  17.840  24.999  1.00  0.00     0.065 A 
ATOM     34  N   UNL A   1      31.855  18.281  24.211  1.00  0.00    -0.280 NA
ATOM     35  C   UNL A   1      34.810  16.314  24.400  1.00  0.00     0.001 A 
ATOM     36  C   UNL A   1      32.768  16.554  25.704  1.00  0.00     0.028 A 
ATOM     37  C   UNL A   1      33.820  15.797  25.346  1.00  0.00     0.002 A 
ENDBRANCH  28  29
ENDBRANCH   8  28
ENDBRANCH   5   8
ENDBRANCH   3   4
ENDBRANCH   2   3
ENDBRANCH   1   2
BRANCH   1  38
ATOM     38  C   UNL A   1      37.492  20.504  24.993  1.00  0.00     0.002 C 
BRANCH  38  39
ATOM     39  C   UNL A   1      38.986  20.591  25.310  1.00  0.00     0.021 C 
BRANCH  39  40
ATOM     40  C   UNL A   1      39.531  19.750  26.450  1.00  0.00     0.116 C 
BRANCH  40  41
ATOM     41  N   UNL A   1      40.836  19.188  26.159  1.00  0.00    -0.352 N 
ATOM     42  C   UNL A   1      42.070  19.796  26.077  1.00  0.00     0.251 C 
ATOM     43  H   UNL A   1      40.840  18.217  25.992  1.00  0.00     0.163 HD
ATOM     44  O   UNL A   1      43.029  19.160  25.677  1.00  0.00    -0.269 OA
BRANCH  42  45
ATOM     45  C   UNL A   1      42.220  21.230  26.435  1.00  0.00     0.039 A 
ATOM     46  C   UNL A   1      42.051  22.240  25.487  1.00  0.00     0.014 A 
ATOM     47  C   UNL A   1      42.539  21.563  27.756  1.00  0.00     0.014 A 
ATOM     48  C   UNL A   1      42.366  23.556  25.813  1.00  0.00     0.010 A 
ATOM     49  C   UNL A   1      42.774  22.898  28.102  1.00  0.00     0.010 A 
ATOM     50  C   UNL A   1      42.739  23.901  27.122  1.00  0.00    -0.014 A 
BRANCH  50  51
ATOM     51  C   UNL A   1      43.080  25.312  27.449  1.00  0.00     0.031 A 
ATOM     52  C   UNL A   1      44.425  25.884  27.090  1.00  0.00     0.074 A 
ATOM     53  C   UNL A   1      42.155  26.091  28.046  1.00  0.00     0.049 A 
ATOM     54  N   UNL A   1      44.885  27.093  27.289  1.00  0.00    -0.248 NA
ATOM     55  C   UNL A   1      45.380  24.987  26.420  1.00  0.00     0.031 C 
ATOM     56  C   UNL A   1      40.817  25.645  28.433  1.00  0.00     0.029 A 
ATOM     57  N   UNL A   1      42.187  27.413  28.417  1.00  0.00    -0.354 N 
ATOM     58  C   UNL A   1      46.182  27.098  26.786  1.00  0.00     0.074 A 
ATOM     59  C   UNL A   1      46.450  25.762  26.303  1.00  0.00     0.031 C 
ATOM     60  C   UNL A   1      40.141  26.681  28.944  1.00  0.00     0.029 A 
ATOM     61  C   UNL A   1      41.017  27.849  28.996  1.00  0.00     0.049 A 
ATOM     62  H   UNL A   1      42.970  27.993  28.282  1.00  0.00     0.167 HD
ATOM     63  C   UNL A   1      47.058  28.130  26.718  1.00  0.00     0.034 A 
ATOM     64  C   UNL A   1      40.687  29.044  29.529  1.00  0.00     0.034 A 
ATOM     65  C   UNL A   1      46.765  29.461  27.189  1.00  0.00     0.049 A 
ATOM     66  C   UNL A   1      41.698  30.160  29.492  1.00  0.00     0.074 A 
ATOM     67  C   UNL A   1      47.569  30.585  27.120  1.00  0.00     0.029 A 
ATOM     68  N   UNL A   1      45.589  29.851  27.815  1.00  0.00    -0.354 N 
ATOM     69  N   UNL A   1      42.896  30.164  28.958  1.00  0.00    -0.248 NA
ATOM     70  C   UNL A   1      41.321  31.429  30.129  1.00  0.00     0.031 C 
ATOM     71  C   UNL A   1      46.913  31.633  27.766  1.00  0.00     0.029 A 
ATOM     72  C   UNL A   1      45.665  31.188  28.172  1.00  0.00     0.049 A 
ATOM     73  H   UNL A   1      44.816  29.265  27.979  1.00  0.00     0.167 HD
ATOM     74  C   UNL A   1      43.414  31.436  29.187  1.00  0.00     0.074 A 
ATOM     75  C   UNL A   1      42.385  32.184  29.879  1.00  0.00     0.031 C 
ATOM     76  C   UNL A   1      44.634  31.931  28.861  1.00  0.00     0.034 A 
BRANCH  63  77
ATOM     77  C   UNL A   1      48.419  27.894  26.108  1.00  0.00     0.023 A 
ATOM     78  C   UNL A   1      48.572  27.894  24.707  1.00  0.00     0.031 A 
ATOM     79  C   UNL A   1      49.525  27.528  26.897  1.00  0.00     0.131 A 
ATOM     80  C   UNL A   1      49.790  27.498  24.139  1.00  0.00     0.055 A 
ATOM     81  C   UNL A   1      50.749  27.175  26.325  1.00  0.00     0.041 A 
ATOM     82  F   UNL A   1      49.430  27.506  28.236  1.00  0.00    -0.206 F 
ATOM     83  C   UNL A   1      50.881  27.147  24.941  1.00  0.00     0.022 A 
BRANCH  80  84
ATOM     84  S   UNL A   1      49.986  27.352  22.342  1.00  0.00     0.124 S 
ATOM     85  O   UNL A   1      48.899  26.438  21.995  1.00  0.00    -0.237 OA
ATOM     86  O   UNL A   1      49.803  28.733  21.902  1.00  0.00    -0.237 OA
ATOM     87  O   UNL A   1      51.330  26.810  22.177  1.00  0.00    -0.744 OA
ENDBRANCH  80  84
ENDBRANCH  63  77
BRANCH  64  88
ATOM     88  C   UNL A   1      39.322  29.223  30.107  1.00  0.00     0.023 A 
ATOM     89  C   UNL A   1      38.357  30.006  29.447  1.00  0.00     0.031 A 
ATOM     90  C   UNL A   1      39.009  28.730  31.385  1.00  0.00     0.131 A 
ATOM     91  C   UNL A   1      37.171  30.354  30.105  1.00  0.00     0.055 A 
ATOM     92  C   UNL A   1      37.790  29.011  32.004  1.00  0.00     0.041 A 
ATOM     93  F   UNL A   1      39.900  27.986  32.059  1.00  0.00    -0.206 F 
ATOM     94  C   UNL A   1      36.873  29.847  31.372  1.00  0.00     0.022 A 
BRANCH  91  95
ATOM     95  S   UNL A   1      36.053  31.602  29.405  1.00  0.00     0.124 S 
ATOM     96  O   UNL A   1      36.988  32.630  28.958  1.00  0.00    -0.237 OA
ATOM     97  O   UNL A   1      35.392  30.846  28.345  1.00  0.00    -0.237 OA
ATOM     98  O   UNL A   1      35.200  31.968  30.530  1.00  0.00    -0.744 OA
ENDBRANCH  91  95
ENDBRANCH  64  88
BRANCH  76  99
ATOM     99  C   UNL A   1      44.968  33.352  29.249  1.00  0.00     0.023 A 
ATOM    100  C   UNL A   1      44.849  34.389  28.304  1.00  0.00     0.031 A 
ATOM    101  C   UNL A   1      45.564  33.645  30.487  1.00  0.00     0.131 A 
ATOM    102  C   UNL A   1      45.375  35.656  28.590  1.00  0.00     0.055 A 
ATOM    103  C   UNL A   1      46.038  34.923  30.789  1.00  0.00     0.041 A 
ATOM    104  F   UNL A   1      45.706  32.689  31.419  1.00  0.00    -0.206 F 
ATOM    105  C   UNL A   1      45.959  35.930  29.831  1.00  0.00     0.022 A 
BRANCH 102 106
ATOM    106  S   UNL A   1      45.404  36.963  27.333  1.00  0.00     0.124 S 
ATOM    107  O   UNL A   1      43.981  37.155  27.062  1.00  0.00    -0.237 OA
ATOM    108  O   UNL A   1      46.056  38.058  28.045  1.00  0.00    -0.237 OA
ATOM    109  O   UNL A   1      46.171  36.380  26.237  1.00  0.00    -0.744 OA
ENDBRANCH 102 106
ENDBRANCH  76  99
ENDBRANCH  50  51
ENDBRANCH  42  45
ENDBRANCH  40  41
ENDBRANCH  39  40
ENDBRANCH  38  39
ENDBRANCH   1  38
TORSDOF 22
ENDMDL
MODEL 3
REMARK VINA RESULT:     -12.1      6.148     10.199
REMARK SMILES C[C@H]1c2ccc(O)cc2OC(=O)[C@@H]1CC(=O)N[C@@H](CC1=c2ccccc2=NC1)C(=O)NCCCCCCNC(=O)c1ccc(-c2c3nc(c(-c4cc(S(=O)(=O)[O-])ccc4F)c4ccc([nH]4)c(-c4cc(S(=O)(=O)[O-])ccc4F)c4nc(c(-c5cc(S(=O)(=O)[O-])ccc5F)c5ccc2[nH]5)C=C4)C=C3)cc1
REMARK SMILES IDX 34 1 33 2 32 3 31 4 29 5 30 6 18 8 17 9 15 10 16 11 14 13
REMARK SMILES IDX 13 14 1 15 2 16 3 17 4 18 9 19 11 20 5 21 8 22 10 23 12 24
REMARK SMILES IDX 6 25 7 26 19 28 20 29 21 30 28 31 22 32 26 33 27 34 23 35
REMARK SMILES IDX 25 36 24 37 35 38 36 39 37 40 38 41 39 42 40 44 41 45 42 46
REMARK SMILES IDX 103 47 43 48 102 49 44 50 45 51 46 52 96 53 47 54 101 55
REMARK SMILES IDX 95 56 97 57 48 58 100 59 94 60 93 61 49 63 81 64 61 65 80 66
REMARK SMILES IDX 62 67 65 68 79 69 98 70 63 71 64 72 78 74 99 75 66 76 50 77
REMARK SMILES IDX 51 78 59 79 52 80 58 81 60 82 57 83 53 84 54 85 55 86 56 87
REMARK SMILES IDX 82 88 83 89 91 90 84 91 90 92 92 93 89 94 85 95 86 96 87 97
REMARK SMILES IDX 88 98 67 99 68 100 76 101 69 102 75 103 77 104 74 105 70 106
REMARK SMILES IDX 71 107 72 108 73 109
REMARK H PARENT 31 7 17 12 7 27 38 43 97 62 65 73
REMARK Flexibility Score: inf
ROOT
ATOM      1  C   UNL A   1      31.584  29.715  26.360  1.00  0.00     0.002 C 
ENDROOT
BRANCH   1   2
ATOM      2  C   UNL A   1      31.777  28.228  26.714  1.00  0.00     0.021 C 
BRANCH   2   3
ATOM      3  C   UNL A   1      32.052  27.266  25.567  1.00  0.00     0.116 C 
BRANCH   3   4
ATOM      4  N   UNL A   1      33.122  27.493  24.638  1.00  0.00    -0.354 N 
ATOM      5  C   UNL A   1      32.909  28.000  23.372  1.00  0.00     0.242 C 
ATOM      6  O   UNL A   1      33.714  28.854  22.980  1.00  0.00    -0.273 OA
ATOM      7  H   UNL A   1      34.043  27.280  24.914  1.00  0.00     0.163 HD
BRANCH   5   8
ATOM      8  C   UNL A   1      31.711  27.581  22.434  1.00  0.00     0.175 C 
BRANCH   8   9
ATOM      9  N   UNL A   1      31.970  26.731  21.266  1.00  0.00    -0.344 N 
ATOM     10  C   UNL A   1      32.710  25.586  21.178  1.00  0.00     0.221 C 
ATOM     11  O   UNL A   1      32.977  25.143  20.059  1.00  0.00    -0.275 OA
ATOM     12  H   UNL A   1      31.549  27.028  20.426  1.00  0.00     0.164 HD
BRANCH  10  13
ATOM     13  C   UNL A   1      33.146  24.827  22.425  1.00  0.00     0.116 C 
BRANCH  13  14
ATOM     14  C   UNL A   1      32.095  23.866  23.033  1.00  0.00     0.116 C 
ATOM     15  C   UNL A   1      30.893  23.088  25.158  1.00  0.00     0.014 C 
ATOM     16  C   UNL A   1      32.058  23.907  24.581  1.00  0.00     0.034 C 
ATOM     17  C   UNL A   1      33.377  23.396  25.111  1.00  0.00    -0.001 A 
ATOM     18  C   UNL A   1      33.907  23.828  26.329  1.00  0.00     0.011 A 
ATOM     19  C   UNL A   1      34.123  22.499  24.337  1.00  0.00     0.138 A 
ATOM     20  C   UNL A   1      32.378  22.422  22.695  1.00  0.00     0.315 C 
ATOM     21  C   UNL A   1      35.186  23.419  26.721  1.00  0.00     0.047 A 
ATOM     22  C   UNL A   1      35.409  22.113  24.696  1.00  0.00     0.093 A 
ATOM     23  O   UNL A   1      33.581  21.928  23.175  1.00  0.00    -0.426 OA
ATOM     24  O   UNL A   1      31.612  21.729  22.036  1.00  0.00    -0.251 OA
ATOM     25  C   UNL A   1      35.935  22.588  25.888  1.00  0.00     0.119 A 
BRANCH  25  26
ATOM     26  O   UNL A   1      37.202  22.209  26.219  1.00  0.00    -0.508 OA
ATOM     27  H   UNL A   1      37.339  21.553  26.874  1.00  0.00     0.293 HD
ENDBRANCH  25  26
ENDBRANCH  13  14
ENDBRANCH  10  13
ENDBRANCH   8   9
BRANCH   8  28
ATOM     28  C   UNL A   1      30.271  27.338  23.031  1.00  0.00     0.068 C 
BRANCH  28  29
ATOM     29  C   UNL A   1      29.359  28.468  23.512  1.00  0.00    -0.037 C 
ATOM     30  C   UNL A   1      29.504  29.747  23.101  1.00  0.00     0.001 A 
ATOM     31  C   UNL A   1      27.917  28.111  23.521  1.00  0.00     0.174 C 
ATOM     32  C   UNL A   1      29.230  30.969  23.881  1.00  0.00     0.010 A 
ATOM     33  C   UNL A   1      28.378  29.698  22.122  1.00  0.00     0.065 A 
ATOM     34  N   UNL A   1      27.436  28.844  22.338  1.00  0.00    -0.280 NA
ATOM     35  C   UNL A   1      28.712  32.039  23.234  1.00  0.00     0.001 A 
ATOM     36  C   UNL A   1      28.335  30.810  21.167  1.00  0.00     0.028 A 
ATOM     37  C   UNL A   1      28.488  31.992  21.788  1.00  0.00     0.002 A 
ENDBRANCH  28  29
ENDBRANCH   8  28
ENDBRANCH   5   8
ENDBRANCH   3   4
ENDBRANCH   2   3
ENDBRANCH   1   2
BRANCH   1  38
ATOM     38  C   UNL A   1      32.471  30.799  26.999  1.00  0.00     0.002 C 
BRANCH  38  39
ATOM     39  C   UNL A   1      31.952  32.230  27.142  1.00  0.00     0.021 C 
BRANCH  39  40
ATOM     40  C   UNL A   1      32.937  33.375  26.989  1.00  0.00     0.116 C 
BRANCH  40  41
ATOM     41  N   UNL A   1      32.725  34.431  27.960  1.00  0.00    -0.352 N 
ATOM     42  C   UNL A   1      33.338  34.665  29.172  1.00  0.00     0.251 C 
ATOM     43  H   UNL A   1      32.031  35.086  27.713  1.00  0.00     0.163 HD
ATOM     44  O   UNL A   1      32.908  35.539  29.905  1.00  0.00    -0.269 OA
BRANCH  42  45
ATOM     45  C   UNL A   1      34.489  33.830  29.598  1.00  0.00     0.039 A 
ATOM     46  C   UNL A   1      34.311  32.691  30.386  1.00  0.00     0.014 A 
ATOM     47  C   UNL A   1      35.776  34.202  29.195  1.00  0.00     0.014 A 
ATOM     48  C   UNL A   1      35.420  32.031  30.910  1.00  0.00     0.010 A 
ATOM     49  C   UNL A   1      36.886  33.485  29.656  1.00  0.00     0.010 A 
ATOM     50  C   UNL A   1      36.721  32.424  30.558  1.00  0.00    -0.014 A 
BRANCH  50  51
ATOM     51  C   UNL A   1      37.893  31.710  31.135  1.00  0.00     0.031 A 
ATOM     52  C   UNL A   1      38.628  30.665  30.339  1.00  0.00     0.074 A 
ATOM     53  C   UNL A   1      38.315  32.033  32.373  1.00  0.00     0.049 A 
ATOM     54  N   UNL A   1      39.672  29.955  30.681  1.00  0.00    -0.248 NA
ATOM     55  C   UNL A   1      38.128  30.377  28.985  1.00  0.00     0.031 C 
ATOM     56  C   UNL A   1      37.684  33.035  33.232  1.00  0.00     0.029 A 
ATOM     57  N   UNL A   1      39.372  31.572  33.119  1.00  0.00    -0.354 N 
ATOM     58  C   UNL A   1      39.946  29.128  29.595  1.00  0.00     0.074 A 
ATOM     59  C   UNL A   1      38.936  29.398  28.597  1.00  0.00     0.031 C 
ATOM     60  C   UNL A   1      38.389  33.147  34.365  1.00  0.00     0.029 A 
ATOM     61  C   UNL A   1      39.476  32.172  34.353  1.00  0.00     0.049 A 
ATOM     62  H   UNL A   1      39.995  30.879  32.803  1.00  0.00     0.167 HD
ATOM     63  C   UNL A   1      40.958  28.240  29.445  1.00  0.00     0.034 A 
ATOM     64  C   UNL A   1      40.333  31.953  35.373  1.00  0.00     0.034 A 
ATOM     65  C   UNL A   1      41.967  27.997  30.446  1.00  0.00     0.049 A 
ATOM     66  C   UNL A   1      41.417  30.921  35.202  1.00  0.00     0.074 A 
ATOM     67  C   UNL A   1      43.060  27.153  30.366  1.00  0.00     0.029 A 
ATOM     68  N   UNL A   1      42.010  28.587  31.702  1.00  0.00    -0.354 N 
ATOM     69  N   UNL A   1      41.697  30.192  34.147  1.00  0.00    -0.248 NA
ATOM     70  C   UNL A   1      42.297  30.673  36.352  1.00  0.00     0.031 C 
ATOM     71  C   UNL A   1      43.721  27.176  31.594  1.00  0.00     0.029 A 
ATOM     72  C   UNL A   1      43.089  28.093  32.419  1.00  0.00     0.049 A 
ATOM     73  H   UNL A   1      41.370  29.257  32.033  1.00  0.00     0.167 HD
ATOM     74  C   UNL A   1      42.790  29.407  34.502  1.00  0.00     0.074 A 
ATOM     75  C   UNL A   1      43.140  29.774  35.859  1.00  0.00     0.031 C 
ATOM     76  C   UNL A   1      43.435  28.463  33.772  1.00  0.00     0.034 A 
BRANCH  63  77
ATOM     77  C   UNL A   1      41.059  27.459  28.155  1.00  0.00     0.023 A 
ATOM     78  C   UNL A   1      40.867  26.063  28.160  1.00  0.00     0.031 A 
ATOM     79  C   UNL A   1      41.485  28.067  26.960  1.00  0.00     0.131 A 
ATOM     80  C   UNL A   1      41.138  25.319  27.005  1.00  0.00     0.055 A 
ATOM     81  C   UNL A   1      41.712  27.324  25.800  1.00  0.00     0.041 A 
ATOM     82  F   UNL A   1      41.687  29.393  26.903  1.00  0.00    -0.206 F 
ATOM     83  C   UNL A   1      41.551  25.942  25.823  1.00  0.00     0.022 A 
BRANCH  80  84
ATOM     84  S   UNL A   1      41.036  23.508  27.009  1.00  0.00     0.124 S 
ATOM     85  O   UNL A   1      41.828  23.160  25.831  1.00  0.00    -0.237 OA
ATOM     86  O   UNL A   1      41.646  23.171  28.292  1.00  0.00    -0.237 OA
ATOM     87  O   UNL A   1      39.607  23.235  26.898  1.00  0.00    -0.744 OA
ENDBRANCH  80  84
ENDBRANCH  63  77
BRANCH  64  88
ATOM     88  C   UNL A   1      40.194  32.764  36.618  1.00  0.00     0.023 A 
ATOM     89  C   UNL A   1      39.314  32.367  37.643  1.00  0.00     0.031 A 
ATOM     90  C   UNL A   1      40.829  34.011  36.742  1.00  0.00     0.131 A 
ATOM     91  C   UNL A   1      39.022  33.246  38.692  1.00  0.00     0.055 A 
ATOM     92  C   UNL A   1      40.596  34.850  37.833  1.00  0.00     0.041 A 
ATOM     93  F   UNL A   1      41.669  34.439  35.787  1.00  0.00    -0.206 F 
ATOM     94  C   UNL A   1      39.670  34.478  38.803  1.00  0.00     0.022 A 
BRANCH  91  95
ATOM     95  S   UNL A   1      37.673  32.888  39.854  1.00  0.00     0.124 S 
ATOM     96  O   UNL A   1      38.131  31.651  40.480  1.00  0.00    -0.237 OA
ATOM     97  O   UNL A   1      37.695  34.073  40.707  1.00  0.00    -0.237 OA
ATOM     98  O   UNL A   1      36.501  32.766  38.994  1.00  0.00    -0.744 OA
ENDBRANCH  91  95
ENDBRANCH  64  88
BRANCH  76  99
ATOM     99  C   UNL A   1      44.590  27.722  34.402  1.00  0.00     0.023 A 
ATOM    100  C   UNL A   1      44.379  26.473  35.017  1.00  0.00     0.031 A 
ATOM    101  C   UNL A   1      45.849  28.331  34.547  1.00  0.00     0.131 A 
ATOM    102  C   UNL A   1      45.390  25.900  35.798  1.00  0.00     0.055 A 
ATOM    103  C   UNL A   1      46.873  27.730  35.282  1.00  0.00     0.041 A 
ATOM    104  F   UNL A   1      46.099  29.524  33.986  1.00  0.00    -0.206 F 
ATOM    105  C   UNL A   1      46.639  26.517  35.925  1.00  0.00     0.022 A 
BRANCH 102 106
ATOM    106  S   UNL A   1      45.093  24.386  36.750  1.00  0.00     0.124 S 
ATOM    107  O   UNL A   1      46.444  23.848  36.894  1.00  0.00    -0.237 OA
ATOM    108  O   UNL A   1      44.496  24.907  37.976  1.00  0.00    -0.237 OA
ATOM    109  O   UNL A   1      44.202  23.604  35.899  1.00  0.00    -0.744 OA
ENDBRANCH 102 106
ENDBRANCH  76  99
ENDBRANCH  50  51
ENDBRANCH  42  45
ENDBRANCH  40  41
ENDBRANCH  39  40
ENDBRANCH  38  39
ENDBRANCH   1  38
TORSDOF 22
ENDMDL
