MODEL 1
REMARK VINA RESULT:     -11.3      0.000      0.000
REMARK SMILES COc1ccc(/C=N/Nc2cccc(C(=O)NCCCCCCNC(=O)c3ccc(-c4c5nc(c(-c6cc(S(=O)(=O)[O-])ccc6F)c6ccc([nH]6)c(-c6cc(S(=O)(=O)[O-])ccc6F)c6nc(c(-c7cc(S(=O)(=O)[O-])ccc7F)c7ccc4[nH]7)C=C6)C=C5)cc3)c2)cc1O
REMARK SMILES IDX 20 1 19 2 18 3 17 4 15 5 16 6 14 8 10 9 11 10 90 11 12 12
REMARK SMILES IDX 13 13 9 14 8 16 7 17 6 18 3 19 4 20 92 21 5 22 91 23 2 24
REMARK SMILES IDX 1 25 93 26 21 28 22 29 23 30 24 31 25 32 26 34 27 35 28 36
REMARK SMILES IDX 89 37 29 38 88 39 30 40 31 41 32 42 82 43 33 44 87 45 81 46
REMARK SMILES IDX 83 47 34 48 86 49 80 50 79 51 35 53 67 54 47 55 66 56 48 57
REMARK SMILES IDX 51 58 65 59 84 60 49 61 50 62 64 64 85 65 52 66 36 67 37 68
REMARK SMILES IDX 45 69 38 70 44 71 46 72 43 73 39 74 40 75 41 76 42 77 68 78
REMARK SMILES IDX 69 79 77 80 70 81 76 82 78 83 75 84 71 85 72 86 73 87 74 88
REMARK SMILES IDX 53 89 54 90 62 91 55 92 61 93 63 94 60 95 56 96 57 97 58 98
REMARK SMILES IDX 59 99
REMARK H PARENT 17 7 9 15 93 27 24 33 83 52 51 63
REMARK Flexibility Score: inf
ROOT
ATOM      1  C   UNL A   1      33.526  29.381  26.864  1.00  0.00     0.002 C 
ENDROOT
BRANCH   1   2
ATOM      2  C   UNL A   1      32.448  29.529  25.783  1.00  0.00     0.021 C 
BRANCH   2   3
ATOM      3  C   UNL A   1      32.968  29.186  24.385  1.00  0.00     0.116 C 
BRANCH   3   4
ATOM      4  N   UNL A   1      31.906  29.334  23.409  1.00  0.00    -0.352 N 
ATOM      5  C   UNL A   1      31.011  28.455  22.856  1.00  0.00     0.251 C 
ATOM      6  O   UNL A   1      30.246  28.903  21.999  1.00  0.00    -0.269 OA
ATOM      7  H   UNL A   1      31.807  30.256  23.075  1.00  0.00     0.163 HD
BRANCH   5   8
ATOM      8  C   UNL A   1      30.862  27.032  23.282  1.00  0.00     0.041 A 
ATOM      9  C   UNL A   1      31.370  24.647  23.166  1.00  0.00     0.057 A 
ATOM     10  C   UNL A   1      30.668  24.443  24.358  1.00  0.00     0.028 A 
ATOM     11  C   UNL A   1      31.387  25.932  22.604  1.00  0.00     0.041 A 
ATOM     12  C   UNL A   1      30.053  25.513  25.006  1.00  0.00     0.003 A 
ATOM     13  C   UNL A   1      30.172  26.801  24.483  1.00  0.00     0.014 A 
BRANCH   9  14
ATOM     14  N   UNL A   1      32.172  23.609  22.654  1.00  0.00    -0.278 N 
ATOM     15  H   UNL A   1      32.540  23.714  21.747  1.00  0.00     0.190 HD
BRANCH  14  16
ATOM     16  N   UNL A   1      32.474  22.467  23.339  1.00  0.00    -0.183 NA
ATOM     17  C   UNL A   1      32.090  21.355  22.785  1.00  0.00     0.141 C 
BRANCH  17  18
ATOM     18  C   UNL A   1      32.351  20.028  23.375  1.00  0.00    -0.002 A 
ATOM     19  C   UNL A   1      32.824  17.533  24.564  1.00  0.00     0.160 A 
ATOM     20  C   UNL A   1      32.755  17.654  23.173  1.00  0.00     0.051 A 
ATOM     21  C   UNL A   1      32.694  18.682  25.348  1.00  0.00     0.158 A 
ATOM     22  C   UNL A   1      32.530  18.900  22.573  1.00  0.00     0.014 A 
ATOM     23  C   UNL A   1      32.418  19.920  24.767  1.00  0.00     0.060 A 
BRANCH  19  24
ATOM     24  O   UNL A   1      33.110  16.284  25.038  1.00  0.00    -0.493 OA
ATOM     25  C   UNL A   1      34.492  15.940  25.133  1.00  0.00     0.278 C 
ENDBRANCH  19  24
BRANCH  21  26
ATOM     26  O   UNL A   1      32.904  18.679  26.698  1.00  0.00    -0.504 OA
ATOM     27  H   UNL A   1      33.379  19.381  27.101  1.00  0.00     0.293 HD
ENDBRANCH  21  26
ENDBRANCH  17  18
ENDBRANCH  14  16
ENDBRANCH   9  14
ENDBRANCH   5   8
ENDBRANCH   3   4
ENDBRANCH   2   3
ENDBRANCH   1   2
BRANCH   1  28
ATOM     28  C   UNL A   1      33.966  30.703  27.505  1.00  0.00     0.002 C 
BRANCH  28  29
ATOM     29  C   UNL A   1      32.864  31.762  27.620  1.00  0.00     0.021 C 
BRANCH  29  30
ATOM     30  C   UNL A   1      33.255  33.133  27.077  1.00  0.00     0.116 C 
BRANCH  30  31
ATOM     31  N   UNL A   1      32.885  34.194  28.000  1.00  0.00    -0.352 N 
ATOM     32  C   UNL A   1      33.326  34.433  29.277  1.00  0.00     0.251 C 
ATOM     33  H   UNL A   1      32.221  34.836  27.658  1.00  0.00     0.163 HD
ATOM     34  O   UNL A   1      32.702  35.202  29.999  1.00  0.00    -0.269 OA
BRANCH  32  35
ATOM     35  C   UNL A   1      34.543  33.757  29.778  1.00  0.00     0.039 A 
ATOM     36  C   UNL A   1      34.405  32.707  30.689  1.00  0.00     0.014 A 
ATOM     37  C   UNL A   1      35.815  34.180  29.382  1.00  0.00     0.014 A 
ATOM     38  C   UNL A   1      35.542  32.053  31.166  1.00  0.00     0.010 A 
ATOM     39  C   UNL A   1      36.943  33.482  29.805  1.00  0.00     0.010 A 
ATOM     40  C   UNL A   1      36.820  32.418  30.710  1.00  0.00    -0.014 A 
BRANCH  40  41
ATOM     41  C   UNL A   1      38.031  31.702  31.185  1.00  0.00     0.031 A 
ATOM     42  C   UNL A   1      38.641  32.048  32.517  1.00  0.00     0.074 A 
ATOM     43  C   UNL A   1      38.603  30.771  30.398  1.00  0.00     0.049 A 
ATOM     44  N   UNL A   1      39.710  31.558  33.091  1.00  0.00    -0.248 NA
ATOM     45  C   UNL A   1      37.974  33.106  33.292  1.00  0.00     0.031 C 
ATOM     46  C   UNL A   1      38.129  30.385  29.067  1.00  0.00     0.029 A 
ATOM     47  N   UNL A   1      39.706  29.980  30.598  1.00  0.00    -0.354 N 
ATOM     48  C   UNL A   1      39.849  32.251  34.290  1.00  0.00     0.074 A 
ATOM     49  C   UNL A   1      38.793  33.240  34.324  1.00  0.00     0.031 C 
ATOM     50  C   UNL A   1      38.916  29.411  28.584  1.00  0.00     0.029 A 
ATOM     51  C   UNL A   1      39.974  29.130  29.550  1.00  0.00     0.049 A 
ATOM     52  H   UNL A   1      40.254  30.017  31.415  1.00  0.00     0.167 HD
ATOM     53  C   UNL A   1      40.757  32.063  35.280  1.00  0.00     0.034 A 
ATOM     54  C   UNL A   1      40.964  28.231  29.384  1.00  0.00     0.034 A 
ATOM     55  C   UNL A   1      41.800  31.066  35.230  1.00  0.00     0.049 A 
ATOM     56  C   UNL A   1      41.971  28.050  30.491  1.00  0.00     0.074 A 
ATOM     57  C   UNL A   1      42.742  30.751  36.195  1.00  0.00     0.029 A 
ATOM     58  N   UNL A   1      42.046  30.225  34.150  1.00  0.00    -0.354 N 
ATOM     59  N   UNL A   1      42.055  28.673  31.644  1.00  0.00    -0.248 NA
ATOM     60  C   UNL A   1      43.008  27.033  30.278  1.00  0.00     0.031 C 
ATOM     61  C   UNL A   1      43.596  29.771  35.673  1.00  0.00     0.029 A 
ATOM     62  C   UNL A   1      43.142  29.416  34.413  1.00  0.00     0.049 A 
ATOM     63  H   UNL A   1      41.519  30.206  33.320  1.00  0.00     0.167 HD
ATOM     64  C   UNL A   1      43.141  28.104  32.304  1.00  0.00     0.074 A 
ATOM     65  C   UNL A   1      43.660  27.072  31.430  1.00  0.00     0.031 C 
ATOM     66  C   UNL A   1      43.663  28.406  33.521  1.00  0.00     0.034 A 
BRANCH  53  67
ATOM     67  C   UNL A   1      40.671  32.973  36.484  1.00  0.00     0.023 A 
ATOM     68  C   UNL A   1      39.871  32.653  37.596  1.00  0.00     0.031 A 
ATOM     69  C   UNL A   1      41.369  34.194  36.508  1.00  0.00     0.131 A 
ATOM     70  C   UNL A   1      39.725  33.575  38.644  1.00  0.00     0.055 A 
ATOM     71  C   UNL A   1      41.286  35.068  37.594  1.00  0.00     0.041 A 
ATOM     72  F   UNL A   1      42.133  34.566  35.468  1.00  0.00    -0.206 F 
ATOM     73  C   UNL A   1      40.447  34.769  38.663  1.00  0.00     0.022 A 
BRANCH  70  74
ATOM     74  S   UNL A   1      38.462  33.256  39.907  1.00  0.00     0.124 S 
ATOM     75  O   UNL A   1      37.268  33.063  39.088  1.00  0.00    -0.237 OA
ATOM     76  O   UNL A   1      38.978  32.067  40.575  1.00  0.00    -0.237 OA
ATOM     77  O   UNL A   1      38.467  34.476  40.712  1.00  0.00    -0.744 OA
ENDBRANCH  70  74
ENDBRANCH  53  67
BRANCH  54  78
ATOM     78  C   UNL A   1      41.059  27.434  28.128  1.00  0.00     0.023 A 
ATOM     79  C   UNL A   1      40.746  26.066  28.114  1.00  0.00     0.031 A 
ATOM     80  C   UNL A   1      41.506  28.020  26.931  1.00  0.00     0.131 A 
ATOM     81  C   UNL A   1      40.929  25.318  26.941  1.00  0.00     0.055 A 
ATOM     82  C   UNL A   1      41.636  27.284  25.752  1.00  0.00     0.041 A 
ATOM     83  F   UNL A   1      41.812  29.327  26.887  1.00  0.00    -0.206 F 
ATOM     84  C   UNL A   1      41.360  25.920  25.756  1.00  0.00     0.022 A 
BRANCH  81  85
ATOM     85  S   UNL A   1      40.674  23.523  27.006  1.00  0.00     0.124 S 
ATOM     86  O   UNL A   1      41.194  23.197  28.329  1.00  0.00    -0.237 OA
ATOM     87  O   UNL A   1      39.228  23.417  26.840  1.00  0.00    -0.237 OA
ATOM     88  O   UNL A   1      41.466  23.026  25.883  1.00  0.00    -0.744 OA
ENDBRANCH  81  85
ENDBRANCH  54  78
BRANCH  66  89
ATOM     89  C   UNL A   1      44.841  27.580  33.978  1.00  0.00     0.023 A 
ATOM     90  C   UNL A   1      44.668  26.390  34.708  1.00  0.00     0.031 A 
ATOM     91  C   UNL A   1      46.155  28.006  33.715  1.00  0.00     0.131 A 
ATOM     92  C   UNL A   1      45.786  25.707  35.210  1.00  0.00     0.055 A 
ATOM     93  C   UNL A   1      47.265  27.285  34.158  1.00  0.00     0.041 A 
ATOM     94  F   UNL A   1      46.382  29.136  33.026  1.00  0.00    -0.206 F 
ATOM     95  C   UNL A   1      47.084  26.139  34.925  1.00  0.00     0.022 A 
BRANCH  92  96
ATOM     96  S   UNL A   1      45.518  24.314  36.341  1.00  0.00     0.124 S 
ATOM     97  O   UNL A   1      45.633  24.956  37.646  1.00  0.00    -0.237 OA
ATOM     98  O   UNL A   1      44.182  23.863  35.968  1.00  0.00    -0.237 OA
ATOM     99  O   UNL A   1      46.600  23.389  36.008  1.00  0.00    -0.744 OA
ENDBRANCH  92  96
ENDBRANCH  66  89
ENDBRANCH  40  41
ENDBRANCH  32  35
ENDBRANCH  30  31
ENDBRANCH  29  30
ENDBRANCH  28  29
ENDBRANCH   1  28
TORSDOF 21
ENDMDL
MODEL 2
REMARK VINA RESULT:     -11.0      2.036      7.658
REMARK SMILES COc1ccc(/C=N/Nc2cccc(C(=O)NCCCCCCNC(=O)c3ccc(-c4c5nc(c(-c6cc(S(=O)(=O)[O-])ccc6F)c6ccc([nH]6)c(-c6cc(S(=O)(=O)[O-])ccc6F)c6nc(c(-c7cc(S(=O)(=O)[O-])ccc7F)c7ccc4[nH]7)C=C6)C=C5)cc3)c2)cc1O
REMARK SMILES IDX 20 1 19 2 18 3 17 4 15 5 16 6 14 8 10 9 11 10 90 11 12 12
REMARK SMILES IDX 13 13 9 14 8 16 7 17 6 18 3 19 4 20 92 21 5 22 91 23 2 24
REMARK SMILES IDX 1 25 93 26 21 28 22 29 23 30 24 31 25 32 26 34 27 35 28 36
REMARK SMILES IDX 89 37 29 38 88 39 30 40 31 41 32 42 82 43 33 44 87 45 81 46
REMARK SMILES IDX 83 47 34 48 86 49 80 50 79 51 35 53 67 54 47 55 66 56 48 57
REMARK SMILES IDX 51 58 65 59 84 60 49 61 50 62 64 64 85 65 52 66 36 67 37 68
REMARK SMILES IDX 45 69 38 70 44 71 46 72 43 73 39 74 40 75 41 76 42 77 68 78
REMARK SMILES IDX 69 79 77 80 70 81 76 82 78 83 75 84 71 85 72 86 73 87 74 88
REMARK SMILES IDX 53 89 54 90 62 91 55 92 61 93 63 94 60 95 56 96 57 97 58 98
REMARK SMILES IDX 59 99
REMARK H PARENT 17 7 9 15 93 27 24 33 83 52 51 63
REMARK Flexibility Score: inf
ROOT
ATOM      1  C   UNL A   1      32.897  29.771  25.805  1.00  0.00     0.002 C 
ENDROOT
BRANCH   1   2
ATOM      2  C   UNL A   1      32.843  28.501  26.663  1.00  0.00     0.021 C 
BRANCH   2   3
ATOM      3  C   UNL A   1      31.499  28.329  27.373  1.00  0.00     0.116 C 
BRANCH   3   4
ATOM      4  N   UNL A   1      31.045  26.957  27.254  1.00  0.00    -0.352 N 
ATOM      5  C   UNL A   1      30.750  26.156  26.182  1.00  0.00     0.251 C 
ATOM      6  O   UNL A   1      30.336  25.021  26.430  1.00  0.00    -0.269 OA
ATOM      7  H   UNL A   1      30.925  26.508  28.123  1.00  0.00     0.163 HD
BRANCH   5   8
ATOM      8  C   UNL A   1      30.970  26.547  24.758  1.00  0.00     0.041 A 
ATOM      9  C   UNL A   1      31.983  26.301  22.551  1.00  0.00     0.057 A 
ATOM     10  C   UNL A   1      31.090  27.246  22.039  1.00  0.00     0.028 A 
ATOM     11  C   UNL A   1      31.960  26.026  23.926  1.00  0.00     0.041 A 
ATOM     12  C   UNL A   1      30.152  27.854  22.871  1.00  0.00     0.003 A 
ATOM     13  C   UNL A   1      30.078  27.486  24.216  1.00  0.00     0.014 A 
BRANCH   9  14
ATOM     14  N   UNL A   1      32.760  25.535  21.660  1.00  0.00    -0.278 N 
ATOM     15  H   UNL A   1      32.674  25.718  20.697  1.00  0.00     0.190 HD
BRANCH  14  16
ATOM     16  N   UNL A   1      33.627  24.555  22.051  1.00  0.00    -0.183 NA
ATOM     17  C   UNL A   1      34.101  24.664  23.256  1.00  0.00     0.141 C 
BRANCH  17  18
ATOM     18  C   UNL A   1      35.031  23.683  23.848  1.00  0.00    -0.002 A 
ATOM     19  C   UNL A   1      36.746  21.804  25.027  1.00  0.00     0.160 A 
ATOM     20  C   UNL A   1      36.989  22.271  23.731  1.00  0.00     0.051 A 
ATOM     21  C   UNL A   1      35.660  22.321  25.738  1.00  0.00     0.158 A 
ATOM     22  C   UNL A   1      36.142  23.218  23.142  1.00  0.00     0.014 A 
ATOM     23  C   UNL A   1      34.779  23.225  25.144  1.00  0.00     0.060 A 
BRANCH  19  24
ATOM     24  O   UNL A   1      37.672  20.931  25.526  1.00  0.00    -0.493 OA
ATOM     25  C   UNL A   1      37.754  19.657  24.889  1.00  0.00     0.278 C 
ENDBRANCH  19  24
BRANCH  21  26
ATOM     26  O   UNL A   1      35.443  22.039  27.057  1.00  0.00    -0.504 OA
ATOM     27  H   UNL A   1      36.169  21.898  27.632  1.00  0.00     0.293 HD
ENDBRANCH  21  26
ENDBRANCH  17  18
ENDBRANCH  14  16
ENDBRANCH   9  14
ENDBRANCH   5   8
ENDBRANCH   3   4
ENDBRANCH   2   3
ENDBRANCH   1   2
BRANCH   1  28
ATOM     28  C   UNL A   1      31.541  30.460  25.609  1.00  0.00     0.002 C 
BRANCH  28  29
ATOM     29  C   UNL A   1      31.386  31.798  26.340  1.00  0.00     0.021 C 
BRANCH  29  30
ATOM     30  C   UNL A   1      32.627  32.236  27.113  1.00  0.00     0.116 C 
BRANCH  30  31
ATOM     31  N   UNL A   1      32.576  33.652  27.439  1.00  0.00    -0.352 N 
ATOM     32  C   UNL A   1      33.248  34.348  28.412  1.00  0.00     0.251 C 
ATOM     33  H   UNL A   1      31.970  34.191  26.879  1.00  0.00     0.163 HD
ATOM     34  O   UNL A   1      32.871  35.474  28.719  1.00  0.00    -0.269 OA
BRANCH  32  35
ATOM     35  C   UNL A   1      34.412  33.737  29.089  1.00  0.00     0.039 A 
ATOM     36  C   UNL A   1      34.193  32.725  30.026  1.00  0.00     0.014 A 
ATOM     37  C   UNL A   1      35.711  34.185  28.830  1.00  0.00     0.014 A 
ATOM     38  C   UNL A   1      35.281  32.132  30.670  1.00  0.00     0.010 A 
ATOM     39  C   UNL A   1      36.798  33.545  29.420  1.00  0.00     0.010 A 
ATOM     40  C   UNL A   1      36.594  32.519  30.354  1.00  0.00    -0.014 A 
BRANCH  40  41
ATOM     41  C   UNL A   1      37.758  31.866  31.008  1.00  0.00     0.031 A 
ATOM     42  C   UNL A   1      38.552  30.822  30.270  1.00  0.00     0.074 A 
ATOM     43  C   UNL A   1      38.070  32.186  32.278  1.00  0.00     0.049 A 
ATOM     44  N   UNL A   1      39.579  30.121  30.679  1.00  0.00    -0.248 NA
ATOM     45  C   UNL A   1      38.115  30.505  28.902  1.00  0.00     0.031 C 
ATOM     46  C   UNL A   1      37.344  33.149  33.109  1.00  0.00     0.029 A 
ATOM     47  N   UNL A   1      39.078  31.739  33.095  1.00  0.00    -0.354 N 
ATOM     48  C   UNL A   1      39.907  29.276  29.623  1.00  0.00     0.074 A 
ATOM     49  C   UNL A   1      38.925  29.507  28.585  1.00  0.00     0.031 C 
ATOM     50  C   UNL A   1      37.946  33.242  34.304  1.00  0.00     0.029 A 
ATOM     51  C   UNL A   1      39.076  32.319  34.343  1.00  0.00     0.049 A 
ATOM     52  H   UNL A   1      39.739  31.066  32.815  1.00  0.00     0.167 HD
ATOM     53  C   UNL A   1      40.943  28.407  29.520  1.00  0.00     0.034 A 
ATOM     54  C   UNL A   1      39.889  32.124  35.399  1.00  0.00     0.034 A 
ATOM     55  C   UNL A   1      41.916  28.195  30.565  1.00  0.00     0.049 A 
ATOM     56  C   UNL A   1      41.026  31.142  35.266  1.00  0.00     0.074 A 
ATOM     57  C   UNL A   1      43.035  27.380  30.551  1.00  0.00     0.029 A 
ATOM     58  N   UNL A   1      41.881  28.796  31.818  1.00  0.00    -0.354 N 
ATOM     59  N   UNL A   1      41.357  30.392  34.240  1.00  0.00    -0.248 NA
ATOM     60  C   UNL A   1      41.906  30.992  36.432  1.00  0.00     0.031 C 
ATOM     61  C   UNL A   1      43.636  27.436  31.815  1.00  0.00     0.029 A 
ATOM     62  C   UNL A   1      42.940  28.346  32.595  1.00  0.00     0.049 A 
ATOM     63  H   UNL A   1      41.205  29.447  32.113  1.00  0.00     0.167 HD
ATOM     64  C   UNL A   1      42.499  29.699  34.631  1.00  0.00     0.074 A 
ATOM     65  C   UNL A   1      42.812  30.143  35.974  1.00  0.00     0.031 C 
ATOM     66  C   UNL A   1      43.225  28.780  33.943  1.00  0.00     0.034 A 
BRANCH  53  67
ATOM     67  C   UNL A   1      41.055  27.608  28.241  1.00  0.00     0.023 A 
ATOM     68  C   UNL A   1      40.712  26.244  28.191  1.00  0.00     0.031 A 
ATOM     69  C   UNL A   1      41.542  28.206  27.066  1.00  0.00     0.131 A 
ATOM     70  C   UNL A   1      40.937  25.508  27.018  1.00  0.00     0.055 A 
ATOM     71  C   UNL A   1      41.683  27.485  25.877  1.00  0.00     0.041 A 
ATOM     72  F   UNL A   1      41.905  29.498  27.055  1.00  0.00    -0.206 F 
ATOM     73  C   UNL A   1      41.396  26.124  25.853  1.00  0.00     0.022 A 
BRANCH  70  74
ATOM     74  S   UNL A   1      40.764  23.702  27.084  1.00  0.00     0.124 S 
ATOM     75  O   UNL A   1      39.319  23.540  26.949  1.00  0.00    -0.237 OA
ATOM     76  O   UNL A   1      41.565  23.267  25.945  1.00  0.00    -0.237 OA
ATOM     77  O   UNL A   1      41.304  23.354  28.396  1.00  0.00    -0.744 OA
ENDBRANCH  70  74
ENDBRANCH  53  67
BRANCH  54  78
ATOM     78  C   UNL A   1      39.667  32.866  36.673  1.00  0.00     0.023 A 
ATOM     79  C   UNL A   1      38.762  32.393  37.636  1.00  0.00     0.031 A 
ATOM     80  C   UNL A   1      40.326  34.081  36.927  1.00  0.00     0.131 A 
ATOM     81  C   UNL A   1      38.503  33.156  38.786  1.00  0.00     0.055 A 
ATOM     82  C   UNL A   1      40.106  34.809  38.097  1.00  0.00     0.041 A 
ATOM     83  F   UNL A   1      41.208  34.575  36.041  1.00  0.00    -0.206 F 
ATOM     84  C   UNL A   1      39.179  34.354  39.029  1.00  0.00     0.022 A 
BRANCH  81  85
ATOM     85  S   UNL A   1      37.207  32.597  39.926  1.00  0.00     0.124 S 
ATOM     86  O   UNL A   1      36.049  32.519  39.043  1.00  0.00    -0.237 OA
ATOM     87  O   UNL A   1      37.745  31.323  40.393  1.00  0.00    -0.237 OA
ATOM     88  O   UNL A   1      37.158  33.656  40.930  1.00  0.00    -0.744 OA
ENDBRANCH  81  85
ENDBRANCH  54  78
BRANCH  66  89
ATOM     89  C   UNL A   1      44.446  28.222  34.636  1.00  0.00     0.023 A 
ATOM     90  C   UNL A   1      44.382  27.054  35.416  1.00  0.00     0.031 A 
ATOM     91  C   UNL A   1      45.681  28.888  34.547  1.00  0.00     0.131 A 
ATOM     92  C   UNL A   1      45.509  26.628  36.133  1.00  0.00     0.055 A 
ATOM     93  C   UNL A   1      46.818  28.421  35.207  1.00  0.00     0.041 A 
ATOM     94  F   UNL A   1      45.802  30.010  33.819  1.00  0.00    -0.206 F 
ATOM     95  C   UNL A   1      46.731  27.295  36.020  1.00  0.00     0.022 A 
BRANCH  92  96
ATOM     96  S   UNL A   1      45.325  25.259  37.309  1.00  0.00     0.124 S 
ATOM     97  O   UNL A   1      46.670  25.152  37.863  1.00  0.00    -0.237 OA
ATOM     98  O   UNL A   1      44.300  25.763  38.216  1.00  0.00    -0.237 OA
ATOM     99  O   UNL A   1      44.910  24.137  36.468  1.00  0.00    -0.744 OA
ENDBRANCH  92  96
ENDBRANCH  66  89
ENDBRANCH  40  41
ENDBRANCH  32  35
ENDBRANCH  30  31
ENDBRANCH  29  30
ENDBRANCH  28  29
ENDBRANCH   1  28
TORSDOF 21
ENDMDL
MODEL 3
REMARK VINA RESULT:     -10.9      6.190     11.475
REMARK SMILES COc1ccc(/C=N/Nc2cccc(C(=O)NCCCCCCNC(=O)c3ccc(-c4c5nc(c(-c6cc(S(=O)(=O)[O-])ccc6F)c6ccc([nH]6)c(-c6cc(S(=O)(=O)[O-])ccc6F)c6nc(c(-c7cc(S(=O)(=O)[O-])ccc7F)c7ccc4[nH]7)C=C6)C=C5)cc3)c2)cc1O
REMARK SMILES IDX 20 1 19 2 18 3 17 4 15 5 16 6 14 8 10 9 11 10 90 11 12 12
REMARK SMILES IDX 13 13 9 14 8 16 7 17 6 18 3 19 4 20 92 21 5 22 91 23 2 24
REMARK SMILES IDX 1 25 93 26 21 28 22 29 23 30 24 31 25 32 26 34 27 35 28 36
REMARK SMILES IDX 89 37 29 38 88 39 30 40 31 41 32 42 82 43 33 44 87 45 81 46
REMARK SMILES IDX 83 47 34 48 86 49 80 50 79 51 35 53 67 54 47 55 66 56 48 57
REMARK SMILES IDX 51 58 65 59 84 60 49 61 50 62 64 64 85 65 52 66 36 67 37 68
REMARK SMILES IDX 45 69 38 70 44 71 46 72 43 73 39 74 40 75 41 76 42 77 68 78
REMARK SMILES IDX 69 79 77 80 70 81 76 82 78 83 75 84 71 85 72 86 73 87 74 88
REMARK SMILES IDX 53 89 54 90 62 91 55 92 61 93 63 94 60 95 56 96 57 97 58 98
REMARK SMILES IDX 59 99
REMARK H PARENT 17 7 9 15 93 27 24 33 83 52 51 63
REMARK Flexibility Score: inf
ROOT
ATOM      1  C   UNL A   1      40.233  22.872  26.504  1.00  0.00     0.002 C 
ENDROOT
BRANCH   1   2
ATOM      2  C   UNL A   1      38.900  23.584  26.769  1.00  0.00     0.021 C 
BRANCH   2   3
ATOM      3  C   UNL A   1      37.874  23.339  25.660  1.00  0.00     0.116 C 
BRANCH   3   4
ATOM      4  N   UNL A   1      37.996  21.982  25.161  1.00  0.00    -0.352 N 
ATOM      5  C   UNL A   1      37.116  20.936  25.063  1.00  0.00     0.251 C 
ATOM      6  O   UNL A   1      37.559  19.874  24.620  1.00  0.00    -0.269 OA
ATOM      7  H   UNL A   1      38.897  21.770  24.823  1.00  0.00     0.163 HD
BRANCH   5   8
ATOM      8  C   UNL A   1      35.661  21.032  25.382  1.00  0.00     0.041 A 
ATOM      9  C   UNL A   1      33.680  22.162  26.253  1.00  0.00     0.057 A 
ATOM     10  C   UNL A   1      32.871  21.172  25.690  1.00  0.00     0.028 A 
ATOM     11  C   UNL A   1      35.073  22.032  26.157  1.00  0.00     0.041 A 
ATOM     12  C   UNL A   1      33.441  20.109  24.990  1.00  0.00     0.003 A 
ATOM     13  C   UNL A   1      34.825  20.056  24.817  1.00  0.00     0.014 A 
BRANCH   9  14
ATOM     14  N   UNL A   1      33.084  23.337  26.750  1.00  0.00    -0.278 N 
ATOM     15  H   UNL A   1      33.291  23.605  27.674  1.00  0.00     0.190 HD
BRANCH  14  16
ATOM     16  N   UNL A   1      32.237  24.129  26.028  1.00  0.00    -0.183 NA
ATOM     17  C   UNL A   1      32.800  25.039  25.291  1.00  0.00     0.141 C 
BRANCH  17  18
ATOM     18  C   UNL A   1      32.039  25.965  24.430  1.00  0.00    -0.002 A 
ATOM     19  C   UNL A   1      30.592  27.672  22.740  1.00  0.00     0.160 A 
ATOM     20  C   UNL A   1      30.662  27.926  24.114  1.00  0.00     0.051 A 
ATOM     21  C   UNL A   1      31.289  26.578  22.221  1.00  0.00     0.158 A 
ATOM     22  C   UNL A   1      31.393  27.083  24.961  1.00  0.00     0.014 A 
ATOM     23  C   UNL A   1      31.977  25.702  23.060  1.00  0.00     0.060 A 
BRANCH  19  24
ATOM     24  O   UNL A   1      29.907  28.594  22.001  1.00  0.00    -0.493 OA
ATOM     25  C   UNL A   1      29.143  29.555  22.729  1.00  0.00     0.278 C 
ENDBRANCH  19  24
BRANCH  21  26
ATOM     26  O   UNL A   1      31.403  26.349  20.878  1.00  0.00    -0.504 OA
ATOM     27  H   UNL A   1      30.867  25.701  20.466  1.00  0.00     0.293 HD
ENDBRANCH  21  26
ENDBRANCH  17  18
ENDBRANCH  14  16
ENDBRANCH   9  14
ENDBRANCH   5   8
ENDBRANCH   3   4
ENDBRANCH   2   3
ENDBRANCH   1   2
BRANCH   1  28
ATOM     28  C   UNL A   1      40.443  21.596  27.330  1.00  0.00     0.002 C 
BRANCH  28  29
ATOM     29  C   UNL A   1      40.751  20.340  26.508  1.00  0.00     0.021 C 
BRANCH  29  30
ATOM     30  C   UNL A   1      41.947  19.539  27.015  1.00  0.00     0.116 C 
BRANCH  30  31
ATOM     31  N   UNL A   1      42.890  19.259  25.944  1.00  0.00    -0.352 N 
ATOM     32  C   UNL A   1      43.630  20.129  25.184  1.00  0.00     0.251 C 
ATOM     33  H   UNL A   1      43.015  18.305  25.732  1.00  0.00     0.163 HD
ATOM     34  O   UNL A   1      44.154  19.733  24.148  1.00  0.00    -0.269 OA
BRANCH  32  35
ATOM     35  C   UNL A   1      43.785  21.537  25.610  1.00  0.00     0.039 A 
ATOM     36  C   UNL A   1      44.198  21.805  26.917  1.00  0.00     0.014 A 
ATOM     37  C   UNL A   1      43.487  22.589  24.738  1.00  0.00     0.014 A 
ATOM     38  C   UNL A   1      44.356  23.128  27.334  1.00  0.00     0.010 A 
ATOM     39  C   UNL A   1      43.713  23.905  25.134  1.00  0.00     0.010 A 
ATOM     40  C   UNL A   1      44.139  24.189  26.439  1.00  0.00    -0.014 A 
BRANCH  40  41
ATOM     41  C   UNL A   1      44.341  25.598  26.865  1.00  0.00     0.031 A 
ATOM     42  C   UNL A   1      45.702  26.232  26.759  1.00  0.00     0.074 A 
ATOM     43  C   UNL A   1      43.308  26.288  27.385  1.00  0.00     0.049 A 
ATOM     44  N   UNL A   1      46.084  27.436  27.105  1.00  0.00    -0.248 NA
ATOM     45  C   UNL A   1      46.781  25.392  26.219  1.00  0.00     0.031 C 
ATOM     46  C   UNL A   1      41.955  25.762  27.581  1.00  0.00     0.029 A 
ATOM     47  N   UNL A   1      43.231  27.578  27.845  1.00  0.00    -0.354 N 
ATOM     48  C   UNL A   1      47.447  27.495  26.831  1.00  0.00     0.074 A 
ATOM     49  C   UNL A   1      47.834  26.184  26.356  1.00  0.00     0.031 C 
ATOM     50  C   UNL A   1      41.177  26.728  28.091  1.00  0.00     0.029 A 
ATOM     51  C   UNL A   1      41.980  27.929  28.297  1.00  0.00     0.049 A 
ATOM     52  H   UNL A   1      43.998  28.194  27.851  1.00  0.00     0.167 HD
ATOM     53  C   UNL A   1      48.291  28.552  26.943  1.00  0.00     0.034 A 
ATOM     54  C   UNL A   1      41.533  29.086  28.823  1.00  0.00     0.034 A 
ATOM     55  C   UNL A   1      47.884  29.854  27.414  1.00  0.00     0.049 A 
ATOM     56  C   UNL A   1      42.493  30.242  28.952  1.00  0.00     0.074 A 
ATOM     57  C   UNL A   1      48.640  31.009  27.519  1.00  0.00     0.029 A 
ATOM     58  N   UNL A   1      46.609  30.173  27.869  1.00  0.00    -0.354 N 
ATOM     59  N   UNL A   1      43.766  30.300  28.635  1.00  0.00    -0.248 NA
ATOM     60  C   UNL A   1      41.950  31.492  29.497  1.00  0.00     0.031 C 
ATOM     61  C   UNL A   1      47.843  32.005  28.099  1.00  0.00     0.029 A 
ATOM     62  C   UNL A   1      46.567  31.497  28.284  1.00  0.00     0.049 A 
ATOM     63  H   UNL A   1      45.848  29.552  27.892  1.00  0.00     0.167 HD
ATOM     64  C   UNL A   1      44.168  31.602  28.920  1.00  0.00     0.074 A 
ATOM     65  C   UNL A   1      42.995  32.299  29.408  1.00  0.00     0.031 C 
ATOM     66  C   UNL A   1      45.395  32.172  28.791  1.00  0.00     0.034 A 
BRANCH  53  67
ATOM     67  C   UNL A   1      49.739  28.326  26.571  1.00  0.00     0.023 A 
ATOM     68  C   UNL A   1      50.207  28.542  25.262  1.00  0.00     0.031 A 
ATOM     69  C   UNL A   1      50.656  27.855  27.527  1.00  0.00     0.131 A 
ATOM     70  C   UNL A   1      51.529  28.212  24.927  1.00  0.00     0.055 A 
ATOM     71  C   UNL A   1      51.994  27.611  27.206  1.00  0.00     0.041 A 
ATOM     72  F   UNL A   1      50.266  27.610  28.788  1.00  0.00    -0.206 F 
ATOM     73  C   UNL A   1      52.433  27.772  25.895  1.00  0.00     0.022 A 
BRANCH  70  74
ATOM     74  S   UNL A   1      52.007  28.224  23.176  1.00  0.00     0.124 S 
ATOM     75  O   UNL A   1      52.083  26.795  22.883  1.00  0.00    -0.237 OA
ATOM     76  O   UNL A   1      50.903  28.947  22.554  1.00  0.00    -0.237 OA
ATOM     77  O   UNL A   1      53.290  28.923  23.176  1.00  0.00    -0.744 OA
ENDBRANCH  70  74
ENDBRANCH  53  67
BRANCH  54  78
ATOM     78  C   UNL A   1      40.117  29.218  29.270  1.00  0.00     0.023 A 
ATOM     79  C   UNL A   1      39.777  29.138  30.630  1.00  0.00     0.031 A 
ATOM     80  C   UNL A   1      39.077  29.384  28.339  1.00  0.00     0.131 A 
ATOM     81  C   UNL A   1      38.428  29.175  31.017  1.00  0.00     0.055 A 
ATOM     82  C   UNL A   1      37.741  29.474  28.733  1.00  0.00     0.041 A 
ATOM     83  F   UNL A   1      39.348  29.474  27.026  1.00  0.00    -0.206 F 
ATOM     84  C   UNL A   1      37.409  29.355  30.079  1.00  0.00     0.022 A 
BRANCH  81  85
ATOM     85  S   UNL A   1      38.017  28.901  32.762  1.00  0.00     0.124 S 
ATOM     86  O   UNL A   1      38.153  27.454  32.876  1.00  0.00    -0.237 OA
ATOM     87  O   UNL A   1      39.036  29.696  33.440  1.00  0.00    -0.237 OA
ATOM     88  O   UNL A   1      36.654  29.412  32.875  1.00  0.00    -0.744 OA
ENDBRANCH  81  85
ENDBRANCH  54  78
BRANCH  66  89
ATOM     89  C   UNL A   1      45.508  33.631  29.161  1.00  0.00     0.023 A 
ATOM     90  C   UNL A   1      45.253  34.651  28.226  1.00  0.00     0.031 A 
ATOM     91  C   UNL A   1      45.912  34.009  30.453  1.00  0.00     0.131 A 
ATOM     92  C   UNL A   1      45.475  35.991  28.573  1.00  0.00     0.055 A 
ATOM     93  C   UNL A   1      46.063  35.348  30.815  1.00  0.00     0.041 A 
ATOM     94  F   UNL A   1      46.171  33.080  31.387  1.00  0.00    -0.206 F 
ATOM     95  C   UNL A   1      45.862  36.347  29.868  1.00  0.00     0.022 A 
BRANCH  92  96
ATOM     96  S   UNL A   1      45.364  37.256  27.277  1.00  0.00     0.124 S 
ATOM     97  O   UNL A   1      46.322  36.765  26.292  1.00  0.00    -0.237 OA
ATOM     98  O   UNL A   1      43.959  37.184  26.891  1.00  0.00    -0.237 OA
ATOM     99  O   UNL A   1      45.756  38.486  27.963  1.00  0.00    -0.744 OA
ENDBRANCH  92  96
ENDBRANCH  66  89
ENDBRANCH  40  41
ENDBRANCH  32  35
ENDBRANCH  30  31
ENDBRANCH  29  30
ENDBRANCH  28  29
ENDBRANCH   1  28
TORSDOF 21
ENDMDL
