MODEL 1
REMARK VINA RESULT:     -11.4      0.000      0.000
REMARK SMILES CC1(C)[C@H](C(=O)Nc2ccccc2C(N)=O)[C@@H]1C(=O)NCCCCCCNC(=O)c1ccc(-c2c3nc(c(-c4cc(S(=O)(=O)[O-])ccc4F)c4ccc([nH]4)c(-c4cc(S(=O)(=O)[O-])ccc4F)c4nc(c(-c5cc(S(=O)(=O)[O-])ccc5F)c5ccc2[nH]5)C=C4)C=C3)cc1
REMARK SMILES IDX 23 1 22 2 21 3 20 4 18 5 19 6 17 8 1 9 2 10 3 11 4 12 5 13
REMARK SMILES IDX 6 14 7 15 8 17 9 18 13 19 10 20 12 21 11 22 14 23 15 24
REMARK SMILES IDX 16 25 24 28 25 29 26 30 27 31 28 32 29 34 30 35 31 36 92 37
REMARK SMILES IDX 32 38 91 39 33 40 34 41 35 42 85 43 36 44 90 45 84 46 86 47
REMARK SMILES IDX 37 48 89 49 83 50 82 51 38 53 70 54 50 55 69 56 51 57 54 58
REMARK SMILES IDX 68 59 87 60 52 61 53 62 67 64 88 65 55 66 39 67 40 68 48 69
REMARK SMILES IDX 41 70 47 71 49 72 46 73 42 74 43 75 44 76 45 77 71 78 72 79
REMARK SMILES IDX 80 80 73 81 79 82 81 83 78 84 74 85 75 86 76 87 77 88 56 89
REMARK SMILES IDX 57 90 65 91 58 92 64 93 66 94 63 95 59 96 60 97 61 98 62 99
REMARK H PARENT 20 7 7 16 15 26 15 27 27 33 86 52 54 63
REMARK Flexibility Score: inf
ROOT
ATOM      1  C   UNL A   1      32.501  30.037  26.365  1.00  0.00     0.002 C 
ENDROOT
BRANCH   1   2
ATOM      2  C   UNL A   1      32.126  29.041  27.470  1.00  0.00     0.021 C 
BRANCH   2   3
ATOM      3  C   UNL A   1      31.927  27.609  26.995  1.00  0.00     0.116 C 
BRANCH   3   4
ATOM      4  N   UNL A   1      33.133  27.086  26.400  1.00  0.00    -0.356 N 
ATOM      5  C   UNL A   1      33.281  26.444  25.210  1.00  0.00     0.224 C 
ATOM      6  O   UNL A   1      34.322  25.826  25.006  1.00  0.00    -0.275 OA
ATOM      7  H   UNL A   1      33.955  27.209  26.925  1.00  0.00     0.163 HD
BRANCH   5   8
ATOM      8  C   UNL A   1      32.184  26.446  24.195  1.00  0.00     0.098 C 
ATOM      9  C   UNL A   1      29.716  25.566  23.953  1.00  0.00     0.013 C 
ATOM     10  C   UNL A   1      31.187  25.273  24.222  1.00  0.00    -0.011 C 
ATOM     11  C   UNL A   1      31.342  24.295  25.353  1.00  0.00     0.013 C 
ATOM     12  C   UNL A   1      32.059  25.501  23.005  1.00  0.00     0.098 C 
BRANCH  12  13
ATOM     13  C   UNL A   1      33.280  25.025  22.310  1.00  0.00     0.228 C 
ATOM     14  O   UNL A   1      33.845  25.860  21.596  1.00  0.00    -0.274 OA
ATOM     15  N   UNL A   1      33.944  23.846  22.475  1.00  0.00    -0.325 N 
ATOM     16  H   UNL A   1      34.833  23.829  22.052  1.00  0.00     0.169 HD
BRANCH  15  17
ATOM     17  C   UNL A   1      33.609  22.667  23.125  1.00  0.00     0.053 A 
ATOM     18  C   UNL A   1      32.454  22.038  22.638  1.00  0.00     0.027 A 
ATOM     19  C   UNL A   1      34.315  22.115  24.202  1.00  0.00     0.063 A 
ATOM     20  C   UNL A   1      32.088  20.781  23.102  1.00  0.00     0.002 A 
ATOM     21  C   UNL A   1      33.924  20.851  24.678  1.00  0.00     0.016 A 
ATOM     22  C   UNL A   1      32.841  20.175  24.103  1.00  0.00     0.001 A 
BRANCH  19  23
ATOM     23  C   UNL A   1      35.389  22.883  24.894  1.00  0.00     0.250 C 
ATOM     24  N   UNL A   1      35.247  23.125  26.233  1.00  0.00    -0.366 N 
ATOM     25  O   UNL A   1      36.382  23.302  24.311  1.00  0.00    -0.269 OA
ATOM     26  H   UNL A   1      34.453  22.792  26.711  1.00  0.00     0.159 HD
ATOM     27  H   UNL A   1      35.938  23.630  26.718  1.00  0.00     0.159 HD
ENDBRANCH  19  23
ENDBRANCH  15  17
ENDBRANCH  12  13
ENDBRANCH   5   8
ENDBRANCH   3   4
ENDBRANCH   2   3
ENDBRANCH   1   2
BRANCH   1  28
ATOM     28  C   UNL A   1      31.376  30.956  25.877  1.00  0.00     0.002 C 
BRANCH  28  29
ATOM     29  C   UNL A   1      31.342  32.351  26.501  1.00  0.00     0.021 C 
BRANCH  29  30
ATOM     30  C   UNL A   1      32.618  32.764  27.223  1.00  0.00     0.116 C 
BRANCH  30  31
ATOM     31  N   UNL A   1      32.566  34.133  27.707  1.00  0.00    -0.352 N 
ATOM     32  C   UNL A   1      33.329  34.731  28.678  1.00  0.00     0.251 C 
ATOM     33  H   UNL A   1      31.891  34.709  27.280  1.00  0.00     0.163 HD
ATOM     34  O   UNL A   1      33.045  35.856  29.074  1.00  0.00    -0.269 OA
BRANCH  32  35
ATOM     35  C   UNL A   1      34.469  33.990  29.263  1.00  0.00     0.039 A 
ATOM     36  C   UNL A   1      35.766  34.352  28.896  1.00  0.00     0.014 A 
ATOM     37  C   UNL A   1      34.257  32.966  30.191  1.00  0.00     0.014 A 
ATOM     38  C   UNL A   1      36.854  33.728  29.508  1.00  0.00     0.010 A 
ATOM     39  C   UNL A   1      35.341  32.403  30.857  1.00  0.00     0.010 A 
ATOM     40  C   UNL A   1      36.651  32.776  30.522  1.00  0.00    -0.014 A 
BRANCH  40  41
ATOM     41  C   UNL A   1      37.798  32.159  31.238  1.00  0.00     0.031 A 
ATOM     42  C   UNL A   1      38.541  31.008  30.617  1.00  0.00     0.074 A 
ATOM     43  C   UNL A   1      38.133  32.599  32.467  1.00  0.00     0.049 A 
ATOM     44  N   UNL A   1      39.521  30.292  31.109  1.00  0.00    -0.248 NA
ATOM     45  C   UNL A   1      38.107  30.589  29.276  1.00  0.00     0.031 C 
ATOM     46  C   UNL A   1      37.463  33.686  33.185  1.00  0.00     0.029 A 
ATOM     47  N   UNL A   1      39.115  32.188  33.334  1.00  0.00    -0.354 N 
ATOM     48  C   UNL A   1      39.811  29.335  30.144  1.00  0.00     0.074 A 
ATOM     49  C   UNL A   1      38.859  29.519  29.070  1.00  0.00     0.031 C 
ATOM     50  C   UNL A   1      38.071  33.873  34.367  1.00  0.00     0.029 A 
ATOM     51  C   UNL A   1      39.137  32.888  34.518  1.00  0.00     0.049 A 
ATOM     52  H   UNL A   1      39.743  31.459  33.127  1.00  0.00     0.167 HD
ATOM     53  C   UNL A   1      40.798  28.403  30.144  1.00  0.00     0.034 A 
ATOM     54  C   UNL A   1      39.917  32.742  35.608  1.00  0.00     0.034 A 
ATOM     55  C   UNL A   1      41.739  28.236  31.224  1.00  0.00     0.049 A 
ATOM     56  C   UNL A   1      40.975  31.667  35.605  1.00  0.00     0.074 A 
ATOM     57  C   UNL A   1      42.807  27.358  31.309  1.00  0.00     0.029 A 
ATOM     58  N   UNL A   1      41.721  28.951  32.416  1.00  0.00    -0.354 N 
ATOM     59  N   UNL A   1      41.271  30.800  34.663  1.00  0.00    -0.248 NA
ATOM     60  C   UNL A   1      41.810  31.556  36.808  1.00  0.00     0.031 C 
ATOM     61  C   UNL A   1      43.381  27.486  32.577  1.00  0.00     0.029 A 
ATOM     62  C   UNL A   1      42.733  28.508  33.253  1.00  0.00     0.049 A 
ATOM     63  H   UNL A   1      41.083  29.669  32.632  1.00  0.00     0.167 HD
ATOM     64  C   UNL A   1      42.349  30.064  35.150  1.00  0.00     0.074 A 
ATOM     65  C   UNL A   1      42.658  30.600  36.460  1.00  0.00     0.031 C 
ATOM     66  C   UNL A   1      43.025  29.043  34.564  1.00  0.00     0.034 A 
BRANCH  53  67
ATOM     67  C   UNL A   1      40.882  27.480  28.950  1.00  0.00     0.023 A 
ATOM     68  C   UNL A   1      41.856  27.651  27.949  1.00  0.00     0.031 A 
ATOM     69  C   UNL A   1      39.960  26.431  28.793  1.00  0.00     0.131 A 
ATOM     70  C   UNL A   1      41.834  26.844  26.802  1.00  0.00     0.055 A 
ATOM     71  C   UNL A   1      39.999  25.573  27.691  1.00  0.00     0.041 A 
ATOM     72  F   UNL A   1      38.991  26.228  29.701  1.00  0.00    -0.206 F 
ATOM     73  C   UNL A   1      40.930  25.787  26.679  1.00  0.00     0.022 A 
BRANCH  70  74
ATOM     74  S   UNL A   1      42.899  27.296  25.406  1.00  0.00     0.124 S 
ATOM     75  O   UNL A   1      42.135  28.380  24.792  1.00  0.00    -0.237 OA
ATOM     76  O   UNL A   1      44.140  27.683  26.066  1.00  0.00    -0.237 OA
ATOM     77  O   UNL A   1      42.968  26.069  24.615  1.00  0.00    -0.744 OA
ENDBRANCH  70  74
ENDBRANCH  53  67
BRANCH  54  78
ATOM     78  C   UNL A   1      39.725  33.620  36.799  1.00  0.00     0.023 A 
ATOM     79  C   UNL A   1      40.585  34.701  37.047  1.00  0.00     0.031 A 
ATOM     80  C   UNL A   1      38.703  33.364  37.731  1.00  0.00     0.131 A 
ATOM     81  C   UNL A   1      40.440  35.455  38.222  1.00  0.00     0.055 A 
ATOM     82  C   UNL A   1      38.526  34.154  38.869  1.00  0.00     0.041 A 
ATOM     83  F   UNL A   1      37.852  32.343  37.543  1.00  0.00    -0.206 F 
ATOM     84  C   UNL A   1      39.407  35.199  39.126  1.00  0.00     0.022 A 
BRANCH  81  85
ATOM     85  S   UNL A   1      41.683  36.722  38.599  1.00  0.00     0.124 S 
ATOM     86  O   UNL A   1      42.167  37.068  37.268  1.00  0.00    -0.237 OA
ATOM     87  O   UNL A   1      40.886  37.737  39.278  1.00  0.00    -0.237 OA
ATOM     88  O   UNL A   1      42.642  36.016  39.447  1.00  0.00    -0.744 OA
ENDBRANCH  81  85
ENDBRANCH  54  78
BRANCH  66  89
ATOM     89  C   UNL A   1      44.201  28.473  35.320  1.00  0.00     0.023 A 
ATOM     90  C   UNL A   1      44.048  27.455  36.278  1.00  0.00     0.031 A 
ATOM     91  C   UNL A   1      45.498  28.961  35.080  1.00  0.00     0.131 A 
ATOM     92  C   UNL A   1      45.162  26.998  36.998  1.00  0.00     0.055 A 
ATOM     93  C   UNL A   1      46.612  28.455  35.751  1.00  0.00     0.041 A 
ATOM     94  F   UNL A   1      45.706  29.936  34.180  1.00  0.00    -0.206 F 
ATOM     95  C   UNL A   1      46.445  27.478  36.726  1.00  0.00     0.022 A 
BRANCH  92  96
ATOM     96  S   UNL A   1      44.900  25.837  38.367  1.00  0.00     0.124 S 
ATOM     97  O   UNL A   1      44.243  26.681  39.360  1.00  0.00    -0.237 OA
ATOM     98  O   UNL A   1      44.066  24.810  37.751  1.00  0.00    -0.237 OA
ATOM     99  O   UNL A   1      46.253  25.408  38.717  1.00  0.00    -0.744 OA
ENDBRANCH  92  96
ENDBRANCH  66  89
ENDBRANCH  40  41
ENDBRANCH  32  35
ENDBRANCH  30  31
ENDBRANCH  29  30
ENDBRANCH  28  29
ENDBRANCH   1  28
TORSDOF 19
ENDMDL
MODEL 2
REMARK VINA RESULT:     -11.4      2.070      7.809
REMARK SMILES CC1(C)[C@H](C(=O)Nc2ccccc2C(N)=O)[C@@H]1C(=O)NCCCCCCNC(=O)c1ccc(-c2c3nc(c(-c4cc(S(=O)(=O)[O-])ccc4F)c4ccc([nH]4)c(-c4cc(S(=O)(=O)[O-])ccc4F)c4nc(c(-c5cc(S(=O)(=O)[O-])ccc5F)c5ccc2[nH]5)C=C4)C=C3)cc1
REMARK SMILES IDX 23 1 22 2 21 3 20 4 18 5 19 6 17 8 1 9 2 10 3 11 4 12 5 13
REMARK SMILES IDX 6 14 7 15 8 17 9 18 13 19 10 20 12 21 11 22 14 23 15 24
REMARK SMILES IDX 16 25 24 28 25 29 26 30 27 31 28 32 29 34 30 35 31 36 92 37
REMARK SMILES IDX 32 38 91 39 33 40 34 41 35 42 85 43 36 44 90 45 84 46 86 47
REMARK SMILES IDX 37 48 89 49 83 50 82 51 38 53 70 54 50 55 69 56 51 57 54 58
REMARK SMILES IDX 68 59 87 60 52 61 53 62 67 64 88 65 55 66 39 67 40 68 48 69
REMARK SMILES IDX 41 70 47 71 49 72 46 73 42 74 43 75 44 76 45 77 71 78 72 79
REMARK SMILES IDX 80 80 73 81 79 82 81 83 78 84 74 85 75 86 76 87 77 88 56 89
REMARK SMILES IDX 57 90 65 91 58 92 64 93 66 94 63 95 59 96 60 97 61 98 62 99
REMARK H PARENT 20 7 7 16 15 26 15 27 27 33 86 52 54 63
REMARK Flexibility Score: inf
ROOT
ATOM      1  C   UNL A   1      35.250  30.535  27.910  1.00  0.00     0.002 C 
ENDROOT
BRANCH   1   2
ATOM      2  C   UNL A   1      33.984  29.984  27.240  1.00  0.00     0.021 C 
BRANCH   2   3
ATOM      3  C   UNL A   1      34.105  28.554  26.732  1.00  0.00     0.116 C 
BRANCH   3   4
ATOM      4  N   UNL A   1      32.949  27.773  27.096  1.00  0.00    -0.356 N 
ATOM      5  C   UNL A   1      32.029  27.191  26.282  1.00  0.00     0.224 C 
ATOM      6  O   UNL A   1      30.969  26.814  26.773  1.00  0.00    -0.275 OA
ATOM      7  H   UNL A   1      32.807  27.644  28.061  1.00  0.00     0.163 HD
BRANCH   5   8
ATOM      8  C   UNL A   1      32.276  27.062  24.813  1.00  0.00     0.098 C 
ATOM      9  C   UNL A   1      32.605  28.623  22.721  1.00  0.00     0.013 C 
ATOM     10  C   UNL A   1      31.747  28.183  23.900  1.00  0.00    -0.011 C 
ATOM     11  C   UNL A   1      31.135  29.369  24.591  1.00  0.00     0.013 C 
ATOM     12  C   UNL A   1      31.226  26.769  23.746  1.00  0.00     0.098 C 
BRANCH  12  13
ATOM     13  C   UNL A   1      30.081  25.882  24.064  1.00  0.00     0.228 C 
ATOM     14  O   UNL A   1      28.982  26.441  24.149  1.00  0.00    -0.274 OA
ATOM     15  N   UNL A   1      30.054  24.520  24.120  1.00  0.00    -0.325 N 
ATOM     16  H   UNL A   1      29.146  24.141  24.158  1.00  0.00     0.169 HD
BRANCH  15  17
ATOM     17  C   UNL A   1      31.060  23.565  24.135  1.00  0.00     0.053 A 
ATOM     18  C   UNL A   1      31.600  23.264  22.876  1.00  0.00     0.027 A 
ATOM     19  C   UNL A   1      31.523  22.903  25.280  1.00  0.00     0.063 A 
ATOM     20  C   UNL A   1      32.708  22.433  22.765  1.00  0.00     0.002 A 
ATOM     21  C   UNL A   1      32.634  22.049  25.154  1.00  0.00     0.016 A 
ATOM     22  C   UNL A   1      33.243  21.848  23.909  1.00  0.00     0.001 A 
BRANCH  19  23
ATOM     23  C   UNL A   1      30.804  23.020  26.581  1.00  0.00     0.250 C 
ATOM     24  N   UNL A   1      29.632  22.332  26.732  1.00  0.00    -0.366 N 
ATOM     25  O   UNL A   1      31.223  23.704  27.507  1.00  0.00    -0.269 OA
ATOM     26  H   UNL A   1      29.288  21.780  25.994  1.00  0.00     0.159 HD
ATOM     27  H   UNL A   1      29.133  22.390  27.578  1.00  0.00     0.159 HD
ENDBRANCH  19  23
ENDBRANCH  15  17
ENDBRANCH  12  13
ENDBRANCH   5   8
ENDBRANCH   3   4
ENDBRANCH   2   3
ENDBRANCH   1   2
BRANCH   1  28
ATOM     28  C   UNL A   1      35.349  32.061  28.010  1.00  0.00     0.002 C 
BRANCH  28  29
ATOM     29  C   UNL A   1      34.018  32.813  28.006  1.00  0.00     0.021 C 
BRANCH  29  30
ATOM     30  C   UNL A   1      34.136  34.331  28.041  1.00  0.00     0.116 C 
BRANCH  30  31
ATOM     31  N   UNL A   1      33.306  34.931  29.071  1.00  0.00    -0.352 N 
ATOM     32  C   UNL A   1      33.426  34.834  30.436  1.00  0.00     0.251 C 
ATOM     33  H   UNL A   1      32.557  35.481  28.747  1.00  0.00     0.163 HD
ATOM     34  O   UNL A   1      32.541  35.278  31.160  1.00  0.00    -0.269 OA
BRANCH  32  35
ATOM     35  C   UNL A   1      34.609  34.160  31.014  1.00  0.00     0.039 A 
ATOM     36  C   UNL A   1      34.424  32.985  31.744  1.00  0.00     0.014 A 
ATOM     37  C   UNL A   1      35.895  34.670  30.810  1.00  0.00     0.014 A 
ATOM     38  C   UNL A   1      35.536  32.286  32.216  1.00  0.00     0.010 A 
ATOM     39  C   UNL A   1      37.002  33.930  31.211  1.00  0.00     0.010 A 
ATOM     40  C   UNL A   1      36.835  32.731  31.921  1.00  0.00    -0.014 A 
BRANCH  40  41
ATOM     41  C   UNL A   1      38.030  31.957  32.350  1.00  0.00     0.031 A 
ATOM     42  C   UNL A   1      38.718  32.291  33.644  1.00  0.00     0.074 A 
ATOM     43  C   UNL A   1      38.524  30.993  31.547  1.00  0.00     0.049 A 
ATOM     44  N   UNL A   1      39.808  31.782  34.159  1.00  0.00    -0.248 NA
ATOM     45  C   UNL A   1      38.115  33.360  34.455  1.00  0.00     0.031 C 
ATOM     46  C   UNL A   1      37.961  30.603  30.252  1.00  0.00     0.029 A 
ATOM     47  N   UNL A   1      39.610  30.168  31.696  1.00  0.00    -0.354 N 
ATOM     48  C   UNL A   1      40.026  32.473  35.345  1.00  0.00     0.074 A 
ATOM     49  C   UNL A   1      38.993  33.483  35.437  1.00  0.00     0.031 C 
ATOM     50  C   UNL A   1      38.689  29.597  29.742  1.00  0.00     0.029 A 
ATOM     51  C   UNL A   1      39.800  29.305  30.641  1.00  0.00     0.049 A 
ATOM     52  H   UNL A   1      40.199  30.192  32.485  1.00  0.00     0.167 HD
ATOM     53  C   UNL A   1      40.986  32.268  36.283  1.00  0.00     0.034 A 
ATOM     54  C   UNL A   1      40.768  28.394  30.417  1.00  0.00     0.034 A 
ATOM     55  C   UNL A   1      42.005  31.254  36.173  1.00  0.00     0.049 A 
ATOM     56  C   UNL A   1      41.852  28.218  31.450  1.00  0.00     0.074 A 
ATOM     57  C   UNL A   1      42.996  30.927  37.083  1.00  0.00     0.029 A 
ATOM     58  N   UNL A   1      42.178  30.410  35.082  1.00  0.00    -0.354 N 
ATOM     59  N   UNL A   1      42.018  28.846  32.592  1.00  0.00    -0.248 NA
ATOM     60  C   UNL A   1      42.877  27.204  31.168  1.00  0.00     0.031 C 
ATOM     61  C   UNL A   1      43.811  29.945  36.511  1.00  0.00     0.029 A 
ATOM     62  C   UNL A   1      43.279  29.591  35.281  1.00  0.00     0.049 A 
ATOM     63  H   UNL A   1      41.601  30.396  34.284  1.00  0.00     0.167 HD
ATOM     64  C   UNL A   1      43.145  28.277  33.179  1.00  0.00     0.074 A 
ATOM     65  C   UNL A   1      43.609  27.248  32.271  1.00  0.00     0.031 C 
ATOM     66  C   UNL A   1      43.739  28.575  34.363  1.00  0.00     0.034 A 
BRANCH  53  67
ATOM     67  C   UNL A   1      40.986  33.180  37.488  1.00  0.00     0.023 A 
ATOM     68  C   UNL A   1      40.206  32.904  38.625  1.00  0.00     0.031 A 
ATOM     69  C   UNL A   1      41.754  34.357  37.491  1.00  0.00     0.131 A 
ATOM     70  C   UNL A   1      40.147  33.828  39.678  1.00  0.00     0.055 A 
ATOM     71  C   UNL A   1      41.761  35.231  38.581  1.00  0.00     0.041 A 
ATOM     72  F   UNL A   1      42.503  34.690  36.427  1.00  0.00    -0.206 F 
ATOM     73  C   UNL A   1      40.941  34.977  39.677  1.00  0.00     0.022 A 
BRANCH  70  74
ATOM     74  S   UNL A   1      38.900  33.587  40.973  1.00  0.00     0.124 S 
ATOM     75  O   UNL A   1      39.389  32.377  41.630  1.00  0.00    -0.237 OA
ATOM     76  O   UNL A   1      39.003  34.820  41.745  1.00  0.00    -0.237 OA
ATOM     77  O   UNL A   1      37.656  33.420  40.225  1.00  0.00    -0.744 OA
ENDBRANCH  70  74
ENDBRANCH  53  67
BRANCH  54  78
ATOM     78  C   UNL A   1      40.772  27.589  29.161  1.00  0.00     0.023 A 
ATOM     79  C   UNL A   1      41.683  27.863  28.128  1.00  0.00     0.031 A 
ATOM     80  C   UNL A   1      39.835  26.559  28.956  1.00  0.00     0.131 A 
ATOM     81  C   UNL A   1      41.606  27.153  26.920  1.00  0.00     0.055 A 
ATOM     82  C   UNL A   1      39.802  25.815  27.775  1.00  0.00     0.041 A 
ATOM     83  F   UNL A   1      38.942  26.254  29.911  1.00  0.00    -0.206 F 
ATOM     84  C   UNL A   1      40.682  26.120  26.743  1.00  0.00     0.022 A 
BRANCH  81  85
ATOM     85  S   UNL A   1      42.672  27.663  25.544  1.00  0.00     0.124 S 
ATOM     86  O   UNL A   1      41.965  28.835  25.040  1.00  0.00    -0.237 OA
ATOM     87  O   UNL A   1      43.939  27.919  26.220  1.00  0.00    -0.237 OA
ATOM     88  O   UNL A   1      42.664  26.501  24.658  1.00  0.00    -0.744 OA
ENDBRANCH  81  85
ENDBRANCH  54  78
BRANCH  66  89
ATOM     89  C   UNL A   1      44.930  27.738  34.765  1.00  0.00     0.023 A 
ATOM     90  C   UNL A   1      44.791  26.560  35.521  1.00  0.00     0.031 A 
ATOM     91  C   UNL A   1      46.227  28.129  34.388  1.00  0.00     0.131 A 
ATOM     92  C   UNL A   1      45.932  25.847  35.921  1.00  0.00     0.055 A 
ATOM     93  C   UNL A   1      47.353  27.379  34.731  1.00  0.00     0.041 A 
ATOM     94  F   UNL A   1      46.422  29.248  33.670  1.00  0.00    -0.206 F 
ATOM     95  C   UNL A   1      47.209  26.238  35.514  1.00  0.00     0.022 A 
BRANCH  92  96
ATOM     96  S   UNL A   1      45.733  24.454  37.065  1.00  0.00     0.124 S 
ATOM     97  O   UNL A   1      45.496  23.342  36.151  1.00  0.00    -0.237 OA
ATOM     98  O   UNL A   1      47.012  24.441  37.768  1.00  0.00    -0.237 OA
ATOM     99  O   UNL A   1      44.584  24.841  37.881  1.00  0.00    -0.744 OA
ENDBRANCH  92  96
ENDBRANCH  66  89
ENDBRANCH  40  41
ENDBRANCH  32  35
ENDBRANCH  30  31
ENDBRANCH  29  30
ENDBRANCH  28  29
ENDBRANCH   1  28
TORSDOF 19
ENDMDL
MODEL 3
REMARK VINA RESULT:     -11.3      2.621      3.381
REMARK SMILES CC1(C)[C@H](C(=O)Nc2ccccc2C(N)=O)[C@@H]1C(=O)NCCCCCCNC(=O)c1ccc(-c2c3nc(c(-c4cc(S(=O)(=O)[O-])ccc4F)c4ccc([nH]4)c(-c4cc(S(=O)(=O)[O-])ccc4F)c4nc(c(-c5cc(S(=O)(=O)[O-])ccc5F)c5ccc2[nH]5)C=C4)C=C3)cc1
REMARK SMILES IDX 23 1 22 2 21 3 20 4 18 5 19 6 17 8 1 9 2 10 3 11 4 12 5 13
REMARK SMILES IDX 6 14 7 15 8 17 9 18 13 19 10 20 12 21 11 22 14 23 15 24
REMARK SMILES IDX 16 25 24 28 25 29 26 30 27 31 28 32 29 34 30 35 31 36 92 37
REMARK SMILES IDX 32 38 91 39 33 40 34 41 35 42 85 43 36 44 90 45 84 46 86 47
REMARK SMILES IDX 37 48 89 49 83 50 82 51 38 53 70 54 50 55 69 56 51 57 54 58
REMARK SMILES IDX 68 59 87 60 52 61 53 62 67 64 88 65 55 66 39 67 40 68 48 69
REMARK SMILES IDX 41 70 47 71 49 72 46 73 42 74 43 75 44 76 45 77 71 78 72 79
REMARK SMILES IDX 80 80 73 81 79 82 81 83 78 84 74 85 75 86 76 87 77 88 56 89
REMARK SMILES IDX 57 90 65 91 58 92 64 93 66 94 63 95 59 96 60 97 61 98 62 99
REMARK H PARENT 20 7 7 16 15 26 15 27 27 33 86 52 54 63
REMARK Flexibility Score: inf
ROOT
ATOM      1  C   UNL A   1      33.925  28.666  23.280  1.00  0.00     0.002 C 
ENDROOT
BRANCH   1   2
ATOM      2  C   UNL A   1      33.220  27.671  22.348  1.00  0.00     0.021 C 
BRANCH   2   3
ATOM      3  C   UNL A   1      33.692  26.230  22.483  1.00  0.00     0.116 C 
BRANCH   3   4
ATOM      4  N   UNL A   1      34.195  25.969  23.809  1.00  0.00    -0.356 N 
ATOM      5  C   UNL A   1      33.723  25.093  24.737  1.00  0.00     0.224 C 
ATOM      6  O   UNL A   1      34.100  25.214  25.899  1.00  0.00    -0.275 OA
ATOM      7  H   UNL A   1      34.982  26.493  24.078  1.00  0.00     0.163 HD
BRANCH   5   8
ATOM      8  C   UNL A   1      32.728  24.042  24.364  1.00  0.00     0.098 C 
ATOM      9  C   UNL A   1      30.267  23.889  23.447  1.00  0.00     0.013 C 
ATOM     10  C   UNL A   1      31.235  24.390  24.511  1.00  0.00    -0.011 C 
ATOM     11  C   UNL A   1      30.919  25.806  24.902  1.00  0.00     0.013 C 
ATOM     12  C   UNL A   1      31.837  23.265  25.327  1.00  0.00     0.098 C 
BRANCH  12  13
ATOM     13  C   UNL A   1      32.342  22.912  26.676  1.00  0.00     0.228 C 
ATOM     14  O   UNL A   1      31.640  23.286  27.622  1.00  0.00    -0.274 OA
ATOM     15  N   UNL A   1      33.388  22.101  27.004  1.00  0.00    -0.325 N 
ATOM     16  H   UNL A   1      33.418  21.858  27.958  1.00  0.00     0.169 HD
BRANCH  15  17
ATOM     17  C   UNL A   1      34.416  21.552  26.253  1.00  0.00     0.053 A 
ATOM     18  C   UNL A   1      35.554  22.363  26.135  1.00  0.00     0.027 A 
ATOM     19  C   UNL A   1      34.369  20.303  25.618  1.00  0.00     0.063 A 
ATOM     20  C   UNL A   1      36.707  21.876  25.532  1.00  0.00     0.002 A 
ATOM     21  C   UNL A   1      35.536  19.828  24.993  1.00  0.00     0.016 A 
ATOM     22  C   UNL A   1      36.706  20.597  24.986  1.00  0.00     0.001 A 
BRANCH  19  23
ATOM     23  C   UNL A   1      33.094  19.537  25.519  1.00  0.00     0.250 C 
ATOM     24  N   UNL A   1      32.866  18.547  26.435  1.00  0.00    -0.366 N 
ATOM     25  O   UNL A   1      32.255  19.760  24.655  1.00  0.00    -0.269 OA
ATOM     26  H   UNL A   1      33.533  18.360  27.133  1.00  0.00     0.159 HD
ATOM     27  H   UNL A   1      32.034  18.022  26.395  1.00  0.00     0.159 HD
ENDBRANCH  19  23
ENDBRANCH  15  17
ENDBRANCH  12  13
ENDBRANCH   5   8
ENDBRANCH   3   4
ENDBRANCH   2   3
ENDBRANCH   1   2
BRANCH   1  28
ATOM     28  C   UNL A   1      33.421  28.706  24.726  1.00  0.00     0.002 C 
BRANCH  28  29
ATOM     29  C   UNL A   1      32.280  29.685  25.003  1.00  0.00     0.021 C 
BRANCH  29  30
ATOM     30  C   UNL A   1      32.139  30.114  26.458  1.00  0.00     0.116 C 
BRANCH  30  31
ATOM     31  N   UNL A   1      32.008  31.554  26.603  1.00  0.00    -0.352 N 
ATOM     32  C   UNL A   1      32.807  32.424  27.302  1.00  0.00     0.251 C 
ATOM     33  H   UNL A   1      31.241  31.959  26.138  1.00  0.00     0.163 HD
ATOM     34  O   UNL A   1      32.459  33.590  27.449  1.00  0.00    -0.269 OA
BRANCH  32  35
ATOM     35  C   UNL A   1      34.067  31.929  27.901  1.00  0.00     0.039 A 
ATOM     36  C   UNL A   1      35.085  32.844  28.176  1.00  0.00     0.014 A 
ATOM     37  C   UNL A   1      34.228  30.577  28.216  1.00  0.00     0.014 A 
ATOM     38  C   UNL A   1      36.241  32.411  28.826  1.00  0.00     0.010 A 
ATOM     39  C   UNL A   1      35.345  30.164  28.935  1.00  0.00     0.010 A 
ATOM     40  C   UNL A   1      36.365  31.076  29.246  1.00  0.00    -0.014 A 
BRANCH  40  41
ATOM     41  C   UNL A   1      37.556  30.616  30.008  1.00  0.00     0.031 A 
ATOM     42  C   UNL A   1      38.531  29.662  29.375  1.00  0.00     0.074 A 
ATOM     43  C   UNL A   1      37.726  31.016  31.284  1.00  0.00     0.049 A 
ATOM     44  N   UNL A   1      39.589  29.093  29.896  1.00  0.00    -0.248 NA
ATOM     45  C   UNL A   1      38.265  29.275  27.982  1.00  0.00     0.031 C 
ATOM     46  C   UNL A   1      36.828  31.912  32.015  1.00  0.00     0.029 A 
ATOM     47  N   UNL A   1      38.708  30.718  32.196  1.00  0.00    -0.354 N 
ATOM     48  C   UNL A   1      40.108  28.276  28.898  1.00  0.00     0.074 A 
ATOM     49  C   UNL A   1      39.209  28.371  27.768  1.00  0.00     0.031 C 
ATOM     50  C   UNL A   1      37.316  32.113  33.249  1.00  0.00     0.029 A 
ATOM     51  C   UNL A   1      38.529  31.321  33.420  1.00  0.00     0.049 A 
ATOM     52  H   UNL A   1      39.469  30.127  31.993  1.00  0.00     0.167 HD
ATOM     53  C   UNL A   1      41.243  27.532  28.915  1.00  0.00     0.034 A 
ATOM     54  C   UNL A   1      39.251  31.232  34.555  1.00  0.00     0.034 A 
ATOM     55  C   UNL A   1      42.128  27.452  30.052  1.00  0.00     0.049 A 
ATOM     56  C   UNL A   1      40.482  30.361  34.566  1.00  0.00     0.074 A 
ATOM     57  C   UNL A   1      43.328  26.770  30.163  1.00  0.00     0.029 A 
ATOM     58  N   UNL A   1      41.906  28.062  31.281  1.00  0.00    -0.354 N 
ATOM     59  N   UNL A   1      40.988  29.631  33.598  1.00  0.00    -0.248 NA
ATOM     60  C   UNL A   1      41.244  30.307  35.821  1.00  0.00     0.031 C 
ATOM     61  C   UNL A   1      43.787  26.901  31.477  1.00  0.00     0.029 A 
ATOM     62  C   UNL A   1      42.925  27.741  32.164  1.00  0.00     0.049 A 
ATOM     63  H   UNL A   1      41.136  28.640  31.492  1.00  0.00     0.167 HD
ATOM     64  C   UNL A   1      42.146  29.060  34.119  1.00  0.00     0.074 A 
ATOM     65  C   UNL A   1      42.270  29.542  35.479  1.00  0.00     0.031 C 
ATOM     66  C   UNL A   1      43.031  28.219  33.524  1.00  0.00     0.034 A 
BRANCH  53  67
ATOM     67  C   UNL A   1      41.568  26.731  27.677  1.00  0.00     0.023 A 
ATOM     68  C   UNL A   1      41.265  25.360  27.581  1.00  0.00     0.031 A 
ATOM     69  C   UNL A   1      42.216  27.335  26.585  1.00  0.00     0.131 A 
ATOM     70  C   UNL A   1      41.680  24.625  26.461  1.00  0.00     0.055 A 
ATOM     71  C   UNL A   1      42.547  26.617  25.434  1.00  0.00     0.041 A 
ATOM     72  F   UNL A   1      42.554  28.634  26.623  1.00  0.00    -0.206 F 
ATOM     73  C   UNL A   1      42.294  25.250  25.374  1.00  0.00     0.022 A 
BRANCH  70  74
ATOM     74  S   UNL A   1      41.549  22.817  26.515  1.00  0.00     0.124 S 
ATOM     75  O   UNL A   1      42.358  22.429  25.362  1.00  0.00    -0.237 OA
ATOM     76  O   UNL A   1      42.107  22.498  27.824  1.00  0.00    -0.237 OA
ATOM     77  O   UNL A   1      40.116  22.572  26.371  1.00  0.00    -0.744 OA
ENDBRANCH  70  74
ENDBRANCH  53  67
BRANCH  54  78
ATOM     78  C   UNL A   1      38.828  31.971  35.780  1.00  0.00     0.023 A 
ATOM     79  C   UNL A   1      38.153  31.317  36.823  1.00  0.00     0.031 A 
ATOM     80  C   UNL A   1      39.053  33.354  35.907  1.00  0.00     0.131 A 
ATOM     81  C   UNL A   1      37.683  32.052  37.923  1.00  0.00     0.055 A 
ATOM     82  C   UNL A   1      38.637  34.070  37.032  1.00  0.00     0.041 A 
ATOM     83  F   UNL A   1      39.695  34.029  34.941  1.00  0.00    -0.206 F 
ATOM     84  C   UNL A   1      37.935  33.421  38.042  1.00  0.00     0.022 A 
BRANCH  81  85
ATOM     85  S   UNL A   1      36.654  31.208  39.155  1.00  0.00     0.124 S 
ATOM     86  O   UNL A   1      36.434  29.914  38.521  1.00  0.00    -0.237 OA
ATOM     87  O   UNL A   1      37.521  31.209  40.328  1.00  0.00    -0.237 OA
ATOM     88  O   UNL A   1      35.473  32.062  39.255  1.00  0.00    -0.744 OA
ENDBRANCH  81  85
ENDBRANCH  54  78
BRANCH  66  89
ATOM     89  C   UNL A   1      44.239  27.808  34.331  1.00  0.00     0.023 A 
ATOM     90  C   UNL A   1      44.205  26.720  35.222  1.00  0.00     0.031 A 
ATOM     91  C   UNL A   1      45.445  28.521  34.209  1.00  0.00     0.131 A 
ATOM     92  C   UNL A   1      45.335  26.412  35.994  1.00  0.00     0.055 A 
ATOM     93  C   UNL A   1      46.587  28.168  34.930  1.00  0.00     0.041 A 
ATOM     94  F   UNL A   1      45.537  29.572  33.378  1.00  0.00    -0.206 F 
ATOM     95  C   UNL A   1      46.531  27.116  35.839  1.00  0.00     0.022 A 
BRANCH  92  96
ATOM     96  S   UNL A   1      45.193  25.139  37.279  1.00  0.00     0.124 S 
ATOM     97  O   UNL A   1      44.168  25.702  38.152  1.00  0.00    -0.237 OA
ATOM     98  O   UNL A   1      44.800  23.962  36.510  1.00  0.00    -0.237 OA
ATOM     99  O   UNL A   1      46.535  25.082  37.855  1.00  0.00    -0.744 OA
ENDBRANCH  92  96
ENDBRANCH  66  89
ENDBRANCH  40  41
ENDBRANCH  32  35
ENDBRANCH  30  31
ENDBRANCH  29  30
ENDBRANCH  28  29
ENDBRANCH   1  28
TORSDOF 19
ENDMDL
