MODEL 1
REMARK VINA RESULT:     -12.7      0.000      0.000
REMARK SMILES C[C@H]1[C@H](C)CC[C@@]2(C(=O)NCCCCCCNC(=O)c3ccc(-c4c5nc(c(-c6cc(S(=O)(=O)[O-])ccc6F)c6ccc([nH]6)c(-c6cc(S(=O)(=O)[O-])ccc6F)c6nc(c(-c7cc(S(=O)(=O)[O-])ccc7F)c7ccc4[nH]7)C=C6)C=C5)cc3)CC[C@@]3(C)C(=CC[C@@H]4[C@@]5(C)CC[C@H](O)C(C)(C)[C@@H]5CC[C@]43C)[C@H]12
REMARK SMILES IDX 14 1 13 2 12 3 11 4 10 5 8 6 9 7 7 9 1 10 2 11 3 12 105 13
REMARK SMILES IDX 4 14 5 15 87 16 6 17 83 18 85 19 88 20 84 21 86 22 103 23
REMARK SMILES IDX 89 24 90 25 102 26 104 27 91 28 101 29 92 30 93 31 100 32
REMARK SMILES IDX 94 33 97 34 95 35 98 36 99 37 96 38 15 40 16 41 17 42 18 43
REMARK SMILES IDX 19 45 20 46 21 47 82 48 22 49 81 50 23 51 24 52 25 53 75 54
REMARK SMILES IDX 26 55 80 56 74 57 76 58 27 59 79 60 73 61 72 62 28 64 60 65
REMARK SMILES IDX 40 66 59 67 41 68 44 69 58 70 77 71 42 72 43 73 57 75 78 76
REMARK SMILES IDX 45 77 29 78 30 79 38 80 31 81 37 82 39 83 36 84 32 85 33 86
REMARK SMILES IDX 34 87 35 88 61 89 62 90 70 91 63 92 69 93 71 94 68 95 64 96
REMARK SMILES IDX 65 97 66 98 67 99 46 100 47 101 55 102 48 103 54 104 56 105
REMARK SMILES IDX 53 106 49 107 50 108 51 109 52 110
REMARK H PARENT 10 8 96 39 17 44 76 63 44 74
REMARK Flexibility Score: inf
ROOT
ATOM      1  C   UNL A   1      34.749  31.823  27.638  1.00  0.00     0.002 C 
ENDROOT
BRANCH   1   2
ATOM      2  C   UNL A   1      34.819  30.415  28.239  1.00  0.00     0.002 C 
BRANCH   2   3
ATOM      3  C   UNL A   1      35.381  29.257  27.399  1.00  0.00     0.021 C 
BRANCH   3   4
ATOM      4  C   UNL A   1      34.411  28.430  26.549  1.00  0.00     0.116 C 
BRANCH   4   5
ATOM      5  N   UNL A   1      34.030  29.039  25.286  1.00  0.00    -0.356 N 
ATOM      6  C   UNL A   1      32.839  29.073  24.610  1.00  0.00     0.226 C 
ATOM      7  O   UNL A   1      32.966  29.056  23.378  1.00  0.00    -0.274 OA
ATOM      8  H   UNL A   1      34.763  29.515  24.833  1.00  0.00     0.163 HD
BRANCH   6   9
ATOM      9  C   UNL A   1      31.408  29.203  25.265  1.00  0.00     0.056 C 
ATOM     10  C   UNL A   1      28.746  29.069  22.347  1.00  0.00     0.008 C 
ATOM     11  C   UNL A   1      29.861  29.647  23.233  1.00  0.00    -0.003 C 
ATOM     12  C   UNL A   1      29.429  31.007  23.876  1.00  0.00    -0.011 C 
ATOM     13  C   UNL A   1      30.276  28.648  24.350  1.00  0.00     0.034 C 
ATOM     14  C   UNL A   1      29.156  32.138  22.872  1.00  0.00     0.008 C 
ATOM     15  C   UNL A   1      30.419  31.595  24.897  1.00  0.00     0.005 C 
ATOM     16  C   UNL A   1      30.711  27.205  24.016  1.00  0.00    -0.063 C 
ATOM     17  C   UNL A   1      31.162  30.628  25.790  1.00  0.00     0.018 C 
ATOM     18  C   UNL A   1      31.354  28.315  26.571  1.00  0.00     0.018 C 
ATOM     19  C   UNL A   1      30.606  26.185  25.188  1.00  0.00    -0.006 C 
ATOM     20  C   UNL A   1      31.419  26.934  22.899  1.00  0.00    -0.027 C 
ATOM     21  C   UNL A   1      31.379  26.790  26.408  1.00  0.00     0.013 C 
ATOM     22  C   UNL A   1      29.119  26.016  25.599  1.00  0.00     0.017 C 
ATOM     23  C   UNL A   1      31.230  24.734  24.786  1.00  0.00    -0.020 C 
ATOM     24  C   UNL A   1      32.341  25.751  22.755  1.00  0.00     0.032 C 
ATOM     25  C   UNL A   1      32.615  25.043  24.110  1.00  0.00     0.006 C 
ATOM     26  C   UNL A   1      31.393  23.801  26.016  1.00  0.00     0.008 C 
ATOM     27  C   UNL A   1      30.278  23.974  23.812  1.00  0.00     0.012 C 
ATOM     28  C   UNL A   1      33.746  23.931  24.106  1.00  0.00    -0.025 C 
ATOM     29  C   UNL A   1      32.291  22.591  25.748  1.00  0.00     0.005 C 
ATOM     30  C   UNL A   1      33.657  23.106  22.809  1.00  0.00     0.012 C 
ATOM     31  C   UNL A   1      35.135  24.651  24.139  1.00  0.00     0.010 C 
ATOM     32  C   UNL A   1      33.709  23.077  25.429  1.00  0.00     0.003 C 
ATOM     33  C   UNL A   1      36.328  23.704  24.263  1.00  0.00     0.033 C 
ATOM     34  C   UNL A   1      34.844  21.994  25.578  1.00  0.00    -0.006 C 
ATOM     35  C   UNL A   1      36.219  22.717  25.430  1.00  0.00     0.120 C 
ATOM     36  C   UNL A   1      34.706  20.787  24.624  1.00  0.00     0.014 C 
ATOM     37  C   UNL A   1      34.816  21.375  27.007  1.00  0.00     0.014 C 
BRANCH  35  38
ATOM     38  O   UNL A   1      37.291  21.775  25.339  1.00  0.00    -0.393 OA
ATOM     39  H   UNL A   1      36.971  20.961  24.919  1.00  0.00     0.210 HD
ENDBRANCH  35  38
ENDBRANCH   6   9
ENDBRANCH   4   5
ENDBRANCH   3   4
ENDBRANCH   2   3
ENDBRANCH   1   2
BRANCH   1  40
ATOM     40  C   UNL A   1      33.498  32.662  27.889  1.00  0.00     0.021 C 
BRANCH  40  41
ATOM     41  C   UNL A   1      33.654  34.169  28.003  1.00  0.00     0.116 C 
BRANCH  41  42
ATOM     42  N   UNL A   1      33.168  34.724  29.248  1.00  0.00    -0.352 N 
ATOM     43  C   UNL A   1      33.651  34.544  30.527  1.00  0.00     0.251 C 
ATOM     44  H   UNL A   1      32.382  35.310  29.172  1.00  0.00     0.163 HD
ATOM     45  O   UNL A   1      33.052  35.034  31.472  1.00  0.00    -0.269 OA
BRANCH  43  46
ATOM     46  C   UNL A   1      34.868  33.721  30.760  1.00  0.00     0.039 A 
ATOM     47  C   UNL A   1      36.097  34.202  30.299  1.00  0.00     0.014 A 
ATOM     48  C   UNL A   1      34.813  32.489  31.418  1.00  0.00     0.014 A 
ATOM     49  C   UNL A   1      37.270  33.482  30.551  1.00  0.00     0.010 A 
ATOM     50  C   UNL A   1      35.990  31.813  31.740  1.00  0.00     0.010 A 
ATOM     51  C   UNL A   1      37.233  32.298  31.304  1.00  0.00    -0.014 A 
BRANCH  51  52
ATOM     52  C   UNL A   1      38.478  31.541  31.615  1.00  0.00     0.031 A 
ATOM     53  C   UNL A   1      39.261  31.864  32.863  1.00  0.00     0.074 A 
ATOM     54  C   UNL A   1      38.924  30.593  30.765  1.00  0.00     0.049 A 
ATOM     55  N   UNL A   1      40.402  31.375  33.275  1.00  0.00    -0.248 NA
ATOM     56  C   UNL A   1      38.696  32.893  33.751  1.00  0.00     0.031 C 
ATOM     57  C   UNL A   1      38.270  30.206  29.513  1.00  0.00     0.029 A 
ATOM     58  N   UNL A   1      40.033  29.783  30.819  1.00  0.00    -0.354 N 
ATOM     59  C   UNL A   1      40.692  32.037  34.464  1.00  0.00     0.074 A 
ATOM     60  C   UNL A   1      39.642  33.012  34.668  1.00  0.00     0.031 C 
ATOM     61  C   UNL A   1      38.971  29.217  28.936  1.00  0.00     0.029 A 
ATOM     62  C   UNL A   1      40.152  28.932  29.743  1.00  0.00     0.049 A 
ATOM     63  H   UNL A   1      40.680  29.808  31.559  1.00  0.00     0.167 HD
ATOM     64  C   UNL A   1      41.722  31.833  35.323  1.00  0.00     0.034 A 
ATOM     65  C   UNL A   1      41.113  28.035  29.435  1.00  0.00     0.034 A 
ATOM     66  C   UNL A   1      42.755  30.848  35.115  1.00  0.00     0.049 A 
ATOM     67  C   UNL A   1      42.274  27.860  30.387  1.00  0.00     0.074 A 
ATOM     68  C   UNL A   1      43.828  30.539  35.934  1.00  0.00     0.029 A 
ATOM     69  N   UNL A   1      42.846  30.010  34.011  1.00  0.00    -0.354 N 
ATOM     70  N   UNL A   1      42.512  28.474  31.523  1.00  0.00    -0.248 NA
ATOM     71  C   UNL A   1      43.289  26.863  30.021  1.00  0.00     0.031 C 
ATOM     72  C   UNL A   1      44.600  29.564  35.296  1.00  0.00     0.029 A 
ATOM     73  C   UNL A   1      43.968  29.203  34.117  1.00  0.00     0.049 A 
ATOM     74  H   UNL A   1      42.206  29.992  33.263  1.00  0.00     0.167 HD
ATOM     75  C   UNL A   1      43.679  27.904  32.024  1.00  0.00     0.074 A 
ATOM     76  C   UNL A   1      44.086  26.889  31.077  1.00  0.00     0.031 C 
ATOM     77  C   UNL A   1      44.356  28.190  33.166  1.00  0.00     0.034 A 
BRANCH  64  78
ATOM     78  C   UNL A   1      41.786  32.698  36.557  1.00  0.00     0.023 A 
ATOM     79  C   UNL A   1      41.135  32.330  37.748  1.00  0.00     0.031 A 
ATOM     80  C   UNL A   1      42.508  33.905  36.549  1.00  0.00     0.131 A 
ATOM     81  C   UNL A   1      41.168  33.187  38.859  1.00  0.00     0.055 A 
ATOM     82  C   UNL A   1      42.603  34.715  37.682  1.00  0.00     0.041 A 
ATOM     83  F   UNL A   1      43.133  34.320  35.435  1.00  0.00    -0.206 F 
ATOM     84  C   UNL A   1      41.920  34.364  38.843  1.00  0.00     0.022 A 
BRANCH  81  85
ATOM     85  S   UNL A   1      40.111  32.802  40.281  1.00  0.00     0.124 S 
ATOM     86  O   UNL A   1      38.895  32.327  39.624  1.00  0.00    -0.237 OA
ATOM     87  O   UNL A   1      40.890  31.793  40.989  1.00  0.00    -0.237 OA
ATOM     88  O   UNL A   1      39.979  34.085  40.967  1.00  0.00    -0.744 OA
ENDBRANCH  81  85
ENDBRANCH  64  78
BRANCH  65  89
ATOM     89  C   UNL A   1      41.047  27.240  28.172  1.00  0.00     0.023 A 
ATOM     90  C   UNL A   1      40.751  25.866  28.197  1.00  0.00     0.031 A 
ATOM     91  C   UNL A   1      41.364  27.818  26.930  1.00  0.00     0.131 A 
ATOM     92  C   UNL A   1      40.851  25.105  27.023  1.00  0.00     0.055 A 
ATOM     93  C   UNL A   1      41.393  27.069  25.751  1.00  0.00     0.041 A 
ATOM     94  F   UNL A   1      41.656  29.125  26.843  1.00  0.00    -0.206 F 
ATOM     95  C   UNL A   1      41.156  25.700  25.796  1.00  0.00     0.022 A 
BRANCH  92  96
ATOM     96  S   UNL A   1      40.715  23.299  27.146  1.00  0.00     0.124 S 
ATOM     97  O   UNL A   1      39.276  23.103  27.016  1.00  0.00    -0.237 OA
ATOM     98  O   UNL A   1      41.529  22.858  26.019  1.00  0.00    -0.237 OA
ATOM     99  O   UNL A   1      41.269  23.006  28.467  1.00  0.00    -0.744 OA
ENDBRANCH  92  96
ENDBRANCH  65  89
BRANCH  77 100
ATOM    100  C   UNL A   1      45.569  27.349  33.480  1.00  0.00     0.023 A 
ATOM    101  C   UNL A   1      45.469  26.128  34.169  1.00  0.00     0.031 A 
ATOM    102  C   UNL A   1      46.848  27.783  33.086  1.00  0.00     0.131 A 
ATOM    103  C   UNL A   1      46.631  25.413  34.495  1.00  0.00     0.055 A 
ATOM    104  C   UNL A   1      47.994  27.036  33.355  1.00  0.00     0.041 A 
ATOM    105  F   UNL A   1      47.002  28.944  32.427  1.00  0.00    -0.206 F 
ATOM    106  C   UNL A   1      47.892  25.850  34.076  1.00  0.00     0.022 A 
BRANCH 103 107
ATOM    107  S   UNL A   1      46.484  23.951  35.558  1.00  0.00     0.124 S 
ATOM    108  O   UNL A   1      45.229  23.366  35.098  1.00  0.00    -0.237 OA
ATOM    109  O   UNL A   1      47.693  23.204  35.230  1.00  0.00    -0.237 OA
ATOM    110  O   UNL A   1      46.449  24.511  36.908  1.00  0.00    -0.744 OA
ENDBRANCH 103 107
ENDBRANCH  77 100
ENDBRANCH  51  52
ENDBRANCH  43  46
ENDBRANCH  41  42
ENDBRANCH  40  41
ENDBRANCH   1  40
TORSDOF 17
ENDMDL
MODEL 2
REMARK VINA RESULT:     -12.7      1.497      1.842
REMARK SMILES C[C@H]1[C@H](C)CC[C@@]2(C(=O)NCCCCCCNC(=O)c3ccc(-c4c5nc(c(-c6cc(S(=O)(=O)[O-])ccc6F)c6ccc([nH]6)c(-c6cc(S(=O)(=O)[O-])ccc6F)c6nc(c(-c7cc(S(=O)(=O)[O-])ccc7F)c7ccc4[nH]7)C=C6)C=C5)cc3)CC[C@@]3(C)C(=CC[C@@H]4[C@@]5(C)CC[C@H](O)C(C)(C)[C@@H]5CC[C@]43C)[C@H]12
REMARK SMILES IDX 14 1 13 2 12 3 11 4 10 5 8 6 9 7 7 9 1 10 2 11 3 12 105 13
REMARK SMILES IDX 4 14 5 15 87 16 6 17 83 18 85 19 88 20 84 21 86 22 103 23
REMARK SMILES IDX 89 24 90 25 102 26 104 27 91 28 101 29 92 30 93 31 100 32
REMARK SMILES IDX 94 33 97 34 95 35 98 36 99 37 96 38 15 40 16 41 17 42 18 43
REMARK SMILES IDX 19 45 20 46 21 47 82 48 22 49 81 50 23 51 24 52 25 53 75 54
REMARK SMILES IDX 26 55 80 56 74 57 76 58 27 59 79 60 73 61 72 62 28 64 60 65
REMARK SMILES IDX 40 66 59 67 41 68 44 69 58 70 77 71 42 72 43 73 57 75 78 76
REMARK SMILES IDX 45 77 29 78 30 79 38 80 31 81 37 82 39 83 36 84 32 85 33 86
REMARK SMILES IDX 34 87 35 88 61 89 62 90 70 91 63 92 69 93 71 94 68 95 64 96
REMARK SMILES IDX 65 97 66 98 67 99 46 100 47 101 55 102 48 103 54 104 56 105
REMARK SMILES IDX 53 106 49 107 50 108 51 109 52 110
REMARK H PARENT 10 8 96 39 17 44 76 63 44 74
REMARK Flexibility Score: inf
ROOT
ATOM      1  C   UNL A   1      34.459  31.514  28.391  1.00  0.00     0.002 C 
ENDROOT
BRANCH   1   2
ATOM      2  C   UNL A   1      35.173  30.637  27.356  1.00  0.00     0.002 C 
BRANCH   2   3
ATOM      3  C   UNL A   1      35.131  29.108  27.498  1.00  0.00     0.021 C 
BRANCH   3   4
ATOM      4  C   UNL A   1      34.342  28.297  26.465  1.00  0.00     0.116 C 
BRANCH   4   5
ATOM      5  N   UNL A   1      34.003  29.017  25.249  1.00  0.00    -0.356 N 
ATOM      6  C   UNL A   1      32.829  29.136  24.554  1.00  0.00     0.226 C 
ATOM      7  O   UNL A   1      32.983  29.218  23.327  1.00  0.00    -0.274 OA
ATOM      8  H   UNL A   1      34.757  29.512  24.853  1.00  0.00     0.163 HD
BRANCH   6   9
ATOM      9  C   UNL A   1      31.386  29.245  25.188  1.00  0.00     0.056 C 
ATOM     10  C   UNL A   1      28.773  29.138  22.224  1.00  0.00     0.008 C 
ATOM     11  C   UNL A   1      29.869  29.710  23.138  1.00  0.00    -0.003 C 
ATOM     12  C   UNL A   1      29.416  31.056  23.795  1.00  0.00    -0.011 C 
ATOM     13  C   UNL A   1      30.274  28.697  24.246  1.00  0.00     0.034 C 
ATOM     14  C   UNL A   1      29.151  32.201  22.805  1.00  0.00     0.008 C 
ATOM     15  C   UNL A   1      30.385  31.635  24.842  1.00  0.00     0.005 C 
ATOM     16  C   UNL A   1      30.725  27.262  23.895  1.00  0.00    -0.063 C 
ATOM     17  C   UNL A   1      31.121  30.659  25.731  1.00  0.00     0.018 C 
ATOM     18  C   UNL A   1      31.318  28.335  26.478  1.00  0.00     0.018 C 
ATOM     19  C   UNL A   1      30.608  26.223  25.050  1.00  0.00    -0.006 C 
ATOM     20  C   UNL A   1      31.453  27.013  22.786  1.00  0.00    -0.027 C 
ATOM     21  C   UNL A   1      31.357  26.814  26.291  1.00  0.00     0.013 C 
ATOM     22  C   UNL A   1      29.116  26.036  25.433  1.00  0.00     0.017 C 
ATOM     23  C   UNL A   1      31.250  24.782  24.635  1.00  0.00    -0.020 C 
ATOM     24  C   UNL A   1      32.386  25.840  22.639  1.00  0.00     0.032 C 
ATOM     25  C   UNL A   1      32.644  25.113  23.987  1.00  0.00     0.006 C 
ATOM     26  C   UNL A   1      31.400  23.831  25.853  1.00  0.00     0.008 C 
ATOM     27  C   UNL A   1      30.319  24.031  23.633  1.00  0.00     0.012 C 
ATOM     28  C   UNL A   1      33.783  24.009  23.983  1.00  0.00    -0.025 C 
ATOM     29  C   UNL A   1      32.311  22.632  25.580  1.00  0.00     0.005 C 
ATOM     30  C   UNL A   1      33.721  23.204  22.672  1.00  0.00     0.012 C 
ATOM     31  C   UNL A   1      35.165  24.739  24.051  1.00  0.00     0.010 C 
ATOM     32  C   UNL A   1      33.730  23.134  25.292  1.00  0.00     0.003 C 
ATOM     33  C   UNL A   1      36.363  23.798  24.179  1.00  0.00     0.033 C 
ATOM     34  C   UNL A   1      34.871  22.056  25.442  1.00  0.00    -0.006 C 
ATOM     35  C   UNL A   1      36.243  22.792  25.328  1.00  0.00     0.120 C 
ATOM     36  C   UNL A   1      34.757  20.864  24.467  1.00  0.00     0.014 C 
ATOM     37  C   UNL A   1      34.824  21.415  26.860  1.00  0.00     0.014 C 
BRANCH  35  38
ATOM     38  O   UNL A   1      37.323  21.859  25.240  1.00  0.00    -0.393 OA
ATOM     39  H   UNL A   1      38.148  22.337  25.059  1.00  0.00     0.210 HD
ENDBRANCH  35  38
ENDBRANCH   6   9
ENDBRANCH   4   5
ENDBRANCH   3   4
ENDBRANCH   2   3
ENDBRANCH   1   2
BRANCH   1  40
ATOM     40  C   UNL A   1      33.296  32.388  27.928  1.00  0.00     0.021 C 
BRANCH  40  41
ATOM     41  C   UNL A   1      33.542  33.878  27.752  1.00  0.00     0.116 C 
BRANCH  41  42
ATOM     42  N   UNL A   1      32.922  34.705  28.764  1.00  0.00    -0.352 N 
ATOM     43  C   UNL A   1      33.287  34.887  30.082  1.00  0.00     0.251 C 
ATOM     44  H   UNL A   1      32.128  35.207  28.472  1.00  0.00     0.163 HD
ATOM     45  O   UNL A   1      32.585  35.569  30.812  1.00  0.00    -0.269 OA
BRANCH  43  46
ATOM     46  C   UNL A   1      34.502  34.220  30.622  1.00  0.00     0.039 A 
ATOM     47  C   UNL A   1      34.342  33.229  31.595  1.00  0.00     0.014 A 
ATOM     48  C   UNL A   1      35.787  34.561  30.189  1.00  0.00     0.014 A 
ATOM     49  C   UNL A   1      35.458  32.542  32.084  1.00  0.00     0.010 A 
ATOM     50  C   UNL A   1      36.889  33.820  30.616  1.00  0.00     0.010 A 
ATOM     51  C   UNL A   1      36.739  32.806  31.575  1.00  0.00    -0.014 A 
BRANCH  51  52
ATOM     52  C   UNL A   1      37.933  32.054  32.056  1.00  0.00     0.031 A 
ATOM     53  C   UNL A   1      38.584  32.436  33.361  1.00  0.00     0.074 A 
ATOM     54  C   UNL A   1      38.452  31.059  31.308  1.00  0.00     0.049 A 
ATOM     55  N   UNL A   1      39.668  31.958  33.917  1.00  0.00    -0.248 NA
ATOM     56  C   UNL A   1      37.944  33.515  34.130  1.00  0.00     0.031 C 
ATOM     57  C   UNL A   1      37.928  30.613  30.014  1.00  0.00     0.029 A 
ATOM     58  N   UNL A   1      39.536  30.243  31.521  1.00  0.00    -0.354 N 
ATOM     59  C   UNL A   1      39.840  32.678  35.095  1.00  0.00     0.074 A 
ATOM     60  C   UNL A   1      38.790  33.673  35.136  1.00  0.00     0.031 C 
ATOM     61  C   UNL A   1      38.671  29.588  29.567  1.00  0.00     0.029 A 
ATOM     62  C   UNL A   1      39.756  29.334  30.509  1.00  0.00     0.049 A 
ATOM     63  H   UNL A   1      40.102  30.300  32.324  1.00  0.00     0.167 HD
ATOM     64  C   UNL A   1      40.770  32.510  36.067  1.00  0.00     0.034 A 
ATOM     65  C   UNL A   1      40.730  28.414  30.351  1.00  0.00     0.034 A 
ATOM     66  C   UNL A   1      41.804  31.506  36.022  1.00  0.00     0.049 A 
ATOM     67  C   UNL A   1      41.781  28.277  31.429  1.00  0.00     0.074 A 
ATOM     68  C   UNL A   1      42.779  31.230  36.965  1.00  0.00     0.029 A 
ATOM     69  N   UNL A   1      41.998  30.610  34.978  1.00  0.00    -0.354 N 
ATOM     70  N   UNL A   1      41.906  28.948  32.551  1.00  0.00    -0.248 NA
ATOM     71  C   UNL A   1      42.814  27.253  31.225  1.00  0.00     0.031 C 
ATOM     72  C   UNL A   1      43.600  30.215  36.464  1.00  0.00     0.029 A 
ATOM     73  C   UNL A   1      43.091  29.799  35.245  1.00  0.00     0.049 A 
ATOM     74  H   UNL A   1      41.442  30.559  34.168  1.00  0.00     0.167 HD
ATOM     75  C   UNL A   1      43.006  28.394  33.203  1.00  0.00     0.074 A 
ATOM     76  C   UNL A   1      43.495  27.327  32.357  1.00  0.00     0.031 C 
ATOM     77  C   UNL A   1      43.562  28.733  34.394  1.00  0.00     0.034 A 
BRANCH  64  78
ATOM     78  C   UNL A   1      40.716  33.439  37.256  1.00  0.00     0.023 A 
ATOM     79  C   UNL A   1      39.931  33.144  38.385  1.00  0.00     0.031 A 
ATOM     80  C   UNL A   1      41.460  34.633  37.265  1.00  0.00     0.131 A 
ATOM     81  C   UNL A   1      39.860  34.058  39.447  1.00  0.00     0.055 A 
ATOM     82  C   UNL A   1      41.446  35.500  38.360  1.00  0.00     0.041 A 
ATOM     83  F   UNL A   1      42.210  34.979  36.208  1.00  0.00    -0.206 F 
ATOM     84  C   UNL A   1      40.633  35.221  39.454  1.00  0.00     0.022 A 
BRANCH  81  85
ATOM     85  S   UNL A   1      38.646  33.764  40.762  1.00  0.00     0.124 S 
ATOM     86  O   UNL A   1      39.381  32.862  41.645  1.00  0.00    -0.237 OA
ATOM     87  O   UNL A   1      38.406  35.108  41.276  1.00  0.00    -0.237 OA
ATOM     88  O   UNL A   1      37.520  33.155  40.058  1.00  0.00    -0.744 OA
ENDBRANCH  81  85
ENDBRANCH  64  78
BRANCH  65  89
ATOM     89  C   UNL A   1      40.785  27.553  29.131  1.00  0.00     0.023 A 
ATOM     90  C   UNL A   1      41.726  27.796  28.117  1.00  0.00     0.031 A 
ATOM     91  C   UNL A   1      39.843  26.531  28.917  1.00  0.00     0.131 A 
ATOM     92  C   UNL A   1      41.659  27.083  26.911  1.00  0.00     0.055 A 
ATOM     93  C   UNL A   1      39.826  25.775  27.744  1.00  0.00     0.041 A 
ATOM     94  F   UNL A   1      38.919  26.253  29.850  1.00  0.00    -0.206 F 
ATOM     95  C   UNL A   1      40.724  26.063  26.722  1.00  0.00     0.022 A 
BRANCH  92  96
ATOM     96  S   UNL A   1      42.723  27.603  25.535  1.00  0.00     0.124 S 
ATOM     97  O   UNL A   1      43.989  27.843  26.217  1.00  0.00    -0.237 OA
ATOM     98  O   UNL A   1      42.675  26.437  24.660  1.00  0.00    -0.237 OA
ATOM     99  O   UNL A   1      42.054  28.796  25.020  1.00  0.00    -0.744 OA
ENDBRANCH  92  96
ENDBRANCH  65  89
BRANCH  77 100
ATOM    100  C   UNL A   1      44.722  27.898  34.878  1.00  0.00     0.023 A 
ATOM    101  C   UNL A   1      44.535  26.768  35.693  1.00  0.00     0.031 A 
ATOM    102  C   UNL A   1      46.037  28.246  34.520  1.00  0.00     0.131 A 
ATOM    103  C   UNL A   1      45.649  26.061  36.171  1.00  0.00     0.055 A 
ATOM    104  C   UNL A   1      47.137  27.500  34.944  1.00  0.00     0.041 A 
ATOM    105  F   UNL A   1      46.273  29.317  33.745  1.00  0.00    -0.206 F 
ATOM    106  C   UNL A   1      46.947  26.409  35.788  1.00  0.00     0.022 A 
BRANCH 103 107
ATOM    107  S   UNL A   1      45.383  24.737  37.382  1.00  0.00     0.124 S 
ATOM    108  O   UNL A   1      45.703  23.545  36.603  1.00  0.00    -0.237 OA
ATOM    109  O   UNL A   1      46.331  25.083  38.436  1.00  0.00    -0.237 OA
ATOM    110  O   UNL A   1      43.974  24.881  37.745  1.00  0.00    -0.744 OA
ENDBRANCH 103 107
ENDBRANCH  77 100
ENDBRANCH  51  52
ENDBRANCH  43  46
ENDBRANCH  41  42
ENDBRANCH  40  41
ENDBRANCH   1  40
TORSDOF 17
ENDMDL
MODEL 3
REMARK VINA RESULT:     -12.6      5.084     10.402
REMARK SMILES C[C@H]1[C@H](C)CC[C@@]2(C(=O)NCCCCCCNC(=O)c3ccc(-c4c5nc(c(-c6cc(S(=O)(=O)[O-])ccc6F)c6ccc([nH]6)c(-c6cc(S(=O)(=O)[O-])ccc6F)c6nc(c(-c7cc(S(=O)(=O)[O-])ccc7F)c7ccc4[nH]7)C=C6)C=C5)cc3)CC[C@@]3(C)C(=CC[C@@H]4[C@@]5(C)CC[C@H](O)C(C)(C)[C@@H]5CC[C@]43C)[C@H]12
REMARK SMILES IDX 14 1 13 2 12 3 11 4 10 5 8 6 9 7 7 9 1 10 2 11 3 12 105 13
REMARK SMILES IDX 4 14 5 15 87 16 6 17 83 18 85 19 88 20 84 21 86 22 103 23
REMARK SMILES IDX 89 24 90 25 102 26 104 27 91 28 101 29 92 30 93 31 100 32
REMARK SMILES IDX 94 33 97 34 95 35 98 36 99 37 96 38 15 40 16 41 17 42 18 43
REMARK SMILES IDX 19 45 20 46 21 47 82 48 22 49 81 50 23 51 24 52 25 53 75 54
REMARK SMILES IDX 26 55 80 56 74 57 76 58 27 59 79 60 73 61 72 62 28 64 60 65
REMARK SMILES IDX 40 66 59 67 41 68 44 69 58 70 77 71 42 72 43 73 57 75 78 76
REMARK SMILES IDX 45 77 29 78 30 79 38 80 31 81 37 82 39 83 36 84 32 85 33 86
REMARK SMILES IDX 34 87 35 88 61 89 62 90 70 91 63 92 69 93 71 94 68 95 64 96
REMARK SMILES IDX 65 97 66 98 67 99 46 100 47 101 55 102 48 103 54 104 56 105
REMARK SMILES IDX 53 106 49 107 50 108 51 109 52 110
REMARK H PARENT 10 8 96 39 17 44 76 63 44 74
REMARK Flexibility Score: inf
ROOT
ATOM      1  C   UNL A   1      39.643  22.233  26.904  1.00  0.00     0.002 C 
ENDROOT
BRANCH   1   2
ATOM      2  C   UNL A   1      39.245  23.496  26.131  1.00  0.00     0.002 C 
BRANCH   2   3
ATOM      3  C   UNL A   1      38.009  24.297  26.569  1.00  0.00     0.021 C 
BRANCH   3   4
ATOM      4  C   UNL A   1      36.646  23.926  25.974  1.00  0.00     0.116 C 
BRANCH   4   5
ATOM      5  N   UNL A   1      35.985  22.800  26.613  1.00  0.00    -0.356 N 
ATOM      6  C   UNL A   1      35.160  21.824  26.118  1.00  0.00     0.226 C 
ATOM      7  O   UNL A   1      34.286  21.459  26.918  1.00  0.00    -0.274 OA
ATOM      8  H   UNL A   1      36.164  22.724  27.578  1.00  0.00     0.163 HD
BRANCH   6   9
ATOM      9  C   UNL A   1      35.296  21.126  24.708  1.00  0.00     0.056 C 
ATOM     10  C   UNL A   1      32.209  18.694  24.283  1.00  0.00     0.008 C 
ATOM     11  C   UNL A   1      33.552  19.211  24.823  1.00  0.00    -0.003 C 
ATOM     12  C   UNL A   1      34.698  18.171  24.584  1.00  0.00    -0.011 C 
ATOM     13  C   UNL A   1      33.939  20.572  24.180  1.00  0.00     0.034 C 
ATOM     14  C   UNL A   1      34.518  16.832  25.315  1.00  0.00     0.008 C 
ATOM     15  C   UNL A   1      36.111  18.655  24.957  1.00  0.00     0.005 C 
ATOM     16  C   UNL A   1      32.978  21.780  24.219  1.00  0.00    -0.063 C 
ATOM     17  C   UNL A   1      36.446  20.106  24.700  1.00  0.00     0.018 C 
ATOM     18  C   UNL A   1      35.746  22.200  23.640  1.00  0.00     0.018 C 
ATOM     19  C   UNL A   1      33.236  22.877  23.143  1.00  0.00    -0.006 C 
ATOM     20  C   UNL A   1      32.193  22.009  25.293  1.00  0.00    -0.027 C 
ATOM     21  C   UNL A   1      34.743  23.290  23.246  1.00  0.00     0.013 C 
ATOM     22  C   UNL A   1      32.996  22.285  21.729  1.00  0.00     0.017 C 
ATOM     23  C   UNL A   1      32.277  24.177  23.361  1.00  0.00    -0.020 C 
ATOM     24  C   UNL A   1      31.675  23.370  25.681  1.00  0.00     0.032 C 
ATOM     25  C   UNL A   1      32.368  24.516  24.894  1.00  0.00     0.006 C 
ATOM     26  C   UNL A   1      32.711  25.383  22.486  1.00  0.00     0.008 C 
ATOM     27  C   UNL A   1      30.810  23.860  22.934  1.00  0.00     0.012 C 
ATOM     28  C   UNL A   1      32.060  25.992  25.386  1.00  0.00    -0.025 C 
ATOM     29  C   UNL A   1      32.076  26.708  22.916  1.00  0.00     0.005 C 
ATOM     30  C   UNL A   1      30.574  26.110  25.773  1.00  0.00     0.012 C 
ATOM     31  C   UNL A   1      32.926  26.269  26.659  1.00  0.00     0.010 C 
ATOM     32  C   UNL A   1      32.549  27.056  24.332  1.00  0.00     0.003 C 
ATOM     33  C   UNL A   1      32.830  27.703  27.180  1.00  0.00     0.033 C 
ATOM     34  C   UNL A   1      32.375  28.566  24.750  1.00  0.00    -0.006 C 
ATOM     35  C   UNL A   1      33.101  28.771  26.116  1.00  0.00     0.120 C 
ATOM     36  C   UNL A   1      30.911  29.055  24.781  1.00  0.00     0.014 C 
ATOM     37  C   UNL A   1      33.083  29.496  23.722  1.00  0.00     0.014 C 
BRANCH  35  38
ATOM     38  O   UNL A   1      32.810  30.057  26.668  1.00  0.00    -0.393 OA
ATOM     39  H   UNL A   1      31.861  30.118  26.861  1.00  0.00     0.210 HD
ENDBRANCH  35  38
ENDBRANCH   6   9
ENDBRANCH   4   5
ENDBRANCH   3   4
ENDBRANCH   2   3
ENDBRANCH   1   2
BRANCH   1  40
ATOM     40  C   UNL A   1      39.886  20.946  26.120  1.00  0.00     0.021 C 
BRANCH  40  41
ATOM     41  C   UNL A   1      40.806  19.898  26.725  1.00  0.00     0.116 C 
BRANCH  41  42
ATOM     42  N   UNL A   1      41.966  19.590  25.917  1.00  0.00    -0.352 N 
ATOM     43  C   UNL A   1      43.011  20.412  25.548  1.00  0.00     0.251 C 
ATOM     44  H   UNL A   1      42.016  18.667  25.584  1.00  0.00     0.163 HD
ATOM     45  O   UNL A   1      43.868  19.990  24.786  1.00  0.00    -0.269 OA
BRANCH  43  46
ATOM     46  C   UNL A   1      43.071  21.816  26.037  1.00  0.00     0.039 A 
ATOM     47  C   UNL A   1      43.290  22.038  27.400  1.00  0.00     0.014 A 
ATOM     48  C   UNL A   1      42.910  22.906  25.177  1.00  0.00     0.014 A 
ATOM     49  C   UNL A   1      43.410  23.345  27.885  1.00  0.00     0.010 A 
ATOM     50  C   UNL A   1      43.110  24.203  25.647  1.00  0.00     0.010 A 
ATOM     51  C   UNL A   1      43.355  24.440  27.009  1.00  0.00    -0.014 A 
BRANCH  51  52
ATOM     52  C   UNL A   1      43.521  25.836  27.504  1.00  0.00     0.031 A 
ATOM     53  C   UNL A   1      44.889  26.471  27.515  1.00  0.00     0.074 A 
ATOM     54  C   UNL A   1      42.457  26.517  27.976  1.00  0.00     0.049 A 
ATOM     55  N   UNL A   1      45.255  27.641  27.971  1.00  0.00    -0.248 NA
ATOM     56  C   UNL A   1      45.994  25.671  26.961  1.00  0.00     0.031 C 
ATOM     57  C   UNL A   1      41.086  26.003  28.041  1.00  0.00     0.029 A 
ATOM     58  N   UNL A   1      42.356  27.785  28.492  1.00  0.00    -0.354 N 
ATOM     59  C   UNL A   1      46.629  27.716  27.764  1.00  0.00     0.074 A 
ATOM     60  C   UNL A   1      47.040  26.445  27.206  1.00  0.00     0.031 C 
ATOM     61  C   UNL A   1      40.281  26.955  28.538  1.00  0.00     0.029 A 
ATOM     62  C   UNL A   1      41.078  28.129  28.878  1.00  0.00     0.049 A 
ATOM     63  H   UNL A   1      43.124  28.394  28.578  1.00  0.00     0.167 HD
ATOM     64  C   UNL A   1      47.468  28.758  27.990  1.00  0.00     0.034 A 
ATOM     65  C   UNL A   1      40.608  29.255  29.454  1.00  0.00     0.034 A 
ATOM     66  C   UNL A   1      47.044  30.024  28.533  1.00  0.00     0.049 A 
ATOM     67  C   UNL A   1      41.573  30.383  29.737  1.00  0.00     0.074 A 
ATOM     68  C   UNL A   1      47.805  31.156  28.776  1.00  0.00     0.029 A 
ATOM     69  N   UNL A   1      45.745  30.332  28.917  1.00  0.00    -0.354 N 
ATOM     70  N   UNL A   1      42.864  30.446  29.503  1.00  0.00    -0.248 NA
ATOM     71  C   UNL A   1      41.016  31.596  30.351  1.00  0.00     0.031 C 
ATOM     72  C   UNL A   1      46.983  32.120  29.366  1.00  0.00     0.029 A 
ATOM     73  C   UNL A   1      45.690  31.623  29.417  1.00  0.00     0.049 A 
ATOM     74  H   UNL A   1      44.977  29.720  28.845  1.00  0.00     0.167 HD
ATOM     75  C   UNL A   1      43.259  31.720  29.901  1.00  0.00     0.074 A 
ATOM     76  C   UNL A   1      42.070  32.396  30.373  1.00  0.00     0.031 C 
ATOM     77  C   UNL A   1      44.493  32.286  29.877  1.00  0.00     0.034 A 
BRANCH  64  78
ATOM     78  C   UNL A   1      48.928  28.565  27.659  1.00  0.00     0.023 A 
ATOM     79  C   UNL A   1      49.417  28.747  26.353  1.00  0.00     0.031 A 
ATOM     80  C   UNL A   1      49.846  28.197  28.659  1.00  0.00     0.131 A 
ATOM     81  C   UNL A   1      50.770  28.503  26.071  1.00  0.00     0.055 A 
ATOM     82  C   UNL A   1      51.205  28.033  28.387  1.00  0.00     0.041 A 
ATOM     83  F   UNL A   1      49.435  27.987  29.920  1.00  0.00    -0.206 F 
ATOM     84  C   UNL A   1      51.672  28.174  27.084  1.00  0.00     0.022 A 
BRANCH  81  85
ATOM     85  S   UNL A   1      51.305  28.501  24.338  1.00  0.00     0.124 S 
ATOM     86  O   UNL A   1      50.078  28.101  23.652  1.00  0.00    -0.237 OA
ATOM     87  O   UNL A   1      51.729  29.881  24.136  1.00  0.00    -0.237 OA
ATOM     88  O   UNL A   1      52.377  27.508  24.313  1.00  0.00    -0.744 OA
ENDBRANCH  81  85
ENDBRANCH  64  78
BRANCH  65  89
ATOM     89  C   UNL A   1      39.165  29.386  29.823  1.00  0.00     0.023 A 
ATOM     90  C   UNL A   1      38.291  30.173  29.056  1.00  0.00     0.031 A 
ATOM     91  C   UNL A   1      38.659  28.800  30.997  1.00  0.00     0.131 A 
ATOM     92  C   UNL A   1      36.984  30.413  29.506  1.00  0.00     0.055 A 
ATOM     93  C   UNL A   1      37.336  28.984  31.403  1.00  0.00     0.041 A 
ATOM     94  F   UNL A   1      39.447  28.038  31.772  1.00  0.00    -0.206 F 
ATOM     95  C   UNL A   1      36.495  29.812  30.668  1.00  0.00     0.022 A 
BRANCH  92  96
ATOM     96  S   UNL A   1      35.975  31.636  28.624  1.00  0.00     0.124 S 
ATOM     97  O   UNL A   1      35.497  30.860  27.486  1.00  0.00    -0.237 OA
ATOM     98  O   UNL A   1      34.977  31.985  29.629  1.00  0.00    -0.237 OA
ATOM     99  O   UNL A   1      36.929  32.696  28.302  1.00  0.00    -0.744 OA
ENDBRANCH  92  96
ENDBRANCH  65  89
BRANCH  77 100
ATOM    100  C   UNL A   1      44.603  33.725  30.317  1.00  0.00     0.023 A 
ATOM    101  C   UNL A   1      44.405  34.792  29.425  1.00  0.00     0.031 A 
ATOM    102  C   UNL A   1      44.918  34.030  31.654  1.00  0.00     0.131 A 
ATOM    103  C   UNL A   1      44.581  36.113  29.865  1.00  0.00     0.055 A 
ATOM    104  C   UNL A   1      45.027  35.346  32.103  1.00  0.00     0.041 A 
ATOM    105  F   UNL A   1      45.120  33.049  32.549  1.00  0.00    -0.206 F 
ATOM    106  C   UNL A   1      44.873  36.397  31.203  1.00  0.00     0.022 A 
BRANCH 103 107
ATOM    107  S   UNL A   1      44.519  37.452  28.645  1.00  0.00     0.124 S 
ATOM    108  O   UNL A   1      43.583  38.384  29.263  1.00  0.00    -0.237 OA
ATOM    109  O   UNL A   1      45.910  37.889  28.590  1.00  0.00    -0.237 OA
ATOM    110  O   UNL A   1      44.030  36.792  27.435  1.00  0.00    -0.744 OA
ENDBRANCH 103 107
ENDBRANCH  77 100
ENDBRANCH  51  52
ENDBRANCH  43  46
ENDBRANCH  41  42
ENDBRANCH  40  41
ENDBRANCH   1  40
TORSDOF 17
ENDMDL
