MODEL 1
REMARK VINA RESULT:     -12.1      0.000      0.000
REMARK SMILES Cc1cc(OC(F)(F)F)cc2c1O[C@@H](C(F)(F)F)C(C(=O)NCCCCCCNC(=O)c1ccc(-c3c4nc(c(-c5cc(S(=O)(=O)[O-])ccc5F)c5ccc([nH]5)c(-c5cc(S(=O)(=O)[O-])ccc5F)c5nc(c(-c6cc(S(=O)(=O)[O-])ccc6F)c6ccc3[nH]6)C=C5)C=C4)cc1)=C2
REMARK SMILES IDX 26 1 25 2 24 3 23 4 22 5 20 6 21 7 19 9 1 10 2 11 3 12 12 13
REMARK SMILES IDX 4 14 11 15 13 16 10 17 95 18 14 19 5 20 6 21 7 22 8 23 9 24
REMARK SMILES IDX 15 25 16 26 17 27 18 28 27 29 28 30 29 31 30 32 31 34 32 35
REMARK SMILES IDX 33 36 94 37 34 38 93 39 35 40 36 41 37 42 87 43 38 44 92 45
REMARK SMILES IDX 86 46 88 47 39 48 91 49 85 50 84 51 40 53 72 54 52 55 71 56
REMARK SMILES IDX 53 57 56 58 70 59 89 60 54 61 55 62 69 64 90 65 57 66 41 67
REMARK SMILES IDX 42 68 50 69 43 70 49 71 51 72 48 73 44 74 45 75 46 76 47 77
REMARK SMILES IDX 73 78 74 79 82 80 75 81 81 82 83 83 80 84 76 85 77 86 78 87
REMARK SMILES IDX 79 88 58 89 59 90 67 91 60 92 66 93 68 94 65 95 61 96 62 97
REMARK SMILES IDX 63 98 64 99
REMARK H PARENT 22 8 29 33 88 52 56 63
REMARK Flexibility Score: inf
ROOT
ATOM      1  C   UNL A   1      31.790  30.331  26.118  1.00  0.00     0.002 C 
ENDROOT
BRANCH   1   2
ATOM      2  C   UNL A   1      32.045  29.341  27.262  1.00  0.00     0.002 C 
BRANCH   2   3
ATOM      3  C   UNL A   1      33.084  28.261  26.954  1.00  0.00     0.021 C 
BRANCH   3   4
ATOM      4  C   UNL A   1      34.123  28.693  25.923  1.00  0.00     0.116 C 
BRANCH   4   5
ATOM      5  N   UNL A   1      34.294  27.685  24.891  1.00  0.00    -0.352 N 
ATOM      6  C   UNL A   1      33.513  27.042  23.993  1.00  0.00     0.251 C 
ATOM      7  O   UNL A   1      34.105  26.235  23.266  1.00  0.00    -0.270 OA
ATOM      8  H   UNL A   1      35.230  27.389  24.829  1.00  0.00     0.163 HD
BRANCH   6   9
ATOM      9  C   UNL A   1      32.041  27.239  23.828  1.00  0.00     0.067 C 
ATOM     10  C   UNL A   1      26.933  27.018  23.906  1.00  0.00     0.048 C 
ATOM     11  C   UNL A   1      27.937  27.973  23.322  1.00  0.00    -0.005 A 
ATOM     12  C   UNL A   1      27.524  29.056  22.536  1.00  0.00     0.054 A 
ATOM     13  C   UNL A   1      29.305  27.773  23.536  1.00  0.00     0.131 A 
ATOM     14  C   UNL A   1      28.463  29.931  21.981  1.00  0.00     0.130 A 
ATOM     15  C   UNL A   1      30.255  28.622  22.972  1.00  0.00     0.021 A 
ATOM     16  O   UNL A   1      29.650  26.741  24.357  1.00  0.00    -0.475 OA
ATOM     17  C   UNL A   1      29.827  29.703  22.197  1.00  0.00     0.058 A 
ATOM     18  C   UNL A   1      31.672  28.381  23.219  1.00  0.00     0.025 C 
ATOM     19  C   UNL A   1      31.002  26.237  24.251  1.00  0.00     0.314 C 
BRANCH  14  20
ATOM     20  O   UNL A   1      28.186  31.029  21.216  1.00  0.00    -0.406 OA
BRANCH  20  21
ATOM     21  C   UNL A   1      28.128  32.285  21.871  1.00  0.00     0.573 C 
ATOM     22  F   UNL A   1      27.489  33.201  21.113  1.00  0.00    -0.132 F 
ATOM     23  F   UNL A   1      27.522  32.185  23.073  1.00  0.00    -0.132 F 
ATOM     24  F   UNL A   1      29.391  32.722  22.077  1.00  0.00    -0.132 F 
ENDBRANCH  20  21
ENDBRANCH  14  20
BRANCH  19  25
ATOM     25  C   UNL A   1      30.999  24.955  23.399  1.00  0.00     0.429 C 
ATOM     26  F   UNL A   1      29.741  24.462  23.284  1.00  0.00    -0.167 F 
ATOM     27  F   UNL A   1      31.466  25.160  22.144  1.00  0.00    -0.167 F 
ATOM     28  F   UNL A   1      31.756  23.968  23.933  1.00  0.00    -0.167 F 
ENDBRANCH  19  25
ENDBRANCH   6   9
ENDBRANCH   4   5
ENDBRANCH   3   4
ENDBRANCH   2   3
ENDBRANCH   1   2
BRANCH   1  29
ATOM     29  C   UNL A   1      31.613  31.789  26.551  1.00  0.00     0.021 C 
BRANCH  29  30
ATOM     30  C   UNL A   1      32.828  32.374  27.265  1.00  0.00     0.116 C 
BRANCH  30  31
ATOM     31  N   UNL A   1      32.612  33.774  27.595  1.00  0.00    -0.352 N 
ATOM     32  C   UNL A   1      33.156  34.500  28.624  1.00  0.00     0.251 C 
ATOM     33  H   UNL A   1      31.999  34.263  27.002  1.00  0.00     0.163 HD
ATOM     34  O   UNL A   1      32.666  35.575  28.955  1.00  0.00    -0.269 OA
BRANCH  32  35
ATOM     35  C   UNL A   1      34.342  33.971  29.322  1.00  0.00     0.039 A 
ATOM     36  C   UNL A   1      35.617  34.328  28.879  1.00  0.00     0.014 A 
ATOM     37  C   UNL A   1      34.178  33.104  30.407  1.00  0.00     0.014 A 
ATOM     38  C   UNL A   1      36.738  33.834  29.548  1.00  0.00     0.010 A 
ATOM     39  C   UNL A   1      35.293  32.657  31.105  1.00  0.00     0.010 A 
ATOM     40  C   UNL A   1      36.580  33.000  30.666  1.00  0.00    -0.014 A 
BRANCH  40  41
ATOM     41  C   UNL A   1      37.747  32.403  31.355  1.00  0.00     0.031 A 
ATOM     42  C   UNL A   1      38.461  31.249  30.712  1.00  0.00     0.074 A 
ATOM     43  C   UNL A   1      38.117  32.847  32.570  1.00  0.00     0.049 A 
ATOM     44  N   UNL A   1      39.444  30.528  31.179  1.00  0.00    -0.248 NA
ATOM     45  C   UNL A   1      37.995  30.841  29.375  1.00  0.00     0.031 C 
ATOM     46  C   UNL A   1      37.479  33.945  33.294  1.00  0.00     0.029 A 
ATOM     47  N   UNL A   1      39.106  32.415  33.418  1.00  0.00    -0.354 N 
ATOM     48  C   UNL A   1      39.709  29.579  30.201  1.00  0.00     0.074 A 
ATOM     49  C   UNL A   1      38.753  29.780  29.137  1.00  0.00     0.031 C 
ATOM     50  C   UNL A   1      38.092  34.102  34.478  1.00  0.00     0.029 A 
ATOM     51  C   UNL A   1      39.142  33.092  34.614  1.00  0.00     0.049 A 
ATOM     52  H   UNL A   1      39.730  31.688  33.192  1.00  0.00     0.167 HD
ATOM     53  C   UNL A   1      40.680  28.638  30.186  1.00  0.00     0.034 A 
ATOM     54  C   UNL A   1      39.921  32.910  35.701  1.00  0.00     0.034 A 
ATOM     55  C   UNL A   1      41.640  28.463  31.242  1.00  0.00     0.049 A 
ATOM     56  C   UNL A   1      40.980  31.837  35.672  1.00  0.00     0.074 A 
ATOM     57  C   UNL A   1      42.701  27.579  31.289  1.00  0.00     0.029 A 
ATOM     58  N   UNL A   1      41.659  29.180  32.429  1.00  0.00    -0.354 N 
ATOM     59  N   UNL A   1      41.279  31.003  34.703  1.00  0.00    -0.248 NA
ATOM     60  C   UNL A   1      41.812  31.678  36.873  1.00  0.00     0.031 C 
ATOM     61  C   UNL A   1      43.324  27.716  32.528  1.00  0.00     0.029 A 
ATOM     62  C   UNL A   1      42.695  28.732  33.229  1.00  0.00     0.049 A 
ATOM     63  H   UNL A   1      41.029  29.898  32.666  1.00  0.00     0.167 HD
ATOM     64  C   UNL A   1      42.348  30.242  35.167  1.00  0.00     0.074 A 
ATOM     65  C   UNL A   1      42.653  30.722  36.498  1.00  0.00     0.031 C 
ATOM     66  C   UNL A   1      43.010  29.236  34.545  1.00  0.00     0.034 A 
BRANCH  53  67
ATOM     67  C   UNL A   1      40.789  27.734  28.988  1.00  0.00     0.023 A 
ATOM     68  C   UNL A   1      41.710  28.032  27.967  1.00  0.00     0.031 A 
ATOM     69  C   UNL A   1      39.896  26.667  28.796  1.00  0.00     0.131 A 
ATOM     70  C   UNL A   1      41.687  27.293  26.780  1.00  0.00     0.055 A 
ATOM     71  C   UNL A   1      39.904  25.908  27.626  1.00  0.00     0.041 A 
ATOM     72  F   UNL A   1      39.004  26.345  29.747  1.00  0.00    -0.206 F 
ATOM     73  C   UNL A   1      40.794  26.230  26.605  1.00  0.00     0.022 A 
BRANCH  70  74
ATOM     74  S   UNL A   1      42.782  27.716  25.398  1.00  0.00     0.124 S 
ATOM     75  O   UNL A   1      42.859  26.447  24.674  1.00  0.00    -0.237 OA
ATOM     76  O   UNL A   1      42.029  28.772  24.727  1.00  0.00    -0.237 OA
ATOM     77  O   UNL A   1      44.020  28.133  26.046  1.00  0.00    -0.744 OA
ENDBRANCH  70  74
ENDBRANCH  53  67
BRANCH  54  78
ATOM     78  C   UNL A   1      39.743  33.808  36.876  1.00  0.00     0.023 A 
ATOM     79  C   UNL A   1      40.632  34.871  37.117  1.00  0.00     0.031 A 
ATOM     80  C   UNL A   1      38.744  33.550  37.829  1.00  0.00     0.131 A 
ATOM     81  C   UNL A   1      40.542  35.596  38.312  1.00  0.00     0.055 A 
ATOM     82  C   UNL A   1      38.619  34.316  38.990  1.00  0.00     0.041 A 
ATOM     83  F   UNL A   1      37.879  32.541  37.645  1.00  0.00    -0.206 F 
ATOM     84  C   UNL A   1      39.531  35.337  39.243  1.00  0.00     0.022 A 
BRANCH  81  85
ATOM     85  S   UNL A   1      41.795  36.835  38.744  1.00  0.00     0.124 S 
ATOM     86  O   UNL A   1      40.976  37.971  39.158  1.00  0.00    -0.237 OA
ATOM     87  O   UNL A   1      42.524  36.158  39.813  1.00  0.00    -0.237 OA
ATOM     88  O   UNL A   1      42.541  37.019  37.502  1.00  0.00    -0.744 OA
ENDBRANCH  81  85
ENDBRANCH  54  78
BRANCH  66  89
ATOM     89  C   UNL A   1      44.153  28.559  35.258  1.00  0.00     0.023 A 
ATOM     90  C   UNL A   1      43.892  27.490  36.138  1.00  0.00     0.031 A 
ATOM     91  C   UNL A   1      45.449  29.098  35.228  1.00  0.00     0.131 A 
ATOM     92  C   UNL A   1      44.898  27.037  36.998  1.00  0.00     0.055 A 
ATOM     93  C   UNL A   1      46.462  28.610  36.054  1.00  0.00     0.041 A 
ATOM     94  F   UNL A   1      45.741  30.124  34.412  1.00  0.00    -0.206 F 
ATOM     95  C   UNL A   1      46.184  27.586  36.956  1.00  0.00     0.022 A 
BRANCH  92  96
ATOM     96  S   UNL A   1      44.553  25.777  38.256  1.00  0.00     0.124 S 
ATOM     97  O   UNL A   1      45.897  25.340  38.628  1.00  0.00    -0.237 OA
ATOM     98  O   UNL A   1      43.843  26.547  39.273  1.00  0.00    -0.237 OA
ATOM     99  O   UNL A   1      43.754  24.781  37.548  1.00  0.00    -0.744 OA
ENDBRANCH  92  96
ENDBRANCH  66  89
ENDBRANCH  40  41
ENDBRANCH  32  35
ENDBRANCH  30  31
ENDBRANCH  29  30
ENDBRANCH   1  29
TORSDOF 19
ENDMDL
MODEL 2
REMARK VINA RESULT:     -11.8      3.820      9.443
REMARK SMILES Cc1cc(OC(F)(F)F)cc2c1O[C@@H](C(F)(F)F)C(C(=O)NCCCCCCNC(=O)c1ccc(-c3c4nc(c(-c5cc(S(=O)(=O)[O-])ccc5F)c5ccc([nH]5)c(-c5cc(S(=O)(=O)[O-])ccc5F)c5nc(c(-c6cc(S(=O)(=O)[O-])ccc6F)c6ccc3[nH]6)C=C5)C=C4)cc1)=C2
REMARK SMILES IDX 26 1 25 2 24 3 23 4 22 5 20 6 21 7 19 9 1 10 2 11 3 12 12 13
REMARK SMILES IDX 4 14 11 15 13 16 10 17 95 18 14 19 5 20 6 21 7 22 8 23 9 24
REMARK SMILES IDX 15 25 16 26 17 27 18 28 27 29 28 30 29 31 30 32 31 34 32 35
REMARK SMILES IDX 33 36 94 37 34 38 93 39 35 40 36 41 37 42 87 43 38 44 92 45
REMARK SMILES IDX 86 46 88 47 39 48 91 49 85 50 84 51 40 53 72 54 52 55 71 56
REMARK SMILES IDX 53 57 56 58 70 59 89 60 54 61 55 62 69 64 90 65 57 66 41 67
REMARK SMILES IDX 42 68 50 69 43 70 49 71 51 72 48 73 44 74 45 75 46 76 47 77
REMARK SMILES IDX 73 78 74 79 82 80 75 81 81 82 83 83 80 84 76 85 77 86 78 87
REMARK SMILES IDX 79 88 58 89 59 90 67 91 60 92 66 93 68 94 65 95 61 96 62 97
REMARK SMILES IDX 63 98 64 99
REMARK H PARENT 22 8 29 33 88 52 56 63
REMARK Flexibility Score: inf
ROOT
ATOM      1  C   UNL A   1      31.398  28.293  24.465  1.00  0.00     0.002 C 
ENDROOT
BRANCH   1   2
ATOM      2  C   UNL A   1      30.289  27.264  24.209  1.00  0.00     0.002 C 
BRANCH   2   3
ATOM      3  C   UNL A   1      30.644  26.179  23.191  1.00  0.00     0.021 C 
BRANCH   3   4
ATOM      4  C   UNL A   1      30.365  24.764  23.689  1.00  0.00     0.116 C 
BRANCH   4   5
ATOM      5  N   UNL A   1      30.425  24.692  25.139  1.00  0.00    -0.352 N 
ATOM      6  C   UNL A   1      31.171  24.057  26.071  1.00  0.00     0.251 C 
ATOM      7  O   UNL A   1      30.871  24.310  27.244  1.00  0.00    -0.270 OA
ATOM      8  H   UNL A   1      29.737  25.258  25.555  1.00  0.00     0.163 HD
BRANCH   6   9
ATOM      9  C   UNL A   1      32.290  23.108  25.785  1.00  0.00     0.067 C 
ATOM     10  C   UNL A   1      36.754  20.704  25.124  1.00  0.00     0.048 C 
ATOM     11  C   UNL A   1      35.311  20.299  25.002  1.00  0.00    -0.005 A 
ATOM     12  C   UNL A   1      34.962  19.021  24.545  1.00  0.00     0.054 A 
ATOM     13  C   UNL A   1      34.296  21.207  25.320  1.00  0.00     0.131 A 
ATOM     14  C   UNL A   1      33.618  18.656  24.417  1.00  0.00     0.130 A 
ATOM     15  C   UNL A   1      32.952  20.866  25.177  1.00  0.00     0.021 A 
ATOM     16  O   UNL A   1      34.690  22.414  25.817  1.00  0.00    -0.475 OA
ATOM     17  C   UNL A   1      32.619  19.586  24.727  1.00  0.00     0.058 A 
ATOM     18  C   UNL A   1      31.923  21.841  25.519  1.00  0.00     0.025 C 
ATOM     19  C   UNL A   1      33.741  23.502  25.736  1.00  0.00     0.314 C 
BRANCH  14  20
ATOM     20  O   UNL A   1      33.151  17.440  24.002  1.00  0.00    -0.406 OA
BRANCH  20  21
ATOM     21  C   UNL A   1      33.423  16.319  24.826  1.00  0.00     0.573 C 
ATOM     22  F   UNL A   1      33.437  16.666  26.131  1.00  0.00    -0.132 F 
ATOM     23  F   UNL A   1      32.525  15.332  24.627  1.00  0.00    -0.132 F 
ATOM     24  F   UNL A   1      34.647  15.840  24.510  1.00  0.00    -0.132 F 
ENDBRANCH  20  21
ENDBRANCH  14  20
BRANCH  19  25
ATOM     25  C   UNL A   1      34.096  24.397  24.535  1.00  0.00     0.429 C 
ATOM     26  F   UNL A   1      35.441  24.488  24.389  1.00  0.00    -0.167 F 
ATOM     27  F   UNL A   1      33.596  23.926  23.367  1.00  0.00    -0.167 F 
ATOM     28  F   UNL A   1      33.633  25.662  24.667  1.00  0.00    -0.167 F 
ENDBRANCH  19  25
ENDBRANCH   6   9
ENDBRANCH   4   5
ENDBRANCH   3   4
ENDBRANCH   2   3
ENDBRANCH   1   2
BRANCH   1  29
ATOM     29  C   UNL A   1      31.968  28.289  25.886  1.00  0.00     0.021 C 
BRANCH  29  30
ATOM     30  C   UNL A   1      33.277  29.061  26.030  1.00  0.00     0.116 C 
BRANCH  30  31
ATOM     31  N   UNL A   1      33.025  30.481  26.212  1.00  0.00    -0.352 N 
ATOM     32  C   UNL A   1      33.570  31.331  27.141  1.00  0.00     0.251 C 
ATOM     33  H   UNL A   1      32.381  30.885  25.587  1.00  0.00     0.163 HD
ATOM     34  O   UNL A   1      33.055  32.421  27.366  1.00  0.00    -0.269 OA
BRANCH  32  35
ATOM     35  C   UNL A   1      34.789  30.916  27.859  1.00  0.00     0.039 A 
ATOM     36  C   UNL A   1      35.916  31.741  27.836  1.00  0.00     0.014 A 
ATOM     37  C   UNL A   1      34.811  29.694  28.539  1.00  0.00     0.014 A 
ATOM     38  C   UNL A   1      37.065  31.351  28.525  1.00  0.00     0.010 A 
ATOM     39  C   UNL A   1      35.936  29.333  29.269  1.00  0.00     0.010 A 
ATOM     40  C   UNL A   1      37.078  30.147  29.247  1.00  0.00    -0.014 A 
BRANCH  40  41
ATOM     41  C   UNL A   1      38.302  29.670  29.930  1.00  0.00     0.031 A 
ATOM     42  C   UNL A   1      38.661  30.247  31.269  1.00  0.00     0.074 A 
ATOM     43  C   UNL A   1      39.114  28.783  29.326  1.00  0.00     0.049 A 
ATOM     44  N   UNL A   1      39.725  30.036  31.997  1.00  0.00    -0.248 NA
ATOM     45  C   UNL A   1      37.706  31.201  31.860  1.00  0.00     0.031 C 
ATOM     46  C   UNL A   1      38.872  28.178  28.018  1.00  0.00     0.029 A 
ATOM     47  N   UNL A   1      40.315  28.253  29.725  1.00  0.00    -0.354 N 
ATOM     48  C   UNL A   1      39.573  30.834  33.122  1.00  0.00     0.074 A 
ATOM     49  C   UNL A   1      38.341  31.572  32.962  1.00  0.00     0.031 C 
ATOM     50  C   UNL A   1      39.892  27.358  27.720  1.00  0.00     0.029 A 
ATOM     51  C   UNL A   1      40.880  27.408  28.799  1.00  0.00     0.049 A 
ATOM     52  H   UNL A   1      40.734  28.459  30.592  1.00  0.00     0.167 HD
ATOM     53  C   UNL A   1      40.380  30.923  34.203  1.00  0.00     0.034 A 
ATOM     54  C   UNL A   1      42.063  26.760  28.811  1.00  0.00     0.034 A 
ATOM     55  C   UNL A   1      41.591  30.165  34.361  1.00  0.00     0.049 A 
ATOM     56  C   UNL A   1      42.960  26.895  30.017  1.00  0.00     0.074 A 
ATOM     57  C   UNL A   1      42.444  30.141  35.448  1.00  0.00     0.029 A 
ATOM     58  N   UNL A   1      42.122  29.305  33.412  1.00  0.00    -0.354 N 
ATOM     59  N   UNL A   1      42.762  27.584  31.116  1.00  0.00    -0.248 NA
ATOM     60  C   UNL A   1      44.236  26.166  29.992  1.00  0.00     0.031 C 
ATOM     61  C   UNL A   1      43.521  29.314  35.134  1.00  0.00     0.029 A 
ATOM     62  C   UNL A   1      43.309  28.769  33.878  1.00  0.00     0.049 A 
ATOM     63  H   UNL A   1      41.715  29.106  32.538  1.00  0.00     0.167 HD
ATOM     64  C   UNL A   1      43.872  27.350  31.922  1.00  0.00     0.074 A 
ATOM     65  C   UNL A   1      44.733  26.446  31.191  1.00  0.00     0.031 C 
ATOM     66  C   UNL A   1      44.149  27.845  33.153  1.00  0.00     0.034 A 
BRANCH  53  67
ATOM     67  C   UNL A   1      39.984  31.845  35.325  1.00  0.00     0.023 A 
ATOM     68  C   UNL A   1      39.107  31.392  36.327  1.00  0.00     0.031 A 
ATOM     69  C   UNL A   1      40.362  33.198  35.325  1.00  0.00     0.131 A 
ATOM     70  C   UNL A   1      38.604  32.298  37.266  1.00  0.00     0.055 A 
ATOM     71  C   UNL A   1      39.888  34.089  36.288  1.00  0.00     0.041 A 
ATOM     72  F   UNL A   1      41.201  33.671  34.389  1.00  0.00    -0.206 F 
ATOM     73  C   UNL A   1      38.994  33.643  37.257  1.00  0.00     0.022 A 
BRANCH  70  74
ATOM     74  S   UNL A   1      37.388  31.778  38.506  1.00  0.00     0.124 S 
ATOM     75  O   UNL A   1      36.284  32.702  38.253  1.00  0.00    -0.237 OA
ATOM     76  O   UNL A   1      37.141  30.391  38.125  1.00  0.00    -0.237 OA
ATOM     77  O   UNL A   1      38.077  31.974  39.777  1.00  0.00    -0.744 OA
ENDBRANCH  70  74
ENDBRANCH  53  67
BRANCH  54  78
ATOM     78  C   UNL A   1      42.424  25.892  27.656  1.00  0.00     0.023 A 
ATOM     79  C   UNL A   1      41.958  24.567  27.571  1.00  0.00     0.031 A 
ATOM     80  C   UNL A   1      43.323  26.343  26.675  1.00  0.00     0.131 A 
ATOM     81  C   UNL A   1      42.443  23.722  26.564  1.00  0.00     0.055 A 
ATOM     82  C   UNL A   1      43.755  25.515  25.636  1.00  0.00     0.041 A 
ATOM     83  F   UNL A   1      43.800  27.596  26.721  1.00  0.00    -0.206 F 
ATOM     84  C   UNL A   1      43.325  24.192  25.586  1.00  0.00     0.022 A 
BRANCH  81  85
ATOM     85  S   UNL A   1      42.020  21.958  26.549  1.00  0.00     0.124 S 
ATOM     86  O   UNL A   1      40.567  21.990  26.413  1.00  0.00    -0.237 OA
ATOM     87  O   UNL A   1      42.754  21.489  25.377  1.00  0.00    -0.237 OA
ATOM     88  O   UNL A   1      42.520  21.472  27.832  1.00  0.00    -0.744 OA
ENDBRANCH  81  85
ENDBRANCH  54  78
BRANCH  66  89
ATOM     89  C   UNL A   1      45.429  27.435  33.837  1.00  0.00     0.023 A 
ATOM     90  C   UNL A   1      45.435  26.319  34.696  1.00  0.00     0.031 A 
ATOM     91  C   UNL A   1      46.566  28.258  33.802  1.00  0.00     0.131 A 
ATOM     92  C   UNL A   1      46.534  26.092  35.533  1.00  0.00     0.055 A 
ATOM     93  C   UNL A   1      47.679  28.000  34.604  1.00  0.00     0.041 A 
ATOM     94  F   UNL A   1      46.601  29.339  33.005  1.00  0.00    -0.206 F 
ATOM     95  C   UNL A   1      47.658  26.923  35.486  1.00  0.00     0.022 A 
BRANCH  92  96
ATOM     96  S   UNL A   1      46.509  24.764  36.767  1.00  0.00     0.124 S 
ATOM     97  O   UNL A   1      45.649  25.328  37.805  1.00  0.00    -0.237 OA
ATOM     98  O   UNL A   1      45.932  23.656  36.012  1.00  0.00    -0.237 OA
ATOM     99  O   UNL A   1      47.910  24.607  37.145  1.00  0.00    -0.744 OA
ENDBRANCH  92  96
ENDBRANCH  66  89
ENDBRANCH  40  41
ENDBRANCH  32  35
ENDBRANCH  30  31
ENDBRANCH  29  30
ENDBRANCH   1  29
TORSDOF 19
ENDMDL
MODEL 3
REMARK VINA RESULT:     -11.7      6.130     10.714
REMARK SMILES Cc1cc(OC(F)(F)F)cc2c1O[C@@H](C(F)(F)F)C(C(=O)NCCCCCCNC(=O)c1ccc(-c3c4nc(c(-c5cc(S(=O)(=O)[O-])ccc5F)c5ccc([nH]5)c(-c5cc(S(=O)(=O)[O-])ccc5F)c5nc(c(-c6cc(S(=O)(=O)[O-])ccc6F)c6ccc3[nH]6)C=C5)C=C4)cc1)=C2
REMARK SMILES IDX 26 1 25 2 24 3 23 4 22 5 20 6 21 7 19 9 1 10 2 11 3 12 12 13
REMARK SMILES IDX 4 14 11 15 13 16 10 17 95 18 14 19 5 20 6 21 7 22 8 23 9 24
REMARK SMILES IDX 15 25 16 26 17 27 18 28 27 29 28 30 29 31 30 32 31 34 32 35
REMARK SMILES IDX 33 36 94 37 34 38 93 39 35 40 36 41 37 42 87 43 38 44 92 45
REMARK SMILES IDX 86 46 88 47 39 48 91 49 85 50 84 51 40 53 72 54 52 55 71 56
REMARK SMILES IDX 53 57 56 58 70 59 89 60 54 61 55 62 69 64 90 65 57 66 41 67
REMARK SMILES IDX 42 68 50 69 43 70 49 71 51 72 48 73 44 74 45 75 46 76 47 77
REMARK SMILES IDX 73 78 74 79 82 80 75 81 81 82 83 83 80 84 76 85 77 86 78 87
REMARK SMILES IDX 79 88 58 89 59 90 67 91 60 92 66 93 68 94 65 95 61 96 62 97
REMARK SMILES IDX 63 98 64 99
REMARK H PARENT 22 8 29 33 88 52 56 63
REMARK Flexibility Score: inf
ROOT
ATOM      1  C   UNL A   1      36.800  19.511  24.990  1.00  0.00     0.002 C 
ENDROOT
BRANCH   1   2
ATOM      2  C   UNL A   1      35.697  20.577  24.960  1.00  0.00     0.002 C 
BRANCH   2   3
ATOM      3  C   UNL A   1      36.162  21.968  24.524  1.00  0.00     0.021 C 
BRANCH   3   4
ATOM      4  C   UNL A   1      35.987  23.033  25.603  1.00  0.00     0.116 C 
BRANCH   4   5
ATOM      5  N   UNL A   1      35.059  22.595  26.632  1.00  0.00    -0.352 N 
ATOM      6  C   UNL A   1      33.783  22.858  26.995  1.00  0.00     0.251 C 
ATOM      7  O   UNL A   1      33.373  22.217  27.969  1.00  0.00    -0.270 OA
ATOM      8  H   UNL A   1      35.471  21.928  27.226  1.00  0.00     0.163 HD
BRANCH   6   9
ATOM      9  C   UNL A   1      32.875  23.834  26.320  1.00  0.00     0.067 C 
ATOM     10  C   UNL A   1      29.150  26.281  23.814  1.00  0.00     0.048 C 
ATOM     11  C   UNL A   1      30.402  26.715  24.526  1.00  0.00    -0.005 A 
ATOM     12  C   UNL A   1      30.799  28.058  24.524  1.00  0.00     0.054 A 
ATOM     13  C   UNL A   1      31.201  25.772  25.180  1.00  0.00     0.131 A 
ATOM     14  C   UNL A   1      31.973  28.453  25.173  1.00  0.00     0.130 A 
ATOM     15  C   UNL A   1      32.385  26.145  25.813  1.00  0.00     0.021 A 
ATOM     16  O   UNL A   1      30.737  24.490  25.204  1.00  0.00    -0.475 OA
ATOM     17  C   UNL A   1      32.765  27.489  25.809  1.00  0.00     0.058 A 
ATOM     18  C   UNL A   1      33.191  25.132  26.485  1.00  0.00     0.025 C 
ATOM     19  C   UNL A   1      31.703  23.444  25.462  1.00  0.00     0.314 C 
BRANCH  14  20
ATOM     20  O   UNL A   1      32.456  29.728  25.258  1.00  0.00    -0.406 OA
BRANCH  20  21
ATOM     21  C   UNL A   1      31.933  30.559  26.280  1.00  0.00     0.573 C 
ATOM     22  F   UNL A   1      31.041  31.442  25.783  1.00  0.00    -0.132 F 
ATOM     23  F   UNL A   1      31.356  29.831  27.259  1.00  0.00    -0.132 F 
ATOM     24  F   UNL A   1      32.952  31.261  26.828  1.00  0.00    -0.132 F 
ENDBRANCH  20  21
ENDBRANCH  14  20
BRANCH  19  25
ATOM     25  C   UNL A   1      32.107  22.787  24.129  1.00  0.00     0.429 C 
ATOM     26  F   UNL A   1      33.237  23.356  23.640  1.00  0.00    -0.167 F 
ATOM     27  F   UNL A   1      32.346  21.460  24.251  1.00  0.00    -0.167 F 
ATOM     28  F   UNL A   1      31.160  22.920  23.171  1.00  0.00    -0.167 F 
ENDBRANCH  19  25
ENDBRANCH   6   9
ENDBRANCH   4   5
ENDBRANCH   3   4
ENDBRANCH   2   3
ENDBRANCH   1   2
BRANCH   1  29
ATOM     29  C   UNL A   1      38.212  20.033  24.716  1.00  0.00     0.021 C 
BRANCH  29  30
ATOM     30  C   UNL A   1      39.054  20.233  25.973  1.00  0.00     0.116 C 
BRANCH  30  31
ATOM     31  N   UNL A   1      40.148  19.277  26.024  1.00  0.00    -0.352 N 
ATOM     32  C   UNL A   1      41.496  19.527  26.083  1.00  0.00     0.251 C 
ATOM     33  H   UNL A   1      39.888  18.328  26.017  1.00  0.00     0.163 HD
ATOM     34  O   UNL A   1      42.305  18.642  25.826  1.00  0.00    -0.269 OA
BRANCH  32  35
ATOM     35  C   UNL A   1      41.955  20.875  26.465  1.00  0.00     0.039 A 
ATOM     36  C   UNL A   1      42.177  21.169  27.812  1.00  0.00     0.014 A 
ATOM     37  C   UNL A   1      42.146  21.848  25.479  1.00  0.00     0.014 A 
ATOM     38  C   UNL A   1      42.623  22.443  28.171  1.00  0.00     0.010 A 
ATOM     39  C   UNL A   1      42.641  23.097  25.832  1.00  0.00     0.010 A 
ATOM     40  C   UNL A   1      42.860  23.410  27.182  1.00  0.00    -0.014 A 
BRANCH  40  41
ATOM     41  C   UNL A   1      43.265  24.790  27.533  1.00  0.00     0.031 A 
ATOM     42  C   UNL A   1      42.232  25.738  28.070  1.00  0.00     0.074 A 
ATOM     43  C   UNL A   1      44.526  25.205  27.310  1.00  0.00     0.049 A 
ATOM     44  N   UNL A   1      42.350  27.006  28.358  1.00  0.00    -0.248 NA
ATOM     45  C   UNL A   1      40.881  25.192  28.296  1.00  0.00     0.031 C 
ATOM     46  C   UNL A   1      45.600  24.374  26.770  1.00  0.00     0.029 A 
ATOM     47  N   UNL A   1      45.108  26.434  27.489  1.00  0.00    -0.354 N 
ATOM     48  C   UNL A   1      41.094  27.411  28.789  1.00  0.00     0.074 A 
ATOM     49  C   UNL A   1      40.214  26.271  28.678  1.00  0.00     0.031 C 
ATOM     50  C   UNL A   1      46.713  25.116  26.663  1.00  0.00     0.029 A 
ATOM     51  C   UNL A   1      46.422  26.485  27.089  1.00  0.00     0.049 A 
ATOM     52  H   UNL A   1      44.630  27.207  27.867  1.00  0.00     0.167 HD
ATOM     53  C   UNL A   1      40.718  28.622  29.258  1.00  0.00     0.034 A 
ATOM     54  C   UNL A   1      47.289  27.519  27.055  1.00  0.00     0.034 A 
ATOM     55  C   UNL A   1      41.610  29.743  29.384  1.00  0.00     0.049 A 
ATOM     56  C   UNL A   1      46.839  28.869  27.558  1.00  0.00     0.074 A 
ATOM     57  C   UNL A   1      41.337  30.993  29.906  1.00  0.00     0.029 A 
ATOM     58  N   UNL A   1      42.939  29.753  28.988  1.00  0.00    -0.354 N 
ATOM     59  N   UNL A   1      45.672  29.216  28.047  1.00  0.00    -0.248 NA
ATOM     60  C   UNL A   1      47.816  29.965  27.511  1.00  0.00     0.031 C 
ATOM     61  C   UNL A   1      42.480  31.777  29.771  1.00  0.00     0.029 A 
ATOM     62  C   UNL A   1      43.488  30.999  29.225  1.00  0.00     0.049 A 
ATOM     63  H   UNL A   1      43.418  28.986  28.596  1.00  0.00     0.167 HD
ATOM     64  C   UNL A   1      45.783  30.560  28.391  1.00  0.00     0.074 A 
ATOM     65  C   UNL A   1      47.136  30.961  28.065  1.00  0.00     0.031 C 
ATOM     66  C   UNL A   1      44.847  31.383  28.923  1.00  0.00     0.034 A 
BRANCH  53  67
ATOM     67  C   UNL A   1      39.292  28.813  29.699  1.00  0.00     0.023 A 
ATOM     68  C   UNL A   1      38.378  29.464  28.852  1.00  0.00     0.031 A 
ATOM     69  C   UNL A   1      38.880  28.478  31.000  1.00  0.00     0.131 A 
ATOM     70  C   UNL A   1      37.107  29.796  29.331  1.00  0.00     0.055 A 
ATOM     71  C   UNL A   1      37.598  28.775  31.460  1.00  0.00     0.041 A 
ATOM     72  F   UNL A   1      39.719  27.851  31.841  1.00  0.00    -0.206 F 
ATOM     73  C   UNL A   1      36.708  29.450  30.628  1.00  0.00     0.022 A 
BRANCH  70  74
ATOM     74  S   UNL A   1      35.939  30.731  28.308  1.00  0.00     0.124 S 
ATOM     75  O   UNL A   1      36.790  31.791  27.769  1.00  0.00    -0.237 OA
ATOM     76  O   UNL A   1      35.507  29.724  27.343  1.00  0.00    -0.237 OA
ATOM     77  O   UNL A   1      34.923  31.178  29.255  1.00  0.00    -0.744 OA
ENDBRANCH  70  74
ENDBRANCH  53  67
BRANCH  54  78
ATOM     78  C   UNL A   1      48.677  27.284  26.569  1.00  0.00     0.023 A 
ATOM     79  C   UNL A   1      49.049  27.614  25.253  1.00  0.00     0.031 A 
ATOM     80  C   UNL A   1      49.619  26.633  27.382  1.00  0.00     0.131 A 
ATOM     81  C   UNL A   1      50.308  27.235  24.771  1.00  0.00     0.055 A 
ATOM     82  C   UNL A   1      50.896  26.312  26.916  1.00  0.00     0.041 A 
ATOM     83  F   UNL A   1      49.305  26.291  28.640  1.00  0.00    -0.206 F 
ATOM     84  C   UNL A   1      51.241  26.601  25.598  1.00  0.00     0.022 A 
BRANCH  81  85
ATOM     85  S   UNL A   1      50.742  27.463  23.024  1.00  0.00     0.124 S 
ATOM     86  O   UNL A   1      50.847  28.916  22.920  1.00  0.00    -0.237 OA
ATOM     87  O   UNL A   1      52.002  26.731  22.934  1.00  0.00    -0.237 OA
ATOM     88  O   UNL A   1      49.620  26.862  22.309  1.00  0.00    -0.744 OA
ENDBRANCH  81  85
ENDBRANCH  54  78
BRANCH  66  89
ATOM     89  C   UNL A   1      45.213  32.816  29.217  1.00  0.00     0.023 A 
ATOM     90  C   UNL A   1      45.015  33.803  28.232  1.00  0.00     0.031 A 
ATOM     91  C   UNL A   1      45.936  33.159  30.371  1.00  0.00     0.131 A 
ATOM     92  C   UNL A   1      45.590  35.069  28.392  1.00  0.00     0.055 A 
ATOM     93  C   UNL A   1      46.467  34.437  30.546  1.00  0.00     0.041 A 
ATOM     94  F   UNL A   1      46.158  32.247  31.332  1.00  0.00    -0.206 F 
ATOM     95  C   UNL A   1      46.309  35.394  29.546  1.00  0.00     0.022 A 
BRANCH  92  96
ATOM     96  S   UNL A   1      45.496  36.310  27.072  1.00  0.00     0.124 S 
ATOM     97  O   UNL A   1      44.099  36.208  26.657  1.00  0.00    -0.237 OA
ATOM     98  O   UNL A   1      45.850  37.536  27.780  1.00  0.00    -0.237 OA
ATOM     99  O   UNL A   1      46.468  35.849  26.086  1.00  0.00    -0.744 OA
ENDBRANCH  92  96
ENDBRANCH  66  89
ENDBRANCH  40  41
ENDBRANCH  32  35
ENDBRANCH  30  31
ENDBRANCH  29  30
ENDBRANCH   1  29
TORSDOF 19
ENDMDL
