MODEL 1
REMARK VINA RESULT:     -12.0      0.000      0.000
REMARK SMILES O=C(NCCCCCCNC(=O)[C@@H]1CCC(=O)N(CCCOC2CCCCC2)[C@H]1c1ccco1)c1ccc(-c2c3nc(c(-c4cc(S(=O)(=O)[O-])ccc4F)c4ccc([nH]4)c(-c4cc(S(=O)(=O)[O-])ccc4F)c4nc(c(-c5cc(S(=O)(=O)[O-])ccc5F)c5ccc2[nH]5)C=C4)C=C3)cc1
REMARK SMILES IDX 7 1 6 2 5 3 4 4 3 5 1 6 2 7 35 9 36 10 97 11 37 12 96 13
REMARK SMILES IDX 38 14 39 15 40 16 90 17 41 18 95 19 89 20 91 21 42 22 94 23
REMARK SMILES IDX 88 24 87 25 43 27 75 28 55 29 74 30 56 31 59 32 73 33 92 34
REMARK SMILES IDX 57 35 58 36 72 38 93 39 60 40 44 41 45 42 53 43 46 44 52 45
REMARK SMILES IDX 54 46 51 47 47 48 48 49 49 50 50 51 76 52 77 53 85 54 78 55
REMARK SMILES IDX 84 56 86 57 83 58 79 59 80 60 81 61 82 62 61 63 62 64 70 65
REMARK SMILES IDX 63 66 69 67 71 68 68 69 64 70 65 71 66 72 67 73 8 74 9 75
REMARK SMILES IDX 10 76 11 77 12 79 13 80 14 81 29 82 15 83 18 84 16 85 17 86
REMARK SMILES IDX 30 87 31 88 34 89 32 90 33 91 19 92 20 93 21 94 22 95 23 96
REMARK SMILES IDX 24 97 28 98 25 99 27 100 26 101
REMARK H PARENT 3 8 91 26 59 37 10 78
REMARK Flexibility Score: inf
ROOT
ATOM      1  C   UNL A   1      37.170  22.048  25.740  1.00  0.00     0.002 C 
ENDROOT
BRANCH   1   2
ATOM      2  C   UNL A   1      37.424  21.054  24.601  1.00  0.00     0.002 C 
BRANCH   2   3
ATOM      3  C   UNL A   1      38.328  19.874  24.964  1.00  0.00     0.021 C 
BRANCH   3   4
ATOM      4  C   UNL A   1      39.364  20.178  26.038  1.00  0.00     0.116 C 
BRANCH   4   5
ATOM      5  N   UNL A   1      40.451  19.213  26.032  1.00  0.00    -0.352 N 
ATOM      6  O   UNL A   1      42.602  18.555  25.821  1.00  0.00    -0.269 OA
ATOM      7  C   UNL A   1      41.800  19.459  26.040  1.00  0.00     0.251 C 
ATOM      8  H   UNL A   1      40.186  18.265  26.020  1.00  0.00     0.163 HD
BRANCH   7   9
ATOM      9  C   UNL A   1      42.269  20.833  26.305  1.00  0.00     0.039 A 
ATOM     10  C   UNL A   1      42.474  21.255  27.622  1.00  0.00     0.014 A 
ATOM     11  C   UNL A   1      42.473  21.711  25.239  1.00  0.00     0.014 A 
ATOM     12  C   UNL A   1      42.760  22.588  27.880  1.00  0.00     0.010 A 
ATOM     13  C   UNL A   1      42.857  23.029  25.499  1.00  0.00     0.010 A 
ATOM     14  C   UNL A   1      42.989  23.483  26.822  1.00  0.00    -0.014 A 
BRANCH  14  15
ATOM     15  C   UNL A   1      43.457  24.858  27.128  1.00  0.00     0.031 A 
ATOM     16  C   UNL A   1      42.529  25.894  27.694  1.00  0.00     0.074 A 
ATOM     17  C   UNL A   1      44.752  25.153  26.895  1.00  0.00     0.049 A 
ATOM     18  N   UNL A   1      42.777  27.144  27.994  1.00  0.00    -0.248 NA
ATOM     19  C   UNL A   1      41.141  25.480  27.944  1.00  0.00     0.031 C 
ATOM     20  C   UNL A   1      45.739  24.218  26.343  1.00  0.00     0.029 A 
ATOM     21  N   UNL A   1      45.468  26.303  27.101  1.00  0.00    -0.354 N 
ATOM     22  C   UNL A   1      41.576  27.674  28.454  1.00  0.00     0.074 A 
ATOM     23  C   UNL A   1      40.593  26.614  28.361  1.00  0.00     0.031 C 
ATOM     24  C   UNL A   1      46.936  24.817  26.298  1.00  0.00     0.029 A 
ATOM     25  C   UNL A   1      46.789  26.199  26.732  1.00  0.00     0.049 A 
ATOM     26  H   UNL A   1      45.075  27.123  27.477  1.00  0.00     0.167 HD
ATOM     27  C   UNL A   1      41.328  28.926  28.913  1.00  0.00     0.034 A 
ATOM     28  C   UNL A   1      47.770  27.122  26.711  1.00  0.00     0.034 A 
ATOM     29  C   UNL A   1      42.331  29.964  28.992  1.00  0.00     0.049 A 
ATOM     30  C   UNL A   1      47.453  28.515  27.178  1.00  0.00     0.074 A 
ATOM     31  C   UNL A   1      42.197  31.257  29.470  1.00  0.00     0.029 A 
ATOM     32  N   UNL A   1      43.650  29.838  28.570  1.00  0.00    -0.354 N 
ATOM     33  N   UNL A   1      46.316  28.996  27.625  1.00  0.00    -0.248 NA
ATOM     34  C   UNL A   1      48.549  29.488  27.140  1.00  0.00     0.031 C 
ATOM     35  C   UNL A   1      43.403  31.932  29.262  1.00  0.00     0.029 A 
ATOM     36  C   UNL A   1      44.325  31.039  28.741  1.00  0.00     0.049 A 
ATOM     37  H   UNL A   1      44.047  29.015  28.202  1.00  0.00     0.167 HD
ATOM     38  C   UNL A   1      46.568  30.325  27.945  1.00  0.00     0.074 A 
ATOM     39  C   UNL A   1      47.970  30.560  27.660  1.00  0.00     0.031 C 
ATOM     40  C   UNL A   1      45.719  31.265  28.433  1.00  0.00     0.034 A 
BRANCH  27  41
ATOM     41  C   UNL A   1      39.908  29.259  29.314  1.00  0.00     0.023 A 
ATOM     42  C   UNL A   1      39.519  29.375  30.660  1.00  0.00     0.031 A 
ATOM     43  C   UNL A   1      38.924  29.463  28.329  1.00  0.00     0.131 A 
ATOM     44  C   UNL A   1      38.174  29.623  30.983  1.00  0.00     0.055 A 
ATOM     45  C   UNL A   1      37.606  29.788  28.654  1.00  0.00     0.041 A 
ATOM     46  F   UNL A   1      39.228  29.344  27.025  1.00  0.00    -0.206 F 
ATOM     47  C   UNL A   1      37.222  29.856  29.989  1.00  0.00     0.022 A 
BRANCH  44  48
ATOM     48  S   UNL A   1      37.661  29.500  32.719  1.00  0.00     0.124 S 
ATOM     49  O   UNL A   1      38.790  30.119  33.408  1.00  0.00    -0.237 OA
ATOM     50  O   UNL A   1      36.413  30.253  32.734  1.00  0.00    -0.237 OA
ATOM     51  O   UNL A   1      37.524  28.061  32.936  1.00  0.00    -0.744 OA
ENDBRANCH  44  48
ENDBRANCH  27  41
BRANCH  28  52
ATOM     52  C   UNL A   1      49.119  26.766  26.188  1.00  0.00     0.023 A 
ATOM     53  C   UNL A   1      49.570  27.246  24.949  1.00  0.00     0.031 A 
ATOM     54  C   UNL A   1      49.974  25.916  26.915  1.00  0.00     0.131 A 
ATOM     55  C   UNL A   1      50.818  26.839  24.455  1.00  0.00     0.055 A 
ATOM     56  C   UNL A   1      51.240  25.566  26.449  1.00  0.00     0.041 A 
ATOM     57  F   UNL A   1      49.594  25.430  28.107  1.00  0.00    -0.206 F 
ATOM     58  C   UNL A   1      51.664  26.018  25.204  1.00  0.00     0.022 A 
BRANCH  55  59
ATOM     59  S   UNL A   1      51.286  27.327  22.772  1.00  0.00     0.124 S 
ATOM     60  O   UNL A   1      50.192  26.768  21.987  1.00  0.00    -0.237 OA
ATOM     61  O   UNL A   1      51.325  28.781  22.877  1.00  0.00    -0.237 OA
ATOM     62  O   UNL A   1      52.583  26.683  22.580  1.00  0.00    -0.744 OA
ENDBRANCH  55  59
ENDBRANCH  28  52
BRANCH  40  63
ATOM     63  C   UNL A   1      46.307  32.625  28.727  1.00  0.00     0.023 A 
ATOM     64  C   UNL A   1      46.327  33.649  27.764  1.00  0.00     0.031 A 
ATOM     65  C   UNL A   1      46.880  32.889  29.985  1.00  0.00     0.131 A 
ATOM     66  C   UNL A   1      46.964  34.866  28.052  1.00  0.00     0.055 A 
ATOM     67  C   UNL A   1      47.449  34.126  30.288  1.00  0.00     0.041 A 
ATOM     68  F   UNL A   1      46.896  31.947  30.941  1.00  0.00    -0.206 F 
ATOM     69  C   UNL A   1      47.507  35.118  29.313  1.00  0.00     0.022 A 
BRANCH  66  70
ATOM     70  S   UNL A   1      47.172  36.076  26.716  1.00  0.00     0.124 S 
ATOM     71  O   UNL A   1      45.874  36.742  26.706  1.00  0.00    -0.237 OA
ATOM     72  O   UNL A   1      48.297  36.875  27.191  1.00  0.00    -0.237 OA
ATOM     73  O   UNL A   1      47.453  35.248  25.545  1.00  0.00    -0.744 OA
ENDBRANCH  66  70
ENDBRANCH  40  63
ENDBRANCH  14  15
ENDBRANCH   7   9
ENDBRANCH   4   5
ENDBRANCH   3   4
ENDBRANCH   2   3
ENDBRANCH   1   2
BRANCH   1  74
ATOM     74  C   UNL A   1      36.964  23.492  25.279  1.00  0.00     0.021 C 
BRANCH  74  75
ATOM     75  C   UNL A   1      35.508  23.900  25.100  1.00  0.00     0.116 C 
BRANCH  75  76
ATOM     76  N   UNL A   1      34.984  23.633  23.780  1.00  0.00    -0.356 N 
ATOM     77  C   UNL A   1      34.072  24.295  23.025  1.00  0.00     0.225 C 
ATOM     78  H   UNL A   1      35.356  22.827  23.352  1.00  0.00     0.163 HD
ATOM     79  O   UNL A   1      33.939  23.886  21.863  1.00  0.00    -0.275 OA
BRANCH  77  80
ATOM     80  C   UNL A   1      33.153  25.427  23.515  1.00  0.00     0.109 C 
ATOM     81  C   UNL A   1      33.628  26.313  24.651  1.00  0.00     0.026 C 
ATOM     82  C   UNL A   1      31.726  24.936  23.713  1.00  0.00     0.164 C 
ATOM     83  C   UNL A   1      32.998  26.053  26.018  1.00  0.00     0.101 C 
ATOM     84  N   UNL A   1      31.493  24.322  25.014  1.00  0.00    -0.332 N 
ATOM     85  C   UNL A   1      31.972  24.930  26.166  1.00  0.00     0.223 C 
ATOM     86  O   UNL A   1      31.675  24.536  27.295  1.00  0.00    -0.275 OA
BRANCH  82  87
ATOM     87  C   UNL A   1      30.679  25.984  23.446  1.00  0.00     0.127 A 
ATOM     88  C   UNL A   1      29.405  26.178  23.950  1.00  0.00     0.048 A 
ATOM     89  O   UNL A   1      31.026  27.049  22.667  1.00  0.00    -0.467 OA
ATOM     90  C   UNL A   1      28.986  27.454  23.498  1.00  0.00     0.042 A 
ATOM     91  C   UNL A   1      30.011  27.943  22.723  1.00  0.00     0.195 A 
ENDBRANCH  82  87
BRANCH  84  92
ATOM     92  C   UNL A   1      30.708  23.075  25.120  1.00  0.00     0.122 C 
BRANCH  92  93
ATOM     93  C   UNL A   1      31.464  21.756  25.354  1.00  0.00     0.050 C 
BRANCH  93  94
ATOM     94  C   UNL A   1      32.482  21.287  24.303  1.00  0.00     0.162 C 
BRANCH  94  95
ATOM     95  O   UNL A   1      32.277  19.985  23.747  1.00  0.00    -0.378 OA
BRANCH  95  96
ATOM     96  C   UNL A   1      33.082  18.867  24.147  1.00  0.00     0.118 C 
ATOM     97  C   UNL A   1      32.719  18.236  25.491  1.00  0.00     0.032 C 
ATOM     98  C   UNL A   1      33.168  17.880  22.978  1.00  0.00     0.032 C 
ATOM     99  C   UNL A   1      33.379  16.899  25.785  1.00  0.00     0.003 C 
ATOM    100  C   UNL A   1      33.816  16.549  23.345  1.00  0.00     0.003 C 
ATOM    101  C   UNL A   1      33.200  15.961  24.603  1.00  0.00     0.000 C 
ENDBRANCH  95  96
ENDBRANCH  94  95
ENDBRANCH  93  94
ENDBRANCH  92  93
ENDBRANCH  84  92
ENDBRANCH  77  80
ENDBRANCH  75  76
ENDBRANCH  74  75
ENDBRANCH   1  74
TORSDOF 22
ENDMDL
MODEL 2
REMARK VINA RESULT:     -11.7      1.416      7.393
REMARK SMILES O=C(NCCCCCCNC(=O)[C@@H]1CCC(=O)N(CCCOC2CCCCC2)[C@H]1c1ccco1)c1ccc(-c2c3nc(c(-c4cc(S(=O)(=O)[O-])ccc4F)c4ccc([nH]4)c(-c4cc(S(=O)(=O)[O-])ccc4F)c4nc(c(-c5cc(S(=O)(=O)[O-])ccc5F)c5ccc2[nH]5)C=C4)C=C3)cc1
REMARK SMILES IDX 7 1 6 2 5 3 4 4 3 5 1 6 2 7 35 9 36 10 97 11 37 12 96 13
REMARK SMILES IDX 38 14 39 15 40 16 90 17 41 18 95 19 89 20 91 21 42 22 94 23
REMARK SMILES IDX 88 24 87 25 43 27 75 28 55 29 74 30 56 31 59 32 73 33 92 34
REMARK SMILES IDX 57 35 58 36 72 38 93 39 60 40 44 41 45 42 53 43 46 44 52 45
REMARK SMILES IDX 54 46 51 47 47 48 48 49 49 50 50 51 76 52 77 53 85 54 78 55
REMARK SMILES IDX 84 56 86 57 83 58 79 59 80 60 81 61 82 62 61 63 62 64 70 65
REMARK SMILES IDX 63 66 69 67 71 68 68 69 64 70 65 71 66 72 67 73 8 74 9 75
REMARK SMILES IDX 10 76 11 77 12 79 13 80 14 81 29 82 15 83 18 84 16 85 17 86
REMARK SMILES IDX 30 87 31 88 34 89 32 90 33 91 19 92 20 93 21 94 22 95 23 96
REMARK SMILES IDX 24 97 28 98 25 99 27 100 26 101
REMARK H PARENT 3 8 91 26 59 37 10 78
REMARK Flexibility Score: inf
ROOT
ATOM      1  C   UNL A   1      37.019  21.917  25.774  1.00  0.00     0.002 C 
ENDROOT
BRANCH   1   2
ATOM      2  C   UNL A   1      37.373  20.977  24.615  1.00  0.00     0.002 C 
BRANCH   2   3
ATOM      3  C   UNL A   1      38.247  19.782  25.001  1.00  0.00     0.021 C 
BRANCH   3   4
ATOM      4  C   UNL A   1      39.233  20.056  26.128  1.00  0.00     0.116 C 
BRANCH   4   5
ATOM      5  N   UNL A   1      40.410  19.206  26.040  1.00  0.00    -0.352 N 
ATOM      6  O   UNL A   1      42.609  18.780  25.754  1.00  0.00    -0.269 OA
ATOM      7  C   UNL A   1      41.727  19.584  26.046  1.00  0.00     0.251 C 
ATOM      8  H   UNL A   1      40.238  18.239  25.967  1.00  0.00     0.163 HD
BRANCH   7   9
ATOM      9  C   UNL A   1      42.065  20.977  26.398  1.00  0.00     0.039 A 
ATOM     10  C   UNL A   1      42.155  21.945  25.394  1.00  0.00     0.014 A 
ATOM     11  C   UNL A   1      42.324  21.309  27.729  1.00  0.00     0.014 A 
ATOM     12  C   UNL A   1      42.626  23.213  25.703  1.00  0.00     0.010 A 
ATOM     13  C   UNL A   1      42.703  22.614  28.051  1.00  0.00     0.010 A 
ATOM     14  C   UNL A   1      42.873  23.574  27.038  1.00  0.00    -0.014 A 
BRANCH  14  15
ATOM     15  C   UNL A   1      43.213  24.983  27.354  1.00  0.00     0.031 A 
ATOM     16  C   UNL A   1      44.591  25.529  27.115  1.00  0.00     0.074 A 
ATOM     17  C   UNL A   1      42.242  25.774  27.854  1.00  0.00     0.049 A 
ATOM     18  N   UNL A   1      45.054  26.729  27.359  1.00  0.00    -0.248 NA
ATOM     19  C   UNL A   1      45.583  24.609  26.542  1.00  0.00     0.031 C 
ATOM     20  C   UNL A   1      40.866  25.340  28.127  1.00  0.00     0.029 A 
ATOM     21  N   UNL A   1      42.245  27.097  28.207  1.00  0.00    -0.354 N 
ATOM     22  C   UNL A   1      46.393  26.708  26.984  1.00  0.00     0.074 A 
ATOM     23  C   UNL A   1      46.675  25.363  26.528  1.00  0.00     0.031 C 
ATOM     24  C   UNL A   1      40.152  26.387  28.560  1.00  0.00     0.029 A 
ATOM     25  C   UNL A   1      41.032  27.541  28.680  1.00  0.00     0.049 A 
ATOM     26  H   UNL A   1      43.039  27.674  28.130  1.00  0.00     0.167 HD
ATOM     27  C   UNL A   1      47.295  27.722  27.018  1.00  0.00     0.034 A 
ATOM     28  C   UNL A   1      40.671  28.736  29.188  1.00  0.00     0.034 A 
ATOM     29  C   UNL A   1      46.984  29.056  27.482  1.00  0.00     0.049 A 
ATOM     30  C   UNL A   1      41.705  29.825  29.259  1.00  0.00     0.074 A 
ATOM     31  C   UNL A   1      47.811  30.165  27.528  1.00  0.00     0.029 A 
ATOM     32  N   UNL A   1      45.757  29.460  27.994  1.00  0.00    -0.354 N 
ATOM     33  N   UNL A   1      42.963  29.794  28.886  1.00  0.00    -0.248 NA
ATOM     34  C   UNL A   1      41.270  31.109  29.817  1.00  0.00     0.031 C 
ATOM     35  C   UNL A   1      47.113  31.210  28.141  1.00  0.00     0.029 A 
ATOM     36  C   UNL A   1      45.818  30.788  28.394  1.00  0.00     0.049 A 
ATOM     37  H   UNL A   1      44.959  28.887  28.064  1.00  0.00     0.167 HD
ATOM     38  C   UNL A   1      43.465  31.064  29.143  1.00  0.00     0.074 A 
ATOM     39  C   UNL A   1      42.365  31.841  29.681  1.00  0.00     0.031 C 
ATOM     40  C   UNL A   1      44.719  31.546  28.948  1.00  0.00     0.034 A 
BRANCH  27  41
ATOM     41  C   UNL A   1      48.713  27.415  26.592  1.00  0.00     0.023 A 
ATOM     42  C   UNL A   1      49.187  27.711  25.301  1.00  0.00     0.031 A 
ATOM     43  C   UNL A   1      49.608  26.813  27.495  1.00  0.00     0.131 A 
ATOM     44  C   UNL A   1      50.493  27.350  24.932  1.00  0.00     0.055 A 
ATOM     45  C   UNL A   1      50.930  26.528  27.148  1.00  0.00     0.041 A 
ATOM     46  F   UNL A   1      49.210  26.484  28.735  1.00  0.00    -0.206 F 
ATOM     47  C   UNL A   1      51.375  26.784  25.855  1.00  0.00     0.022 A 
BRANCH  44  48
ATOM     48  S   UNL A   1      50.978  27.503  23.191  1.00  0.00     0.124 S 
ATOM     49  O   UNL A   1      49.952  26.705  22.525  1.00  0.00    -0.237 OA
ATOM     50  O   UNL A   1      50.912  28.942  22.969  1.00  0.00    -0.237 OA
ATOM     51  O   UNL A   1      52.322  26.927  23.157  1.00  0.00    -0.744 OA
ENDBRANCH  44  48
ENDBRANCH  27  41
BRANCH  28  52
ATOM     52  C   UNL A   1      39.290  28.940  29.707  1.00  0.00     0.023 A 
ATOM     53  C   UNL A   1      38.245  29.339  28.859  1.00  0.00     0.031 A 
ATOM     54  C   UNL A   1      38.998  28.760  31.073  1.00  0.00     0.131 A 
ATOM     55  C   UNL A   1      36.971  29.587  29.391  1.00  0.00     0.055 A 
ATOM     56  C   UNL A   1      37.715  28.946  31.585  1.00  0.00     0.041 A 
ATOM     57  F   UNL A   1      39.959  28.378  31.928  1.00  0.00    -0.206 F 
ATOM     58  C   UNL A   1      36.694  29.375  30.744  1.00  0.00     0.022 A 
BRANCH  55  59
ATOM     59  S   UNL A   1      35.696  30.280  28.303  1.00  0.00     0.124 S 
ATOM     60  O   UNL A   1      35.420  31.558  28.948  1.00  0.00    -0.237 OA
ATOM     61  O   UNL A   1      36.392  30.343  27.023  1.00  0.00    -0.237 OA
ATOM     62  O   UNL A   1      34.617  29.297  28.376  1.00  0.00    -0.744 OA
ENDBRANCH  55  59
ENDBRANCH  28  52
BRANCH  40  63
ATOM     63  C   UNL A   1      44.948  33.000  29.285  1.00  0.00     0.023 A 
ATOM     64  C   UNL A   1      44.762  34.020  28.335  1.00  0.00     0.031 A 
ATOM     65  C   UNL A   1      45.385  33.367  30.571  1.00  0.00     0.131 A 
ATOM     66  C   UNL A   1      45.074  35.348  28.665  1.00  0.00     0.055 A 
ATOM     67  C   UNL A   1      45.625  34.698  30.914  1.00  0.00     0.041 A 
ATOM     68  F   UNL A   1      45.587  32.436  31.517  1.00  0.00    -0.206 F 
ATOM     69  C   UNL A   1      45.485  35.696  29.954  1.00  0.00     0.022 A 
BRANCH  66  70
ATOM     70  S   UNL A   1      45.042  36.601  27.354  1.00  0.00     0.124 S 
ATOM     71  O   UNL A   1      46.057  36.101  26.432  1.00  0.00    -0.237 OA
ATOM     72  O   UNL A   1      43.662  36.528  26.885  1.00  0.00    -0.237 OA
ATOM     73  O   UNL A   1      45.394  37.836  28.052  1.00  0.00    -0.744 OA
ENDBRANCH  66  70
ENDBRANCH  40  63
ENDBRANCH  14  15
ENDBRANCH   7   9
ENDBRANCH   4   5
ENDBRANCH   3   4
ENDBRANCH   2   3
ENDBRANCH   1   2
BRANCH   1  74
ATOM     74  C   UNL A   1      37.000  23.400  25.395  1.00  0.00     0.021 C 
BRANCH  74  75
ATOM     75  C   UNL A   1      35.613  23.976  25.152  1.00  0.00     0.116 C 
BRANCH  75  76
ATOM     76  N   UNL A   1      35.089  23.701  23.834  1.00  0.00    -0.356 N 
ATOM     77  C   UNL A   1      34.156  24.343  23.087  1.00  0.00     0.225 C 
ATOM     78  H   UNL A   1      35.478  22.907  23.401  1.00  0.00     0.163 HD
ATOM     79  O   UNL A   1      34.026  23.936  21.923  1.00  0.00    -0.275 OA
BRANCH  77  80
ATOM     80  C   UNL A   1      33.211  25.450  23.587  1.00  0.00     0.109 C 
ATOM     81  C   UNL A   1      33.662  26.331  24.735  1.00  0.00     0.026 C 
ATOM     82  C   UNL A   1      31.794  24.927  23.772  1.00  0.00     0.164 C 
ATOM     83  C   UNL A   1      33.032  26.041  26.096  1.00  0.00     0.101 C 
ATOM     84  N   UNL A   1      31.568  24.292  25.064  1.00  0.00    -0.332 N 
ATOM     85  C   UNL A   1      32.029  24.895  26.226  1.00  0.00     0.223 C 
ATOM     86  O   UNL A   1      31.736  24.481  27.349  1.00  0.00    -0.275 OA
BRANCH  82  87
ATOM     87  C   UNL A   1      30.726  25.955  23.514  1.00  0.00     0.127 A 
ATOM     88  C   UNL A   1      29.483  26.171  24.080  1.00  0.00     0.048 A 
ATOM     89  O   UNL A   1      31.020  26.980  22.661  1.00  0.00    -0.467 OA
ATOM     90  C   UNL A   1      29.030  27.420  23.588  1.00  0.00     0.042 A 
ATOM     91  C   UNL A   1      30.004  27.872  22.731  1.00  0.00     0.195 A 
ENDBRANCH  82  87
BRANCH  84  92
ATOM     92  C   UNL A   1      30.809  23.027  25.151  1.00  0.00     0.122 C 
BRANCH  92  93
ATOM     93  C   UNL A   1      31.596  21.708  25.225  1.00  0.00     0.050 C 
BRANCH  93  94
ATOM     94  C   UNL A   1      32.353  21.224  23.978  1.00  0.00     0.162 C 
BRANCH  94  95
ATOM     95  O   UNL A   1      32.154  19.861  23.595  1.00  0.00    -0.378 OA
BRANCH  95  96
ATOM     96  C   UNL A   1      32.998  18.814  24.092  1.00  0.00     0.118 C 
ATOM     97  C   UNL A   1      32.528  18.138  25.380  1.00  0.00     0.032 C 
ATOM     98  C   UNL A   1      33.316  17.851  22.942  1.00  0.00     0.032 C 
ATOM     99  C   UNL A   1      33.263  16.861  25.754  1.00  0.00     0.003 C 
ATOM    100  C   UNL A   1      34.029  16.578  23.387  1.00  0.00     0.003 C 
ATOM    101  C   UNL A   1      33.316  15.924  24.558  1.00  0.00     0.000 C 
ENDBRANCH  95  96
ENDBRANCH  94  95
ENDBRANCH  93  94
ENDBRANCH  92  93
ENDBRANCH  84  92
ENDBRANCH  77  80
ENDBRANCH  75  76
ENDBRANCH  74  75
ENDBRANCH   1  74
TORSDOF 22
ENDMDL
MODEL 3
REMARK VINA RESULT:     -11.6      2.136      7.854
REMARK SMILES O=C(NCCCCCCNC(=O)[C@@H]1CCC(=O)N(CCCOC2CCCCC2)[C@H]1c1ccco1)c1ccc(-c2c3nc(c(-c4cc(S(=O)(=O)[O-])ccc4F)c4ccc([nH]4)c(-c4cc(S(=O)(=O)[O-])ccc4F)c4nc(c(-c5cc(S(=O)(=O)[O-])ccc5F)c5ccc2[nH]5)C=C4)C=C3)cc1
REMARK SMILES IDX 7 1 6 2 5 3 4 4 3 5 1 6 2 7 35 9 36 10 97 11 37 12 96 13
REMARK SMILES IDX 38 14 39 15 40 16 90 17 41 18 95 19 89 20 91 21 42 22 94 23
REMARK SMILES IDX 88 24 87 25 43 27 75 28 55 29 74 30 56 31 59 32 73 33 92 34
REMARK SMILES IDX 57 35 58 36 72 38 93 39 60 40 44 41 45 42 53 43 46 44 52 45
REMARK SMILES IDX 54 46 51 47 47 48 48 49 49 50 50 51 76 52 77 53 85 54 78 55
REMARK SMILES IDX 84 56 86 57 83 58 79 59 80 60 81 61 82 62 61 63 62 64 70 65
REMARK SMILES IDX 63 66 69 67 71 68 68 69 64 70 65 71 66 72 67 73 8 74 9 75
REMARK SMILES IDX 10 76 11 77 12 79 13 80 14 81 29 82 15 83 18 84 16 85 17 86
REMARK SMILES IDX 30 87 31 88 34 89 32 90 33 91 19 92 20 93 21 94 22 95 23 96
REMARK SMILES IDX 24 97 28 98 25 99 27 100 26 101
REMARK H PARENT 3 8 91 26 59 37 10 78
REMARK Flexibility Score: inf
ROOT
ATOM      1  C   UNL A   1      35.238  23.198  26.293  1.00  0.00     0.002 C 
ENDROOT
BRANCH   1   2
ATOM      2  C   UNL A   1      35.933  22.618  25.054  1.00  0.00     0.002 C 
BRANCH   2   3
ATOM      3  C   UNL A   1      36.775  21.367  25.314  1.00  0.00     0.021 C 
BRANCH   3   4
ATOM      4  C   UNL A   1      38.279  21.605  25.313  1.00  0.00     0.116 C 
BRANCH   4   5
ATOM      5  N   UNL A   1      38.981  20.644  26.147  1.00  0.00    -0.352 N 
ATOM      6  O   UNL A   1      40.702  19.901  27.408  1.00  0.00    -0.269 OA
ATOM      7  C   UNL A   1      40.093  20.851  26.922  1.00  0.00     0.251 C 
ATOM      8  H   UNL A   1      38.612  19.731  26.156  1.00  0.00     0.163 HD
BRANCH   7   9
ATOM      9  C   UNL A   1      40.551  22.235  27.151  1.00  0.00     0.039 A 
ATOM     10  C   UNL A   1      41.573  22.485  28.072  1.00  0.00     0.014 A 
ATOM     11  C   UNL A   1      39.936  23.287  26.471  1.00  0.00     0.014 A 
ATOM     12  C   UNL A   1      41.893  23.793  28.405  1.00  0.00     0.010 A 
ATOM     13  C   UNL A   1      40.330  24.601  26.737  1.00  0.00     0.010 A 
ATOM     14  C   UNL A   1      41.301  24.866  27.717  1.00  0.00    -0.014 A 
BRANCH  14  15
ATOM     15  C   UNL A   1      41.785  26.245  27.977  1.00  0.00     0.031 A 
ATOM     16  C   UNL A   1      43.152  26.690  27.546  1.00  0.00     0.074 A 
ATOM     17  C   UNL A   1      40.953  27.102  28.604  1.00  0.00     0.049 A 
ATOM     18  N   UNL A   1      43.732  27.851  27.717  1.00  0.00    -0.248 NA
ATOM     19  C   UNL A   1      43.983  25.702  26.843  1.00  0.00     0.031 C 
ATOM     20  C   UNL A   1      39.601  26.769  29.069  1.00  0.00     0.029 A 
ATOM     21  N   UNL A   1      41.103  28.419  28.947  1.00  0.00    -0.354 N 
ATOM     22  C   UNL A   1      45.000  27.734  27.159  1.00  0.00     0.074 A 
ATOM     23  C   UNL A   1      45.115  26.374  26.673  1.00  0.00     0.031 C 
ATOM     24  C   UNL A   1      39.033  27.862  29.592  1.00  0.00     0.029 A 
ATOM     25  C   UNL A   1      40.003  28.948  29.583  1.00  0.00     0.049 A 
ATOM     26  H   UNL A   1      41.918  28.937  28.758  1.00  0.00     0.167 HD
ATOM     27  C   UNL A   1      45.969  28.678  27.062  1.00  0.00     0.034 A 
ATOM     28  C   UNL A   1      39.806  30.163  30.131  1.00  0.00     0.034 A 
ATOM     29  C   UNL A   1      45.826  30.029  27.559  1.00  0.00     0.049 A 
ATOM     30  C   UNL A   1      40.917  31.172  30.053  1.00  0.00     0.074 A 
ATOM     31  C   UNL A   1      46.730  31.074  27.484  1.00  0.00     0.029 A 
ATOM     32  N   UNL A   1      44.715  30.519  28.236  1.00  0.00    -0.354 N 
ATOM     33  N   UNL A   1      42.105  31.051  29.508  1.00  0.00    -0.248 NA
ATOM     34  C   UNL A   1      40.660  32.482  30.660  1.00  0.00     0.031 C 
ATOM     35  C   UNL A   1      46.203  32.164  28.185  1.00  0.00     0.029 A 
ATOM     36  C   UNL A   1      44.929  31.836  28.617  1.00  0.00     0.049 A 
ATOM     37  H   UNL A   1      43.895  30.005  28.418  1.00  0.00     0.167 HD
ATOM     38  C   UNL A   1      42.730  32.280  29.686  1.00  0.00     0.074 A 
ATOM     39  C   UNL A   1      41.776  33.133  30.369  1.00  0.00     0.031 C 
ATOM     40  C   UNL A   1      43.977  32.670  29.317  1.00  0.00     0.034 A 
BRANCH  27  41
ATOM     41  C   UNL A   1      47.288  28.271  26.443  1.00  0.00     0.023 A 
ATOM     42  C   UNL A   1      47.445  28.112  25.055  1.00  0.00     0.031 A 
ATOM     43  C   UNL A   1      48.409  28.036  27.260  1.00  0.00     0.131 A 
ATOM     44  C   UNL A   1      48.672  27.670  24.533  1.00  0.00     0.055 A 
ATOM     45  C   UNL A   1      49.649  27.674  26.728  1.00  0.00     0.041 A 
ATOM     46  F   UNL A   1      48.318  28.149  28.595  1.00  0.00    -0.206 F 
ATOM     47  C   UNL A   1      49.782  27.476  25.358  1.00  0.00     0.022 A 
BRANCH  44  48
ATOM     48  S   UNL A   1      48.759  27.221  22.777  1.00  0.00     0.124 S 
ATOM     49  O   UNL A   1      48.369  25.814  22.811  1.00  0.00    -0.237 OA
ATOM     50  O   UNL A   1      47.801  28.135  22.169  1.00  0.00    -0.237 OA
ATOM     51  O   UNL A   1      50.158  27.461  22.430  1.00  0.00    -0.744 OA
ENDBRANCH  44  48
ENDBRANCH  27  41
BRANCH  28  52
ATOM     52  C   UNL A   1      38.529  30.465  30.838  1.00  0.00     0.023 A 
ATOM     53  C   UNL A   1      37.498  31.174  30.204  1.00  0.00     0.031 A 
ATOM     54  C   UNL A   1      38.331  30.065  32.173  1.00  0.00     0.131 A 
ATOM     55  C   UNL A   1      36.335  31.500  30.918  1.00  0.00     0.055 A 
ATOM     56  C   UNL A   1      37.147  30.336  32.857  1.00  0.00     0.041 A 
ATOM     57  F   UNL A   1      39.285  29.382  32.826  1.00  0.00    -0.206 F 
ATOM     58  C   UNL A   1      36.145  31.070  32.233  1.00  0.00     0.022 A 
BRANCH  55  59
ATOM     59  S   UNL A   1      35.106  32.576  30.131  1.00  0.00     0.124 S 
ATOM     60  O   UNL A   1      34.195  32.844  31.237  1.00  0.00    -0.237 OA
ATOM     61  O   UNL A   1      35.926  33.699  29.687  1.00  0.00    -0.237 OA
ATOM     62  O   UNL A   1      34.561  31.744  29.061  1.00  0.00    -0.744 OA
ENDBRANCH  55  59
ENDBRANCH  28  52
BRANCH  40  63
ATOM     63  C   UNL A   1      44.357  34.101  29.611  1.00  0.00     0.023 A 
ATOM     64  C   UNL A   1      44.065  35.146  28.717  1.00  0.00     0.031 A 
ATOM     65  C   UNL A   1      45.046  34.419  30.797  1.00  0.00     0.131 A 
ATOM     66  C   UNL A   1      44.517  36.446  28.990  1.00  0.00     0.055 A 
ATOM     67  C   UNL A   1      45.430  35.727  31.095  1.00  0.00     0.041 A 
ATOM     68  F   UNL A   1      45.358  33.462  31.684  1.00  0.00    -0.206 F 
ATOM     69  C   UNL A   1      45.179  36.747  30.182  1.00  0.00     0.022 A 
BRANCH  66  70
ATOM     70  S   UNL A   1      44.325  37.720  27.712  1.00  0.00     0.124 S 
ATOM     71  O   UNL A   1      45.665  37.778  27.138  1.00  0.00    -0.237 OA
ATOM     72  O   UNL A   1      43.288  37.152  26.857  1.00  0.00    -0.237 OA
ATOM     73  O   UNL A   1      43.923  38.905  28.468  1.00  0.00    -0.744 OA
ENDBRANCH  66  70
ENDBRANCH  40  63
ENDBRANCH  14  15
ENDBRANCH   7   9
ENDBRANCH   4   5
ENDBRANCH   3   4
ENDBRANCH   2   3
ENDBRANCH   1   2
BRANCH   1  74
ATOM     74  C   UNL A   1      34.510  22.158  27.148  1.00  0.00     0.021 C 
BRANCH  74  75
ATOM     75  C   UNL A   1      33.283  22.683  27.878  1.00  0.00     0.116 C 
BRANCH  75  76
ATOM     76  N   UNL A   1      32.035  22.385  27.214  1.00  0.00    -0.356 N 
ATOM     77  C   UNL A   1      31.191  23.167  26.495  1.00  0.00     0.225 C 
ATOM     78  H   UNL A   1      31.745  21.448  27.298  1.00  0.00     0.163 HD
ATOM     79  O   UNL A   1      30.261  22.575  25.928  1.00  0.00    -0.275 OA
BRANCH  77  80
ATOM     80  C   UNL A   1      31.248  24.702  26.403  1.00  0.00     0.109 C 
ATOM     81  C   UNL A   1      29.994  25.456  26.002  1.00  0.00     0.026 C 
ATOM     82  C   UNL A   1      32.480  25.166  25.639  1.00  0.00     0.164 C 
ATOM     83  C   UNL A   1      29.959  25.993  24.573  1.00  0.00     0.101 C 
ATOM     84  N   UNL A   1      32.299  25.188  24.193  1.00  0.00    -0.332 N 
ATOM     85  C   UNL A   1      31.143  25.728  23.645  1.00  0.00     0.223 C 
ATOM     86  O   UNL A   1      31.007  25.908  22.434  1.00  0.00    -0.275 OA
BRANCH  82  87
ATOM     87  C   UNL A   1      33.024  26.489  26.107  1.00  0.00     0.127 A 
ATOM     88  C   UNL A   1      34.082  27.268  25.674  1.00  0.00     0.048 A 
ATOM     89  O   UNL A   1      32.315  27.172  27.052  1.00  0.00    -0.467 OA
ATOM     90  C   UNL A   1      33.969  28.508  26.350  1.00  0.00     0.042 A 
ATOM     91  C   UNL A   1      32.875  28.398  27.175  1.00  0.00     0.195 A 
ENDBRANCH  82  87
BRANCH  84  92
ATOM     92  C   UNL A   1      33.360  24.679  23.301  1.00  0.00     0.122 C 
BRANCH  92  93
ATOM     93  C   UNL A   1      33.186  23.282  22.684  1.00  0.00     0.050 C 
BRANCH  93  94
ATOM     94  C   UNL A   1      32.037  22.390  23.179  1.00  0.00     0.162 C 
BRANCH  94  95
ATOM     95  O   UNL A   1      32.005  21.049  22.683  1.00  0.00    -0.378 OA
BRANCH  95  96
ATOM     96  C   UNL A   1      32.677  19.982  23.367  1.00  0.00     0.118 C 
ATOM     97  C   UNL A   1      32.491  19.947  24.884  1.00  0.00     0.032 C 
ATOM     98  C   UNL A   1      32.364  18.664  22.652  1.00  0.00     0.032 C 
ATOM     99  C   UNL A   1      32.966  18.677  25.571  1.00  0.00     0.003 C 
ATOM    100  C   UNL A   1      32.844  17.427  23.405  1.00  0.00     0.003 C 
ATOM    101  C   UNL A   1      32.402  17.459  24.858  1.00  0.00     0.000 C 
ENDBRANCH  95  96
ENDBRANCH  94  95
ENDBRANCH  93  94
ENDBRANCH  92  93
ENDBRANCH  84  92
ENDBRANCH  77  80
ENDBRANCH  75  76
ENDBRANCH  74  75
ENDBRANCH   1  74
TORSDOF 22
ENDMDL
