MODEL 1
REMARK VINA RESULT:      -8.3      0.000      0.000
REMARK SMILES COc1cc(/C=C2/SC(=O)N(c3ccc(O)cc3C)C2=O)ccc1OCC(=O)NCCCCCCNC(=O)c1ccc(-c2c3nc(c(-c4cc(S(=O)(=O)[O-])ccc4F)c4ccc([nH]4)c(-c4cc(S(=O)(=O)[O-])ccc4F)c4nc(c(-c5cc(S(=O)(=O)[O-])ccc5F)c5ccc2[nH]5)C=C4)C=C3)cc1
REMARK SMILES IDX 31 1 30 2 29 3 27 4 28 5 26 7 25 8 24 9 3 10 4 11 5 12 23 13
REMARK SMILES IDX 22 14 2 15 1 16 6 17 7 18 8 19 20 20 9 21 11 22 21 23 10 24
REMARK SMILES IDX 12 25 13 26 18 27 14 28 17 29 19 30 15 31 16 32 32 34 33 35
REMARK SMILES IDX 34 36 35 37 36 38 37 39 38 41 39 42 40 43 101 44 41 45
REMARK SMILES IDX 100 46 42 47 43 48 44 49 94 50 45 51 99 52 93 53 95 54 46 55
REMARK SMILES IDX 98 56 92 57 91 58 47 60 79 61 59 62 78 63 60 64 63 65 77 66
REMARK SMILES IDX 96 67 61 68 62 69 76 71 97 72 64 73 48 74 49 75 57 76 50 77
REMARK SMILES IDX 56 78 58 79 55 80 51 81 52 82 53 83 54 84 80 85 81 86 89 87
REMARK SMILES IDX 82 88 88 89 90 90 87 91 83 92 84 93 85 94 86 95 65 96 66 97
REMARK SMILES IDX 74 98 67 99 73 100 75 101 72 102 68 103 69 104 70 105 71 106
REMARK H PARENT 29 6 16 33 36 40 95 59 63 70
REMARK Flexibility Score: inf
ROOT
ATOM      1  C   UNL A   1      46.651  24.422  25.163  1.00  0.00     0.021 C 
ENDROOT
BRANCH   1   2
ATOM      2  C   UNL A   1      47.465  25.606  25.681  1.00  0.00     0.116 C 
BRANCH   2   3
ATOM      3  N   UNL A   1      48.706  25.196  26.308  1.00  0.00    -0.353 N 
ATOM      4  C   UNL A   1      48.954  24.926  27.623  1.00  0.00     0.257 C 
ATOM      5  O   UNL A   1      50.046  24.436  27.919  1.00  0.00    -0.271 OA
ATOM      6  H   UNL A   1      49.477  25.099  25.703  1.00  0.00     0.163 HD
BRANCH   4   7
ATOM      7  C   UNL A   1      47.856  25.159  28.665  1.00  0.00     0.329 C 
BRANCH   7   8
ATOM      8  O   UNL A   1      48.256  25.748  29.887  1.00  0.00    -0.480 OA
BRANCH   8   9
ATOM      9  C   UNL A   1      47.373  25.888  30.917  1.00  0.00     0.161 A 
ATOM     10  C   UNL A   1      47.637  26.105  32.274  1.00  0.00     0.161 A 
ATOM     11  C   UNL A   1      46.588  26.049  33.207  1.00  0.00     0.058 A 
ATOM     12  C   UNL A   1      45.276  25.808  32.784  1.00  0.00    -0.020 A 
ATOM     13  C   UNL A   1      46.044  25.723  30.502  1.00  0.00     0.051 A 
ATOM     14  C   UNL A   1      44.997  25.706  31.421  1.00  0.00     0.012 A 
BRANCH  10  15
ATOM     15  O   UNL A   1      48.922  26.206  32.733  1.00  0.00    -0.493 OA
ATOM     16  C   UNL A   1      49.516  24.928  32.956  1.00  0.00     0.278 C 
ENDBRANCH  10  15
BRANCH  12  17
ATOM     17  C   UNL A   1      44.248  25.412  33.752  1.00  0.00     0.029 C 
ATOM     18  C   UNL A   1      43.420  26.316  34.304  1.00  0.00     0.083 C 
ATOM     19  S   UNL A   1      42.253  25.939  35.511  1.00  0.00    -0.022 SA
ATOM     20  C   UNL A   1      43.390  27.783  34.015  1.00  0.00     0.272 C 
ATOM     21  C   UNL A   1      41.769  27.626  35.699  1.00  0.00     0.298 C 
ATOM     22  N   UNL A   1      42.514  28.428  34.871  1.00  0.00    -0.236 N 
ATOM     23  O   UNL A   1      44.071  28.318  33.152  1.00  0.00    -0.268 OA
ATOM     24  O   UNL A   1      40.847  27.935  36.442  1.00  0.00    -0.260 OA
BRANCH  22  25
ATOM     25  C   UNL A   1      42.368  29.845  34.815  1.00  0.00     0.056 A 
ATOM     26  C   UNL A   1      41.403  30.385  33.939  1.00  0.00     0.031 A 
ATOM     27  C   UNL A   1      43.196  30.730  35.539  1.00  0.00    -0.023 A 
ATOM     28  C   UNL A   1      41.243  31.761  33.788  1.00  0.00     0.048 A 
ATOM     29  C   UNL A   1      43.011  32.121  35.384  1.00  0.00     0.051 A 
ATOM     30  C   UNL A   1      44.337  30.298  36.421  1.00  0.00     0.047 C 
ATOM     31  C   UNL A   1      42.050  32.619  34.510  1.00  0.00     0.115 A 
BRANCH  31  32
ATOM     32  O   UNL A   1      41.885  33.958  34.318  1.00  0.00    -0.508 OA
ATOM     33  H   UNL A   1      41.077  34.285  33.973  1.00  0.00     0.293 HD
ENDBRANCH  31  32
ENDBRANCH  22  25
ENDBRANCH  12  17
ENDBRANCH   8   9
ENDBRANCH   7   8
ENDBRANCH   4   7
ENDBRANCH   2   3
ENDBRANCH   1   2
BRANCH   1  34
ATOM     34  C   UNL A   1      45.301  24.193  25.853  1.00  0.00     0.002 C 
BRANCH  34  35
ATOM     35  C   UNL A   1      44.064  24.278  24.957  1.00  0.00     0.002 C 
BRANCH  35  36
ATOM     36  C   UNL A   1      43.443  22.942  24.548  1.00  0.00     0.021 C 
BRANCH  36  37
ATOM     37  C   UNL A   1      43.215  21.955  25.685  1.00  0.00     0.116 C 
BRANCH  37  38
ATOM     38  N   UNL A   1      41.826  21.548  25.794  1.00  0.00    -0.352 N 
ATOM     39  C   UNL A   1      40.776  22.206  26.390  1.00  0.00     0.251 C 
ATOM     40  H   UNL A   1      41.605  20.681  25.385  1.00  0.00     0.163 HD
ATOM     41  O   UNL A   1      39.702  21.630  26.538  1.00  0.00    -0.269 OA
BRANCH  39  42
ATOM     42  C   UNL A   1      40.956  23.592  26.879  1.00  0.00     0.039 A 
ATOM     43  C   UNL A   1      41.482  23.795  28.157  1.00  0.00     0.014 A 
ATOM     44  C   UNL A   1      40.613  24.688  26.082  1.00  0.00     0.014 A 
ATOM     45  C   UNL A   1      41.722  25.095  28.611  1.00  0.00     0.010 A 
ATOM     46  C   UNL A   1      40.919  25.980  26.506  1.00  0.00     0.010 A 
ATOM     47  C   UNL A   1      41.474  26.197  27.778  1.00  0.00    -0.014 A 
BRANCH  47  48
ATOM     48  C   UNL A   1      41.777  27.583  28.221  1.00  0.00     0.031 A 
ATOM     49  C   UNL A   1      43.200  28.072  28.245  1.00  0.00     0.074 A 
ATOM     50  C   UNL A   1      40.780  28.380  28.659  1.00  0.00     0.049 A 
ATOM     51  N   UNL A   1      43.677  29.214  28.670  1.00  0.00    -0.248 NA
ATOM     52  C   UNL A   1      44.224  27.140  27.751  1.00  0.00     0.031 C 
ATOM     53  C   UNL A   1      39.366  28.005  28.721  1.00  0.00     0.029 A 
ATOM     54  N   UNL A   1      40.804  29.663  29.144  1.00  0.00    -0.354 N 
ATOM     55  C   UNL A   1      45.057  29.132  28.508  1.00  0.00     0.074 A 
ATOM     56  C   UNL A   1      45.340  27.806  28.004  1.00  0.00     0.031 C 
ATOM     57  C   UNL A   1      38.658  29.043  29.195  1.00  0.00     0.029 A 
ATOM     58  C   UNL A   1      39.567  30.139  29.512  1.00  0.00     0.049 A 
ATOM     59  H   UNL A   1      41.630  30.194  29.222  1.00  0.00     0.167 HD
ATOM     60  C   UNL A   1      45.998  30.084  28.736  1.00  0.00     0.034 A 
ATOM     61  C   UNL A   1      39.208  31.319  30.056  1.00  0.00     0.034 A 
ATOM     62  C   UNL A   1      45.697  31.407  29.227  1.00  0.00     0.049 A 
ATOM     63  C   UNL A   1      40.273  32.354  30.321  1.00  0.00     0.074 A 
ATOM     64  C   UNL A   1      46.564  32.465  29.442  1.00  0.00     0.029 A 
ATOM     65  N   UNL A   1      44.431  31.855  29.584  1.00  0.00    -0.354 N 
ATOM     66  N   UNL A   1      41.568  32.278  30.117  1.00  0.00    -0.248 NA
ATOM     67  C   UNL A   1      39.825  33.637  30.879  1.00  0.00     0.031 C 
ATOM     68  C   UNL A   1      45.834  33.527  29.990  1.00  0.00     0.029 A 
ATOM     69  C   UNL A   1      44.499  33.161  30.047  1.00  0.00     0.049 A 
ATOM     70  H   UNL A   1      43.606  31.322  29.520  1.00  0.00     0.167 HD
ATOM     71  C   UNL A   1      42.083  33.515  30.494  1.00  0.00     0.074 A 
ATOM     72  C   UNL A   1      40.958  34.321  30.922  1.00  0.00     0.031 C 
ATOM     73  C   UNL A   1      43.370  33.949  30.482  1.00  0.00     0.034 A 
BRANCH  60  74
ATOM     74  C   UNL A   1      47.438  29.709  28.481  1.00  0.00     0.023 A 
ATOM     75  C   UNL A   1      48.285  29.279  29.518  1.00  0.00     0.031 A 
ATOM     76  C   UNL A   1      47.984  29.811  27.188  1.00  0.00     0.131 A 
ATOM     77  C   UNL A   1      49.645  29.048  29.263  1.00  0.00     0.055 A 
ATOM     78  C   UNL A   1      49.319  29.496  26.925  1.00  0.00     0.041 A 
ATOM     79  F   UNL A   1      47.232  30.234  26.160  1.00  0.00    -0.206 F 
ATOM     80  C   UNL A   1      50.163  29.128  27.969  1.00  0.00     0.022 A 
BRANCH  77  81
ATOM     81  S   UNL A   1      50.757  28.788  30.673  1.00  0.00     0.124 S 
ATOM     82  O   UNL A   1      49.901  29.163  31.795  1.00  0.00    -0.237 OA
ATOM     83  O   UNL A   1      51.081  27.370  30.562  1.00  0.00    -0.237 OA
ATOM     84  O   UNL A   1      51.865  29.705  30.410  1.00  0.00    -0.744 OA
ENDBRANCH  77  81
ENDBRANCH  60  74
BRANCH  61  85
ATOM     85  C   UNL A   1      37.782  31.592  30.398  1.00  0.00     0.023 A 
ATOM     86  C   UNL A   1      36.895  32.105  29.439  1.00  0.00     0.031 A 
ATOM     87  C   UNL A   1      37.296  31.384  31.700  1.00  0.00     0.131 A 
ATOM     88  C   UNL A   1      35.582  32.439  29.807  1.00  0.00     0.055 A 
ATOM     89  C   UNL A   1      35.975  31.668  32.049  1.00  0.00     0.041 A 
ATOM     90  F   UNL A   1      38.102  30.889  32.655  1.00  0.00    -0.206 F 
ATOM     91  C   UNL A   1      35.113  32.211  31.102  1.00  0.00     0.022 A 
BRANCH  88  92
ATOM     92  S   UNL A   1      34.519  33.254  28.585  1.00  0.00     0.124 S 
ATOM     93  O   UNL A   1      33.553  32.203  28.283  1.00  0.00    -0.237 OA
ATOM     94  O   UNL A   1      34.011  34.395  29.339  1.00  0.00    -0.237 OA
ATOM     95  O   UNL A   1      35.441  33.586  27.500  1.00  0.00    -0.744 OA
ENDBRANCH  88  92
ENDBRANCH  61  85
BRANCH  73  96
ATOM     96  C   UNL A   1      43.615  35.377  30.903  1.00  0.00     0.023 A 
ATOM     97  C   UNL A   1      43.710  35.743  32.257  1.00  0.00     0.031 A 
ATOM     98  C   UNL A   1      43.740  36.387  29.933  1.00  0.00     0.131 A 
ATOM     99  C   UNL A   1      43.870  37.093  32.606  1.00  0.00     0.055 A 
ATOM    100  C   UNL A   1      43.959  37.720  30.286  1.00  0.00     0.041 A 
ATOM    101  F   UNL A   1      43.656  36.094  28.626  1.00  0.00    -0.206 F 
ATOM    102  C   UNL A   1      44.011  38.081  31.628  1.00  0.00     0.022 A 
BRANCH  99 103
ATOM    103  S   UNL A   1      43.802  37.554  34.359  1.00  0.00     0.124 S 
ATOM    104  O   UNL A   1      43.561  38.991  34.287  1.00  0.00    -0.237 OA
ATOM    105  O   UNL A   1      42.691  36.746  34.852  1.00  0.00    -0.237 OA
ATOM    106  O   UNL A   1      45.119  37.169  34.866  1.00  0.00    -0.744 OA
ENDBRANCH  99 103
ENDBRANCH  73  96
ENDBRANCH  47  48
ENDBRANCH  39  42
ENDBRANCH  37  38
ENDBRANCH  36  37
ENDBRANCH  35  36
ENDBRANCH  34  35
ENDBRANCH   1  34
TORSDOF 22
ENDMDL
MODEL 2
REMARK VINA RESULT:      -7.2      4.733      9.728
REMARK SMILES COc1cc(/C=C2/SC(=O)N(c3ccc(O)cc3C)C2=O)ccc1OCC(=O)NCCCCCCNC(=O)c1ccc(-c2c3nc(c(-c4cc(S(=O)(=O)[O-])ccc4F)c4ccc([nH]4)c(-c4cc(S(=O)(=O)[O-])ccc4F)c4nc(c(-c5cc(S(=O)(=O)[O-])ccc5F)c5ccc2[nH]5)C=C4)C=C3)cc1
REMARK SMILES IDX 31 1 30 2 29 3 27 4 28 5 26 7 25 8 24 9 3 10 4 11 5 12 23 13
REMARK SMILES IDX 22 14 2 15 1 16 6 17 7 18 8 19 20 20 9 21 11 22 21 23 10 24
REMARK SMILES IDX 12 25 13 26 18 27 14 28 17 29 19 30 15 31 16 32 32 34 33 35
REMARK SMILES IDX 34 36 35 37 36 38 37 39 38 41 39 42 40 43 101 44 41 45
REMARK SMILES IDX 100 46 42 47 43 48 44 49 94 50 45 51 99 52 93 53 95 54 46 55
REMARK SMILES IDX 98 56 92 57 91 58 47 60 79 61 59 62 78 63 60 64 63 65 77 66
REMARK SMILES IDX 96 67 61 68 62 69 76 71 97 72 64 73 48 74 49 75 57 76 50 77
REMARK SMILES IDX 56 78 58 79 55 80 51 81 52 82 53 83 54 84 80 85 81 86 89 87
REMARK SMILES IDX 82 88 88 89 90 90 87 91 83 92 84 93 85 94 86 95 65 96 66 97
REMARK SMILES IDX 74 98 67 99 73 100 75 101 72 102 68 103 69 104 70 105 71 106
REMARK H PARENT 29 6 16 33 36 40 95 59 63 70
REMARK Flexibility Score: inf
ROOT
ATOM      1  C   UNL A   1      44.162  28.953  27.651  1.00  0.00     0.021 C 
ENDROOT
BRANCH   1   2
ATOM      2  C   UNL A   1      43.762  27.637  28.318  1.00  0.00     0.116 C 
BRANCH   2   3
ATOM      3  N   UNL A   1      43.005  27.840  29.537  1.00  0.00    -0.353 N 
ATOM      4  C   UNL A   1      41.651  27.852  29.713  1.00  0.00     0.257 C 
ATOM      5  O   UNL A   1      41.217  27.884  30.866  1.00  0.00    -0.271 OA
ATOM      6  H   UNL A   1      43.540  27.991  30.350  1.00  0.00     0.163 HD
BRANCH   4   7
ATOM      7  C   UNL A   1      40.727  27.746  28.496  1.00  0.00     0.329 C 
BRANCH   7   8
ATOM      8  O   UNL A   1      39.345  27.605  28.760  1.00  0.00    -0.480 OA
BRANCH   8   9
ATOM      9  C   UNL A   1      38.572  28.694  29.037  1.00  0.00     0.161 A 
ATOM     10  C   UNL A   1      37.803  28.957  30.176  1.00  0.00     0.161 A 
ATOM     11  C   UNL A   1      36.937  30.062  30.195  1.00  0.00     0.058 A 
ATOM     12  C   UNL A   1      36.862  30.922  29.093  1.00  0.00    -0.020 A 
ATOM     13  C   UNL A   1      38.541  29.606  27.973  1.00  0.00     0.051 A 
ATOM     14  C   UNL A   1      37.712  30.726  28.004  1.00  0.00     0.012 A 
BRANCH  10  15
ATOM     15  O   UNL A   1      37.752  28.063  31.211  1.00  0.00    -0.493 OA
ATOM     16  C   UNL A   1      37.873  28.703  32.482  1.00  0.00     0.278 C 
ENDBRANCH  10  15
BRANCH  12  17
ATOM     17  C   UNL A   1      35.741  31.858  28.960  1.00  0.00     0.029 C 
ATOM     18  C   UNL A   1      34.648  31.546  28.242  1.00  0.00     0.083 C 
ATOM     19  S   UNL A   1      33.337  32.626  27.970  1.00  0.00    -0.022 SA
ATOM     20  C   UNL A   1      34.395  30.256  27.528  1.00  0.00     0.272 C 
ATOM     21  C   UNL A   1      32.500  31.488  26.912  1.00  0.00     0.298 C 
ATOM     22  N   UNL A   1      33.239  30.340  26.772  1.00  0.00    -0.236 N 
ATOM     23  O   UNL A   1      35.134  29.285  27.601  1.00  0.00    -0.268 OA
ATOM     24  O   UNL A   1      31.391  31.747  26.462  1.00  0.00    -0.260 OA
BRANCH  22  25
ATOM     25  C   UNL A   1      32.833  29.242  25.958  1.00  0.00     0.056 A 
ATOM     26  C   UNL A   1      33.210  29.240  24.599  1.00  0.00     0.031 A 
ATOM     27  C   UNL A   1      32.007  28.200  26.434  1.00  0.00    -0.023 A 
ATOM     28  C   UNL A   1      32.800  28.231  23.729  1.00  0.00     0.048 A 
ATOM     29  C   UNL A   1      31.614  27.178  25.542  1.00  0.00     0.051 A 
ATOM     30  C   UNL A   1      31.439  28.134  27.826  1.00  0.00     0.047 C 
ATOM     31  C   UNL A   1      32.003  27.208  24.207  1.00  0.00     0.115 A 
BRANCH  31  32
ATOM     32  O   UNL A   1      31.599  26.253  23.324  1.00  0.00    -0.508 OA
ATOM     33  H   UNL A   1      31.893  26.283  22.434  1.00  0.00     0.293 HD
ENDBRANCH  31  32
ENDBRANCH  22  25
ENDBRANCH  12  17
ENDBRANCH   8   9
ENDBRANCH   7   8
ENDBRANCH   4   7
ENDBRANCH   2   3
ENDBRANCH   1   2
BRANCH   1  34
ATOM     34  C   UNL A   1      45.322  29.706  28.314  1.00  0.00     0.002 C 
BRANCH  34  35
ATOM     35  C   UNL A   1      46.526  30.010  27.419  1.00  0.00     0.002 C 
BRANCH  35  36
ATOM     36  C   UNL A   1      46.293  31.045  26.318  1.00  0.00     0.021 C 
BRANCH  36  37
ATOM     37  C   UNL A   1      44.868  31.570  26.208  1.00  0.00     0.116 C 
BRANCH  37  38
ATOM     38  N   UNL A   1      44.812  32.907  25.646  1.00  0.00    -0.352 N 
ATOM     39  C   UNL A   1      44.290  34.055  26.194  1.00  0.00     0.251 C 
ATOM     40  H   UNL A   1      45.201  33.006  24.747  1.00  0.00     0.163 HD
ATOM     41  O   UNL A   1      44.174  35.062  25.503  1.00  0.00    -0.269 OA
BRANCH  39  42
ATOM     42  C   UNL A   1      43.841  34.060  27.606  1.00  0.00     0.039 A 
ATOM     43  C   UNL A   1      43.424  35.265  28.177  1.00  0.00     0.014 A 
ATOM     44  C   UNL A   1      43.827  32.885  28.363  1.00  0.00     0.014 A 
ATOM     45  C   UNL A   1      42.933  35.279  29.486  1.00  0.00     0.010 A 
ATOM     46  C   UNL A   1      43.272  32.888  29.641  1.00  0.00     0.010 A 
ATOM     47  C   UNL A   1      42.822  34.087  30.217  1.00  0.00    -0.014 A 
BRANCH  47  48
ATOM     48  C   UNL A   1      42.249  34.074  31.590  1.00  0.00     0.031 A 
ATOM     49  C   UNL A   1      43.158  33.964  32.784  1.00  0.00     0.074 A 
ATOM     50  C   UNL A   1      40.911  34.099  31.757  1.00  0.00     0.049 A 
ATOM     51  N   UNL A   1      42.851  33.858  34.052  1.00  0.00    -0.248 NA
ATOM     52  C   UNL A   1      44.602  33.941  32.511  1.00  0.00     0.031 C 
ATOM     53  C   UNL A   1      39.926  34.166  30.676  1.00  0.00     0.029 A 
ATOM     54  N   UNL A   1      40.149  34.062  32.898  1.00  0.00    -0.354 N 
ATOM     55  C   UNL A   1      44.063  33.742  34.726  1.00  0.00     0.074 A 
ATOM     56  C   UNL A   1      45.102  33.729  33.719  1.00  0.00     0.031 C 
ATOM     57  C   UNL A   1      38.692  34.186  31.207  1.00  0.00     0.029 A 
ATOM     58  C   UNL A   1      38.794  34.090  32.659  1.00  0.00     0.049 A 
ATOM     59  H   UNL A   1      40.535  34.019  33.802  1.00  0.00     0.167 HD
ATOM     60  C   UNL A   1      44.289  33.677  36.063  1.00  0.00     0.034 A 
ATOM     61  C   UNL A   1      37.752  34.032  33.512  1.00  0.00     0.034 A 
ATOM     62  C   UNL A   1      43.243  33.704  37.056  1.00  0.00     0.049 A 
ATOM     63  C   UNL A   1      38.026  33.937  34.993  1.00  0.00     0.074 A 
ATOM     64  C   UNL A   1      43.361  33.698  38.435  1.00  0.00     0.029 A 
ATOM     65  N   UNL A   1      41.882  33.738  36.776  1.00  0.00    -0.354 N 
ATOM     66  N   UNL A   1      39.180  33.877  35.617  1.00  0.00    -0.248 NA
ATOM     67  C   UNL A   1      36.858  33.915  35.882  1.00  0.00     0.031 C 
ATOM     68  C   UNL A   1      42.074  33.662  38.987  1.00  0.00     0.029 A 
ATOM     69  C   UNL A   1      41.151  33.721  37.955  1.00  0.00     0.049 A 
ATOM     70  H   UNL A   1      41.492  33.767  35.872  1.00  0.00     0.167 HD
ATOM     71  C   UNL A   1      38.874  33.840  36.974  1.00  0.00     0.074 A 
ATOM     72  C   UNL A   1      37.430  33.900  37.077  1.00  0.00     0.031 C 
ATOM     73  C   UNL A   1      39.710  33.770  38.041  1.00  0.00     0.034 A 
BRANCH  60  74
ATOM     74  C   UNL A   1      45.724  33.542  36.517  1.00  0.00     0.023 A 
ATOM     75  C   UNL A   1      46.320  32.284  36.715  1.00  0.00     0.031 A 
ATOM     76  C   UNL A   1      46.498  34.685  36.786  1.00  0.00     0.131 A 
ATOM     77  C   UNL A   1      47.617  32.199  37.245  1.00  0.00     0.055 A 
ATOM     78  C   UNL A   1      47.818  34.593  37.231  1.00  0.00     0.041 A 
ATOM     79  F   UNL A   1      45.978  35.914  36.635  1.00  0.00    -0.206 F 
ATOM     80  C   UNL A   1      48.380  33.344  37.480  1.00  0.00     0.022 A 
BRANCH  77  81
ATOM     81  S   UNL A   1      48.234  30.573  37.763  1.00  0.00     0.124 S 
ATOM     82  O   UNL A   1      47.925  30.583  39.190  1.00  0.00    -0.237 OA
ATOM     83  O   UNL A   1      47.445  29.660  36.943  1.00  0.00    -0.237 OA
ATOM     84  O   UNL A   1      49.659  30.629  37.441  1.00  0.00    -0.744 OA
ENDBRANCH  77  81
ENDBRANCH  60  74
BRANCH  61  85
ATOM     85  C   UNL A   1      36.352  34.050  33.000  1.00  0.00     0.023 A 
ATOM     86  C   UNL A   1      35.649  35.258  32.861  1.00  0.00     0.031 A 
ATOM     87  C   UNL A   1      35.681  32.857  32.680  1.00  0.00     0.131 A 
ATOM     88  C   UNL A   1      34.304  35.243  32.462  1.00  0.00     0.055 A 
ATOM     89  C   UNL A   1      34.358  32.851  32.234  1.00  0.00     0.041 A 
ATOM     90  F   UNL A   1      36.308  31.675  32.790  1.00  0.00    -0.206 F 
ATOM     91  C   UNL A   1      33.658  34.050  32.135  1.00  0.00     0.022 A 
BRANCH  88  92
ATOM     92  S   UNL A   1      33.383  36.806  32.456  1.00  0.00     0.124 S 
ATOM     93  O   UNL A   1      33.748  37.361  31.157  1.00  0.00    -0.237 OA
ATOM     94  O   UNL A   1      32.006  36.346  32.594  1.00  0.00    -0.237 OA
ATOM     95  O   UNL A   1      33.919  37.520  33.614  1.00  0.00    -0.744 OA
ENDBRANCH  88  92
ENDBRANCH  61  85
BRANCH  73  96
ATOM     96  C   UNL A   1      39.078  33.801  39.411  1.00  0.00     0.023 A 
ATOM     97  C   UNL A   1      38.643  32.627  40.053  1.00  0.00     0.031 A 
ATOM     98  C   UNL A   1      38.894  35.026  40.076  1.00  0.00     0.131 A 
ATOM     99  C   UNL A   1      37.998  32.710  41.296  1.00  0.00     0.055 A 
ATOM    100  C   UNL A   1      38.304  35.095  41.339  1.00  0.00     0.041 A 
ATOM    101  F   UNL A   1      39.288  36.177  39.509  1.00  0.00    -0.206 F 
ATOM    102  C   UNL A   1      37.840  33.934  41.950  1.00  0.00     0.022 A 
BRANCH  99 103
ATOM    103  S   UNL A   1      37.286  31.201  42.009  1.00  0.00     0.124 S 
ATOM    104  O   UNL A   1      37.500  31.409  43.437  1.00  0.00    -0.237 OA
ATOM    105  O   UNL A   1      35.899  31.266  41.557  1.00  0.00    -0.237 OA
ATOM    106  O   UNL A   1      38.082  30.130  41.411  1.00  0.00    -0.744 OA
ENDBRANCH  99 103
ENDBRANCH  73  96
ENDBRANCH  47  48
ENDBRANCH  39  42
ENDBRANCH  37  38
ENDBRANCH  36  37
ENDBRANCH  35  36
ENDBRANCH  34  35
ENDBRANCH   1  34
TORSDOF 22
ENDMDL
MODEL 3
REMARK VINA RESULT:      -7.2      3.817     10.668
REMARK SMILES COc1cc(/C=C2/SC(=O)N(c3ccc(O)cc3C)C2=O)ccc1OCC(=O)NCCCCCCNC(=O)c1ccc(-c2c3nc(c(-c4cc(S(=O)(=O)[O-])ccc4F)c4ccc([nH]4)c(-c4cc(S(=O)(=O)[O-])ccc4F)c4nc(c(-c5cc(S(=O)(=O)[O-])ccc5F)c5ccc2[nH]5)C=C4)C=C3)cc1
REMARK SMILES IDX 31 1 30 2 29 3 27 4 28 5 26 7 25 8 24 9 3 10 4 11 5 12 23 13
REMARK SMILES IDX 22 14 2 15 1 16 6 17 7 18 8 19 20 20 9 21 11 22 21 23 10 24
REMARK SMILES IDX 12 25 13 26 18 27 14 28 17 29 19 30 15 31 16 32 32 34 33 35
REMARK SMILES IDX 34 36 35 37 36 38 37 39 38 41 39 42 40 43 101 44 41 45
REMARK SMILES IDX 100 46 42 47 43 48 44 49 94 50 45 51 99 52 93 53 95 54 46 55
REMARK SMILES IDX 98 56 92 57 91 58 47 60 79 61 59 62 78 63 60 64 63 65 77 66
REMARK SMILES IDX 96 67 61 68 62 69 76 71 97 72 64 73 48 74 49 75 57 76 50 77
REMARK SMILES IDX 56 78 58 79 55 80 51 81 52 82 53 83 54 84 80 85 81 86 89 87
REMARK SMILES IDX 82 88 88 89 90 90 87 91 83 92 84 93 85 94 86 95 65 96 66 97
REMARK SMILES IDX 74 98 67 99 73 100 75 101 72 102 68 103 69 104 70 105 71 106
REMARK H PARENT 29 6 16 33 36 40 95 59 63 70
REMARK Flexibility Score: inf
ROOT
ATOM      1  C   UNL A   1      37.660  32.163  30.071  1.00  0.00     0.021 C 
ENDROOT
BRANCH   1   2
ATOM      2  C   UNL A   1      37.166  32.231  28.627  1.00  0.00     0.116 C 
BRANCH   2   3
ATOM      3  N   UNL A   1      36.332  31.099  28.271  1.00  0.00    -0.353 N 
ATOM      4  C   UNL A   1      36.705  29.882  27.779  1.00  0.00     0.257 C 
ATOM      5  O   UNL A   1      35.844  29.003  27.694  1.00  0.00    -0.271 OA
ATOM      6  H   UNL A   1      35.365  31.227  28.401  1.00  0.00     0.163 HD
BRANCH   4   7
ATOM      7  C   UNL A   1      38.173  29.621  27.428  1.00  0.00     0.329 C 
BRANCH   7   8
ATOM      8  O   UNL A   1      38.954  28.972  28.411  1.00  0.00    -0.480 OA
BRANCH   8   9
ATOM      9  C   UNL A   1      39.618  27.815  28.124  1.00  0.00     0.161 A 
ATOM     10  C   UNL A   1      40.545  27.566  27.106  1.00  0.00     0.161 A 
ATOM     11  C   UNL A   1      40.989  26.254  26.871  1.00  0.00     0.058 A 
ATOM     12  C   UNL A   1      40.533  25.199  27.670  1.00  0.00    -0.020 A 
ATOM     13  C   UNL A   1      39.231  26.760  28.961  1.00  0.00     0.051 A 
ATOM     14  C   UNL A   1      39.699  25.464  28.756  1.00  0.00     0.012 A 
BRANCH  10  15
ATOM     15  O   UNL A   1      40.903  28.550  26.224  1.00  0.00    -0.493 OA
ATOM     16  C   UNL A   1      42.171  29.124  26.543  1.00  0.00     0.278 C 
ENDBRANCH  10  15
BRANCH  12  17
ATOM     17  C   UNL A   1      40.712  23.810  27.233  1.00  0.00     0.029 C 
ATOM     18  C   UNL A   1      39.723  23.133  26.624  1.00  0.00     0.083 C 
ATOM     19  S   UNL A   1      39.830  21.479  26.166  1.00  0.00    -0.022 SA
ATOM     20  C   UNL A   1      38.366  23.664  26.283  1.00  0.00     0.272 C 
ATOM     21  C   UNL A   1      38.159  21.431  25.604  1.00  0.00     0.298 C 
ATOM     22  N   UNL A   1      37.558  22.650  25.799  1.00  0.00    -0.236 N 
ATOM     23  O   UNL A   1      38.035  24.830  26.441  1.00  0.00    -0.268 OA
ATOM     24  O   UNL A   1      37.703  20.427  25.072  1.00  0.00    -0.260 OA
BRANCH  22  25
ATOM     25  C   UNL A   1      36.198  22.915  25.463  1.00  0.00     0.056 A 
ATOM     26  C   UNL A   1      35.245  22.945  26.503  1.00  0.00     0.031 A 
ATOM     27  C   UNL A   1      35.753  23.071  24.132  1.00  0.00    -0.023 A 
ATOM     28  C   UNL A   1      33.889  23.139  26.245  1.00  0.00     0.048 A 
ATOM     29  C   UNL A   1      34.378  23.281  23.891  1.00  0.00     0.051 A 
ATOM     30  C   UNL A   1      36.638  22.949  22.921  1.00  0.00     0.047 C 
ATOM     31  C   UNL A   1      33.465  23.304  24.941  1.00  0.00     0.115 A 
BRANCH  31  32
ATOM     32  O   UNL A   1      32.130  23.465  24.723  1.00  0.00    -0.508 OA
ATOM     33  H   UNL A   1      31.561  23.677  25.437  1.00  0.00     0.293 HD
ENDBRANCH  31  32
ENDBRANCH  22  25
ENDBRANCH  12  17
ENDBRANCH   8   9
ENDBRANCH   7   8
ENDBRANCH   4   7
ENDBRANCH   2   3
ENDBRANCH   1   2
BRANCH   1  34
ATOM     34  C   UNL A   1      37.421  33.423  30.912  1.00  0.00     0.002 C 
BRANCH  34  35
ATOM     35  C   UNL A   1      36.000  33.616  31.447  1.00  0.00     0.002 C 
BRANCH  35  36
ATOM     36  C   UNL A   1      35.892  34.164  32.870  1.00  0.00     0.021 C 
BRANCH  36  37
ATOM     37  C   UNL A   1      37.201  34.221  33.647  1.00  0.00     0.116 C 
BRANCH  37  38
ATOM     38  N   UNL A   1      37.099  33.589  34.950  1.00  0.00    -0.352 N 
ATOM     39  C   UNL A   1      37.742  32.469  35.421  1.00  0.00     0.251 C 
ATOM     40  H   UNL A   1      36.485  34.023  35.585  1.00  0.00     0.163 HD
ATOM     41  O   UNL A   1      37.403  31.978  36.493  1.00  0.00    -0.269 OA
BRANCH  39  42
ATOM     42  C   UNL A   1      38.817  31.842  34.617  1.00  0.00     0.039 A 
ATOM     43  C   UNL A   1      38.467  30.960  33.592  1.00  0.00     0.014 A 
ATOM     44  C   UNL A   1      40.163  32.125  34.867  1.00  0.00     0.014 A 
ATOM     45  C   UNL A   1      39.462  30.411  32.779  1.00  0.00     0.010 A 
ATOM     46  C   UNL A   1      41.147  31.633  34.012  1.00  0.00     0.010 A 
ATOM     47  C   UNL A   1      40.807  30.768  32.960  1.00  0.00    -0.014 A 
BRANCH  47  48
ATOM     48  C   UNL A   1      41.873  30.239  32.069  1.00  0.00     0.031 A 
ATOM     49  C   UNL A   1      42.515  28.911  32.368  1.00  0.00     0.074 A 
ATOM     50  C   UNL A   1      42.306  30.980  31.029  1.00  0.00     0.049 A 
ATOM     51  N   UNL A   1      43.510  28.315  31.761  1.00  0.00    -0.248 NA
ATOM     52  C   UNL A   1      41.983  28.169  33.521  1.00  0.00     0.031 C 
ATOM     53  C   UNL A   1      41.790  32.300  30.660  1.00  0.00     0.029 A 
ATOM     54  N   UNL A   1      43.283  30.735  30.097  1.00  0.00    -0.354 N 
ATOM     55  C   UNL A   1      43.733  27.136  32.467  1.00  0.00     0.074 A 
ATOM     56  C   UNL A   1      42.809  27.136  33.581  1.00  0.00     0.031 C 
ATOM     57  C   UNL A   1      42.441  32.737  29.570  1.00  0.00     0.029 A 
ATOM     58  C   UNL A   1      43.448  31.753  29.186  1.00  0.00     0.049 A 
ATOM     59  H   UNL A   1      43.817  29.908  30.081  1.00  0.00     0.167 HD
ATOM     60  C   UNL A   1      44.610  26.137  32.196  1.00  0.00     0.034 A 
ATOM     61  C   UNL A   1      44.320  31.886  28.166  1.00  0.00     0.034 A 
ATOM     62  C   UNL A   1      45.515  26.147  31.072  1.00  0.00     0.049 A 
ATOM     63  C   UNL A   1      45.300  30.772  27.897  1.00  0.00     0.074 A 
ATOM     64  C   UNL A   1      46.406  25.165  30.674  1.00  0.00     0.029 A 
ATOM     65  N   UNL A   1      45.650  27.194  30.169  1.00  0.00    -0.354 N 
ATOM     66  N   UNL A   1      45.466  29.642  28.545  1.00  0.00    -0.248 NA
ATOM     67  C   UNL A   1      46.203  30.947  26.752  1.00  0.00     0.031 C 
ATOM     68  C   UNL A   1      47.124  25.645  29.571  1.00  0.00     0.029 A 
ATOM     69  C   UNL A   1      46.631  26.895  29.234  1.00  0.00     0.049 A 
ATOM     70  H   UNL A   1      45.127  28.028  30.190  1.00  0.00     0.167 HD
ATOM     71  C   UNL A   1      46.471  28.960  27.866  1.00  0.00     0.074 A 
ATOM     72  C   UNL A   1      46.862  29.799  26.752  1.00  0.00     0.031 C 
ATOM     73  C   UNL A   1      47.018  27.747  28.134  1.00  0.00     0.034 A 
BRANCH  60  74
ATOM     74  C   UNL A   1      44.643  24.967  33.151  1.00  0.00     0.023 A 
ATOM     75  C   UNL A   1      45.184  25.084  34.444  1.00  0.00     0.031 A 
ATOM     76  C   UNL A   1      44.156  23.708  32.755  1.00  0.00     0.131 A 
ATOM     77  C   UNL A   1      45.301  23.950  35.261  1.00  0.00     0.055 A 
ATOM     78  C   UNL A   1      44.197  22.602  33.606  1.00  0.00     0.041 A 
ATOM     79  F   UNL A   1      43.647  23.528  31.527  1.00  0.00    -0.206 F 
ATOM     80  C   UNL A   1      44.787  22.715  34.862  1.00  0.00     0.022 A 
BRANCH  77  81
ATOM     81  S   UNL A   1      46.267  24.081  36.791  1.00  0.00     0.124 S 
ATOM     82  O   UNL A   1      46.668  25.486  36.765  1.00  0.00    -0.237 OA
ATOM     83  O   UNL A   1      45.293  23.713  37.812  1.00  0.00    -0.237 OA
ATOM     84  O   UNL A   1      47.356  23.127  36.591  1.00  0.00    -0.744 OA
ENDBRANCH  77  81
ENDBRANCH  60  74
BRANCH  61  85
ATOM     85  C   UNL A   1      44.320  33.117  27.326  1.00  0.00     0.023 A 
ATOM     86  C   UNL A   1      44.766  34.344  27.842  1.00  0.00     0.031 A 
ATOM     87  C   UNL A   1      43.835  33.094  26.007  1.00  0.00     0.131 A 
ATOM     88  C   UNL A   1      44.673  35.507  27.062  1.00  0.00     0.055 A 
ATOM     89  C   UNL A   1      43.792  34.244  25.216  1.00  0.00     0.041 A 
ATOM     90  F   UNL A   1      43.402  31.945  25.462  1.00  0.00    -0.206 F 
ATOM     91  C   UNL A   1      44.201  35.463  25.748  1.00  0.00     0.022 A 
BRANCH  88  92
ATOM     92  S   UNL A   1      45.100  37.098  27.820  1.00  0.00     0.124 S 
ATOM     93  O   UNL A   1      44.653  36.902  29.195  1.00  0.00    -0.237 OA
ATOM     94  O   UNL A   1      46.544  37.153  27.616  1.00  0.00    -0.237 OA
ATOM     95  O   UNL A   1      44.326  38.064  27.043  1.00  0.00    -0.744 OA
ENDBRANCH  88  92
ENDBRANCH  61  85
BRANCH  73  96
ATOM     96  C   UNL A   1      48.067  27.241  27.174  1.00  0.00     0.023 A 
ATOM     97  C   UNL A   1      49.436  27.500  27.369  1.00  0.00     0.031 A 
ATOM     98  C   UNL A   1      47.688  26.501  26.040  1.00  0.00     0.131 A 
ATOM     99  C   UNL A   1      50.370  27.069  26.415  1.00  0.00     0.055 A 
ATOM    100  C   UNL A   1      48.629  26.024  25.126  1.00  0.00     0.041 A 
ATOM    101  F   UNL A   1      46.396  26.226  25.805  1.00  0.00    -0.206 F 
ATOM    102  C   UNL A   1      49.977  26.319  25.304  1.00  0.00     0.022 A 
BRANCH  99 103
ATOM    103  S   UNL A   1      52.101  27.579  26.600  1.00  0.00     0.124 S 
ATOM    104  O   UNL A   1      52.022  29.016  26.361  1.00  0.00    -0.237 OA
ATOM    105  O   UNL A   1      52.401  27.177  27.971  1.00  0.00    -0.237 OA
ATOM    106  O   UNL A   1      52.796  26.814  25.565  1.00  0.00    -0.744 OA
ENDBRANCH  99 103
ENDBRANCH  73  96
ENDBRANCH  47  48
ENDBRANCH  39  42
ENDBRANCH  37  38
ENDBRANCH  36  37
ENDBRANCH  35  36
ENDBRANCH  34  35
ENDBRANCH   1  34
TORSDOF 22
ENDMDL
