MODEL 1
REMARK VINA RESULT:     -10.9      0.000      0.000
REMARK SMILES CNS(=O)(=O)c1cc(C(=O)NCCCCCCNC(=O)c2ccc(-c3c4nc(c(-c5cc(S(=O)(=O)[O-])ccc5F)c5ccc([nH]5)c(-c5cc(S(=O)(=O)[O-])ccc5F)c5nc(c(-c6cc(S(=O)(=O)[O-])ccc6F)c6ccc3[nH]6)C=C5)C=C4)cc2)ccc1N(C)C
REMARK SMILES IDX 15 1 14 2 13 3 12 4 11 5 9 6 10 7 8 9 6 10 7 11 86 12 85 13
REMARK SMILES IDX 84 14 3 15 4 16 5 17 2 18 1 19 87 21 88 22 89 23 16 24 17 25
REMARK SMILES IDX 18 26 19 27 20 29 21 30 22 31 83 32 23 33 82 34 24 35 25 36
REMARK SMILES IDX 26 37 76 38 27 39 81 40 75 41 77 42 28 43 80 44 74 45 73 46
REMARK SMILES IDX 29 48 61 49 41 50 60 51 42 52 45 53 59 54 78 55 43 56 44 57
REMARK SMILES IDX 58 59 79 60 46 61 30 62 31 63 39 64 32 65 38 66 40 67 37 68
REMARK SMILES IDX 33 69 34 70 35 71 36 72 62 73 63 74 71 75 64 76 70 77 72 78
REMARK SMILES IDX 69 79 65 80 66 81 67 82 68 83 47 84 48 85 56 86 49 87 55 88
REMARK SMILES IDX 57 89 54 90 50 91 51 92 52 93 53 94
REMARK H PARENT 11 8 2 20 18 28 77 47 45 58
REMARK Flexibility Score: inf
ROOT
ATOM      1  C   UNL A   1      30.860  29.330  24.236  1.00  0.00     0.002 C 
ENDROOT
BRANCH   1   2
ATOM      2  C   UNL A   1      31.383  28.506  23.058  1.00  0.00     0.002 C 
BRANCH   2   3
ATOM      3  C   UNL A   1      30.443  27.441  22.490  1.00  0.00     0.021 C 
BRANCH   3   4
ATOM      4  C   UNL A   1      30.620  26.017  23.010  1.00  0.00     0.116 C 
BRANCH   4   5
ATOM      5  N   UNL A   1      30.072  25.797  24.338  1.00  0.00    -0.352 N 
ATOM      6  C   UNL A   1      30.668  25.326  25.485  1.00  0.00     0.251 C 
ATOM      7  O   UNL A   1      29.988  25.188  26.500  1.00  0.00    -0.269 OA
ATOM      8  H   UNL A   1      29.118  26.021  24.431  1.00  0.00     0.163 HD
BRANCH   6   9
ATOM      9  C   UNL A   1      32.103  24.936  25.514  1.00  0.00     0.041 A 
ATOM     10  C   UNL A   1      33.801  23.159  25.575  1.00  0.00     0.106 A 
ATOM     11  C   UNL A   1      32.445  23.587  25.612  1.00  0.00     0.037 A 
ATOM     12  C   UNL A   1      34.840  24.077  25.278  1.00  0.00     0.056 A 
ATOM     13  C   UNL A   1      34.452  25.438  25.377  1.00  0.00     0.028 A 
ATOM     14  C   UNL A   1      33.129  25.863  25.533  1.00  0.00     0.016 A 
BRANCH  10  15
ATOM     15  S   UNL A   1      34.049  21.490  26.188  1.00  0.00     0.242 S 
ATOM     16  O   UNL A   1      34.328  21.454  27.603  1.00  0.00    -0.207 OA
ATOM     17  O   UNL A   1      34.973  20.810  25.290  1.00  0.00    -0.207 OA
BRANCH  15  18
ATOM     18  N   UNL A   1      32.584  20.717  25.895  1.00  0.00    -0.214 NA
ATOM     19  C   UNL A   1      32.524  19.573  24.999  1.00  0.00     0.120 C 
ATOM     20  H   UNL A   1      32.234  20.399  26.800  1.00  0.00     0.141 HD
ENDBRANCH  15  18
ENDBRANCH  10  15
BRANCH  12  21
ATOM     21  N   UNL A   1      36.158  23.799  24.893  1.00  0.00    -0.377 N 
ATOM     22  C   UNL A   1      36.437  23.157  23.600  1.00  0.00     0.143 C 
ATOM     23  C   UNL A   1      37.218  23.595  25.881  1.00  0.00     0.143 C 
ENDBRANCH  12  21
ENDBRANCH   6   9
ENDBRANCH   4   5
ENDBRANCH   3   4
ENDBRANCH   2   3
ENDBRANCH   1   2
BRANCH   1  24
ATOM     24  C   UNL A   1      31.436  29.003  25.616  1.00  0.00     0.021 C 
BRANCH  24  25
ATOM     25  C   UNL A   1      32.706  29.747  26.018  1.00  0.00     0.116 C 
BRANCH  25  26
ATOM     26  N   UNL A   1      32.467  31.129  26.391  1.00  0.00    -0.352 N 
ATOM     27  C   UNL A   1      33.164  31.944  27.251  1.00  0.00     0.251 C 
ATOM     28  H   UNL A   1      31.685  31.547  25.963  1.00  0.00     0.163 HD
ATOM     29  O   UNL A   1      32.718  33.056  27.520  1.00  0.00    -0.269 OA
BRANCH  27  30
ATOM     30  C   UNL A   1      34.424  31.480  27.883  1.00  0.00     0.039 A 
ATOM     31  C   UNL A   1      35.481  32.386  28.011  1.00  0.00     0.014 A 
ATOM     32  C   UNL A   1      34.580  30.165  28.332  1.00  0.00     0.014 A 
ATOM     33  C   UNL A   1      36.664  31.998  28.648  1.00  0.00     0.010 A 
ATOM     34  C   UNL A   1      35.736  29.797  29.024  1.00  0.00     0.010 A 
ATOM     35  C   UNL A   1      36.788  30.711  29.195  1.00  0.00    -0.014 A 
BRANCH  35  36
ATOM     36  C   UNL A   1      38.004  30.310  29.954  1.00  0.00     0.031 A 
ATOM     37  C   UNL A   1      38.974  29.319  29.370  1.00  0.00     0.074 A 
ATOM     38  C   UNL A   1      38.199  30.788  31.199  1.00  0.00     0.049 A 
ATOM     39  N   UNL A   1      40.041  28.786  29.910  1.00  0.00    -0.248 NA
ATOM     40  C   UNL A   1      38.688  28.845  28.008  1.00  0.00     0.031 C 
ATOM     41  C   UNL A   1      37.311  31.723  31.893  1.00  0.00     0.029 A 
ATOM     42  N   UNL A   1      39.198  30.545  32.110  1.00  0.00    -0.354 N 
ATOM     43  C   UNL A   1      40.546  27.902  28.962  1.00  0.00     0.074 A 
ATOM     44  C   UNL A   1      39.635  27.935  27.836  1.00  0.00     0.031 C 
ATOM     45  C   UNL A   1      37.812  31.984  33.111  1.00  0.00     0.029 A 
ATOM     46  C   UNL A   1      39.031  31.206  33.305  1.00  0.00     0.049 A 
ATOM     47  H   UNL A   1      39.963  29.953  31.924  1.00  0.00     0.167 HD
ATOM     48  C   UNL A   1      41.674  27.149  29.017  1.00  0.00     0.034 A 
ATOM     49  C   UNL A   1      39.767  31.180  34.433  1.00  0.00     0.034 A 
ATOM     50  C   UNL A   1      42.580  27.139  30.141  1.00  0.00     0.049 A 
ATOM     51  C   UNL A   1      41.009  30.329  34.478  1.00  0.00     0.074 A 
ATOM     52  C   UNL A   1      43.782  26.462  30.274  1.00  0.00     0.029 A 
ATOM     53  N   UNL A   1      42.384  27.829  31.330  1.00  0.00    -0.354 N 
ATOM     54  N   UNL A   1      41.500  29.537  33.552  1.00  0.00    -0.248 NA
ATOM     55  C   UNL A   1      41.802  30.376  35.713  1.00  0.00     0.031 C 
ATOM     56  C   UNL A   1      44.277  26.693  31.563  1.00  0.00     0.029 A 
ATOM     57  C   UNL A   1      43.424  27.570  32.211  1.00  0.00     0.049 A 
ATOM     58  H   UNL A   1      41.618  28.418  31.519  1.00  0.00     0.167 HD
ATOM     59  C   UNL A   1      42.673  29.012  34.087  1.00  0.00     0.074 A 
ATOM     60  C   UNL A   1      42.823  29.589  35.407  1.00  0.00     0.031 C 
ATOM     61  C   UNL A   1      43.552  28.137  33.533  1.00  0.00     0.034 A 
BRANCH  48  62
ATOM     62  C   UNL A   1      41.969  26.254  27.836  1.00  0.00     0.023 A 
ATOM     63  C   UNL A   1      41.568  24.906  27.812  1.00  0.00     0.031 A 
ATOM     64  C   UNL A   1      42.687  26.745  26.731  1.00  0.00     0.131 A 
ATOM     65  C   UNL A   1      41.956  24.079  26.748  1.00  0.00     0.055 A 
ATOM     66  C   UNL A   1      42.999  25.937  25.636  1.00  0.00     0.041 A 
ATOM     67  F   UNL A   1      43.113  28.018  26.704  1.00  0.00    -0.206 F 
ATOM     68  C   UNL A   1      42.647  24.590  25.647  1.00  0.00     0.022 A 
BRANCH  65  69
ATOM     69  S   UNL A   1      41.674  22.293  26.894  1.00  0.00     0.124 S 
ATOM     70  O   UNL A   1      42.525  21.952  28.031  1.00  0.00    -0.237 OA
ATOM     71  O   UNL A   1      40.236  22.219  27.126  1.00  0.00    -0.237 OA
ATOM     72  O   UNL A   1      42.127  21.768  25.607  1.00  0.00    -0.744 OA
ENDBRANCH  65  69
ENDBRANCH  48  62
BRANCH  49  73
ATOM     73  C   UNL A   1      39.346  31.973  35.623  1.00  0.00     0.023 A 
ATOM     74  C   UNL A   1      38.579  31.392  36.646  1.00  0.00     0.031 A 
ATOM     75  C   UNL A   1      39.676  33.335  35.736  1.00  0.00     0.131 A 
ATOM     76  C   UNL A   1      38.134  32.181  37.719  1.00  0.00     0.055 A 
ATOM     77  C   UNL A   1      39.272  34.103  36.829  1.00  0.00     0.041 A 
ATOM     78  F   UNL A   1      40.413  33.936  34.789  1.00  0.00    -0.206 F 
ATOM     79  C   UNL A   1      38.485  33.529  37.823  1.00  0.00     0.022 A 
BRANCH  76  80
ATOM     80  S   UNL A   1      37.026  31.433  38.944  1.00  0.00     0.124 S 
ATOM     81  O   UNL A   1      37.824  31.523  40.161  1.00  0.00    -0.237 OA
ATOM     82  O   UNL A   1      35.862  32.309  38.873  1.00  0.00    -0.237 OA
ATOM     83  O   UNL A   1      36.818  30.080  38.432  1.00  0.00    -0.744 OA
ENDBRANCH  76  80
ENDBRANCH  49  73
BRANCH  61  84
ATOM     84  C   UNL A   1      44.772  27.787  34.349  1.00  0.00     0.023 A 
ATOM     85  C   UNL A   1      44.780  26.696  35.237  1.00  0.00     0.031 A 
ATOM     86  C   UNL A   1      45.938  28.565  34.247  1.00  0.00     0.131 A 
ATOM     87  C   UNL A   1      45.912  26.448  36.028  1.00  0.00     0.055 A 
ATOM     88  C   UNL A   1      47.081  28.279  34.995  1.00  0.00     0.041 A 
ATOM     89  F   UNL A   1      45.986  29.619  33.415  1.00  0.00    -0.206 F 
ATOM     90  C   UNL A   1      47.067  27.223  35.902  1.00  0.00     0.022 A 
BRANCH  87  91
ATOM     91  S   UNL A   1      45.824  25.147  37.290  1.00  0.00     0.124 S 
ATOM     92  O   UNL A   1      47.212  25.061  37.733  1.00  0.00    -0.237 OA
ATOM     93  O   UNL A   1      44.881  25.708  38.251  1.00  0.00    -0.237 OA
ATOM     94  O   UNL A   1      45.336  23.984  36.551  1.00  0.00    -0.744 OA
ENDBRANCH  87  91
ENDBRANCH  61  84
ENDBRANCH  35  36
ENDBRANCH  27  30
ENDBRANCH  25  26
ENDBRANCH  24  25
ENDBRANCH   1  24
TORSDOF 19
ENDMDL
MODEL 2
REMARK VINA RESULT:     -10.8      5.264      8.239
REMARK SMILES CNS(=O)(=O)c1cc(C(=O)NCCCCCCNC(=O)c2ccc(-c3c4nc(c(-c5cc(S(=O)(=O)[O-])ccc5F)c5ccc([nH]5)c(-c5cc(S(=O)(=O)[O-])ccc5F)c5nc(c(-c6cc(S(=O)(=O)[O-])ccc6F)c6ccc3[nH]6)C=C5)C=C4)cc2)ccc1N(C)C
REMARK SMILES IDX 15 1 14 2 13 3 12 4 11 5 9 6 10 7 8 9 6 10 7 11 86 12 85 13
REMARK SMILES IDX 84 14 3 15 4 16 5 17 2 18 1 19 87 21 88 22 89 23 16 24 17 25
REMARK SMILES IDX 18 26 19 27 20 29 21 30 22 31 83 32 23 33 82 34 24 35 25 36
REMARK SMILES IDX 26 37 76 38 27 39 81 40 75 41 77 42 28 43 80 44 74 45 73 46
REMARK SMILES IDX 29 48 61 49 41 50 60 51 42 52 45 53 59 54 78 55 43 56 44 57
REMARK SMILES IDX 58 59 79 60 46 61 30 62 31 63 39 64 32 65 38 66 40 67 37 68
REMARK SMILES IDX 33 69 34 70 35 71 36 72 62 73 63 74 71 75 64 76 70 77 72 78
REMARK SMILES IDX 69 79 65 80 66 81 67 82 68 83 47 84 48 85 56 86 49 87 55 88
REMARK SMILES IDX 57 89 54 90 50 91 51 92 52 93 53 94
REMARK H PARENT 11 8 2 20 18 28 77 47 45 58
REMARK Flexibility Score: inf
ROOT
ATOM      1  C   UNL A   1      34.670  21.312  24.950  1.00  0.00     0.002 C 
ENDROOT
BRANCH   1   2
ATOM      2  C   UNL A   1      34.742  22.833  24.794  1.00  0.00     0.002 C 
BRANCH   2   3
ATOM      3  C   UNL A   1      34.584  23.389  23.378  1.00  0.00     0.021 C 
BRANCH   3   4
ATOM      4  C   UNL A   1      33.197  23.292  22.750  1.00  0.00     0.116 C 
BRANCH   4   5
ATOM      5  N   UNL A   1      33.087  23.933  21.449  1.00  0.00    -0.352 N 
ATOM      6  C   UNL A   1      32.905  25.256  21.116  1.00  0.00     0.251 C 
ATOM      7  O   UNL A   1      32.806  25.565  19.930  1.00  0.00    -0.269 OA
ATOM      8  H   UNL A   1      33.155  23.319  20.682  1.00  0.00     0.163 HD
BRANCH   6   9
ATOM      9  C   UNL A   1      32.778  26.311  22.156  1.00  0.00     0.041 A 
ATOM     10  C   UNL A   1      31.352  27.878  23.401  1.00  0.00     0.106 A 
ATOM     11  C   UNL A   1      31.539  26.914  22.374  1.00  0.00     0.037 A 
ATOM     12  C   UNL A   1      32.380  28.142  24.341  1.00  0.00     0.056 A 
ATOM     13  C   UNL A   1      33.653  27.648  23.954  1.00  0.00     0.028 A 
ATOM     14  C   UNL A   1      33.861  26.790  22.869  1.00  0.00     0.016 A 
BRANCH  10  15
ATOM     15  S   UNL A   1      29.862  28.861  23.207  1.00  0.00     0.242 S 
ATOM     16  O   UNL A   1      29.810  29.979  24.119  1.00  0.00    -0.207 OA
ATOM     17  O   UNL A   1      28.722  27.954  23.171  1.00  0.00    -0.207 OA
BRANCH  15  18
ATOM     18  N   UNL A   1      29.947  29.439  21.630  1.00  0.00    -0.214 NA
ATOM     19  C   UNL A   1      29.113  30.556  21.211  1.00  0.00     0.120 C 
ATOM     20  H   UNL A   1      30.915  29.722  21.473  1.00  0.00     0.141 HD
ENDBRANCH  15  18
ENDBRANCH  10  15
BRANCH  12  21
ATOM     21  N   UNL A   1      32.281  28.799  25.574  1.00  0.00    -0.377 N 
ATOM     22  C   UNL A   1      33.267  29.819  25.956  1.00  0.00     0.143 C 
ATOM     23  C   UNL A   1      31.614  28.180  26.721  1.00  0.00     0.143 C 
ENDBRANCH  12  21
ENDBRANCH   6   9
ENDBRANCH   4   5
ENDBRANCH   3   4
ENDBRANCH   2   3
ENDBRANCH   1   2
BRANCH   1  24
ATOM     24  C   UNL A   1      35.982  20.540  24.791  1.00  0.00     0.021 C 
BRANCH  24  25
ATOM     25  C   UNL A   1      37.245  21.233  25.294  1.00  0.00     0.116 C 
BRANCH  25  26
ATOM     26  N   UNL A   1      38.309  20.306  25.634  1.00  0.00    -0.352 N 
ATOM     27  C   UNL A   1      39.569  20.552  26.126  1.00  0.00     0.251 C 
ATOM     28  H   UNL A   1      38.096  19.356  25.492  1.00  0.00     0.163 HD
ATOM     29  O   UNL A   1      40.365  19.623  26.233  1.00  0.00    -0.269 OA
BRANCH  27  30
ATOM     30  C   UNL A   1      39.988  21.929  26.489  1.00  0.00     0.039 A 
ATOM     31  C   UNL A   1      41.074  22.092  27.354  1.00  0.00     0.014 A 
ATOM     32  C   UNL A   1      39.315  23.054  26.003  1.00  0.00     0.014 A 
ATOM     33  C   UNL A   1      41.528  23.374  27.676  1.00  0.00     0.010 A 
ATOM     34  C   UNL A   1      39.807  24.332  26.273  1.00  0.00     0.010 A 
ATOM     35  C   UNL A   1      40.922  24.507  27.108  1.00  0.00    -0.014 A 
BRANCH  35  36
ATOM     36  C   UNL A   1      41.448  25.875  27.368  1.00  0.00     0.031 A 
ATOM     37  C   UNL A   1      42.802  26.280  26.853  1.00  0.00     0.074 A 
ATOM     38  C   UNL A   1      40.734  26.730  28.126  1.00  0.00     0.049 A 
ATOM     39  N   UNL A   1      43.463  27.393  27.046  1.00  0.00    -0.248 NA
ATOM     40  C   UNL A   1      43.518  25.290  26.036  1.00  0.00     0.031 C 
ATOM     41  C   UNL A   1      39.425  26.442  28.718  1.00  0.00     0.029 A 
ATOM     42  N   UNL A   1      41.009  28.009  28.542  1.00  0.00    -0.354 N 
ATOM     43  C   UNL A   1      44.679  27.233  26.389  1.00  0.00     0.074 A 
ATOM     44  C   UNL A   1      44.680  25.893  25.838  1.00  0.00     0.031 C 
ATOM     45  C   UNL A   1      39.007  27.517  29.406  1.00  0.00     0.029 A 
ATOM     46  C   UNL A   1      40.032  28.554  29.343  1.00  0.00     0.049 A 
ATOM     47  H   UNL A   1      41.830  28.492  28.290  1.00  0.00     0.167 HD
ATOM     48  C   UNL A   1      45.691  28.126  26.241  1.00  0.00     0.034 A 
ATOM     49  C   UNL A   1      39.972  29.746  29.968  1.00  0.00     0.034 A 
ATOM     50  C   UNL A   1      45.669  29.464  26.784  1.00  0.00     0.049 A 
ATOM     51  C   UNL A   1      41.110  30.718  29.800  1.00  0.00     0.074 A 
ATOM     52  C   UNL A   1      46.611  30.469  26.640  1.00  0.00     0.029 A 
ATOM     53  N   UNL A   1      44.657  29.984  27.581  1.00  0.00    -0.354 N 
ATOM     54  N   UNL A   1      42.232  30.569  29.132  1.00  0.00    -0.248 NA
ATOM     55  C   UNL A   1      40.971  32.023  30.460  1.00  0.00     0.031 C 
ATOM     56  C   UNL A   1      46.201  31.570  27.400  1.00  0.00     0.029 A 
ATOM     57  C   UNL A   1      44.968  31.281  27.962  1.00  0.00     0.049 A 
ATOM     58  H   UNL A   1      43.839  29.502  27.838  1.00  0.00     0.167 HD
ATOM     59  C   UNL A   1      42.918  31.772  29.273  1.00  0.00     0.074 A 
ATOM     60  C   UNL A   1      42.080  32.638  30.075  1.00  0.00     0.031 C 
ATOM     61  C   UNL A   1      44.131  32.129  28.777  1.00  0.00     0.034 A 
BRANCH  48  62
ATOM     62  C   UNL A   1      46.917  27.667  25.486  1.00  0.00     0.023 A 
ATOM     63  C   UNL A   1      47.133  28.024  24.143  1.00  0.00     0.031 A 
ATOM     64  C   UNL A   1      47.867  26.838  26.107  1.00  0.00     0.131 A 
ATOM     65  C   UNL A   1      48.226  27.489  23.444  1.00  0.00     0.055 A 
ATOM     66  C   UNL A   1      48.998  26.376  25.429  1.00  0.00     0.041 A 
ATOM     67  F   UNL A   1      47.707  26.449  27.382  1.00  0.00    -0.206 F 
ATOM     68  C   UNL A   1      49.174  26.687  24.084  1.00  0.00     0.022 A 
BRANCH  65  69
ATOM     69  S   UNL A   1      48.307  27.735  21.648  1.00  0.00     0.124 S 
ATOM     70  O   UNL A   1      49.353  28.749  21.538  1.00  0.00    -0.237 OA
ATOM     71  O   UNL A   1      48.652  26.404  21.162  1.00  0.00    -0.237 OA
ATOM     72  O   UNL A   1      46.963  28.197  21.304  1.00  0.00    -0.744 OA
ENDBRANCH  65  69
ENDBRANCH  48  62
BRANCH  49  73
ATOM     73  C   UNL A   1      38.800  30.088  30.822  1.00  0.00     0.023 A 
ATOM     74  C   UNL A   1      37.740  30.862  30.323  1.00  0.00     0.031 A 
ATOM     75  C   UNL A   1      38.740  29.673  32.164  1.00  0.00     0.131 A 
ATOM     76  C   UNL A   1      36.684  31.231  31.171  1.00  0.00     0.055 A 
ATOM     77  C   UNL A   1      37.664  30.002  32.990  1.00  0.00     0.041 A 
ATOM     78  F   UNL A   1      39.724  28.926  32.689  1.00  0.00    -0.206 F 
ATOM     79  C   UNL A   1      36.633  30.796  32.498  1.00  0.00     0.022 A 
BRANCH  76  80
ATOM     80  S   UNL A   1      35.409  32.350  30.532  1.00  0.00     0.124 S 
ATOM     81  O   UNL A   1      35.014  31.679  29.299  1.00  0.00    -0.237 OA
ATOM     82  O   UNL A   1      34.428  32.339  31.612  1.00  0.00    -0.237 OA
ATOM     83  O   UNL A   1      36.123  33.613  30.355  1.00  0.00    -0.744 OA
ENDBRANCH  76  80
ENDBRANCH  49  73
BRANCH  61  84
ATOM     84  C   UNL A   1      44.596  33.536  29.063  1.00  0.00     0.023 A 
ATOM     85  C   UNL A   1      44.186  34.626  28.274  1.00  0.00     0.031 A 
ATOM     86  C   UNL A   1      45.474  33.787  30.132  1.00  0.00     0.131 A 
ATOM     87  C   UNL A   1      44.698  35.906  28.532  1.00  0.00     0.055 A 
ATOM     88  C   UNL A   1      45.936  35.072  30.418  1.00  0.00     0.041 A 
ATOM     89  F   UNL A   1      45.899  32.783  30.917  1.00  0.00    -0.206 F 
ATOM     90  C   UNL A   1      45.558  36.139  29.609  1.00  0.00     0.022 A 
BRANCH  87  91
ATOM     91  S   UNL A   1      44.291  37.254  27.387  1.00  0.00     0.124 S 
ATOM     92  O   UNL A   1      43.253  36.647  26.561  1.00  0.00    -0.237 OA
ATOM     93  O   UNL A   1      43.850  38.310  28.292  1.00  0.00    -0.237 OA
ATOM     94  O   UNL A   1      45.557  37.515  26.702  1.00  0.00    -0.744 OA
ENDBRANCH  87  91
ENDBRANCH  61  84
ENDBRANCH  35  36
ENDBRANCH  27  30
ENDBRANCH  25  26
ENDBRANCH  24  25
ENDBRANCH   1  24
TORSDOF 19
ENDMDL
MODEL 3
REMARK VINA RESULT:     -10.7      2.358      7.974
REMARK SMILES CNS(=O)(=O)c1cc(C(=O)NCCCCCCNC(=O)c2ccc(-c3c4nc(c(-c5cc(S(=O)(=O)[O-])ccc5F)c5ccc([nH]5)c(-c5cc(S(=O)(=O)[O-])ccc5F)c5nc(c(-c6cc(S(=O)(=O)[O-])ccc6F)c6ccc3[nH]6)C=C5)C=C4)cc2)ccc1N(C)C
REMARK SMILES IDX 15 1 14 2 13 3 12 4 11 5 9 6 10 7 8 9 6 10 7 11 86 12 85 13
REMARK SMILES IDX 84 14 3 15 4 16 5 17 2 18 1 19 87 21 88 22 89 23 16 24 17 25
REMARK SMILES IDX 18 26 19 27 20 29 21 30 22 31 83 32 23 33 82 34 24 35 25 36
REMARK SMILES IDX 26 37 76 38 27 39 81 40 75 41 77 42 28 43 80 44 74 45 73 46
REMARK SMILES IDX 29 48 61 49 41 50 60 51 42 52 45 53 59 54 78 55 43 56 44 57
REMARK SMILES IDX 58 59 79 60 46 61 30 62 31 63 39 64 32 65 38 66 40 67 37 68
REMARK SMILES IDX 33 69 34 70 35 71 36 72 62 73 63 74 71 75 64 76 70 77 72 78
REMARK SMILES IDX 69 79 65 80 66 81 67 82 68 83 47 84 48 85 56 86 49 87 55 88
REMARK SMILES IDX 57 89 54 90 50 91 51 92 52 93 53 94
REMARK H PARENT 11 8 2 20 18 28 77 47 45 58
REMARK Flexibility Score: inf
ROOT
ATOM      1  C   UNL A   1      31.661  27.995  26.720  1.00  0.00     0.002 C 
ENDROOT
BRANCH   1   2
ATOM      2  C   UNL A   1      31.025  27.565  25.396  1.00  0.00     0.002 C 
BRANCH   2   3
ATOM      3  C   UNL A   1      30.745  28.669  24.375  1.00  0.00     0.021 C 
BRANCH   3   4
ATOM      4  C   UNL A   1      30.799  28.274  22.902  1.00  0.00     0.116 C 
BRANCH   4   5
ATOM      5  N   UNL A   1      32.140  28.261  22.339  1.00  0.00    -0.352 N 
ATOM      6  C   UNL A   1      33.084  27.260  22.300  1.00  0.00     0.251 C 
ATOM      7  O   UNL A   1      34.179  27.492  21.793  1.00  0.00    -0.269 OA
ATOM      8  H   UNL A   1      32.416  29.106  21.916  1.00  0.00     0.163 HD
BRANCH   6   9
ATOM      9  C   UNL A   1      32.828  25.923  22.899  1.00  0.00     0.041 A 
ATOM     10  C   UNL A   1      33.397  24.229  24.587  1.00  0.00     0.106 A 
ATOM     11  C   UNL A   1      33.643  25.470  23.937  1.00  0.00     0.037 A 
ATOM     12  C   UNL A   1      32.221  23.488  24.308  1.00  0.00     0.056 A 
ATOM     13  C   UNL A   1      31.547  23.901  23.130  1.00  0.00     0.028 A 
ATOM     14  C   UNL A   1      31.862  25.061  22.417  1.00  0.00     0.016 A 
BRANCH  10  15
ATOM     15  S   UNL A   1      34.797  23.617  25.529  1.00  0.00     0.242 S 
ATOM     16  O   UNL A   1      34.414  23.091  26.817  1.00  0.00    -0.207 OA
ATOM     17  O   UNL A   1      35.848  24.626  25.487  1.00  0.00    -0.207 OA
BRANCH  15  18
ATOM     18  N   UNL A   1      35.420  22.370  24.587  1.00  0.00    -0.214 NA
ATOM     19  C   UNL A   1      36.345  22.660  23.502  1.00  0.00     0.120 C 
ATOM     20  H   UNL A   1      35.904  21.736  25.223  1.00  0.00     0.141 HD
ENDBRANCH  15  18
ENDBRANCH  10  15
BRANCH  12  21
ATOM     21  N   UNL A   1      31.660  22.441  25.050  1.00  0.00    -0.377 N 
ATOM     22  C   UNL A   1      30.977  22.712  26.323  1.00  0.00     0.143 C 
ATOM     23  C   UNL A   1      32.164  21.071  24.945  1.00  0.00     0.143 C 
ENDBRANCH  12  21
ENDBRANCH   6   9
ENDBRANCH   4   5
ENDBRANCH   3   4
ENDBRANCH   2   3
ENDBRANCH   1   2
BRANCH   1  24
ATOM     24  C   UNL A   1      33.190  27.997  26.783  1.00  0.00     0.021 C 
BRANCH  24  25
ATOM     25  C   UNL A   1      33.903  29.083  25.983  1.00  0.00     0.116 C 
BRANCH  25  26
ATOM     26  N   UNL A   1      33.792  30.401  26.581  1.00  0.00    -0.352 N 
ATOM     27  C   UNL A   1      34.578  31.006  27.533  1.00  0.00     0.251 C 
ATOM     28  H   UNL A   1      33.039  30.944  26.255  1.00  0.00     0.163 HD
ATOM     29  O   UNL A   1      34.235  32.092  27.993  1.00  0.00    -0.269 OA
BRANCH  27  30
ATOM     30  C   UNL A   1      35.808  30.345  28.035  1.00  0.00     0.039 A 
ATOM     31  C   UNL A   1      36.965  30.403  27.252  1.00  0.00     0.014 A 
ATOM     32  C   UNL A   1      35.829  29.658  29.252  1.00  0.00     0.014 A 
ATOM     33  C   UNL A   1      38.156  29.837  27.718  1.00  0.00     0.010 A 
ATOM     34  C   UNL A   1      37.032  29.149  29.745  1.00  0.00     0.010 A 
ATOM     35  C   UNL A   1      38.210  29.237  28.986  1.00  0.00    -0.014 A 
BRANCH  35  36
ATOM     36  C   UNL A   1      39.489  28.709  29.535  1.00  0.00     0.031 A 
ATOM     37  C   UNL A   1      40.161  29.396  30.692  1.00  0.00     0.074 A 
ATOM     38  C   UNL A   1      40.078  27.648  28.948  1.00  0.00     0.049 A 
ATOM     39  N   UNL A   1      41.315  29.136  31.254  1.00  0.00    -0.248 NA
ATOM     40  C   UNL A   1      39.454  30.545  31.275  1.00  0.00     0.031 C 
ATOM     41  C   UNL A   1      39.547  26.919  27.795  1.00  0.00     0.029 A 
ATOM     42  N   UNL A   1      41.259  27.006  29.229  1.00  0.00    -0.354 N 
ATOM     43  C   UNL A   1      41.481  30.098  32.246  1.00  0.00     0.074 A 
ATOM     44  C   UNL A   1      40.331  30.977  32.169  1.00  0.00     0.031 C 
ATOM     45  C   UNL A   1      40.390  25.923  27.477  1.00  0.00     0.029 A 
ATOM     46  C   UNL A   1      41.541  25.966  28.373  1.00  0.00     0.049 A 
ATOM     47  H   UNL A   1      41.848  27.265  29.974  1.00  0.00     0.167 HD
ATOM     48  C   UNL A   1      42.487  30.225  33.148  1.00  0.00     0.034 A 
ATOM     49  C   UNL A   1      42.610  25.149  28.307  1.00  0.00     0.034 A 
ATOM     50  C   UNL A   1      43.619  29.331  33.222  1.00  0.00     0.049 A 
ATOM     51  C   UNL A   1      43.721  25.314  29.310  1.00  0.00     0.074 A 
ATOM     52  C   UNL A   1      44.660  29.331  34.136  1.00  0.00     0.029 A 
ATOM     53  N   UNL A   1      43.866  28.283  32.344  1.00  0.00    -0.354 N 
ATOM     54  N   UNL A   1      43.838  26.198  30.274  1.00  0.00    -0.248 NA
ATOM     55  C   UNL A   1      44.838  24.364  29.225  1.00  0.00     0.031 C 
ATOM     56  C   UNL A   1      45.565  28.327  33.773  1.00  0.00     0.029 A 
ATOM     57  C   UNL A   1      45.056  27.652  32.676  1.00  0.00     0.049 A 
ATOM     58  H   UNL A   1      43.280  28.026  31.596  1.00  0.00     0.167 HD
ATOM     59  C   UNL A   1      45.030  25.893  30.925  1.00  0.00     0.074 A 
ATOM     60  C   UNL A   1      45.586  24.736  30.254  1.00  0.00     0.031 C 
ATOM     61  C   UNL A   1      45.609  26.510  31.987  1.00  0.00     0.034 A 
BRANCH  48  62
ATOM     62  C   UNL A   1      42.416  31.391  34.107  1.00  0.00     0.023 A 
ATOM     63  C   UNL A   1      41.553  31.383  35.218  1.00  0.00     0.031 A 
ATOM     64  C   UNL A   1      43.200  32.538  33.892  1.00  0.00     0.131 A 
ATOM     65  C   UNL A   1      41.436  32.527  36.021  1.00  0.00     0.055 A 
ATOM     66  C   UNL A   1      43.139  33.642  34.744  1.00  0.00     0.041 A 
ATOM     67  F   UNL A   1      44.029  32.612  32.839  1.00  0.00    -0.206 F 
ATOM     68  C   UNL A   1      42.241  33.648  35.808  1.00  0.00     0.022 A 
BRANCH  65  69
ATOM     69  S   UNL A   1      40.110  32.582  37.257  1.00  0.00     0.124 S 
ATOM     70  O   UNL A   1      40.847  32.326  38.491  1.00  0.00    -0.237 OA
ATOM     71  O   UNL A   1      39.583  33.932  37.095  1.00  0.00    -0.237 OA
ATOM     72  O   UNL A   1      39.210  31.506  36.843  1.00  0.00    -0.744 OA
ENDBRANCH  65  69
ENDBRANCH  48  62
BRANCH  49  73
ATOM     73  C   UNL A   1      42.694  24.107  27.244  1.00  0.00     0.023 A 
ATOM     74  C   UNL A   1      42.038  22.874  27.385  1.00  0.00     0.031 A 
ATOM     75  C   UNL A   1      43.462  24.319  26.085  1.00  0.00     0.131 A 
ATOM     76  C   UNL A   1      42.193  21.883  26.402  1.00  0.00     0.055 A 
ATOM     77  C   UNL A   1      43.575  23.348  25.089  1.00  0.00     0.041 A 
ATOM     78  F   UNL A   1      44.105  25.482  25.899  1.00  0.00    -0.206 F 
ATOM     79  C   UNL A   1      42.948  22.116  25.250  1.00  0.00     0.022 A 
BRANCH  76  80
ATOM     80  S   UNL A   1      41.450  20.255  26.688  1.00  0.00     0.124 S 
ATOM     81  O   UNL A   1      40.093  20.612  27.084  1.00  0.00    -0.237 OA
ATOM     82  O   UNL A   1      41.592  19.624  25.380  1.00  0.00    -0.237 OA
ATOM     83  O   UNL A   1      42.281  19.683  27.746  1.00  0.00    -0.744 OA
ENDBRANCH  76  80
ENDBRANCH  49  73
BRANCH  61  84
ATOM     84  C   UNL A   1      46.895  25.913  32.505  1.00  0.00     0.023 A 
ATOM     85  C   UNL A   1      46.901  24.919  33.500  1.00  0.00     0.031 A 
ATOM     86  C   UNL A   1      48.132  26.356  32.005  1.00  0.00     0.131 A 
ATOM     87  C   UNL A   1      48.120  24.441  34.002  1.00  0.00     0.055 A 
ATOM     88  C   UNL A   1      49.341  25.837  32.469  1.00  0.00     0.041 A 
ATOM     89  F   UNL A   1      48.185  27.304  31.055  1.00  0.00    -0.206 F 
ATOM     90  C   UNL A   1      49.340  24.882  33.482  1.00  0.00     0.022 A 
BRANCH  87  91
ATOM     91  S   UNL A   1      48.094  23.294  35.408  1.00  0.00     0.124 S 
ATOM     92  O   UNL A   1      46.823  23.624  36.044  1.00  0.00    -0.237 OA
ATOM     93  O   UNL A   1      48.160  21.993  34.751  1.00  0.00    -0.237 OA
ATOM     94  O   UNL A   1      49.285  23.663  36.173  1.00  0.00    -0.744 OA
ENDBRANCH  87  91
ENDBRANCH  61  84
ENDBRANCH  35  36
ENDBRANCH  27  30
ENDBRANCH  25  26
ENDBRANCH  24  25
ENDBRANCH   1  24
TORSDOF 19
ENDMDL
