MODEL 1
REMARK VINA RESULT:     -11.8      0.000      0.000
REMARK SMILES CN(C)C(=O)[C@@H]1CC=CC[C@H]1C(=O)N1CCC(C(=O)NCCCCCCNC(=O)c2ccc(-c3c4nc(c(-c5cc(S(=O)(=O)[O-])ccc5F)c5ccc([nH]5)c(-c5cc(S(=O)(=O)[O-])ccc5F)c5nc(c(-c6cc(S(=O)(=O)[O-])ccc6F)c6ccc3[nH]6)C=C5)C=C4)cc2)CC1
REMARK SMILES IDX 24 1 23 2 22 3 21 4 20 5 18 6 19 7 17 9 12 10 13 11 14 12
REMARK SMILES IDX 15 13 94 14 16 15 93 16 11 17 6 18 7 19 8 20 10 21 9 22 4 23
REMARK SMILES IDX 1 24 2 25 3 26 5 27 25 28 26 29 27 30 28 31 29 33 30 34
REMARK SMILES IDX 31 35 92 36 32 37 91 38 33 39 34 40 35 41 85 42 36 43 90 44
REMARK SMILES IDX 84 45 86 46 37 47 89 48 83 49 82 50 38 52 70 53 50 54 69 55
REMARK SMILES IDX 51 56 54 57 68 58 87 59 52 60 53 61 67 63 88 64 55 65 39 66
REMARK SMILES IDX 40 67 48 68 41 69 47 70 49 71 46 72 42 73 43 74 44 75 45 76
REMARK SMILES IDX 71 77 72 78 80 79 73 80 79 81 81 82 78 83 74 84 75 85 76 86
REMARK SMILES IDX 77 87 56 88 57 89 65 90 58 91 64 92 66 93 63 94 59 95 60 96
REMARK SMILES IDX 61 97 62 98
REMARK H PARENT 20 8 27 32 86 51 54 62
REMARK Flexibility Score: inf
ROOT
ATOM      1  C   UNL A   1      31.807  30.067  25.646  1.00  0.00     0.002 C 
ENDROOT
BRANCH   1   2
ATOM      2  C   UNL A   1      30.706  29.739  24.631  1.00  0.00     0.002 C 
BRANCH   2   3
ATOM      3  C   UNL A   1      31.188  29.629  23.180  1.00  0.00     0.021 C 
BRANCH   3   4
ATOM      4  C   UNL A   1      30.881  28.279  22.538  1.00  0.00     0.116 C 
BRANCH   4   5
ATOM      5  N   UNL A   1      29.865  27.565  23.300  1.00  0.00    -0.356 N 
ATOM      6  C   UNL A   1      29.896  26.345  23.898  1.00  0.00     0.223 C 
ATOM      7  O   UNL A   1      28.862  25.927  24.426  1.00  0.00    -0.275 OA
ATOM      8  H   UNL A   1      29.013  28.049  23.397  1.00  0.00     0.163 HD
BRANCH   6   9
ATOM      9  C   UNL A   1      31.177  25.527  23.962  1.00  0.00     0.082 C 
ATOM     10  C   UNL A   1      32.057  21.574  24.566  1.00  0.00     0.226 C 
ATOM     11  O   UNL A   1      31.262  21.300  25.470  1.00  0.00    -0.275 OA
ATOM     12  N   UNL A   1      32.327  22.897  24.258  1.00  0.00    -0.342 N 
ATOM     13  C   UNL A   1      32.492  23.855  25.344  1.00  0.00     0.120 C 
ATOM     14  C   UNL A   1      32.279  23.460  22.921  1.00  0.00     0.120 C 
ATOM     15  C   UNL A   1      31.418  24.929  25.352  1.00  0.00     0.035 C 
ATOM     16  C   UNL A   1      31.208  24.531  22.795  1.00  0.00     0.035 C 
BRANCH  10  17
ATOM     17  C   UNL A   1      33.007  20.473  24.034  1.00  0.00     0.095 C 
ATOM     18  C   UNL A   1      34.086  19.925  24.979  1.00  0.00     0.095 C 
ATOM     19  C   UNL A   1      34.717  18.559  24.633  1.00  0.00     0.041 C 
ATOM     20  C   UNL A   1      33.935  17.703  23.697  1.00  0.00    -0.030 C 
ATOM     21  C   UNL A   1      32.102  19.375  23.437  1.00  0.00     0.041 C 
ATOM     22  C   UNL A   1      32.769  18.068  23.157  1.00  0.00    -0.030 C 
BRANCH  18  23
ATOM     23  C   UNL A   1      35.209  20.927  25.270  1.00  0.00     0.226 C 
ATOM     24  C   UNL A   1      35.995  22.977  26.324  1.00  0.00     0.146 C 
ATOM     25  N   UNL A   1      35.080  21.846  26.305  1.00  0.00    -0.349 N 
ATOM     26  C   UNL A   1      34.281  21.669  27.512  1.00  0.00     0.146 C 
ATOM     27  O   UNL A   1      36.186  20.940  24.511  1.00  0.00    -0.275 OA
ENDBRANCH  18  23
ENDBRANCH  10  17
ENDBRANCH   6   9
ENDBRANCH   4   5
ENDBRANCH   3   4
ENDBRANCH   2   3
ENDBRANCH   1   2
BRANCH   1  28
ATOM     28  C   UNL A   1      31.540  31.307  26.503  1.00  0.00     0.021 C 
BRANCH  28  29
ATOM     29  C   UNL A   1      32.797  31.971  27.053  1.00  0.00     0.116 C 
BRANCH  29  30
ATOM     30  N   UNL A   1      32.592  33.389  27.305  1.00  0.00    -0.352 N 
ATOM     31  C   UNL A   1      33.180  34.196  28.249  1.00  0.00     0.251 C 
ATOM     32  H   UNL A   1      31.939  33.833  26.717  1.00  0.00     0.163 HD
ATOM     33  O   UNL A   1      32.726  35.311  28.469  1.00  0.00    -0.269 OA
BRANCH  31  34
ATOM     34  C   UNL A   1      34.347  33.695  29.006  1.00  0.00     0.039 A 
ATOM     35  C   UNL A   1      34.148  32.731  29.996  1.00  0.00     0.014 A 
ATOM     36  C   UNL A   1      35.632  34.168  28.730  1.00  0.00     0.014 A 
ATOM     37  C   UNL A   1      35.249  32.193  30.666  1.00  0.00     0.010 A 
ATOM     38  C   UNL A   1      36.734  33.577  29.344  1.00  0.00     0.010 A 
ATOM     39  C   UNL A   1      36.553  32.582  30.318  1.00  0.00    -0.014 A 
BRANCH  39  40
ATOM     40  C   UNL A   1      37.741  31.957  30.957  1.00  0.00     0.031 A 
ATOM     41  C   UNL A   1      38.541  30.922  30.214  1.00  0.00     0.074 A 
ATOM     42  C   UNL A   1      38.061  32.279  32.226  1.00  0.00     0.049 A 
ATOM     43  N   UNL A   1      39.556  30.207  30.626  1.00  0.00    -0.248 NA
ATOM     44  C   UNL A   1      38.124  30.633  28.833  1.00  0.00     0.031 C 
ATOM     45  C   UNL A   1      37.342  33.247  33.058  1.00  0.00     0.029 A 
ATOM     46  N   UNL A   1      39.066  31.825  33.043  1.00  0.00    -0.354 N 
ATOM     47  C   UNL A   1      39.894  29.379  29.562  1.00  0.00     0.074 A 
ATOM     48  C   UNL A   1      38.934  29.636  28.510  1.00  0.00     0.031 C 
ATOM     49  C   UNL A   1      37.944  33.332  34.255  1.00  0.00     0.029 A 
ATOM     50  C   UNL A   1      39.056  32.387  34.299  1.00  0.00     0.049 A 
ATOM     51  H   UNL A   1      39.733  31.160  32.757  1.00  0.00     0.167 HD
ATOM     52  C   UNL A   1      40.923  28.501  29.464  1.00  0.00     0.034 A 
ATOM     53  C   UNL A   1      39.839  32.155  35.372  1.00  0.00     0.034 A 
ATOM     54  C   UNL A   1      41.872  28.260  30.525  1.00  0.00     0.049 A 
ATOM     55  C   UNL A   1      40.945  31.136  35.257  1.00  0.00     0.074 A 
ATOM     56  C   UNL A   1      42.981  27.432  30.515  1.00  0.00     0.029 A 
ATOM     57  N   UNL A   1      41.819  28.834  31.789  1.00  0.00    -0.354 N 
ATOM     58  N   UNL A   1      41.282  30.396  34.225  1.00  0.00    -0.248 NA
ATOM     59  C   UNL A   1      41.780  30.925  36.446  1.00  0.00     0.031 C 
ATOM     60  C   UNL A   1      43.548  27.441  31.793  1.00  0.00     0.029 A 
ATOM     61  C   UNL A   1      42.850  28.346  32.578  1.00  0.00     0.049 A 
ATOM     62  H   UNL A   1      41.147  29.492  32.082  1.00  0.00     0.167 HD
ATOM     63  C   UNL A   1      42.390  29.658  34.635  1.00  0.00     0.074 A 
ATOM     64  C   UNL A   1      42.670  30.053  35.999  1.00  0.00     0.031 C 
ATOM     65  C   UNL A   1      43.113  28.740  33.943  1.00  0.00     0.034 A 
BRANCH  52  66
ATOM     66  C   UNL A   1      41.053  27.717  28.179  1.00  0.00     0.023 A 
ATOM     67  C   UNL A   1      40.714  26.354  28.105  1.00  0.00     0.031 A 
ATOM     68  C   UNL A   1      41.541  28.336  27.014  1.00  0.00     0.131 A 
ATOM     69  C   UNL A   1      40.937  25.640  26.918  1.00  0.00     0.055 A 
ATOM     70  C   UNL A   1      41.678  27.639  25.811  1.00  0.00     0.041 A 
ATOM     71  F   UNL A   1      41.903  29.628  27.026  1.00  0.00    -0.206 F 
ATOM     72  C   UNL A   1      41.390  26.279  25.763  1.00  0.00     0.022 A 
BRANCH  69  73
ATOM     73  S   UNL A   1      40.770  23.834  26.953  1.00  0.00     0.124 S 
ATOM     74  O   UNL A   1      41.744  23.427  25.944  1.00  0.00    -0.237 OA
ATOM     75  O   UNL A   1      41.107  23.512  28.334  1.00  0.00    -0.237 OA
ATOM     76  O   UNL A   1      39.372  23.613  26.584  1.00  0.00    -0.744 OA
ENDBRANCH  69  73
ENDBRANCH  52  66
BRANCH  53  77
ATOM     77  C   UNL A   1      39.598  32.877  36.656  1.00  0.00     0.023 A 
ATOM     78  C   UNL A   1      38.760  32.338  37.644  1.00  0.00     0.031 A 
ATOM     79  C   UNL A   1      40.166  34.143  36.893  1.00  0.00     0.131 A 
ATOM     80  C   UNL A   1      38.472  33.080  38.801  1.00  0.00     0.055 A 
ATOM     81  C   UNL A   1      39.927  34.850  38.073  1.00  0.00     0.041 A 
ATOM     82  F   UNL A   1      40.974  34.708  35.982  1.00  0.00    -0.206 F 
ATOM     83  C   UNL A   1      39.062  34.326  39.029  1.00  0.00     0.022 A 
BRANCH  80  84
ATOM     84  S   UNL A   1      37.230  32.440  39.956  1.00  0.00     0.124 S 
ATOM     85  O   UNL A   1      37.031  33.583  40.840  1.00  0.00    -0.237 OA
ATOM     86  O   UNL A   1      36.122  32.119  39.062  1.00  0.00    -0.237 OA
ATOM     87  O   UNL A   1      37.893  31.289  40.564  1.00  0.00    -0.744 OA
ENDBRANCH  80  84
ENDBRANCH  53  77
BRANCH  65  88
ATOM     88  C   UNL A   1      44.308  28.134  34.641  1.00  0.00     0.023 A 
ATOM     89  C   UNL A   1      44.224  26.913  35.332  1.00  0.00     0.031 A 
ATOM     90  C   UNL A   1      45.550  28.792  34.611  1.00  0.00     0.131 A 
ATOM     91  C   UNL A   1      45.348  26.415  36.009  1.00  0.00     0.055 A 
ATOM     92  C   UNL A   1      46.681  28.259  35.230  1.00  0.00     0.041 A 
ATOM     93  F   UNL A   1      45.688  29.964  33.970  1.00  0.00    -0.206 F 
ATOM     94  C   UNL A   1      46.580  27.070  35.945  1.00  0.00     0.022 A 
BRANCH  91  95
ATOM     95  S   UNL A   1      45.155  24.945  37.055  1.00  0.00     0.124 S 
ATOM     96  O   UNL A   1      46.499  24.779  37.596  1.00  0.00    -0.237 OA
ATOM     97  O   UNL A   1      44.133  25.370  38.007  1.00  0.00    -0.237 OA
ATOM     98  O   UNL A   1      44.732  23.908  36.116  1.00  0.00    -0.744 OA
ENDBRANCH  91  95
ENDBRANCH  65  88
ENDBRANCH  39  40
ENDBRANCH  31  34
ENDBRANCH  29  30
ENDBRANCH  28  29
ENDBRANCH   1  28
TORSDOF 18
ENDMDL
MODEL 2
REMARK VINA RESULT:     -11.7      2.417      7.949
REMARK SMILES CN(C)C(=O)[C@@H]1CC=CC[C@H]1C(=O)N1CCC(C(=O)NCCCCCCNC(=O)c2ccc(-c3c4nc(c(-c5cc(S(=O)(=O)[O-])ccc5F)c5ccc([nH]5)c(-c5cc(S(=O)(=O)[O-])ccc5F)c5nc(c(-c6cc(S(=O)(=O)[O-])ccc6F)c6ccc3[nH]6)C=C5)C=C4)cc2)CC1
REMARK SMILES IDX 24 1 23 2 22 3 21 4 20 5 18 6 19 7 17 9 12 10 13 11 14 12
REMARK SMILES IDX 15 13 94 14 16 15 93 16 11 17 6 18 7 19 8 20 10 21 9 22 4 23
REMARK SMILES IDX 1 24 2 25 3 26 5 27 25 28 26 29 27 30 28 31 29 33 30 34
REMARK SMILES IDX 31 35 92 36 32 37 91 38 33 39 34 40 35 41 85 42 36 43 90 44
REMARK SMILES IDX 84 45 86 46 37 47 89 48 83 49 82 50 38 52 70 53 50 54 69 55
REMARK SMILES IDX 51 56 54 57 68 58 87 59 52 60 53 61 67 63 88 64 55 65 39 66
REMARK SMILES IDX 40 67 48 68 41 69 47 70 49 71 46 72 42 73 43 74 44 75 45 76
REMARK SMILES IDX 71 77 72 78 80 79 73 80 79 81 81 82 78 83 74 84 75 85 76 86
REMARK SMILES IDX 77 87 56 88 57 89 65 90 58 91 64 92 66 93 63 94 59 95 60 96
REMARK SMILES IDX 61 97 62 98
REMARK H PARENT 20 8 27 32 86 51 54 62
REMARK Flexibility Score: inf
ROOT
ATOM      1  C   UNL A   1      31.699  29.058  24.852  1.00  0.00     0.002 C 
ENDROOT
BRANCH   1   2
ATOM      2  C   UNL A   1      30.643  30.142  24.607  1.00  0.00     0.002 C 
BRANCH   2   3
ATOM      3  C   UNL A   1      29.945  30.057  23.245  1.00  0.00     0.021 C 
BRANCH   3   4
ATOM      4  C   UNL A   1      29.990  28.663  22.624  1.00  0.00     0.116 C 
BRANCH   4   5
ATOM      5  N   UNL A   1      28.852  27.867  23.063  1.00  0.00    -0.356 N 
ATOM      6  C   UNL A   1      28.792  26.763  23.853  1.00  0.00     0.223 C 
ATOM      7  O   UNL A   1      27.695  26.221  24.016  1.00  0.00    -0.275 OA
ATOM      8  H   UNL A   1      27.981  28.183  22.730  1.00  0.00     0.163 HD
BRANCH   6   9
ATOM      9  C   UNL A   1      30.027  26.227  24.561  1.00  0.00     0.082 C 
ATOM     10  C   UNL A   1      31.299  22.521  25.749  1.00  0.00     0.226 C 
ATOM     11  O   UNL A   1      30.245  22.049  26.190  1.00  0.00    -0.275 OA
ATOM     12  N   UNL A   1      31.408  23.883  25.524  1.00  0.00    -0.342 N 
ATOM     13  C   UNL A   1      30.843  24.808  26.498  1.00  0.00     0.120 C 
ATOM     14  C   UNL A   1      31.882  24.480  24.289  1.00  0.00     0.120 C 
ATOM     15  C   UNL A   1      29.699  25.633  25.935  1.00  0.00     0.035 C 
ATOM     16  C   UNL A   1      30.805  25.310  23.609  1.00  0.00     0.035 C 
BRANCH  10  17
ATOM     17  C   UNL A   1      32.588  21.665  25.794  1.00  0.00     0.095 C 
ATOM     18  C   UNL A   1      33.334  21.403  24.478  1.00  0.00     0.095 C 
ATOM     19  C   UNL A   1      34.810  20.959  24.566  1.00  0.00     0.041 C 
ATOM     20  C   UNL A   1      35.498  21.249  25.855  1.00  0.00    -0.030 C 
ATOM     21  C   UNL A   1      33.479  22.285  26.890  1.00  0.00     0.041 C 
ATOM     22  C   UNL A   1      34.904  21.836  26.897  1.00  0.00    -0.030 C 
BRANCH  18  23
ATOM     23  C   UNL A   1      32.590  20.457  23.531  1.00  0.00     0.226 C 
ATOM     24  C   UNL A   1      32.193  18.218  22.657  1.00  0.00     0.146 C 
ATOM     25  N   UNL A   1      32.611  19.084  23.748  1.00  0.00    -0.349 N 
ATOM     26  C   UNL A   1      32.779  18.425  25.038  1.00  0.00     0.146 C 
ATOM     27  O   UNL A   1      32.043  20.945  22.534  1.00  0.00    -0.275 OA
ENDBRANCH  18  23
ENDBRANCH  10  17
ENDBRANCH   6   9
ENDBRANCH   4   5
ENDBRANCH   3   4
ENDBRANCH   2   3
ENDBRANCH   1   2
BRANCH   1  28
ATOM     28  C   UNL A   1      32.218  28.982  26.290  1.00  0.00     0.021 C 
BRANCH  28  29
ATOM     29  C   UNL A   1      33.609  29.572  26.487  1.00  0.00     0.116 C 
BRANCH  29  30
ATOM     30  N   UNL A   1      33.553  30.904  27.071  1.00  0.00    -0.352 N 
ATOM     31  C   UNL A   1      34.353  31.460  28.040  1.00  0.00     0.251 C 
ATOM     32  H   UNL A   1      32.842  31.488  26.724  1.00  0.00     0.163 HD
ATOM     33  O   UNL A   1      34.025  32.511  28.575  1.00  0.00    -0.269 OA
BRANCH  31  34
ATOM     34  C   UNL A   1      35.595  30.765  28.442  1.00  0.00     0.039 A 
ATOM     35  C   UNL A   1      36.790  31.087  27.796  1.00  0.00     0.014 A 
ATOM     36  C   UNL A   1      35.579  29.808  29.459  1.00  0.00     0.014 A 
ATOM     37  C   UNL A   1      37.983  30.494  28.217  1.00  0.00     0.010 A 
ATOM     38  C   UNL A   1      36.778  29.276  29.928  1.00  0.00     0.010 A 
ATOM     39  C   UNL A   1      37.992  29.615  29.312  1.00  0.00    -0.014 A 
BRANCH  39  40
ATOM     40  C   UNL A   1      39.263  29.043  29.831  1.00  0.00     0.031 A 
ATOM     41  C   UNL A   1      39.949  29.676  31.011  1.00  0.00     0.074 A 
ATOM     42  C   UNL A   1      39.826  27.992  29.202  1.00  0.00     0.049 A 
ATOM     43  N   UNL A   1      41.098  29.376  31.559  1.00  0.00    -0.248 NA
ATOM     44  C   UNL A   1      39.264  30.816  31.638  1.00  0.00     0.031 C 
ATOM     45  C   UNL A   1      39.269  27.314  28.029  1.00  0.00     0.029 A 
ATOM     46  N   UNL A   1      40.993  27.314  29.451  1.00  0.00    -0.354 N 
ATOM     47  C   UNL A   1      41.279  30.292  32.588  1.00  0.00     0.074 A 
ATOM     48  C   UNL A   1      40.150  31.198  32.545  1.00  0.00     0.031 C 
ATOM     49  C   UNL A   1      40.080  26.303  27.679  1.00  0.00     0.029 A 
ATOM     50  C   UNL A   1      41.242  26.293  28.563  1.00  0.00     0.049 A 
ATOM     51  H   UNL A   1      41.596  27.538  30.197  1.00  0.00     0.167 HD
ATOM     52  C   UNL A   1      42.282  30.359  33.498  1.00  0.00     0.034 A 
ATOM     53  C   UNL A   1      42.294  25.457  28.459  1.00  0.00     0.034 A 
ATOM     54  C   UNL A   1      43.398  29.445  33.526  1.00  0.00     0.049 A 
ATOM     55  C   UNL A   1      43.424  25.583  29.450  1.00  0.00     0.074 A 
ATOM     56  C   UNL A   1      44.442  29.389  34.433  1.00  0.00     0.029 A 
ATOM     57  N   UNL A   1      43.626  28.434  32.600  1.00  0.00    -0.354 N 
ATOM     58  N   UNL A   1      43.555  26.426  30.450  1.00  0.00    -0.248 NA
ATOM     59  C   UNL A   1      44.542  24.643  29.305  1.00  0.00     0.031 C 
ATOM     60  C   UNL A   1      45.340  28.404  34.010  1.00  0.00     0.029 A 
ATOM     61  C   UNL A   1      44.813  27.779  32.891  1.00  0.00     0.049 A 
ATOM     62  H   UNL A   1      43.031  28.215  31.847  1.00  0.00     0.167 HD
ATOM     63  C   UNL A   1      44.756  26.092  31.071  1.00  0.00     0.074 A 
ATOM     64  C   UNL A   1      45.301  24.965  30.343  1.00  0.00     0.031 C 
ATOM     65  C   UNL A   1      45.352  26.662  32.149  1.00  0.00     0.034 A 
BRANCH  52  66
ATOM     66  C   UNL A   1      42.230  31.476  34.515  1.00  0.00     0.023 A 
ATOM     67  C   UNL A   1      41.291  31.481  35.562  1.00  0.00     0.031 A 
ATOM     68  C   UNL A   1      43.120  32.561  34.427  1.00  0.00     0.131 A 
ATOM     69  C   UNL A   1      41.214  32.581  36.429  1.00  0.00     0.055 A 
ATOM     70  C   UNL A   1      43.094  33.612  35.347  1.00  0.00     0.041 A 
ATOM     71  F   UNL A   1      44.024  32.626  33.438  1.00  0.00    -0.206 F 
ATOM     72  C   UNL A   1      42.127  33.633  36.346  1.00  0.00     0.022 A 
BRANCH  69  73
ATOM     73  S   UNL A   1      39.806  32.685  37.570  1.00  0.00     0.124 S 
ATOM     74  O   UNL A   1      40.473  32.621  38.867  1.00  0.00    -0.237 OA
ATOM     75  O   UNL A   1      39.210  33.968  37.218  1.00  0.00    -0.237 OA
ATOM     76  O   UNL A   1      39.005  31.510  37.231  1.00  0.00    -0.744 OA
ENDBRANCH  69  73
ENDBRANCH  52  66
BRANCH  53  77
ATOM     77  C   UNL A   1      42.349  24.441  27.366  1.00  0.00     0.023 A 
ATOM     78  C   UNL A   1      41.587  23.264  27.434  1.00  0.00     0.031 A 
ATOM     79  C   UNL A   1      43.201  24.610  26.260  1.00  0.00     0.131 A 
ATOM     80  C   UNL A   1      41.729  22.279  26.443  1.00  0.00     0.055 A 
ATOM     81  C   UNL A   1      43.292  23.656  25.245  1.00  0.00     0.041 A 
ATOM     82  F   UNL A   1      43.955  25.715  26.144  1.00  0.00    -0.206 F 
ATOM     83  C   UNL A   1      42.565  22.474  25.341  1.00  0.00     0.022 A 
BRANCH  80  84
ATOM     84  S   UNL A   1      40.885  20.691  26.671  1.00  0.00     0.124 S 
ATOM     85  O   UNL A   1      41.763  19.782  25.944  1.00  0.00    -0.237 OA
ATOM     86  O   UNL A   1      40.880  20.556  28.124  1.00  0.00    -0.237 OA
ATOM     87  O   UNL A   1      39.574  20.913  26.063  1.00  0.00    -0.744 OA
ENDBRANCH  80  84
ENDBRANCH  53  77
BRANCH  65  88
ATOM     88  C   UNL A   1      46.643  26.044  32.632  1.00  0.00     0.023 A 
ATOM     89  C   UNL A   1      46.659  24.969  33.538  1.00  0.00     0.031 A 
ATOM     90  C   UNL A   1      47.877  26.541  32.176  1.00  0.00     0.131 A 
ATOM     91  C   UNL A   1      47.883  24.461  33.998  1.00  0.00     0.055 A 
ATOM     92  C   UNL A   1      49.090  25.988  32.586  1.00  0.00     0.041 A 
ATOM     93  F   UNL A   1      47.924  27.569  31.314  1.00  0.00    -0.206 F 
ATOM     94  C   UNL A   1      49.098  24.950  33.513  1.00  0.00     0.022 A 
BRANCH  91  95
ATOM     95  S   UNL A   1      47.868  23.212  35.314  1.00  0.00     0.124 S 
ATOM     96  O   UNL A   1      49.258  22.769  35.326  1.00  0.00    -0.237 OA
ATOM     97  O   UNL A   1      47.437  23.985  36.475  1.00  0.00    -0.237 OA
ATOM     98  O   UNL A   1      46.905  22.221  34.838  1.00  0.00    -0.744 OA
ENDBRANCH  91  95
ENDBRANCH  65  88
ENDBRANCH  39  40
ENDBRANCH  31  34
ENDBRANCH  29  30
ENDBRANCH  28  29
ENDBRANCH   1  28
TORSDOF 18
ENDMDL
MODEL 3
REMARK VINA RESULT:     -11.6      2.938      7.945
REMARK SMILES CN(C)C(=O)[C@@H]1CC=CC[C@H]1C(=O)N1CCC(C(=O)NCCCCCCNC(=O)c2ccc(-c3c4nc(c(-c5cc(S(=O)(=O)[O-])ccc5F)c5ccc([nH]5)c(-c5cc(S(=O)(=O)[O-])ccc5F)c5nc(c(-c6cc(S(=O)(=O)[O-])ccc6F)c6ccc3[nH]6)C=C5)C=C4)cc2)CC1
REMARK SMILES IDX 24 1 23 2 22 3 21 4 20 5 18 6 19 7 17 9 12 10 13 11 14 12
REMARK SMILES IDX 15 13 94 14 16 15 93 16 11 17 6 18 7 19 8 20 10 21 9 22 4 23
REMARK SMILES IDX 1 24 2 25 3 26 5 27 25 28 26 29 27 30 28 31 29 33 30 34
REMARK SMILES IDX 31 35 92 36 32 37 91 38 33 39 34 40 35 41 85 42 36 43 90 44
REMARK SMILES IDX 84 45 86 46 37 47 89 48 83 49 82 50 38 52 70 53 50 54 69 55
REMARK SMILES IDX 51 56 54 57 68 58 87 59 52 60 53 61 67 63 88 64 55 65 39 66
REMARK SMILES IDX 40 67 48 68 41 69 47 70 49 71 46 72 42 73 43 74 44 75 45 76
REMARK SMILES IDX 71 77 72 78 80 79 73 80 79 81 81 82 78 83 74 84 75 85 76 86
REMARK SMILES IDX 77 87 56 88 57 89 65 90 58 91 64 92 66 93 63 94 59 95 60 96
REMARK SMILES IDX 61 97 62 98
REMARK H PARENT 20 8 27 32 86 51 54 62
REMARK Flexibility Score: inf
ROOT
ATOM      1  C   UNL A   1      32.652  28.251  26.430  1.00  0.00     0.002 C 
ENDROOT
BRANCH   1   2
ATOM      2  C   UNL A   1      31.401  28.926  25.857  1.00  0.00     0.002 C 
BRANCH   2   3
ATOM      3  C   UNL A   1      31.600  29.582  24.487  1.00  0.00     0.021 C 
BRANCH   3   4
ATOM      4  C   UNL A   1      31.320  28.643  23.316  1.00  0.00     0.116 C 
BRANCH   4   5
ATOM      5  N   UNL A   1      30.181  27.784  23.607  1.00  0.00    -0.356 N 
ATOM      6  C   UNL A   1      30.111  26.443  23.824  1.00  0.00     0.223 C 
ATOM      7  O   UNL A   1      28.998  25.934  23.977  1.00  0.00    -0.275 OA
ATOM      8  H   UNL A   1      29.317  28.252  23.653  1.00  0.00     0.163 HD
BRANCH   6   9
ATOM      9  C   UNL A   1      31.368  25.592  23.925  1.00  0.00     0.082 C 
ATOM     10  C   UNL A   1      32.121  21.609  24.506  1.00  0.00     0.226 C 
ATOM     11  O   UNL A   1      31.285  21.344  25.376  1.00  0.00    -0.275 OA
ATOM     12  N   UNL A   1      32.437  22.929  24.228  1.00  0.00    -0.342 N 
ATOM     13  C   UNL A   1      32.584  23.868  25.332  1.00  0.00     0.120 C 
ATOM     14  C   UNL A   1      32.455  23.510  22.899  1.00  0.00     0.120 C 
ATOM     15  C   UNL A   1      31.539  24.969  25.315  1.00  0.00     0.035 C 
ATOM     16  C   UNL A   1      31.418  24.611  22.747  1.00  0.00     0.035 C 
BRANCH  10  17
ATOM     17  C   UNL A   1      33.062  20.491  23.996  1.00  0.00     0.095 C 
ATOM     18  C   UNL A   1      34.091  19.904  24.972  1.00  0.00     0.095 C 
ATOM     19  C   UNL A   1      34.699  18.526  24.632  1.00  0.00     0.041 C 
ATOM     20  C   UNL A   1      33.931  17.702  23.657  1.00  0.00    -0.030 C 
ATOM     21  C   UNL A   1      32.153  19.424  23.350  1.00  0.00     0.041 C 
ATOM     22  C   UNL A   1      32.796  18.103  23.078  1.00  0.00    -0.030 C 
BRANCH  18  23
ATOM     23  C   UNL A   1      35.227  20.872  25.319  1.00  0.00     0.226 C 
ATOM     24  C   UNL A   1      36.024  22.890  26.425  1.00  0.00     0.146 C 
ATOM     25  N   UNL A   1      35.081  21.784  26.357  1.00  0.00    -0.349 N 
ATOM     26  C   UNL A   1      34.231  21.616  27.530  1.00  0.00     0.146 C 
ATOM     27  O   UNL A   1      36.233  20.867  24.599  1.00  0.00    -0.275 OA
ENDBRANCH  18  23
ENDBRANCH  10  17
ENDBRANCH   6   9
ENDBRANCH   4   5
ENDBRANCH   3   4
ENDBRANCH   2   3
ENDBRANCH   1   2
BRANCH   1  28
ATOM     28  C   UNL A   1      33.393  29.069  27.491  1.00  0.00     0.021 C 
BRANCH  28  29
ATOM     29  C   UNL A   1      34.155  30.268  26.940  1.00  0.00     0.116 C 
BRANCH  29  30
ATOM     30  N   UNL A   1      34.031  31.431  27.805  1.00  0.00    -0.352 N 
ATOM     31  C   UNL A   1      34.772  31.773  28.911  1.00  0.00     0.251 C 
ATOM     32  H   UNL A   1      33.316  32.063  27.564  1.00  0.00     0.163 HD
ATOM     33  O   UNL A   1      34.387  32.668  29.652  1.00  0.00    -0.269 OA
BRANCH  31  34
ATOM     34  C   UNL A   1      36.018  31.033  29.206  1.00  0.00     0.039 A 
ATOM     35  C   UNL A   1      37.231  31.535  28.729  1.00  0.00     0.014 A 
ATOM     36  C   UNL A   1      35.988  29.857  29.959  1.00  0.00     0.014 A 
ATOM     37  C   UNL A   1      38.423  30.889  29.064  1.00  0.00     0.010 A 
ATOM     38  C   UNL A   1      37.181  29.259  30.355  1.00  0.00     0.010 A 
ATOM     39  C   UNL A   1      38.411  29.769  29.912  1.00  0.00    -0.014 A 
BRANCH  39  40
ATOM     40  C   UNL A   1      39.675  29.121  30.352  1.00  0.00     0.031 A 
ATOM     41  C   UNL A   1      40.415  29.646  31.552  1.00  0.00     0.074 A 
ATOM     42  C   UNL A   1      40.185  28.101  29.634  1.00  0.00     0.049 A 
ATOM     43  N   UNL A   1      41.568  29.271  32.043  1.00  0.00    -0.248 NA
ATOM     44  C   UNL A   1      39.786  30.761  32.278  1.00  0.00     0.031 C 
ATOM     45  C   UNL A   1      39.574  27.526  28.433  1.00  0.00     0.029 A 
ATOM     46  N   UNL A   1      41.335  27.370  29.800  1.00  0.00    -0.354 N 
ATOM     47  C   UNL A   1      41.808  30.106  33.129  1.00  0.00     0.074 A 
ATOM     48  C   UNL A   1      40.710  31.048  33.183  1.00  0.00     0.031 C 
ATOM     49  C   UNL A   1      40.340  26.517  27.989  1.00  0.00     0.029 A 
ATOM     50  C   UNL A   1      41.524  26.407  28.835  1.00  0.00     0.049 A 
ATOM     51  H   UNL A   1      41.965  27.520  30.542  1.00  0.00     0.167 HD
ATOM     52  C   UNL A   1      42.838  30.075  34.011  1.00  0.00     0.034 A 
ATOM     53  C   UNL A   1      42.545  25.548  28.641  1.00  0.00     0.034 A 
ATOM     54  C   UNL A   1      43.922  29.126  33.941  1.00  0.00     0.049 A 
ATOM     55  C   UNL A   1      43.705  25.566  29.604  1.00  0.00     0.074 A 
ATOM     56  C   UNL A   1      44.988  28.972  34.811  1.00  0.00     0.029 A 
ATOM     57  N   UNL A   1      44.090  28.178  32.940  1.00  0.00    -0.354 N 
ATOM     58  N   UNL A   1      43.892  26.331  30.657  1.00  0.00    -0.248 NA
ATOM     59  C   UNL A   1      44.786  24.604  29.361  1.00  0.00     0.031 C 
ATOM     60  C   UNL A   1      45.840  27.992  34.293  1.00  0.00     0.029 A 
ATOM     61  C   UNL A   1      45.262  27.466  33.148  1.00  0.00     0.049 A 
ATOM     62  H   UNL A   1      43.467  28.032  32.191  1.00  0.00     0.167 HD
ATOM     63  C   UNL A   1      45.098  25.916  31.217  1.00  0.00     0.074 A 
ATOM     64  C   UNL A   1      45.583  24.827  30.395  1.00  0.00     0.031 C 
ATOM     65  C   UNL A   1      45.742  26.388  32.314  1.00  0.00     0.034 A 
BRANCH  52  66
ATOM     66  C   UNL A   1      42.851  31.118  35.105  1.00  0.00     0.023 A 
ATOM     67  C   UNL A   1      43.420  32.389  34.909  1.00  0.00     0.031 A 
ATOM     68  C   UNL A   1      42.305  30.831  36.369  1.00  0.00     0.131 A 
ATOM     69  C   UNL A   1      43.495  33.295  35.977  1.00  0.00     0.055 A 
ATOM     70  C   UNL A   1      42.307  31.770  37.403  1.00  0.00     0.041 A 
ATOM     71  F   UNL A   1      41.769  29.628  36.625  1.00  0.00    -0.206 F 
ATOM     72  C   UNL A   1      42.918  33.005  37.214  1.00  0.00     0.022 A 
BRANCH  69  73
ATOM     73  S   UNL A   1      44.494  34.796  35.768  1.00  0.00     0.124 S 
ATOM     74  O   UNL A   1      45.065  34.958  37.102  1.00  0.00    -0.237 OA
ATOM     75  O   UNL A   1      45.426  34.410  34.715  1.00  0.00    -0.237 OA
ATOM     76  O   UNL A   1      43.511  35.810  35.392  1.00  0.00    -0.744 OA
ENDBRANCH  69  73
ENDBRANCH  52  66
BRANCH  53  77
ATOM     77  C   UNL A   1      42.535  24.611  27.478  1.00  0.00     0.023 A 
ATOM     78  C   UNL A   1      41.724  23.465  27.480  1.00  0.00     0.031 A 
ATOM     79  C   UNL A   1      43.373  24.823  26.369  1.00  0.00     0.131 A 
ATOM     80  C   UNL A   1      41.805  22.548  26.419  1.00  0.00     0.055 A 
ATOM     81  C   UNL A   1      43.403  23.941  25.287  1.00  0.00     0.041 A 
ATOM     82  F   UNL A   1      44.171  25.901  26.314  1.00  0.00    -0.206 F 
ATOM     83  C   UNL A   1      42.627  22.787  25.315  1.00  0.00     0.022 A 
BRANCH  80  84
ATOM     84  S   UNL A   1      40.897  20.984  26.553  1.00  0.00     0.124 S 
ATOM     85  O   UNL A   1      40.779  20.833  27.998  1.00  0.00    -0.237 OA
ATOM     86  O   UNL A   1      39.664  21.288  25.835  1.00  0.00    -0.237 OA
ATOM     87  O   UNL A   1      41.780  20.023  25.895  1.00  0.00    -0.744 OA
ENDBRANCH  80  84
ENDBRANCH  53  77
BRANCH  65  88
ATOM     88  C   UNL A   1      47.023  25.696  32.714  1.00  0.00     0.023 A 
ATOM     89  C   UNL A   1      47.045  24.666  33.671  1.00  0.00     0.031 A 
ATOM     90  C   UNL A   1      48.243  26.075  32.124  1.00  0.00     0.131 A 
ATOM     91  C   UNL A   1      48.266  24.088  34.048  1.00  0.00     0.055 A 
ATOM     92  C   UNL A   1      49.446  25.450  32.455  1.00  0.00     0.041 A 
ATOM     93  F   UNL A   1      48.284  27.055  31.208  1.00  0.00    -0.206 F 
ATOM     94  C   UNL A   1      49.464  24.459  33.431  1.00  0.00     0.022 A 
BRANCH  91  95
ATOM     95  S   UNL A   1      48.283  22.907  35.425  1.00  0.00     0.124 S 
ATOM     96  O   UNL A   1      48.341  21.628  34.727  1.00  0.00    -0.237 OA
ATOM     97  O   UNL A   1      49.489  23.291  36.152  1.00  0.00    -0.237 OA
ATOM     98  O   UNL A   1      47.028  23.176  36.124  1.00  0.00    -0.744 OA
ENDBRANCH  91  95
ENDBRANCH  65  88
ENDBRANCH  39  40
ENDBRANCH  31  34
ENDBRANCH  29  30
ENDBRANCH  28  29
ENDBRANCH   1  28
TORSDOF 18
ENDMDL
