MODEL 1
REMARK VINA RESULT:     -12.0      0.000      0.000
REMARK SMILES [NH3+][C@@]1(C(=O)NCCCCCCNC(=O)c2ccc(-c3c4nc(c(-c5cc(S(=O)(=O)[O-])ccc5F)c5ccc([nH]5)c(-c5cc(S(=O)(=O)[O-])ccc5F)c5nc(c(-c6cc(S(=O)(=O)[O-])ccc6F)c6ccc3[nH]6)C=C5)C=C4)cc2)CC[N@@H+](Cc2ccc(OCC(=O)N3CCCCC3)cc2)C1
REMARK SMILES IDX 7 1 6 2 5 3 3 4 4 5 2 7 78 8 98 9 79 10 80 11 1 13 81 17
REMARK SMILES IDX 82 18 83 19 97 20 84 21 96 22 85 23 86 24 87 25 88 26 89 27
REMARK SMILES IDX 90 28 91 29 95 30 92 31 94 32 93 33 8 34 9 35 10 36 11 37
REMARK SMILES IDX 12 38 13 39 14 41 15 42 16 43 77 44 17 45 76 46 18 47 19 48
REMARK SMILES IDX 20 49 70 50 21 51 75 52 69 53 71 54 22 55 74 56 68 57 67 58
REMARK SMILES IDX 23 60 55 61 35 62 54 63 36 64 39 65 53 66 72 67 37 68 38 69
REMARK SMILES IDX 52 71 73 72 40 73 24 74 25 75 33 76 26 77 32 78 34 79 31 80
REMARK SMILES IDX 27 81 28 82 29 83 30 84 56 85 57 86 65 87 58 88 64 89 66 90
REMARK SMILES IDX 63 91 59 92 60 93 61 94 62 95 41 96 42 97 50 98 43 99 49 100
REMARK SMILES IDX 51 101 48 102 44 103 45 104 46 105 47 106
REMARK H PARENT 5 6 80 12 1 14 1 15 1 16 12 40 71 59 39 70
REMARK Flexibility Score: inf
ROOT
ATOM      1  C   UNL A   1      34.251  24.618  25.457  1.00  0.00     0.021 C 
ENDROOT
BRANCH   1   2
ATOM      2  C   UNL A   1      34.035  26.143  25.411  1.00  0.00     0.116 C 
BRANCH   2   3
ATOM      3  N   UNL A   1      33.181  26.746  26.440  1.00  0.00    -0.350 N 
ATOM      4  C   UNL A   1      32.522  27.924  26.637  1.00  0.00     0.287 C 
ATOM      5  O   UNL A   1      31.764  27.912  27.627  1.00  0.00    -0.268 OA
ATOM      6  H   UNL A   1      33.047  26.131  27.196  1.00  0.00     0.163 HD
BRANCH   4   7
ATOM      7  C   UNL A   1      32.650  29.294  25.837  1.00  0.00     0.228 C 
ATOM      8  C   UNL A   1      31.387  30.135  25.662  1.00  0.00     0.146 C 
ATOM      9  C   UNL A   1      33.072  29.071  24.368  1.00  0.00     0.342 C 
ATOM     10  C   UNL A   1      30.841  29.765  24.258  1.00  0.00     0.270 C 
ATOM     11  N   UNL A   1      31.780  28.771  23.782  1.00  0.00    -0.325 N 
ATOM     12  H   UNL A   1      31.396  27.882  24.103  1.00  0.00     0.348 HD
BRANCH   7  13
ATOM     13  N   UNL A   1      33.729  30.075  26.526  1.00  0.00    -0.340 N 
ATOM     14  H   UNL A   1      34.633  29.835  26.121  1.00  0.00     0.345 HD
ATOM     15  H   UNL A   1      33.729  29.848  27.520  1.00  0.00     0.345 HD
ATOM     16  H   UNL A   1      33.556  31.073  26.405  1.00  0.00     0.345 HD
ENDBRANCH   7  13
BRANCH  11  17
ATOM     17  C   UNL A   1      31.705  28.114  22.478  1.00  0.00     0.299 C 
BRANCH  17  18
ATOM     18  C   UNL A   1      31.770  26.585  22.620  1.00  0.00     0.006 A 
ATOM     19  C   UNL A   1      32.677  25.721  22.012  1.00  0.00     0.013 A 
ATOM     20  C   UNL A   1      30.798  25.961  23.392  1.00  0.00     0.013 A 
ATOM     21  C   UNL A   1      32.583  24.315  22.228  1.00  0.00     0.047 A 
ATOM     22  C   UNL A   1      30.696  24.612  23.630  1.00  0.00     0.047 A 
ATOM     23  C   UNL A   1      31.581  23.757  23.039  1.00  0.00     0.120 A 
BRANCH  23  24
ATOM     24  O   UNL A   1      31.539  22.410  23.265  1.00  0.00    -0.484 OA
BRANCH  24  25
ATOM     25  C   UNL A   1      32.776  21.781  23.592  1.00  0.00     0.329 C 
BRANCH  25  26
ATOM     26  C   UNL A   1      33.070  20.656  24.655  1.00  0.00     0.260 C 
ATOM     27  O   UNL A   1      33.576  20.999  25.732  1.00  0.00    -0.271 OA
ATOM     28  N   UNL A   1      32.752  19.326  24.417  1.00  0.00    -0.340 N 
ATOM     29  C   UNL A   1      32.976  18.325  25.469  1.00  0.00     0.119 C 
ATOM     30  C   UNL A   1      32.233  18.777  23.172  1.00  0.00     0.119 C 
ATOM     31  C   UNL A   1      33.860  17.171  24.990  1.00  0.00     0.022 C 
ATOM     32  C   UNL A   1      33.191  17.720  22.623  1.00  0.00     0.022 C 
ATOM     33  C   UNL A   1      33.408  16.606  23.645  1.00  0.00     0.004 C 
ENDBRANCH  25  26
ENDBRANCH  24  25
ENDBRANCH  23  24
ENDBRANCH  17  18
ENDBRANCH  11  17
ENDBRANCH   4   7
ENDBRANCH   2   3
ENDBRANCH   1   2
BRANCH   1  34
ATOM     34  C   UNL A   1      35.686  24.101  25.267  1.00  0.00     0.002 C 
BRANCH  34  35
ATOM     35  C   UNL A   1      35.988  23.276  24.019  1.00  0.00     0.002 C 
BRANCH  35  36
ATOM     36  C   UNL A   1      36.831  22.021  24.228  1.00  0.00     0.021 C 
BRANCH  36  37
ATOM     37  C   UNL A   1      37.300  21.772  25.660  1.00  0.00     0.116 C 
BRANCH  37  38
ATOM     38  N   UNL A   1      38.409  20.829  25.742  1.00  0.00    -0.352 N 
ATOM     39  C   UNL A   1      39.700  21.064  26.179  1.00  0.00     0.251 C 
ATOM     40  H   UNL A   1      38.214  19.910  25.450  1.00  0.00     0.163 HD
ATOM     41  O   UNL A   1      40.570  20.224  26.074  1.00  0.00    -0.269 OA
BRANCH  39  42
ATOM     42  C   UNL A   1      39.989  22.392  26.761  1.00  0.00     0.039 A 
ATOM     43  C   UNL A   1      40.975  22.513  27.741  1.00  0.00     0.014 A 
ATOM     44  C   UNL A   1      39.368  23.521  26.222  1.00  0.00     0.014 A 
ATOM     45  C   UNL A   1      41.399  23.786  28.127  1.00  0.00     0.010 A 
ATOM     46  C   UNL A   1      39.848  24.783  26.551  1.00  0.00     0.010 A 
ATOM     47  C   UNL A   1      40.871  24.930  27.503  1.00  0.00    -0.014 A 
BRANCH  47  48
ATOM     48  C   UNL A   1      41.364  26.292  27.840  1.00  0.00     0.031 A 
ATOM     49  C   UNL A   1      42.770  26.681  27.470  1.00  0.00     0.074 A 
ATOM     50  C   UNL A   1      40.581  27.142  28.532  1.00  0.00     0.049 A 
ATOM     51  N   UNL A   1      43.422  27.784  27.733  1.00  0.00    -0.248 NA
ATOM     52  C   UNL A   1      43.561  25.676  26.742  1.00  0.00     0.031 C 
ATOM     53  C   UNL A   1      39.221  26.854  28.995  1.00  0.00     0.029 A 
ATOM     54  N   UNL A   1      40.813  28.421  28.977  1.00  0.00    -0.354 N 
ATOM     55  C   UNL A   1      44.701  27.599  27.221  1.00  0.00     0.074 A 
ATOM     56  C   UNL A   1      44.753  26.250  26.699  1.00  0.00     0.031 C 
ATOM     57  C   UNL A   1      38.732  27.933  29.630  1.00  0.00     0.029 A 
ATOM     58  C   UNL A   1      39.753  28.975  29.660  1.00  0.00     0.049 A 
ATOM     59  H   UNL A   1      41.661  28.897  28.821  1.00  0.00     0.167 HD
ATOM     60  C   UNL A   1      45.729  28.481  27.164  1.00  0.00     0.034 A 
ATOM     61  C   UNL A   1      39.623  30.182  30.246  1.00  0.00     0.034 A 
ATOM     62  C   UNL A   1      45.647  29.829  27.668  1.00  0.00     0.049 A 
ATOM     63  C   UNL A   1      40.780  31.149  30.169  1.00  0.00     0.074 A 
ATOM     64  C   UNL A   1      46.598  30.832  27.603  1.00  0.00     0.029 A 
ATOM     65  N   UNL A   1      44.551  30.362  28.337  1.00  0.00    -0.354 N 
ATOM     66  N   UNL A   1      41.962  30.982  29.618  1.00  0.00    -0.248 NA
ATOM     67  C   UNL A   1      40.582  32.471  30.777  1.00  0.00     0.031 C 
ATOM     68  C   UNL A   1      46.105  31.946  28.293  1.00  0.00     0.029 A 
ATOM     69  C   UNL A   1      44.815  31.667  28.717  1.00  0.00     0.049 A 
ATOM     70  H   UNL A   1      43.710  29.881  28.513  1.00  0.00     0.167 HD
ATOM     71  C   UNL A   1      42.634  32.190  29.788  1.00  0.00     0.074 A 
ATOM     72  C   UNL A   1      41.720  33.079  30.476  1.00  0.00     0.031 C 
ATOM     73  C   UNL A   1      43.892  32.536  29.410  1.00  0.00     0.034 A 
BRANCH  60  74
ATOM     74  C   UNL A   1      47.024  28.001  26.553  1.00  0.00     0.023 A 
ATOM     75  C   UNL A   1      47.276  28.105  25.173  1.00  0.00     0.031 A 
ATOM     76  C   UNL A   1      48.008  27.396  27.354  1.00  0.00     0.131 A 
ATOM     77  C   UNL A   1      48.437  27.540  24.626  1.00  0.00     0.055 A 
ATOM     78  C   UNL A   1      49.203  26.913  26.816  1.00  0.00     0.041 A 
ATOM     79  F   UNL A   1      47.818  27.246  28.675  1.00  0.00    -0.206 F 
ATOM     80  C   UNL A   1      49.416  26.968  25.441  1.00  0.00     0.022 A 
BRANCH  77  81
ATOM     81  S   UNL A   1      48.576  27.426  22.822  1.00  0.00     0.124 S 
ATOM     82  O   UNL A   1      48.459  25.985  22.608  1.00  0.00    -0.237 OA
ATOM     83  O   UNL A   1      47.449  28.232  22.366  1.00  0.00    -0.237 OA
ATOM     84  O   UNL A   1      49.897  27.984  22.544  1.00  0.00    -0.744 OA
ENDBRANCH  77  81
ENDBRANCH  60  74
BRANCH  61  85
ATOM     85  C   UNL A   1      38.365  30.554  30.959  1.00  0.00     0.023 A 
ATOM     86  C   UNL A   1      37.345  31.269  30.308  1.00  0.00     0.031 A 
ATOM     87  C   UNL A   1      38.183  30.243  32.318  1.00  0.00     0.131 A 
ATOM     88  C   UNL A   1      36.216  31.693  31.028  1.00  0.00     0.055 A 
ATOM     89  C   UNL A   1      37.033  30.618  33.015  1.00  0.00     0.041 A 
ATOM     90  F   UNL A   1      39.122  29.558  32.990  1.00  0.00    -0.206 F 
ATOM     91  C   UNL A   1      36.047  31.361  32.373  1.00  0.00     0.022 A 
BRANCH  88  92
ATOM     92  S   UNL A   1      35.010  32.767  30.200  1.00  0.00     0.124 S 
ATOM     93  O   UNL A   1      34.485  31.882  29.167  1.00  0.00    -0.237 OA
ATOM     94  O   UNL A   1      34.099  33.095  31.290  1.00  0.00    -0.237 OA
ATOM     95  O   UNL A   1      35.824  33.880  29.715  1.00  0.00    -0.744 OA
ENDBRANCH  88  92
ENDBRANCH  61  85
BRANCH  73  96
ATOM     96  C   UNL A   1      44.329  33.952  29.695  1.00  0.00     0.023 A 
ATOM     97  C   UNL A   1      44.088  34.998  28.788  1.00  0.00     0.031 A 
ATOM     98  C   UNL A   1      45.001  34.255  30.893  1.00  0.00     0.131 A 
ATOM     99  C   UNL A   1      44.564  36.287  29.069  1.00  0.00     0.055 A 
ATOM    100  C   UNL A   1      45.415  35.552  31.195  1.00  0.00     0.041 A 
ATOM    101  F   UNL A   1      45.260  33.293  31.794  1.00  0.00    -0.206 F 
ATOM    102  C   UNL A   1      45.209  36.575  30.274  1.00  0.00     0.022 A 
BRANCH  99 103
ATOM    103  S   UNL A   1      44.411  37.567  27.792  1.00  0.00     0.124 S 
ATOM    104  O   UNL A   1      43.676  38.613  28.499  1.00  0.00    -0.237 OA
ATOM    105  O   UNL A   1      45.805  37.868  27.482  1.00  0.00    -0.237 OA
ATOM    106  O   UNL A   1      43.668  36.901  26.725  1.00  0.00    -0.744 OA
ENDBRANCH  99 103
ENDBRANCH  73  96
ENDBRANCH  47  48
ENDBRANCH  39  42
ENDBRANCH  37  38
ENDBRANCH  36  37
ENDBRANCH  35  36
ENDBRANCH  34  35
ENDBRANCH   1  34
TORSDOF 22
ENDMDL
MODEL 2
REMARK VINA RESULT:     -11.7      1.613      7.364
REMARK SMILES [NH3+][C@@]1(C(=O)NCCCCCCNC(=O)c2ccc(-c3c4nc(c(-c5cc(S(=O)(=O)[O-])ccc5F)c5ccc([nH]5)c(-c5cc(S(=O)(=O)[O-])ccc5F)c5nc(c(-c6cc(S(=O)(=O)[O-])ccc6F)c6ccc3[nH]6)C=C5)C=C4)cc2)CC[N@@H+](Cc2ccc(OCC(=O)N3CCCCC3)cc2)C1
REMARK SMILES IDX 7 1 6 2 5 3 3 4 4 5 2 7 78 8 98 9 79 10 80 11 1 13 81 17
REMARK SMILES IDX 82 18 83 19 97 20 84 21 96 22 85 23 86 24 87 25 88 26 89 27
REMARK SMILES IDX 90 28 91 29 95 30 92 31 94 32 93 33 8 34 9 35 10 36 11 37
REMARK SMILES IDX 12 38 13 39 14 41 15 42 16 43 77 44 17 45 76 46 18 47 19 48
REMARK SMILES IDX 20 49 70 50 21 51 75 52 69 53 71 54 22 55 74 56 68 57 67 58
REMARK SMILES IDX 23 60 55 61 35 62 54 63 36 64 39 65 53 66 72 67 37 68 38 69
REMARK SMILES IDX 52 71 73 72 40 73 24 74 25 75 33 76 26 77 32 78 34 79 31 80
REMARK SMILES IDX 27 81 28 82 29 83 30 84 56 85 57 86 65 87 58 88 64 89 66 90
REMARK SMILES IDX 63 91 59 92 60 93 61 94 62 95 41 96 42 97 50 98 43 99 49 100
REMARK SMILES IDX 51 101 48 102 44 103 45 104 46 105 47 106
REMARK H PARENT 5 6 80 12 1 14 1 15 1 16 12 40 71 59 39 70
REMARK Flexibility Score: inf
ROOT
ATOM      1  C   UNL A   1      34.185  24.726  25.381  1.00  0.00     0.021 C 
ENDROOT
BRANCH   1   2
ATOM      2  C   UNL A   1      34.238  26.239  25.669  1.00  0.00     0.116 C 
BRANCH   2   3
ATOM      3  N   UNL A   1      33.130  26.833  26.425  1.00  0.00    -0.350 N 
ATOM      4  C   UNL A   1      32.294  27.905  26.310  1.00  0.00     0.287 C 
ATOM      5  O   UNL A   1      31.369  27.907  27.146  1.00  0.00    -0.268 OA
ATOM      6  H   UNL A   1      32.937  26.315  27.239  1.00  0.00     0.163 HD
BRANCH   4   7
ATOM      7  C   UNL A   1      32.390  29.154  25.329  1.00  0.00     0.228 C 
ATOM      8  C   UNL A   1      31.159  30.048  25.195  1.00  0.00     0.146 C 
ATOM      9  C   UNL A   1      32.613  28.724  23.862  1.00  0.00     0.342 C 
ATOM     10  C   UNL A   1      30.423  29.544  23.925  1.00  0.00     0.270 C 
ATOM     11  N   UNL A   1      31.244  28.439  23.477  1.00  0.00    -0.325 N 
ATOM     12  H   UNL A   1      30.860  27.623  23.954  1.00  0.00     0.348 HD
BRANCH   7  13
ATOM     13  N   UNL A   1      33.583  29.941  25.778  1.00  0.00    -0.340 N 
ATOM     14  H   UNL A   1      34.385  29.319  25.874  1.00  0.00     0.345 HD
ATOM     15  H   UNL A   1      33.382  30.380  26.677  1.00  0.00     0.345 HD
ATOM     16  H   UNL A   1      33.794  30.663  25.088  1.00  0.00     0.345 HD
ENDBRANCH   7  13
BRANCH  11  17
ATOM     17  C   UNL A   1      30.975  27.632  22.287  1.00  0.00     0.299 C 
BRANCH  17  18
ATOM     18  C   UNL A   1      31.307  26.151  22.531  1.00  0.00     0.006 A 
ATOM     19  C   UNL A   1      30.666  25.278  23.405  1.00  0.00     0.013 A 
ATOM     20  C   UNL A   1      32.396  25.610  21.859  1.00  0.00     0.013 A 
ATOM     21  C   UNL A   1      31.119  23.932  23.535  1.00  0.00     0.047 A 
ATOM     22  C   UNL A   1      32.841  24.314  21.953  1.00  0.00     0.047 A 
ATOM     23  C   UNL A   1      32.218  23.449  22.806  1.00  0.00     0.120 A 
BRANCH  23  24
ATOM     24  O   UNL A   1      32.606  22.144  22.916  1.00  0.00    -0.484 OA
BRANCH  24  25
ATOM     25  C   UNL A   1      32.203  21.458  24.100  1.00  0.00     0.329 C 
BRANCH  25  26
ATOM     26  C   UNL A   1      32.959  20.338  24.908  1.00  0.00     0.260 C 
ATOM     27  O   UNL A   1      33.620  20.686  25.896  1.00  0.00    -0.271 OA
ATOM     28  N   UNL A   1      32.875  18.999  24.554  1.00  0.00    -0.340 N 
ATOM     29  C   UNL A   1      33.537  17.983  25.383  1.00  0.00     0.119 C 
ATOM     30  C   UNL A   1      32.205  18.463  23.376  1.00  0.00     0.119 C 
ATOM     31  C   UNL A   1      34.504  17.115  24.574  1.00  0.00     0.022 C 
ATOM     32  C   UNL A   1      33.206  17.713  22.498  1.00  0.00     0.022 C 
ATOM     33  C   UNL A   1      33.878  16.589  23.283  1.00  0.00     0.004 C 
ENDBRANCH  25  26
ENDBRANCH  24  25
ENDBRANCH  23  24
ENDBRANCH  17  18
ENDBRANCH  11  17
ENDBRANCH   4   7
ENDBRANCH   2   3
ENDBRANCH   1   2
BRANCH   1  34
ATOM     34  C   UNL A   1      35.524  23.978  25.281  1.00  0.00     0.002 C 
BRANCH  34  35
ATOM     35  C   UNL A   1      35.784  23.146  24.028  1.00  0.00     0.002 C 
BRANCH  35  36
ATOM     36  C   UNL A   1      36.569  21.852  24.229  1.00  0.00     0.021 C 
BRANCH  36  37
ATOM     37  C   UNL A   1      37.078  21.602  25.646  1.00  0.00     0.116 C 
BRANCH  37  38
ATOM     38  N   UNL A   1      38.073  20.538  25.718  1.00  0.00    -0.352 N 
ATOM     39  C   UNL A   1      39.394  20.629  26.117  1.00  0.00     0.251 C 
ATOM     40  H   UNL A   1      37.765  19.644  25.448  1.00  0.00     0.163 HD
ATOM     41  O   UNL A   1      40.158  19.692  26.005  1.00  0.00    -0.269 OA
BRANCH  39  42
ATOM     42  C   UNL A   1      39.850  21.924  26.667  1.00  0.00     0.039 A 
ATOM     43  C   UNL A   1      40.869  21.944  27.620  1.00  0.00     0.014 A 
ATOM     44  C   UNL A   1      39.349  23.109  26.124  1.00  0.00     0.014 A 
ATOM     45  C   UNL A   1      41.448  23.165  27.972  1.00  0.00     0.010 A 
ATOM     46  C   UNL A   1      39.981  24.311  26.417  1.00  0.00     0.010 A 
ATOM     47  C   UNL A   1      41.039  24.353  27.340  1.00  0.00    -0.014 A 
BRANCH  47  48
ATOM     48  C   UNL A   1      41.696  25.653  27.640  1.00  0.00     0.031 A 
ATOM     49  C   UNL A   1      40.947  26.696  28.424  1.00  0.00     0.074 A 
ATOM     50  C   UNL A   1      42.924  25.918  27.151  1.00  0.00     0.049 A 
ATOM     51  N   UNL A   1      41.302  27.917  28.731  1.00  0.00    -0.248 NA
ATOM     52  C   UNL A   1      39.600  26.328  28.891  1.00  0.00     0.031 C 
ATOM     53  C   UNL A   1      43.723  25.006  26.329  1.00  0.00     0.029 A 
ATOM     54  N   UNL A   1      43.716  27.034  27.265  1.00  0.00    -0.354 N 
ATOM     55  C   UNL A   1      40.218  28.467  29.407  1.00  0.00     0.074 A 
ATOM     56  C   UNL A   1      39.169  27.470  29.399  1.00  0.00     0.031 C 
ATOM     57  C   UNL A   1      44.900  25.587  26.040  1.00  0.00     0.029 A 
ATOM     58  C   UNL A   1      44.926  26.927  26.617  1.00  0.00     0.049 A 
ATOM     59  H   UNL A   1      43.443  27.837  27.765  1.00  0.00     0.167 HD
ATOM     60  C   UNL A   1      40.117  29.679  30.005  1.00  0.00     0.034 A 
ATOM     61  C   UNL A   1      45.938  27.811  26.497  1.00  0.00     0.034 A 
ATOM     62  C   UNL A   1      41.185  30.647  30.022  1.00  0.00     0.049 A 
ATOM     63  C   UNL A   1      45.804  29.155  27.174  1.00  0.00     0.074 A 
ATOM     64  C   UNL A   1      41.223  31.877  30.655  1.00  0.00     0.029 A 
ATOM     65  N   UNL A   1      42.404  30.497  29.371  1.00  0.00    -0.354 N 
ATOM     66  N   UNL A   1      44.798  29.634  27.870  1.00  0.00    -0.248 NA
ATOM     67  C   UNL A   1      46.946  30.071  27.061  1.00  0.00     0.031 C 
ATOM     68  C   UNL A   1      42.433  32.499  30.328  1.00  0.00     0.029 A 
ATOM     69  C   UNL A   1      43.186  31.625  29.560  1.00  0.00     0.049 A 
ATOM     70  H   UNL A   1      42.672  29.705  28.852  1.00  0.00     0.167 HD
ATOM     71  C   UNL A   1      45.202  30.894  28.303  1.00  0.00     0.074 A 
ATOM     72  C   UNL A   1      46.547  31.092  27.805  1.00  0.00     0.031 C 
ATOM     73  C   UNL A   1      44.524  31.806  29.047  1.00  0.00     0.034 A 
BRANCH  60  74
ATOM     74  C   UNL A   1      38.803  30.020  30.668  1.00  0.00     0.023 A 
ATOM     75  C   UNL A   1      37.842  30.828  30.035  1.00  0.00     0.031 A 
ATOM     76  C   UNL A   1      38.520  29.561  31.966  1.00  0.00     0.131 A 
ATOM     77  C   UNL A   1      36.688  31.221  30.728  1.00  0.00     0.055 A 
ATOM     78  C   UNL A   1      37.329  29.884  32.619  1.00  0.00     0.041 A 
ATOM     79  F   UNL A   1      39.407  28.804  32.633  1.00  0.00    -0.206 F 
ATOM     80  C   UNL A   1      36.411  30.734  32.006  1.00  0.00     0.022 A 
BRANCH  77  81
ATOM     81  S   UNL A   1      35.633  32.501  29.996  1.00  0.00     0.124 S 
ATOM     82  O   UNL A   1      34.417  32.376  30.797  1.00  0.00    -0.237 OA
ATOM     83  O   UNL A   1      36.414  33.714  30.207  1.00  0.00    -0.237 OA
ATOM     84  O   UNL A   1      35.498  32.079  28.603  1.00  0.00    -0.744 OA
ENDBRANCH  77  81
ENDBRANCH  60  74
BRANCH  61  85
ATOM     85  C   UNL A   1      47.161  27.471  25.712  1.00  0.00     0.023 A 
ATOM     86  C   UNL A   1      47.269  27.809  24.352  1.00  0.00     0.031 A 
ATOM     87  C   UNL A   1      48.222  26.756  26.296  1.00  0.00     0.131 A 
ATOM     88  C   UNL A   1      48.385  27.388  23.611  1.00  0.00     0.055 A 
ATOM     89  C   UNL A   1      49.356  26.389  25.568  1.00  0.00     0.041 A 
ATOM     90  F   UNL A   1      48.175  26.410  27.592  1.00  0.00    -0.206 F 
ATOM     91  C   UNL A   1      49.435  26.693  24.213  1.00  0.00     0.022 A 
BRANCH  88  92
ATOM     92  S   UNL A   1      48.403  27.686  21.821  1.00  0.00     0.124 S 
ATOM     93  O   UNL A   1      49.518  28.616  21.686  1.00  0.00    -0.237 OA
ATOM     94  O   UNL A   1      48.618  26.343  21.293  1.00  0.00    -0.237 OA
ATOM     95  O   UNL A   1      47.081  28.252  21.558  1.00  0.00    -0.744 OA
ENDBRANCH  88  92
ENDBRANCH  61  85
BRANCH  73  96
ATOM     96  C   UNL A   1      45.252  33.080  29.401  1.00  0.00     0.023 A 
ATOM     97  C   UNL A   1      46.075  33.171  30.536  1.00  0.00     0.031 A 
ATOM     98  C   UNL A   1      45.115  34.220  28.588  1.00  0.00     0.131 A 
ATOM     99  C   UNL A   1      46.686  34.392  30.858  1.00  0.00     0.055 A 
ATOM    100  C   UNL A   1      45.777  35.413  28.879  1.00  0.00     0.041 A 
ATOM    101  F   UNL A   1      44.339  34.189  27.493  1.00  0.00    -0.206 F 
ATOM    102  C   UNL A   1      46.557  35.508  30.027  1.00  0.00     0.022 A 
BRANCH  99 103
ATOM    103  S   UNL A   1      47.578  34.530  32.432  1.00  0.00     0.124 S 
ATOM    104  O   UNL A   1      46.490  34.459  33.404  1.00  0.00    -0.237 OA
ATOM    105  O   UNL A   1      48.470  33.376  32.388  1.00  0.00    -0.237 OA
ATOM    106  O   UNL A   1      48.241  35.830  32.338  1.00  0.00    -0.744 OA
ENDBRANCH  99 103
ENDBRANCH  73  96
ENDBRANCH  47  48
ENDBRANCH  39  42
ENDBRANCH  37  38
ENDBRANCH  36  37
ENDBRANCH  35  36
ENDBRANCH  34  35
ENDBRANCH   1  34
TORSDOF 22
ENDMDL
MODEL 3
REMARK VINA RESULT:     -11.7      1.532      7.376
REMARK SMILES [NH3+][C@@]1(C(=O)NCCCCCCNC(=O)c2ccc(-c3c4nc(c(-c5cc(S(=O)(=O)[O-])ccc5F)c5ccc([nH]5)c(-c5cc(S(=O)(=O)[O-])ccc5F)c5nc(c(-c6cc(S(=O)(=O)[O-])ccc6F)c6ccc3[nH]6)C=C5)C=C4)cc2)CC[N@@H+](Cc2ccc(OCC(=O)N3CCCCC3)cc2)C1
REMARK SMILES IDX 7 1 6 2 5 3 3 4 4 5 2 7 78 8 98 9 79 10 80 11 1 13 81 17
REMARK SMILES IDX 82 18 83 19 97 20 84 21 96 22 85 23 86 24 87 25 88 26 89 27
REMARK SMILES IDX 90 28 91 29 95 30 92 31 94 32 93 33 8 34 9 35 10 36 11 37
REMARK SMILES IDX 12 38 13 39 14 41 15 42 16 43 77 44 17 45 76 46 18 47 19 48
REMARK SMILES IDX 20 49 70 50 21 51 75 52 69 53 71 54 22 55 74 56 68 57 67 58
REMARK SMILES IDX 23 60 55 61 35 62 54 63 36 64 39 65 53 66 72 67 37 68 38 69
REMARK SMILES IDX 52 71 73 72 40 73 24 74 25 75 33 76 26 77 32 78 34 79 31 80
REMARK SMILES IDX 27 81 28 82 29 83 30 84 56 85 57 86 65 87 58 88 64 89 66 90
REMARK SMILES IDX 63 91 59 92 60 93 61 94 62 95 41 96 42 97 50 98 43 99 49 100
REMARK SMILES IDX 51 101 48 102 44 103 45 104 46 105 47 106
REMARK H PARENT 5 6 80 12 1 14 1 15 1 16 12 40 71 59 39 70
REMARK Flexibility Score: inf
ROOT
ATOM      1  C   UNL A   1      34.224  24.608  25.282  1.00  0.00     0.021 C 
ENDROOT
BRANCH   1   2
ATOM      2  C   UNL A   1      34.324  26.088  25.698  1.00  0.00     0.116 C 
BRANCH   2   3
ATOM      3  N   UNL A   1      33.191  26.676  26.421  1.00  0.00    -0.350 N 
ATOM      4  C   UNL A   1      32.349  27.740  26.278  1.00  0.00     0.287 C 
ATOM      5  O   UNL A   1      31.402  27.738  27.088  1.00  0.00    -0.268 OA
ATOM      6  H   UNL A   1      32.981  26.161  27.233  1.00  0.00     0.163 HD
BRANCH   4   7
ATOM      7  C   UNL A   1      32.458  28.983  25.291  1.00  0.00     0.228 C 
ATOM      8  C   UNL A   1      31.230  29.877  25.136  1.00  0.00     0.146 C 
ATOM      9  C   UNL A   1      32.701  28.546  23.829  1.00  0.00     0.342 C 
ATOM     10  C   UNL A   1      30.512  29.367  23.859  1.00  0.00     0.270 C 
ATOM     11  N   UNL A   1      31.338  28.260  23.427  1.00  0.00    -0.325 N 
ATOM     12  H   UNL A   1      30.946  27.447  23.903  1.00  0.00     0.348 HD
BRANCH   7  13
ATOM     13  N   UNL A   1      33.647  29.772  25.752  1.00  0.00    -0.340 N 
ATOM     14  H   UNL A   1      33.463  30.767  25.628  1.00  0.00     0.345 HD
ATOM     15  H   UNL A   1      34.465  29.506  25.204  1.00  0.00     0.345 HD
ATOM     16  H   UNL A   1      33.821  29.579  26.738  1.00  0.00     0.345 HD
ENDBRANCH   7  13
BRANCH  11  17
ATOM     17  C   UNL A   1      31.083  27.447  22.238  1.00  0.00     0.299 C 
BRANCH  17  18
ATOM     18  C   UNL A   1      31.402  25.966  22.498  1.00  0.00     0.006 A 
ATOM     19  C   UNL A   1      30.762  25.112  23.392  1.00  0.00     0.013 A 
ATOM     20  C   UNL A   1      32.475  25.402  21.819  1.00  0.00     0.013 A 
ATOM     21  C   UNL A   1      31.201  23.762  23.533  1.00  0.00     0.047 A 
ATOM     22  C   UNL A   1      32.906  24.103  21.924  1.00  0.00     0.047 A 
ATOM     23  C   UNL A   1      32.285  23.257  22.797  1.00  0.00     0.120 A 
BRANCH  23  24
ATOM     24  O   UNL A   1      32.658  21.948  22.919  1.00  0.00    -0.484 OA
BRANCH  24  25
ATOM     25  C   UNL A   1      32.189  21.258  24.075  1.00  0.00     0.329 C 
BRANCH  25  26
ATOM     26  C   UNL A   1      32.912  20.159  24.940  1.00  0.00     0.260 C 
ATOM     27  O   UNL A   1      33.498  20.527  25.968  1.00  0.00    -0.271 OA
ATOM     28  N   UNL A   1      32.880  18.816  24.591  1.00  0.00    -0.340 N 
ATOM     29  C   UNL A   1      33.506  17.819  25.471  1.00  0.00     0.119 C 
ATOM     30  C   UNL A   1      32.302  18.260  23.375  1.00  0.00     0.119 C 
ATOM     31  C   UNL A   1      34.542  16.968  24.735  1.00  0.00     0.022 C 
ATOM     32  C   UNL A   1      33.376  17.525  22.571  1.00  0.00     0.022 C 
ATOM     33  C   UNL A   1      34.016  16.421  23.409  1.00  0.00     0.004 C 
ENDBRANCH  25  26
ENDBRANCH  24  25
ENDBRANCH  23  24
ENDBRANCH  17  18
ENDBRANCH  11  17
ENDBRANCH   4   7
ENDBRANCH   2   3
ENDBRANCH   1   2
BRANCH   1  34
ATOM     34  C   UNL A   1      35.529  23.797  25.233  1.00  0.00     0.002 C 
BRANCH  34  35
ATOM     35  C   UNL A   1      35.808  22.970  23.981  1.00  0.00     0.002 C 
BRANCH  35  36
ATOM     36  C   UNL A   1      36.574  21.667  24.191  1.00  0.00     0.021 C 
BRANCH  36  37
ATOM     37  C   UNL A   1      37.079  21.419  25.611  1.00  0.00     0.116 C 
BRANCH  37  38
ATOM     38  N   UNL A   1      38.079  20.360  25.686  1.00  0.00    -0.352 N 
ATOM     39  C   UNL A   1      39.397  20.457  26.092  1.00  0.00     0.251 C 
ATOM     40  H   UNL A   1      37.777  19.464  25.413  1.00  0.00     0.163 HD
ATOM     41  O   UNL A   1      40.166  19.524  25.983  1.00  0.00    -0.269 OA
BRANCH  39  42
ATOM     42  C   UNL A   1      39.844  21.753  26.646  1.00  0.00     0.039 A 
ATOM     43  C   UNL A   1      40.805  21.772  27.658  1.00  0.00     0.014 A 
ATOM     44  C   UNL A   1      39.399  22.936  26.053  1.00  0.00     0.014 A 
ATOM     45  C   UNL A   1      41.384  22.989  28.023  1.00  0.00     0.010 A 
ATOM     46  C   UNL A   1      40.035  24.133  26.363  1.00  0.00     0.010 A 
ATOM     47  C   UNL A   1      41.037  24.172  27.347  1.00  0.00    -0.014 A 
BRANCH  47  48
ATOM     48  C   UNL A   1      41.699  25.466  27.663  1.00  0.00     0.031 A 
ATOM     49  C   UNL A   1      40.919  26.543  28.368  1.00  0.00     0.074 A 
ATOM     50  C   UNL A   1      42.964  25.694  27.258  1.00  0.00     0.049 A 
ATOM     51  N   UNL A   1      41.278  27.763  28.671  1.00  0.00    -0.248 NA
ATOM     52  C   UNL A   1      39.535  26.213  28.745  1.00  0.00     0.031 C 
ATOM     53  C   UNL A   1      43.800  24.746  26.516  1.00  0.00     0.029 A 
ATOM     54  N   UNL A   1      43.771  26.796  27.403  1.00  0.00    -0.354 N 
ATOM     55  C   UNL A   1      40.161  28.351  29.255  1.00  0.00     0.074 A 
ATOM     56  C   UNL A   1      39.094  27.377  29.195  1.00  0.00     0.031 C 
ATOM     57  C   UNL A   1      45.007  25.295  26.299  1.00  0.00     0.029 A 
ATOM     58  C   UNL A   1      45.021  26.649  26.846  1.00  0.00     0.049 A 
ATOM     59  H   UNL A   1      43.481  27.616  27.864  1.00  0.00     0.167 HD
ATOM     60  C   UNL A   1      40.045  29.580  29.816  1.00  0.00     0.034 A 
ATOM     61  C   UNL A   1      46.058  27.509  26.779  1.00  0.00     0.034 A 
ATOM     62  C   UNL A   1      41.131  30.526  29.888  1.00  0.00     0.049 A 
ATOM     63  C   UNL A   1      45.907  28.871  27.413  1.00  0.00     0.074 A 
ATOM     64  C   UNL A   1      41.150  31.771  30.493  1.00  0.00     0.029 A 
ATOM     65  N   UNL A   1      42.389  30.336  29.329  1.00  0.00    -0.354 N 
ATOM     66  N   UNL A   1      44.864  29.387  28.024  1.00  0.00    -0.248 NA
ATOM     67  C   UNL A   1      47.074  29.760  27.362  1.00  0.00     0.031 C 
ATOM     68  C   UNL A   1      42.394  32.359  30.240  1.00  0.00     0.029 A 
ATOM     69  C   UNL A   1      43.180  31.451  29.548  1.00  0.00     0.049 A 
ATOM     70  H   UNL A   1      42.675  29.525  28.849  1.00  0.00     0.167 HD
ATOM     71  C   UNL A   1      45.264  30.649  28.456  1.00  0.00     0.074 A 
ATOM     72  C   UNL A   1      46.645  30.807  28.051  1.00  0.00     0.031 C 
ATOM     73  C   UNL A   1      44.555  31.592  29.129  1.00  0.00     0.034 A 
BRANCH  60  74
ATOM     74  C   UNL A   1      38.695  29.964  30.375  1.00  0.00     0.023 A 
ATOM     75  C   UNL A   1      37.791  30.759  29.648  1.00  0.00     0.031 A 
ATOM     76  C   UNL A   1      38.319  29.560  31.668  1.00  0.00     0.131 A 
ATOM     77  C   UNL A   1      36.600  31.194  30.246  1.00  0.00     0.055 A 
ATOM     78  C   UNL A   1      37.091  29.924  32.225  1.00  0.00     0.041 A 
ATOM     79  F   UNL A   1      39.147  28.819  32.421  1.00  0.00    -0.206 F 
ATOM     80  C   UNL A   1      36.230  30.761  31.520  1.00  0.00     0.022 A 
BRANCH  77  81
ATOM     81  S   UNL A   1      35.616  32.458  29.395  1.00  0.00     0.124 S 
ATOM     82  O   UNL A   1      36.470  33.636  29.530  1.00  0.00    -0.237 OA
ATOM     83  O   UNL A   1      35.494  31.909  28.049  1.00  0.00    -0.237 OA
ATOM     84  O   UNL A   1      34.376  32.504  30.166  1.00  0.00    -0.744 OA
ENDBRANCH  77  81
ENDBRANCH  60  74
BRANCH  61  85
ATOM     85  C   UNL A   1      47.326  27.124  26.091  1.00  0.00     0.023 A 
ATOM     86  C   UNL A   1      48.328  26.403  26.764  1.00  0.00     0.031 A 
ATOM     87  C   UNL A   1      47.579  27.515  24.765  1.00  0.00     0.131 A 
ATOM     88  C   UNL A   1      49.552  26.141  26.127  1.00  0.00     0.055 A 
ATOM     89  C   UNL A   1      48.776  27.203  24.117  1.00  0.00     0.041 A 
ATOM     90  F   UNL A   1      46.658  28.203  24.072  1.00  0.00    -0.206 F 
ATOM     91  C   UNL A   1      49.778  26.524  24.804  1.00  0.00     0.022 A 
BRANCH  88  92
ATOM     92  S   UNL A   1      50.884  25.368  27.087  1.00  0.00     0.124 S 
ATOM     93  O   UNL A   1      51.366  26.492  27.882  1.00  0.00    -0.237 OA
ATOM     94  O   UNL A   1      50.168  24.327  27.815  1.00  0.00    -0.237 OA
ATOM     95  O   UNL A   1      51.807  24.887  26.061  1.00  0.00    -0.744 OA
ENDBRANCH  88  92
ENDBRANCH  61  85
BRANCH  73  96
ATOM     96  C   UNL A   1      45.284  32.859  29.504  1.00  0.00     0.023 A 
ATOM     97  C   UNL A   1      45.282  33.989  28.669  1.00  0.00     0.031 A 
ATOM     98  C   UNL A   1      45.993  32.933  30.717  1.00  0.00     0.131 A 
ATOM     99  C   UNL A   1      46.021  35.126  29.031  1.00  0.00     0.055 A 
ATOM    100  C   UNL A   1      46.672  34.089  31.101  1.00  0.00     0.041 A 
ATOM    101  F   UNL A   1      46.030  31.882  31.552  1.00  0.00    -0.206 F 
ATOM    102  C   UNL A   1      46.701  35.189  30.250  1.00  0.00     0.022 A 
BRANCH  99 103
ATOM    103  S   UNL A   1      46.160  36.488  27.841  1.00  0.00     0.124 S 
ATOM    104  O   UNL A   1      46.166  35.778  26.566  1.00  0.00    -0.237 OA
ATOM    105  O   UNL A   1      44.965  37.275  28.126  1.00  0.00    -0.237 OA
ATOM    106  O   UNL A   1      47.424  37.129  28.200  1.00  0.00    -0.744 OA
ENDBRANCH  99 103
ENDBRANCH  73  96
ENDBRANCH  47  48
ENDBRANCH  39  42
ENDBRANCH  37  38
ENDBRANCH  36  37
ENDBRANCH  35  36
ENDBRANCH  34  35
ENDBRANCH   1  34
TORSDOF 22
ENDMDL
