MODEL 1
REMARK VINA RESULT:      -9.4      0.000      0.000
REMARK SMILES O=C(NCCCCCCNC(=O)[C@H]1CC2(CCN(C(=O)C3CC3)CC2)CN1C(=O)CCn1cccn1)c1ccc(-c2c3nc(c(-c4cc(S(=O)(=O)[O-])ccc4F)c4ccc([nH]4)c(-c4cc(S(=O)(=O)[O-])ccc4F)c4nc(c(-c5cc(S(=O)(=O)[O-])ccc5F)c5ccc2[nH]5)C=C4)C=C3)cc1
REMARK SMILES IDX 7 1 6 2 5 3 4 4 3 5 1 6 2 7 37 9 38 10 99 11 39 12 98 13
REMARK SMILES IDX 40 14 41 15 42 16 92 17 43 18 97 19 91 20 93 21 44 22 96 23
REMARK SMILES IDX 90 24 89 25 45 27 77 28 57 29 76 30 58 31 61 32 75 33 94 34
REMARK SMILES IDX 59 35 60 36 74 38 95 39 62 40 46 41 47 42 55 43 48 44 54 45
REMARK SMILES IDX 56 46 53 47 49 48 50 49 51 50 52 51 78 52 79 53 87 54 80 55
REMARK SMILES IDX 86 56 88 57 85 58 81 59 82 60 83 61 84 62 63 63 64 64 72 65
REMARK SMILES IDX 65 66 71 67 73 68 70 69 66 70 67 71 68 72 69 73 8 74 9 75
REMARK SMILES IDX 10 76 11 77 12 79 13 80 14 81 27 82 15 83 26 84 16 85 25 86
REMARK SMILES IDX 17 87 24 88 18 89 19 90 20 91 28 92 29 93 30 94 31 95 32 96
REMARK SMILES IDX 33 97 36 98 34 99 35 100 21 101 22 102 23 103
REMARK H PARENT 3 8 93 26 61 37 10 78
REMARK Flexibility Score: inf
ROOT
ATOM      1  C   UNL A   1      43.714  25.742  27.455  1.00  0.00     0.002 C 
ENDROOT
BRANCH   1   2
ATOM      2  C   UNL A   1      42.620  25.183  28.368  1.00  0.00     0.002 C 
BRANCH   2   3
ATOM      3  C   UNL A   1      42.040  23.838  27.923  1.00  0.00     0.021 C 
BRANCH   3   4
ATOM      4  C   UNL A   1      41.577  23.807  26.468  1.00  0.00     0.116 C 
BRANCH   4   5
ATOM      5  N   UNL A   1      40.145  23.728  26.303  1.00  0.00    -0.352 N 
ATOM      6  O   UNL A   1      37.986  24.210  26.308  1.00  0.00    -0.269 OA
ATOM      7  C   UNL A   1      39.107  24.507  26.730  1.00  0.00     0.251 C 
ATOM      8  H   UNL A   1      39.856  22.949  25.773  1.00  0.00     0.163 HD
BRANCH   7   9
ATOM      9  C   UNL A   1      39.243  25.620  27.707  1.00  0.00     0.039 A 
ATOM     10  C   UNL A   1      38.949  25.551  29.071  1.00  0.00     0.014 A 
ATOM     11  C   UNL A   1      39.716  26.835  27.181  1.00  0.00     0.014 A 
ATOM     12  C   UNL A   1      39.041  26.686  29.872  1.00  0.00     0.010 A 
ATOM     13  C   UNL A   1      39.832  27.966  27.980  1.00  0.00     0.010 A 
ATOM     14  C   UNL A   1      39.471  27.896  29.323  1.00  0.00    -0.014 A 
BRANCH  14  15
ATOM     15  C   UNL A   1      39.760  29.004  30.234  1.00  0.00     0.031 A 
ATOM     16  C   UNL A   1      38.587  29.889  30.489  1.00  0.00     0.074 A 
ATOM     17  C   UNL A   1      40.905  29.139  30.933  1.00  0.00     0.049 A 
ATOM     18  N   UNL A   1      38.458  31.145  30.212  1.00  0.00    -0.248 NA
ATOM     19  C   UNL A   1      37.349  29.265  30.987  1.00  0.00     0.031 C 
ATOM     20  C   UNL A   1      42.027  28.202  30.995  1.00  0.00     0.029 A 
ATOM     21  N   UNL A   1      41.260  30.103  31.833  1.00  0.00    -0.354 N 
ATOM     22  C   UNL A   1      37.212  31.524  30.708  1.00  0.00     0.074 A 
ATOM     23  C   UNL A   1      36.512  30.302  30.996  1.00  0.00     0.031 C 
ATOM     24  C   UNL A   1      42.818  28.523  32.044  1.00  0.00     0.029 A 
ATOM     25  C   UNL A   1      42.334  29.754  32.651  1.00  0.00     0.049 A 
ATOM     26  H   UNL A   1      40.799  30.970  31.897  1.00  0.00     0.167 HD
ATOM     27  C   UNL A   1      36.948  32.814  31.057  1.00  0.00     0.034 A 
ATOM     28  C   UNL A   1      42.753  30.385  33.785  1.00  0.00     0.034 A 
ATOM     29  C   UNL A   1      37.902  33.719  30.458  1.00  0.00     0.049 A 
ATOM     30  C   UNL A   1      42.237  31.774  33.726  1.00  0.00     0.074 A 
ATOM     31  C   UNL A   1      38.285  34.007  29.162  1.00  0.00     0.029 A 
ATOM     32  N   UNL A   1      38.893  34.244  31.258  1.00  0.00    -0.354 N 
ATOM     33  N   UNL A   1      42.633  32.649  32.843  1.00  0.00    -0.248 NA
ATOM     34  C   UNL A   1      40.945  32.053  34.335  1.00  0.00     0.031 C 
ATOM     35  C   UNL A   1      39.696  34.204  29.235  1.00  0.00     0.029 A 
ATOM     36  C   UNL A   1      40.075  34.107  30.575  1.00  0.00     0.049 A 
ATOM     37  H   UNL A   1      38.776  34.642  32.150  1.00  0.00     0.167 HD
ATOM     38  C   UNL A   1      41.480  33.317  32.461  1.00  0.00     0.074 A 
ATOM     39  C   UNL A   1      40.492  32.978  33.484  1.00  0.00     0.031 C 
ATOM     40  C   UNL A   1      41.352  33.852  31.211  1.00  0.00     0.034 A 
BRANCH  27  41
ATOM     41  C   UNL A   1      36.079  33.232  32.228  1.00  0.00     0.023 A 
ATOM     42  C   UNL A   1      34.974  34.058  31.940  1.00  0.00     0.031 A 
ATOM     43  C   UNL A   1      36.433  33.141  33.592  1.00  0.00     0.131 A 
ATOM     44  C   UNL A   1      34.376  34.843  32.940  1.00  0.00     0.055 A 
ATOM     45  C   UNL A   1      35.785  33.869  34.596  1.00  0.00     0.041 A 
ATOM     46  F   UNL A   1      37.475  32.426  34.028  1.00  0.00    -0.206 F 
ATOM     47  C   UNL A   1      34.777  34.757  34.270  1.00  0.00     0.022 A 
BRANCH  44  48
ATOM     48  S   UNL A   1      33.208  36.131  32.431  1.00  0.00     0.124 S 
ATOM     49  O   UNL A   1      31.938  35.414  32.501  1.00  0.00    -0.237 OA
ATOM     50  O   UNL A   1      33.429  37.154  33.448  1.00  0.00    -0.237 OA
ATOM     51  O   UNL A   1      33.656  36.481  31.086  1.00  0.00    -0.744 OA
ENDBRANCH  44  48
ENDBRANCH  27  41
BRANCH  28  52
ATOM     52  C   UNL A   1      43.285  29.762  35.033  1.00  0.00     0.023 A 
ATOM     53  C   UNL A   1      42.926  28.466  35.470  1.00  0.00     0.031 A 
ATOM     54  C   UNL A   1      44.373  30.370  35.701  1.00  0.00     0.131 A 
ATOM     55  C   UNL A   1      43.639  27.842  36.526  1.00  0.00     0.055 A 
ATOM     56  C   UNL A   1      45.069  29.753  36.742  1.00  0.00     0.041 A 
ATOM     57  F   UNL A   1      44.858  31.556  35.303  1.00  0.00    -0.206 F 
ATOM     58  C   UNL A   1      44.710  28.481  37.155  1.00  0.00     0.022 A 
BRANCH  55  59
ATOM     59  S   UNL A   1      43.242  26.139  37.049  1.00  0.00     0.124 S 
ATOM     60  O   UNL A   1      42.762  25.537  35.811  1.00  0.00    -0.237 OA
ATOM     61  O   UNL A   1      44.523  25.658  37.553  1.00  0.00    -0.237 OA
ATOM     62  O   UNL A   1      42.216  26.327  38.076  1.00  0.00    -0.744 OA
ENDBRANCH  55  59
ENDBRANCH  28  52
BRANCH  40  63
ATOM     63  C   UNL A   1      42.588  33.990  30.346  1.00  0.00     0.023 A 
ATOM     64  C   UNL A   1      42.993  33.072  29.352  1.00  0.00     0.031 A 
ATOM     65  C   UNL A   1      43.321  35.185  30.468  1.00  0.00     0.131 A 
ATOM     66  C   UNL A   1      44.101  33.365  28.533  1.00  0.00     0.055 A 
ATOM     67  C   UNL A   1      44.402  35.481  29.640  1.00  0.00     0.041 A 
ATOM     68  F   UNL A   1      42.968  36.112  31.375  1.00  0.00    -0.206 F 
ATOM     69  C   UNL A   1      44.801  34.568  28.673  1.00  0.00     0.022 A 
BRANCH  66  70
ATOM     70  S   UNL A   1      44.668  32.179  27.268  1.00  0.00     0.124 S 
ATOM     71  O   UNL A   1      44.253  32.792  26.013  1.00  0.00    -0.237 OA
ATOM     72  O   UNL A   1      46.108  32.123  27.510  1.00  0.00    -0.237 OA
ATOM     73  O   UNL A   1      43.951  30.949  27.611  1.00  0.00    -0.744 OA
ENDBRANCH  66  70
ENDBRANCH  40  63
ENDBRANCH  14  15
ENDBRANCH   7   9
ENDBRANCH   4   5
ENDBRANCH   3   4
ENDBRANCH   2   3
ENDBRANCH   1   2
BRANCH   1  74
ATOM     74  C   UNL A   1      43.200  26.555  26.257  1.00  0.00     0.021 C 
BRANCH  74  75
ATOM     75  C   UNL A   1      44.133  27.691  25.828  1.00  0.00     0.116 C 
BRANCH  75  76
ATOM     76  N   UNL A   1      45.230  27.176  25.040  1.00  0.00    -0.354 N 
ATOM     77  C   UNL A   1      46.354  27.944  24.876  1.00  0.00     0.242 C 
ATOM     78  H   UNL A   1      45.172  26.286  24.626  1.00  0.00     0.163 HD
ATOM     79  O   UNL A   1      46.455  28.593  23.838  1.00  0.00    -0.273 OA
BRANCH  77  80
ATOM     80  C   UNL A   1      47.258  28.123  26.109  1.00  0.00     0.175 C 
ATOM     81  C   UNL A   1      46.525  28.115  27.462  1.00  0.00     0.044 C 
ATOM     82  N   UNL A   1      48.461  27.340  26.427  1.00  0.00    -0.330 N 
ATOM     83  C   UNL A   1      47.646  28.088  28.540  1.00  0.00    -0.006 C 
ATOM     84  C   UNL A   1      48.937  27.845  27.713  1.00  0.00     0.127 C 
ATOM     85  C   UNL A   1      47.479  26.941  29.561  1.00  0.00     0.030 C 
ATOM     86  C   UNL A   1      47.677  29.420  29.313  1.00  0.00     0.030 C 
ATOM     87  C   UNL A   1      46.316  27.138  30.532  1.00  0.00     0.120 C 
ATOM     88  C   UNL A   1      46.462  29.565  30.241  1.00  0.00     0.120 C 
ATOM     89  N   UNL A   1      46.374  28.444  31.179  1.00  0.00    -0.342 N 
ATOM     90  C   UNL A   1      46.241  28.754  32.535  1.00  0.00     0.225 C 
ATOM     91  O   UNL A   1      46.222  29.931  32.906  1.00  0.00    -0.275 OA
BRANCH  82  92
ATOM     92  C   UNL A   1      48.844  26.071  26.036  1.00  0.00     0.225 C 
ATOM     93  O   UNL A   1      50.016  25.691  26.162  1.00  0.00    -0.275 OA
BRANCH  92  94
ATOM     94  C   UNL A   1      47.887  25.117  25.361  1.00  0.00     0.124 C 
BRANCH  94  95
ATOM     95  C   UNL A   1      46.933  24.385  26.298  1.00  0.00     0.154 C 
BRANCH  95  96
ATOM     96  N   UNL A   1      45.848  23.626  25.713  1.00  0.00    -0.272 N 
ATOM     97  C   UNL A   1      45.398  22.404  26.133  1.00  0.00     0.108 A 
ATOM     98  N   UNL A   1      45.301  24.005  24.542  1.00  0.00    -0.182 NA
ATOM     99  C   UNL A   1      44.455  22.002  25.214  1.00  0.00     0.042 A 
ATOM    100  C   UNL A   1      44.437  23.028  24.254  1.00  0.00     0.135 A 
ENDBRANCH  95  96
ENDBRANCH  94  95
ENDBRANCH  92  94
ENDBRANCH  82  92
BRANCH  90 101
ATOM    101  C   UNL A   1      46.172  27.758  33.649  1.00  0.00     0.079 C 
ATOM    102  C   UNL A   1      45.619  26.368  33.726  1.00  0.00     0.014 C 
ATOM    103  C   UNL A   1      47.109  26.574  33.669  1.00  0.00     0.014 C 
ENDBRANCH  90 101
ENDBRANCH  77  80
ENDBRANCH  75  76
ENDBRANCH  74  75
ENDBRANCH   1  74
TORSDOF 21
ENDMDL
MODEL 2
REMARK VINA RESULT:      -8.8      2.141      2.626
REMARK SMILES O=C(NCCCCCCNC(=O)[C@H]1CC2(CCN(C(=O)C3CC3)CC2)CN1C(=O)CCn1cccn1)c1ccc(-c2c3nc(c(-c4cc(S(=O)(=O)[O-])ccc4F)c4ccc([nH]4)c(-c4cc(S(=O)(=O)[O-])ccc4F)c4nc(c(-c5cc(S(=O)(=O)[O-])ccc5F)c5ccc2[nH]5)C=C4)C=C3)cc1
REMARK SMILES IDX 7 1 6 2 5 3 4 4 3 5 1 6 2 7 37 9 38 10 99 11 39 12 98 13
REMARK SMILES IDX 40 14 41 15 42 16 92 17 43 18 97 19 91 20 93 21 44 22 96 23
REMARK SMILES IDX 90 24 89 25 45 27 77 28 57 29 76 30 58 31 61 32 75 33 94 34
REMARK SMILES IDX 59 35 60 36 74 38 95 39 62 40 46 41 47 42 55 43 48 44 54 45
REMARK SMILES IDX 56 46 53 47 49 48 50 49 51 50 52 51 78 52 79 53 87 54 80 55
REMARK SMILES IDX 86 56 88 57 85 58 81 59 82 60 83 61 84 62 63 63 64 64 72 65
REMARK SMILES IDX 65 66 71 67 73 68 70 69 66 70 67 71 68 72 69 73 8 74 9 75
REMARK SMILES IDX 10 76 11 77 12 79 13 80 14 81 27 82 15 83 26 84 16 85 25 86
REMARK SMILES IDX 17 87 24 88 18 89 19 90 20 91 28 92 29 93 30 94 31 95 32 96
REMARK SMILES IDX 33 97 36 98 34 99 35 100 21 101 22 102 23 103
REMARK H PARENT 3 8 93 26 61 37 10 78
REMARK Flexibility Score: inf
ROOT
ATOM      1  C   UNL A   1      43.983  26.321  27.356  1.00  0.00     0.002 C 
ENDROOT
BRANCH   1   2
ATOM      2  C   UNL A   1      42.759  25.868  28.155  1.00  0.00     0.002 C 
BRANCH   2   3
ATOM      3  C   UNL A   1      42.314  24.427  27.886  1.00  0.00     0.021 C 
BRANCH   3   4
ATOM      4  C   UNL A   1      41.721  24.206  26.496  1.00  0.00     0.116 C 
BRANCH   4   5
ATOM      5  N   UNL A   1      40.297  23.966  26.490  1.00  0.00    -0.352 N 
ATOM      6  O   UNL A   1      38.110  24.219  26.699  1.00  0.00    -0.269 OA
ATOM      7  C   UNL A   1      39.227  24.661  26.980  1.00  0.00     0.251 C 
ATOM      8  H   UNL A   1      40.045  23.126  26.041  1.00  0.00     0.163 HD
BRANCH   7   9
ATOM      9  C   UNL A   1      39.337  25.847  27.871  1.00  0.00     0.039 A 
ATOM     10  C   UNL A   1      39.152  25.849  29.255  1.00  0.00     0.014 A 
ATOM     11  C   UNL A   1      39.658  27.058  27.232  1.00  0.00     0.014 A 
ATOM     12  C   UNL A   1      39.202  27.041  29.972  1.00  0.00     0.010 A 
ATOM     13  C   UNL A   1      39.732  28.248  27.945  1.00  0.00     0.010 A 
ATOM     14  C   UNL A   1      39.480  28.242  29.315  1.00  0.00    -0.014 A 
BRANCH  14  15
ATOM     15  C   UNL A   1      39.736  29.431  30.127  1.00  0.00     0.031 A 
ATOM     16  C   UNL A   1      38.521  30.259  30.374  1.00  0.00     0.074 A 
ATOM     17  C   UNL A   1      40.900  29.689  30.757  1.00  0.00     0.049 A 
ATOM     18  N   UNL A   1      38.298  31.480  30.013  1.00  0.00    -0.248 NA
ATOM     19  C   UNL A   1      37.349  29.599  30.977  1.00  0.00     0.031 C 
ATOM     20  C   UNL A   1      42.082  28.831  30.833  1.00  0.00     0.029 A 
ATOM     21  N   UNL A   1      41.231  30.739  31.566  1.00  0.00    -0.354 N 
ATOM     22  C   UNL A   1      37.053  31.818  30.541  1.00  0.00     0.074 A 
ATOM     23  C   UNL A   1      36.447  30.581  30.951  1.00  0.00     0.031 C 
ATOM     24  C   UNL A   1      42.896  29.279  31.815  1.00  0.00     0.029 A 
ATOM     25  C   UNL A   1      42.360  30.519  32.355  1.00  0.00     0.049 A 
ATOM     26  H   UNL A   1      40.718  31.579  31.590  1.00  0.00     0.167 HD
ATOM     27  C   UNL A   1      36.722  33.113  30.807  1.00  0.00     0.034 A 
ATOM     28  C   UNL A   1      42.787  31.260  33.417  1.00  0.00     0.034 A 
ATOM     29  C   UNL A   1      37.587  34.027  30.098  1.00  0.00     0.049 A 
ATOM     30  C   UNL A   1      42.180  32.606  33.282  1.00  0.00     0.074 A 
ATOM     31  C   UNL A   1      37.893  34.238  28.767  1.00  0.00     0.029 A 
ATOM     32  N   UNL A   1      38.576  34.670  30.808  1.00  0.00    -0.354 N 
ATOM     33  N   UNL A   1      42.478  33.434  32.320  1.00  0.00    -0.248 NA
ATOM     34  C   UNL A   1      40.900  32.849  33.933  1.00  0.00     0.031 C 
ATOM     35  C   UNL A   1      39.290  34.527  28.756  1.00  0.00     0.029 A 
ATOM     36  C   UNL A   1      39.734  34.556  30.080  1.00  0.00     0.049 A 
ATOM     37  H   UNL A   1      38.473  35.127  31.673  1.00  0.00     0.167 HD
ATOM     38  C   UNL A   1      41.269  33.999  31.948  1.00  0.00     0.074 A 
ATOM     39  C   UNL A   1      40.351  33.678  33.040  1.00  0.00     0.031 C 
ATOM     40  C   UNL A   1      41.051  34.428  30.669  1.00  0.00     0.034 A 
BRANCH  27  41
ATOM     41  C   UNL A   1      35.879  33.564  31.986  1.00  0.00     0.023 A 
ATOM     42  C   UNL A   1      34.861  34.501  31.721  1.00  0.00     0.031 A 
ATOM     43  C   UNL A   1      36.205  33.385  33.349  1.00  0.00     0.131 A 
ATOM     44  C   UNL A   1      34.326  35.299  32.747  1.00  0.00     0.055 A 
ATOM     45  C   UNL A   1      35.615  34.130  34.375  1.00  0.00     0.041 A 
ATOM     46  F   UNL A   1      37.169  32.558  33.765  1.00  0.00    -0.206 F 
ATOM     47  C   UNL A   1      34.700  35.122  34.075  1.00  0.00     0.022 A 
BRANCH  44  48
ATOM     48  S   UNL A   1      33.292  36.710  32.280  1.00  0.00     0.124 S 
ATOM     49  O   UNL A   1      31.971  36.253  32.699  1.00  0.00    -0.237 OA
ATOM     50  O   UNL A   1      33.882  37.788  33.066  1.00  0.00    -0.237 OA
ATOM     51  O   UNL A   1      33.490  36.811  30.836  1.00  0.00    -0.744 OA
ENDBRANCH  44  48
ENDBRANCH  27  41
BRANCH  28  52
ATOM     52  C   UNL A   1      43.413  30.767  34.681  1.00  0.00     0.023 A 
ATOM     53  C   UNL A   1      44.683  31.191  35.135  1.00  0.00     0.031 A 
ATOM     54  C   UNL A   1      42.631  30.032  35.600  1.00  0.00     0.131 A 
ATOM     55  C   UNL A   1      45.117  30.874  36.449  1.00  0.00     0.055 A 
ATOM     56  C   UNL A   1      43.064  29.719  36.890  1.00  0.00     0.041 A 
ATOM     57  F   UNL A   1      41.374  29.666  35.307  1.00  0.00    -0.206 F 
ATOM     58  C   UNL A   1      44.308  30.147  37.324  1.00  0.00     0.022 A 
BRANCH  55  59
ATOM     59  S   UNL A   1      46.718  31.481  37.080  1.00  0.00     0.124 S 
ATOM     60  O   UNL A   1      47.173  30.366  37.901  1.00  0.00    -0.237 OA
ATOM     61  O   UNL A   1      47.465  31.734  35.854  1.00  0.00    -0.237 OA
ATOM     62  O   UNL A   1      46.355  32.685  37.832  1.00  0.00    -0.744 OA
ENDBRANCH  55  59
ENDBRANCH  28  52
BRANCH  40  63
ATOM     63  C   UNL A   1      42.237  34.577  29.738  1.00  0.00     0.023 A 
ATOM     64  C   UNL A   1      42.912  35.788  29.467  1.00  0.00     0.031 A 
ATOM     65  C   UNL A   1      42.773  33.395  29.195  1.00  0.00     0.131 A 
ATOM     66  C   UNL A   1      44.074  35.783  28.671  1.00  0.00     0.055 A 
ATOM     67  C   UNL A   1      43.935  33.391  28.426  1.00  0.00     0.041 A 
ATOM     68  F   UNL A   1      42.193  32.208  29.439  1.00  0.00    -0.206 F 
ATOM     69  C   UNL A   1      44.587  34.588  28.155  1.00  0.00     0.022 A 
BRANCH  66  70
ATOM     70  S   UNL A   1      44.943  37.337  28.275  1.00  0.00     0.124 S 
ATOM     71  O   UNL A   1      45.954  37.440  29.320  1.00  0.00    -0.237 OA
ATOM     72  O   UNL A   1      45.440  37.086  26.924  1.00  0.00    -0.237 OA
ATOM     73  O   UNL A   1      43.885  38.346  28.351  1.00  0.00    -0.744 OA
ENDBRANCH  66  70
ENDBRANCH  40  63
ENDBRANCH  14  15
ENDBRANCH   7   9
ENDBRANCH   4   5
ENDBRANCH   3   4
ENDBRANCH   2   3
ENDBRANCH   1   2
BRANCH   1  74
ATOM     74  C   UNL A   1      43.660  27.054  26.044  1.00  0.00     0.021 C 
BRANCH  74  75
ATOM     75  C   UNL A   1      44.760  28.012  25.579  1.00  0.00     0.116 C 
BRANCH  75  76
ATOM     76  N   UNL A   1      45.557  27.402  24.538  1.00  0.00    -0.354 N 
ATOM     77  C   UNL A   1      46.919  27.346  24.683  1.00  0.00     0.242 C 
ATOM     78  H   UNL A   1      45.127  27.031  23.734  1.00  0.00     0.163 HD
ATOM     79  O   UNL A   1      47.588  28.208  24.119  1.00  0.00    -0.273 OA
BRANCH  77  80
ATOM     80  C   UNL A   1      47.464  26.370  25.741  1.00  0.00     0.175 C 
ATOM     81  C   UNL A   1      47.233  26.794  27.202  1.00  0.00     0.044 C 
ATOM     82  N   UNL A   1      47.196  24.926  25.813  1.00  0.00    -0.330 N 
ATOM     83  C   UNL A   1      47.662  25.571  28.061  1.00  0.00    -0.006 C 
ATOM     84  C   UNL A   1      47.886  24.451  27.011  1.00  0.00     0.127 C 
ATOM     85  C   UNL A   1      46.572  25.116  29.057  1.00  0.00     0.030 C 
ATOM     86  C   UNL A   1      48.937  25.900  28.861  1.00  0.00     0.030 C 
ATOM     87  C   UNL A   1      46.358  26.076  30.226  1.00  0.00     0.120 C 
ATOM     88  C   UNL A   1      48.654  26.896  29.995  1.00  0.00     0.120 C 
ATOM     89  N   UNL A   1      47.614  26.393  30.895  1.00  0.00    -0.342 N 
ATOM     90  C   UNL A   1      47.901  26.389  32.263  1.00  0.00     0.225 C 
ATOM     91  O   UNL A   1      49.000  26.777  32.670  1.00  0.00    -0.275 OA
BRANCH  82  92
ATOM     92  C   UNL A   1      46.145  24.175  25.318  1.00  0.00     0.225 C 
ATOM     93  O   UNL A   1      45.574  24.494  24.267  1.00  0.00    -0.275 OA
BRANCH  92  94
ATOM     94  C   UNL A   1      45.584  22.990  26.067  1.00  0.00     0.124 C 
BRANCH  94  95
ATOM     95  C   UNL A   1      45.793  21.639  25.393  1.00  0.00     0.154 C 
BRANCH  95  96
ATOM     96  N   UNL A   1      44.691  20.701  25.385  1.00  0.00    -0.272 N 
ATOM     97  C   UNL A   1      43.424  20.938  25.843  1.00  0.00     0.108 A 
ATOM     98  N   UNL A   1      44.897  19.405  25.080  1.00  0.00    -0.182 NA
ATOM     99  C   UNL A   1      42.753  19.739  25.766  1.00  0.00     0.042 A 
ATOM    100  C   UNL A   1      43.711  18.827  25.290  1.00  0.00     0.135 A 
ENDBRANCH  95  96
ENDBRANCH  94  95
ENDBRANCH  92  94
ENDBRANCH  82  92
BRANCH  90 101
ATOM    101  C   UNL A   1      46.991  25.884  33.337  1.00  0.00     0.079 C 
ATOM    102  C   UNL A   1      45.990  24.770  33.370  1.00  0.00     0.014 C 
ATOM    103  C   UNL A   1      47.314  24.603  34.067  1.00  0.00     0.014 C 
ENDBRANCH  90 101
ENDBRANCH  77  80
ENDBRANCH  75  76
ENDBRANCH  74  75
ENDBRANCH   1  74
TORSDOF 21
ENDMDL
MODEL 3
REMARK VINA RESULT:      -8.8      4.750     12.303
REMARK SMILES O=C(NCCCCCCNC(=O)[C@H]1CC2(CCN(C(=O)C3CC3)CC2)CN1C(=O)CCn1cccn1)c1ccc(-c2c3nc(c(-c4cc(S(=O)(=O)[O-])ccc4F)c4ccc([nH]4)c(-c4cc(S(=O)(=O)[O-])ccc4F)c4nc(c(-c5cc(S(=O)(=O)[O-])ccc5F)c5ccc2[nH]5)C=C4)C=C3)cc1
REMARK SMILES IDX 7 1 6 2 5 3 4 4 3 5 1 6 2 7 37 9 38 10 99 11 39 12 98 13
REMARK SMILES IDX 40 14 41 15 42 16 92 17 43 18 97 19 91 20 93 21 44 22 96 23
REMARK SMILES IDX 90 24 89 25 45 27 77 28 57 29 76 30 58 31 61 32 75 33 94 34
REMARK SMILES IDX 59 35 60 36 74 38 95 39 62 40 46 41 47 42 55 43 48 44 54 45
REMARK SMILES IDX 56 46 53 47 49 48 50 49 51 50 52 51 78 52 79 53 87 54 80 55
REMARK SMILES IDX 86 56 88 57 85 58 81 59 82 60 83 61 84 62 63 63 64 64 72 65
REMARK SMILES IDX 65 66 71 67 73 68 70 69 66 70 67 71 68 72 69 73 8 74 9 75
REMARK SMILES IDX 10 76 11 77 12 79 13 80 14 81 27 82 15 83 26 84 16 85 25 86
REMARK SMILES IDX 17 87 24 88 18 89 19 90 20 91 28 92 29 93 30 94 31 95 32 96
REMARK SMILES IDX 33 97 36 98 34 99 35 100 21 101 22 102 23 103
REMARK H PARENT 3 8 93 26 61 37 10 78
REMARK Flexibility Score: inf
ROOT
ATOM      1  C   UNL A   1      36.218  34.001  33.589  1.00  0.00     0.002 C 
ENDROOT
BRANCH   1   2
ATOM      2  C   UNL A   1      35.442  35.281  33.274  1.00  0.00     0.002 C 
BRANCH   2   3
ATOM      3  C   UNL A   1      33.983  35.062  32.863  1.00  0.00     0.021 C 
BRANCH   3   4
ATOM      4  C   UNL A   1      33.442  36.110  31.893  1.00  0.00     0.116 C 
BRANCH   4   5
ATOM      5  N   UNL A   1      32.862  35.560  30.690  1.00  0.00    -0.352 N 
ATOM      6  O   UNL A   1      32.480  34.302  28.911  1.00  0.00    -0.269 OA
ATOM      7  C   UNL A   1      33.288  34.630  29.784  1.00  0.00     0.251 C 
ATOM      8  H   UNL A   1      31.976  35.933  30.479  1.00  0.00     0.163 HD
BRANCH   7   9
ATOM      9  C   UNL A   1      34.663  34.062  29.751  1.00  0.00     0.039 A 
ATOM     10  C   UNL A   1      35.763  34.624  29.100  1.00  0.00     0.014 A 
ATOM     11  C   UNL A   1      34.837  32.854  30.448  1.00  0.00     0.014 A 
ATOM     12  C   UNL A   1      36.984  33.956  29.073  1.00  0.00     0.010 A 
ATOM     13  C   UNL A   1      36.059  32.194  30.445  1.00  0.00     0.010 A 
ATOM     14  C   UNL A   1      37.128  32.735  29.735  1.00  0.00    -0.014 A 
BRANCH  14  15
ATOM     15  C   UNL A   1      38.473  32.174  29.866  1.00  0.00     0.031 A 
ATOM     16  C   UNL A   1      38.564  30.740  29.465  1.00  0.00     0.074 A 
ATOM     17  C   UNL A   1      39.578  32.896  30.144  1.00  0.00     0.049 A 
ATOM     18  N   UNL A   1      38.889  29.725  30.195  1.00  0.00    -0.248 NA
ATOM     19  C   UNL A   1      38.099  30.372  28.116  1.00  0.00     0.031 C 
ATOM     20  C   UNL A   1      39.681  34.348  30.285  1.00  0.00     0.029 A 
ATOM     21  N   UNL A   1      40.876  32.484  30.248  1.00  0.00    -0.354 N 
ATOM     22  C   UNL A   1      38.892  28.622  29.343  1.00  0.00     0.074 A 
ATOM     23  C   UNL A   1      38.223  29.045  28.144  1.00  0.00     0.031 C 
ATOM     24  C   UNL A   1      40.983  34.710  30.224  1.00  0.00     0.029 A 
ATOM     25  C   UNL A   1      41.811  33.515  30.165  1.00  0.00     0.049 A 
ATOM     26  H   UNL A   1      41.130  31.541  30.372  1.00  0.00     0.167 HD
ATOM     27  C   UNL A   1      39.650  27.521  29.609  1.00  0.00     0.034 A 
ATOM     28  C   UNL A   1      43.158  33.401  29.990  1.00  0.00     0.034 A 
ATOM     29  C   UNL A   1      40.045  27.485  30.998  1.00  0.00     0.049 A 
ATOM     30  C   UNL A   1      43.540  32.035  30.422  1.00  0.00     0.074 A 
ATOM     31  C   UNL A   1      39.364  27.472  32.201  1.00  0.00     0.029 A 
ATOM     32  N   UNL A   1      41.341  27.823  31.316  1.00  0.00    -0.354 N 
ATOM     33  N   UNL A   1      43.456  31.624  31.658  1.00  0.00    -0.248 NA
ATOM     34  C   UNL A   1      43.561  30.979  29.420  1.00  0.00     0.031 C 
ATOM     35  C   UNL A   1      40.139  28.298  33.067  1.00  0.00     0.029 A 
ATOM     36  C   UNL A   1      41.282  28.697  32.372  1.00  0.00     0.049 A 
ATOM     37  H   UNL A   1      42.157  27.499  30.870  1.00  0.00     0.167 HD
ATOM     38  C   UNL A   1      42.970  30.330  31.571  1.00  0.00     0.074 A 
ATOM     39  C   UNL A   1      43.149  29.953  30.170  1.00  0.00     0.031 C 
ATOM     40  C   UNL A   1      42.213  29.790  32.572  1.00  0.00     0.034 A 
BRANCH  27  41
ATOM     41  C   UNL A   1      40.352  26.682  28.558  1.00  0.00     0.023 A 
ATOM     42  C   UNL A   1      41.462  27.264  27.914  1.00  0.00     0.031 A 
ATOM     43  C   UNL A   1      39.830  25.522  27.944  1.00  0.00     0.131 A 
ATOM     44  C   UNL A   1      41.908  26.791  26.668  1.00  0.00     0.055 A 
ATOM     45  C   UNL A   1      40.326  25.010  26.740  1.00  0.00     0.041 A 
ATOM     46  F   UNL A   1      38.761  24.869  28.411  1.00  0.00    -0.206 F 
ATOM     47  C   UNL A   1      41.344  25.667  26.073  1.00  0.00     0.022 A 
BRANCH  44  48
ATOM     48  S   UNL A   1      43.096  27.800  25.746  1.00  0.00     0.124 S 
ATOM     49  O   UNL A   1      42.287  28.239  24.615  1.00  0.00    -0.237 OA
ATOM     50  O   UNL A   1      43.445  28.823  26.727  1.00  0.00    -0.237 OA
ATOM     51  O   UNL A   1      44.163  26.856  25.424  1.00  0.00    -0.744 OA
ENDBRANCH  44  48
ENDBRANCH  27  41
BRANCH  28  52
ATOM     52  C   UNL A   1      44.052  34.282  29.180  1.00  0.00     0.023 A 
ATOM     53  C   UNL A   1      44.693  33.859  27.992  1.00  0.00     0.031 A 
ATOM     54  C   UNL A   1      44.089  35.669  29.452  1.00  0.00     0.131 A 
ATOM     55  C   UNL A   1      45.332  34.803  27.147  1.00  0.00     0.055 A 
ATOM     56  C   UNL A   1      44.722  36.593  28.619  1.00  0.00     0.041 A 
ATOM     57  F   UNL A   1      43.430  36.190  30.499  1.00  0.00    -0.206 F 
ATOM     58  C   UNL A   1      45.340  36.165  27.456  1.00  0.00     0.022 A 
BRANCH  55  59
ATOM     59  S   UNL A   1      46.093  34.286  25.571  1.00  0.00     0.124 S 
ATOM     60  O   UNL A   1      44.962  34.317  24.652  1.00  0.00    -0.237 OA
ATOM     61  O   UNL A   1      47.122  35.300  25.371  1.00  0.00    -0.237 OA
ATOM     62  O   UNL A   1      46.608  32.946  25.862  1.00  0.00    -0.744 OA
ENDBRANCH  55  59
ENDBRANCH  28  52
BRANCH  40  63
ATOM     63  C   UNL A   1      42.169  30.491  33.914  1.00  0.00     0.023 A 
ATOM     64  C   UNL A   1      43.120  30.330  34.947  1.00  0.00     0.031 A 
ATOM     65  C   UNL A   1      41.169  31.463  34.093  1.00  0.00     0.131 A 
ATOM     66  C   UNL A   1      43.036  31.123  36.109  1.00  0.00     0.055 A 
ATOM     67  C   UNL A   1      41.104  32.261  35.234  1.00  0.00     0.041 A 
ATOM     68  F   UNL A   1      40.253  31.684  33.135  1.00  0.00    -0.206 F 
ATOM     69  C   UNL A   1      42.035  32.088  36.250  1.00  0.00     0.022 A 
BRANCH  66  70
ATOM     70  S   UNL A   1      44.227  30.908  37.474  1.00  0.00     0.124 S 
ATOM     71  O   UNL A   1      44.875  29.639  37.167  1.00  0.00    -0.237 OA
ATOM     72  O   UNL A   1      45.063  32.100  37.355  1.00  0.00    -0.237 OA
ATOM     73  O   UNL A   1      43.376  30.884  38.665  1.00  0.00    -0.744 OA
ENDBRANCH  66  70
ENDBRANCH  40  63
ENDBRANCH  14  15
ENDBRANCH   7   9
ENDBRANCH   4   5
ENDBRANCH   3   4
ENDBRANCH   2   3
ENDBRANCH   1   2
BRANCH   1  74
ATOM     74  C   UNL A   1      37.699  34.214  33.941  1.00  0.00     0.021 C 
BRANCH  74  75
ATOM     75  C   UNL A   1      38.038  33.936  35.407  1.00  0.00     0.116 C 
BRANCH  75  76
ATOM     76  N   UNL A   1      37.288  32.799  35.894  1.00  0.00    -0.354 N 
ATOM     77  C   UNL A   1      37.734  32.130  37.005  1.00  0.00     0.242 C 
ATOM     78  H   UNL A   1      36.468  32.508  35.434  1.00  0.00     0.163 HD
ATOM     79  O   UNL A   1      38.384  31.102  36.829  1.00  0.00    -0.273 OA
BRANCH  77  80
ATOM     80  C   UNL A   1      37.601  32.859  38.354  1.00  0.00     0.175 C 
ATOM     81  C   UNL A   1      37.076  31.995  39.514  1.00  0.00     0.044 C 
ATOM     82  N   UNL A   1      38.647  33.643  39.026  1.00  0.00    -0.330 N 
ATOM     83  C   UNL A   1      37.236  32.873  40.788  1.00  0.00    -0.006 C 
ATOM     84  C   UNL A   1      38.061  34.088  40.289  1.00  0.00     0.127 C 
ATOM     85  C   UNL A   1      38.015  32.164  41.919  1.00  0.00     0.030 C 
ATOM     86  C   UNL A   1      35.854  33.277  41.337  1.00  0.00     0.030 C 
ATOM     87  C   UNL A   1      37.242  31.030  42.590  1.00  0.00     0.120 C 
ATOM     88  C   UNL A   1      35.121  32.081  41.964  1.00  0.00     0.120 C 
ATOM     89  N   UNL A   1      35.921  31.467  43.026  1.00  0.00    -0.342 N 
ATOM     90  C   UNL A   1      35.300  31.271  44.262  1.00  0.00     0.225 C 
ATOM     91  O   UNL A   1      34.131  31.629  44.435  1.00  0.00    -0.275 OA
BRANCH  82  92
ATOM     92  C   UNL A   1      40.025  33.590  38.923  1.00  0.00     0.225 C 
ATOM     93  O   UNL A   1      40.675  32.716  39.509  1.00  0.00    -0.275 OA
BRANCH  92  94
ATOM     94  C   UNL A   1      40.812  34.636  38.170  1.00  0.00     0.124 C 
BRANCH  94  95
ATOM     95  C   UNL A   1      41.383  35.760  39.027  1.00  0.00     0.154 C 
BRANCH  95  96
ATOM     96  N   UNL A   1      40.456  36.662  39.677  1.00  0.00    -0.272 N 
ATOM     97  C   UNL A   1      39.418  37.323  39.080  1.00  0.00     0.108 A 
ATOM     98  N   UNL A   1      40.677  37.078  40.940  1.00  0.00    -0.182 NA
ATOM     99  C   UNL A   1      38.895  38.166  40.034  1.00  0.00     0.042 A 
ATOM    100  C   UNL A   1      39.712  37.975  41.161  1.00  0.00     0.135 A 
ENDBRANCH  95  96
ENDBRANCH  94  95
ENDBRANCH  92  94
ENDBRANCH  82  92
BRANCH  90 101
ATOM    101  C   UNL A   1      35.952  30.695  45.478  1.00  0.00     0.079 C 
ATOM    102  C   UNL A   1      35.636  29.498  46.321  1.00  0.00     0.014 C 
ATOM    103  C   UNL A   1      36.801  29.451  45.369  1.00  0.00     0.014 C 
ENDBRANCH  90 101
ENDBRANCH  77  80
ENDBRANCH  75  76
ENDBRANCH  74  75
ENDBRANCH   1  74
TORSDOF 21
ENDMDL
