MODEL 1
REMARK VINA RESULT:     -12.6      0.000      0.000
REMARK SMILES Cc1ccc(NC(=O)C[C@@H](C(=O)NCCCCCCNC(=O)c2ccc(-c3c4nc(c(-c5cc(S(=O)(=O)[O-])ccc5F)c5ccc([nH]5)c(-c5cc(S(=O)(=O)[O-])ccc5F)c5nc(c(-c6cc(S(=O)(=O)[O-])ccc6F)c6ccc3[nH]6)C=C5)C=C4)cc2)[NH+]2CCOCC2)cc1
REMARK SMILES IDX 16 1 15 2 14 3 13 4 11 5 12 6 10 8 9 9 7 10 6 11 8 13 5 14
REMARK SMILES IDX 1 15 2 16 3 17 93 18 4 19 92 20 86 21 87 22 91 23 88 25
REMARK SMILES IDX 90 26 89 27 17 28 18 29 19 30 20 31 21 32 22 34 23 35 24 36
REMARK SMILES IDX 85 37 25 38 84 39 26 40 27 41 28 42 78 43 29 44 83 45 77 46
REMARK SMILES IDX 79 47 30 48 82 49 76 50 75 51 31 53 63 54 43 55 62 56 44 57
REMARK SMILES IDX 47 58 61 59 80 60 45 61 46 62 60 64 81 65 48 66 32 67 33 68
REMARK SMILES IDX 41 69 34 70 40 71 42 72 39 73 35 74 36 75 37 76 38 77 64 78
REMARK SMILES IDX 65 79 73 80 66 81 72 82 74 83 71 84 67 85 68 86 69 87 70 88
REMARK SMILES IDX 49 89 50 90 58 91 51 92 57 93 59 94 56 95 52 96 53 97 54 98
REMARK SMILES IDX 55 99
REMARK H PARENT 13 7 6 12 86 24 20 33 79 52 47 63
REMARK Flexibility Score: inf
ROOT
ATOM      1  C   UNL A   1      31.987  28.584  27.658  1.00  0.00     0.002 C 
ENDROOT
BRANCH   1   2
ATOM      2  C   UNL A   1      31.383  27.363  26.939  1.00  0.00     0.021 C 
BRANCH   2   3
ATOM      3  C   UNL A   1      31.628  27.266  25.426  1.00  0.00     0.116 C 
BRANCH   3   4
ATOM      4  N   UNL A   1      30.417  26.953  24.697  1.00  0.00    -0.351 N 
ATOM      5  C   UNL A   1      29.900  25.826  24.151  1.00  0.00     0.278 C 
ATOM      6  O   UNL A   1      28.758  25.965  23.691  1.00  0.00    -0.268 OA
ATOM      7  H   UNL A   1      29.837  27.738  24.569  1.00  0.00     0.163 HD
BRANCH   5   8
ATOM      8  C   UNL A   1      30.608  24.426  24.204  1.00  0.00     0.283 C 
BRANCH   8   9
ATOM      9  C   UNL A   1      31.539  24.190  25.412  1.00  0.00     0.175 C 
BRANCH   9  10
ATOM     10  C   UNL A   1      31.137  23.245  26.514  1.00  0.00     0.230 C 
ATOM     11  N   UNL A   1      31.862  22.140  26.849  1.00  0.00    -0.326 N 
ATOM     12  H   UNL A   1      31.404  21.522  27.465  1.00  0.00     0.169 HD
ATOM     13  O   UNL A   1      30.107  23.485  27.156  1.00  0.00    -0.274 OA
BRANCH  11  14
ATOM     14  C   UNL A   1      33.150  21.731  26.466  1.00  0.00     0.041 A 
ATOM     15  C   UNL A   1      37.019  21.376  24.635  1.00  0.00     0.044 C 
ATOM     16  C   UNL A   1      35.720  21.425  25.380  1.00  0.00    -0.051 A 
ATOM     17  C   UNL A   1      34.703  20.524  25.060  1.00  0.00     0.005 A 
ATOM     18  C   UNL A   1      35.478  22.401  26.349  1.00  0.00     0.005 A 
ATOM     19  C   UNL A   1      33.428  20.670  25.610  1.00  0.00     0.026 A 
ATOM     20  C   UNL A   1      34.206  22.533  26.910  1.00  0.00     0.026 A 
ENDBRANCH  11  14
ENDBRANCH   9  10
ENDBRANCH   8   9
BRANCH   8  21
ATOM     21  N   UNL A   1      31.341  24.239  22.908  1.00  0.00    -0.320 N 
ATOM     22  C   UNL A   1      32.289  23.110  22.870  1.00  0.00     0.291 C 
ATOM     23  C   UNL A   1      31.852  25.374  22.136  1.00  0.00     0.291 C 
ATOM     24  H   UNL A   1      30.496  24.012  22.384  1.00  0.00     0.348 HD
ATOM     25  C   UNL A   1      33.751  23.518  23.099  1.00  0.00     0.221 C 
ATOM     26  C   UNL A   1      33.330  25.705  22.373  1.00  0.00     0.221 C 
ATOM     27  O   UNL A   1      34.161  24.553  22.200  1.00  0.00    -0.370 OA
ENDBRANCH   8  21
ENDBRANCH   5   8
ENDBRANCH   3   4
ENDBRANCH   2   3
ENDBRANCH   1   2
BRANCH   1  28
ATOM     28  C   UNL A   1      31.963  29.918  26.903  1.00  0.00     0.002 C 
BRANCH  28  29
ATOM     29  C   UNL A   1      33.283  30.356  26.268  1.00  0.00     0.021 C 
BRANCH  29  30
ATOM     30  C   UNL A   1      34.525  30.028  27.088  1.00  0.00     0.116 C 
BRANCH  30  31
ATOM     31  N   UNL A   1      35.264  31.169  27.590  1.00  0.00    -0.352 N 
ATOM     32  C   UNL A   1      36.450  31.194  28.301  1.00  0.00     0.251 C 
ATOM     33  H   UNL A   1      34.867  32.050  27.398  1.00  0.00     0.163 HD
ATOM     34  O   UNL A   1      36.807  32.237  28.853  1.00  0.00    -0.269 OA
BRANCH  32  35
ATOM     35  C   UNL A   1      37.357  30.014  28.312  1.00  0.00     0.039 A 
ATOM     36  C   UNL A   1      37.400  29.236  29.480  1.00  0.00     0.014 A 
ATOM     37  C   UNL A   1      38.270  29.761  27.292  1.00  0.00     0.014 A 
ATOM     38  C   UNL A   1      38.474  28.377  29.708  1.00  0.00     0.010 A 
ATOM     39  C   UNL A   1      39.383  28.990  27.552  1.00  0.00     0.010 A 
ATOM     40  C   UNL A   1      39.510  28.344  28.781  1.00  0.00    -0.014 A 
BRANCH  40  41
ATOM     41  C   UNL A   1      40.801  27.716  29.007  1.00  0.00     0.031 A 
ATOM     42  C   UNL A   1      40.994  26.291  28.686  1.00  0.00     0.074 A 
ATOM     43  C   UNL A   1      41.846  28.493  29.363  1.00  0.00     0.049 A 
ATOM     44  N   UNL A   1      42.011  25.595  29.060  1.00  0.00    -0.248 NA
ATOM     45  C   UNL A   1      39.996  25.501  27.967  1.00  0.00     0.031 C 
ATOM     46  C   UNL A   1      43.267  28.170  29.304  1.00  0.00     0.029 A 
ATOM     47  N   UNL A   1      41.784  29.655  30.129  1.00  0.00    -0.354 N 
ATOM     48  C   UNL A   1      41.975  24.411  28.365  1.00  0.00     0.074 A 
ATOM     49  C   UNL A   1      40.636  24.335  27.842  1.00  0.00     0.031 C 
ATOM     50  C   UNL A   1      43.921  28.931  30.197  1.00  0.00     0.029 A 
ATOM     51  C   UNL A   1      42.915  29.641  30.967  1.00  0.00     0.049 A 
ATOM     52  H   UNL A   1      41.088  30.349  30.091  1.00  0.00     0.167 HD
ATOM     53  C   UNL A   1      43.142  23.734  28.177  1.00  0.00     0.034 A 
ATOM     54  C   UNL A   1      42.766  29.557  32.323  1.00  0.00     0.034 A 
ATOM     55  C   UNL A   1      44.174  24.216  29.103  1.00  0.00     0.049 A 
ATOM     56  C   UNL A   1      43.403  28.324  32.920  1.00  0.00     0.074 A 
ATOM     57  C   UNL A   1      45.326  24.964  28.944  1.00  0.00     0.029 A 
ATOM     58  N   UNL A   1      43.929  24.161  30.476  1.00  0.00    -0.354 N 
ATOM     59  N   UNL A   1      43.721  27.256  32.238  1.00  0.00    -0.248 NA
ATOM     60  C   UNL A   1      43.747  28.204  34.333  1.00  0.00     0.031 C 
ATOM     61  C   UNL A   1      45.698  25.464  30.226  1.00  0.00     0.029 A 
ATOM     62  C   UNL A   1      44.809  24.970  31.167  1.00  0.00     0.049 A 
ATOM     63  H   UNL A   1      43.223  23.617  30.895  1.00  0.00     0.167 HD
ATOM     64  C   UNL A   1      44.294  26.329  33.070  1.00  0.00     0.074 A 
ATOM     65  C   UNL A   1      44.304  26.982  34.369  1.00  0.00     0.031 C 
ATOM     66  C   UNL A   1      44.712  25.105  32.619  1.00  0.00     0.034 A 
BRANCH  53  67
ATOM     67  C   UNL A   1      43.431  22.804  27.007  1.00  0.00     0.023 A 
ATOM     68  C   UNL A   1      42.827  21.527  26.987  1.00  0.00     0.031 A 
ATOM     69  C   UNL A   1      44.379  23.025  25.979  1.00  0.00     0.131 A 
ATOM     70  C   UNL A   1      43.175  20.559  26.021  1.00  0.00     0.055 A 
ATOM     71  C   UNL A   1      44.681  22.083  24.987  1.00  0.00     0.041 A 
ATOM     72  F   UNL A   1      45.121  24.132  25.896  1.00  0.00    -0.206 F 
ATOM     73  C   UNL A   1      44.087  20.838  25.008  1.00  0.00     0.022 A 
BRANCH  70  74
ATOM     74  S   UNL A   1      42.483  18.886  26.140  1.00  0.00     0.124 S 
ATOM     75  O   UNL A   1      41.082  19.109  25.801  1.00  0.00    -0.237 OA
ATOM     76  O   UNL A   1      43.280  18.149  25.167  1.00  0.00    -0.237 OA
ATOM     77  O   UNL A   1      42.725  18.518  27.536  1.00  0.00    -0.744 OA
ENDBRANCH  70  74
ENDBRANCH  53  67
BRANCH  54  78
ATOM     78  C   UNL A   1      41.525  30.235  32.807  1.00  0.00     0.023 A 
ATOM     79  C   UNL A   1      41.553  31.648  32.834  1.00  0.00     0.031 A 
ATOM     80  C   UNL A   1      40.273  29.607  32.784  1.00  0.00     0.131 A 
ATOM     81  C   UNL A   1      40.381  32.381  32.613  1.00  0.00     0.055 A 
ATOM     82  C   UNL A   1      39.091  30.352  32.667  1.00  0.00     0.041 A 
ATOM     83  F   UNL A   1      40.178  28.270  32.735  1.00  0.00    -0.206 F 
ATOM     84  C   UNL A   1      39.144  31.741  32.523  1.00  0.00     0.022 A 
BRANCH  81  85
ATOM     85  S   UNL A   1      40.550  34.126  32.118  1.00  0.00     0.124 S 
ATOM     86  O   UNL A   1      41.784  34.103  31.341  1.00  0.00    -0.237 OA
ATOM     87  O   UNL A   1      39.324  34.363  31.358  1.00  0.00    -0.237 OA
ATOM     88  O   UNL A   1      40.618  34.842  33.389  1.00  0.00    -0.744 OA
ENDBRANCH  81  85
ENDBRANCH  54  78
BRANCH  66  89
ATOM     89  C   UNL A   1      45.150  23.948  33.499  1.00  0.00     0.023 A 
ATOM     90  C   UNL A   1      46.434  23.838  34.054  1.00  0.00     0.031 A 
ATOM     91  C   UNL A   1      44.237  22.932  33.877  1.00  0.00     0.131 A 
ATOM     92  C   UNL A   1      46.801  22.730  34.839  1.00  0.00     0.055 A 
ATOM     93  C   UNL A   1      44.577  21.876  34.729  1.00  0.00     0.041 A 
ATOM     94  F   UNL A   1      42.968  22.925  33.444  1.00  0.00    -0.206 F 
ATOM     95  C   UNL A   1      45.875  21.757  35.199  1.00  0.00     0.022 A 
BRANCH  92  96
ATOM     96  S   UNL A   1      48.541  22.555  35.315  1.00  0.00     0.124 S 
ATOM     97  O   UNL A   1      48.622  21.132  35.637  1.00  0.00    -0.237 OA
ATOM     98  O   UNL A   1      49.242  22.970  34.104  1.00  0.00    -0.237 OA
ATOM     99  O   UNL A   1      48.681  23.458  36.456  1.00  0.00    -0.744 OA
ENDBRANCH  92  96
ENDBRANCH  66  89
ENDBRANCH  40  41
ENDBRANCH  32  35
ENDBRANCH  30  31
ENDBRANCH  29  30
ENDBRANCH  28  29
ENDBRANCH   1  28
TORSDOF 20
ENDMDL
MODEL 2
REMARK VINA RESULT:     -12.5      1.455      2.258
REMARK SMILES Cc1ccc(NC(=O)C[C@@H](C(=O)NCCCCCCNC(=O)c2ccc(-c3c4nc(c(-c5cc(S(=O)(=O)[O-])ccc5F)c5ccc([nH]5)c(-c5cc(S(=O)(=O)[O-])ccc5F)c5nc(c(-c6cc(S(=O)(=O)[O-])ccc6F)c6ccc3[nH]6)C=C5)C=C4)cc2)[NH+]2CCOCC2)cc1
REMARK SMILES IDX 16 1 15 2 14 3 13 4 11 5 12 6 10 8 9 9 7 10 6 11 8 13 5 14
REMARK SMILES IDX 1 15 2 16 3 17 93 18 4 19 92 20 86 21 87 22 91 23 88 25
REMARK SMILES IDX 90 26 89 27 17 28 18 29 19 30 20 31 21 32 22 34 23 35 24 36
REMARK SMILES IDX 85 37 25 38 84 39 26 40 27 41 28 42 78 43 29 44 83 45 77 46
REMARK SMILES IDX 79 47 30 48 82 49 76 50 75 51 31 53 63 54 43 55 62 56 44 57
REMARK SMILES IDX 47 58 61 59 80 60 45 61 46 62 60 64 81 65 48 66 32 67 33 68
REMARK SMILES IDX 41 69 34 70 40 71 42 72 39 73 35 74 36 75 37 76 38 77 64 78
REMARK SMILES IDX 65 79 73 80 66 81 72 82 74 83 71 84 67 85 68 86 69 87 70 88
REMARK SMILES IDX 49 89 50 90 58 91 51 92 57 93 59 94 56 95 52 96 53 97 54 98
REMARK SMILES IDX 55 99
REMARK H PARENT 13 7 6 12 86 24 20 33 79 52 47 63
REMARK Flexibility Score: inf
ROOT
ATOM      1  C   UNL A   1      31.420  28.222  27.331  1.00  0.00     0.002 C 
ENDROOT
BRANCH   1   2
ATOM      2  C   UNL A   1      31.770  27.057  26.387  1.00  0.00     0.021 C 
BRANCH   2   3
ATOM      3  C   UNL A   1      30.588  26.309  25.752  1.00  0.00     0.116 C 
BRANCH   3   4
ATOM      4  N   UNL A   1      30.256  25.101  26.477  1.00  0.00    -0.351 N 
ATOM      5  C   UNL A   1      30.758  23.843  26.509  1.00  0.00     0.278 C 
ATOM      6  O   UNL A   1      30.238  23.112  27.364  1.00  0.00    -0.268 OA
ATOM      7  H   UNL A   1      29.490  25.221  27.084  1.00  0.00     0.163 HD
BRANCH   5   8
ATOM      8  C   UNL A   1      31.979  23.367  25.645  1.00  0.00     0.283 C 
BRANCH   8   9
ATOM      9  C   UNL A   1      31.928  21.902  25.162  1.00  0.00     0.175 C 
BRANCH   9  10
ATOM     10  C   UNL A   1      32.119  21.570  23.705  1.00  0.00     0.230 C 
ATOM     11  N   UNL A   1      32.611  20.375  23.271  1.00  0.00    -0.326 N 
ATOM     12  H   UNL A   1      32.842  20.352  22.314  1.00  0.00     0.169 HD
ATOM     13  O   UNL A   1      31.804  22.416  22.858  1.00  0.00    -0.274 OA
BRANCH  11  14
ATOM     14  C   UNL A   1      32.844  19.171  23.956  1.00  0.00     0.041 A 
ATOM     15  C   UNL A   1      32.539  15.246  25.672  1.00  0.00     0.044 C 
ATOM     16  C   UNL A   1      32.784  16.601  25.081  1.00  0.00    -0.051 A 
ATOM     17  C   UNL A   1      32.727  17.733  25.896  1.00  0.00     0.005 A 
ATOM     18  C   UNL A   1      33.005  16.764  23.712  1.00  0.00     0.005 A 
ATOM     19  C   UNL A   1      32.769  19.011  25.336  1.00  0.00     0.026 A 
ATOM     20  C   UNL A   1      33.064  18.044  23.157  1.00  0.00     0.026 A 
ENDBRANCH  11  14
ENDBRANCH   9  10
ENDBRANCH   8   9
BRANCH   8  21
ATOM     21  N   UNL A   1      33.227  23.636  26.435  1.00  0.00    -0.320 N 
ATOM     22  C   UNL A   1      34.265  24.417  25.738  1.00  0.00     0.291 C 
ATOM     23  C   UNL A   1      33.831  22.619  27.299  1.00  0.00     0.291 C 
ATOM     24  H   UNL A   1      32.746  24.216  27.124  1.00  0.00     0.348 HD
ATOM     25  C   UNL A   1      35.390  23.561  25.139  1.00  0.00     0.221 C 
ATOM     26  C   UNL A   1      34.978  21.828  26.661  1.00  0.00     0.221 C 
ATOM     27  O   UNL A   1      35.978  22.697  26.117  1.00  0.00    -0.370 OA
ENDBRANCH   8  21
ENDBRANCH   5   8
ENDBRANCH   3   4
ENDBRANCH   2   3
ENDBRANCH   1   2
BRANCH   1  28
ATOM     28  C   UNL A   1      31.903  29.619  26.922  1.00  0.00     0.002 C 
BRANCH  28  29
ATOM     29  C   UNL A   1      33.249  29.682  26.200  1.00  0.00     0.021 C 
BRANCH  29  30
ATOM     30  C   UNL A   1      34.464  29.496  27.100  1.00  0.00     0.116 C 
BRANCH  30  31
ATOM     31  N   UNL A   1      35.171  30.711  27.458  1.00  0.00    -0.352 N 
ATOM     32  C   UNL A   1      36.387  30.853  28.101  1.00  0.00     0.251 C 
ATOM     33  H   UNL A   1      34.723  31.552  27.207  1.00  0.00     0.163 HD
ATOM     34  O   UNL A   1      36.719  31.958  28.537  1.00  0.00    -0.269 OA
BRANCH  32  35
ATOM     35  C   UNL A   1      37.349  29.720  28.172  1.00  0.00     0.039 A 
ATOM     36  C   UNL A   1      37.395  28.978  29.363  1.00  0.00     0.014 A 
ATOM     37  C   UNL A   1      38.303  29.484  27.186  1.00  0.00     0.014 A 
ATOM     38  C   UNL A   1      38.503  28.179  29.647  1.00  0.00     0.010 A 
ATOM     39  C   UNL A   1      39.443  28.776  27.500  1.00  0.00     0.010 A 
ATOM     40  C   UNL A   1      39.566  28.171  28.751  1.00  0.00    -0.014 A 
BRANCH  40  41
ATOM     41  C   UNL A   1      40.878  27.614  29.030  1.00  0.00     0.031 A 
ATOM     42  C   UNL A   1      41.190  26.229  28.637  1.00  0.00     0.074 A 
ATOM     43  C   UNL A   1      41.840  28.432  29.510  1.00  0.00     0.049 A 
ATOM     44  N   UNL A   1      42.226  25.577  29.040  1.00  0.00    -0.248 NA
ATOM     45  C   UNL A   1      40.301  25.427  27.798  1.00  0.00     0.031 C 
ATOM     46  C   UNL A   1      43.281  28.206  29.535  1.00  0.00     0.029 A 
ATOM     47  N   UNL A   1      41.645  29.533  30.340  1.00  0.00    -0.354 N 
ATOM     48  C   UNL A   1      42.319  24.442  28.271  1.00  0.00     0.074 A 
ATOM     49  C   UNL A   1      41.028  24.315  27.648  1.00  0.00     0.031 C 
ATOM     50  C   UNL A   1      43.817  28.945  30.519  1.00  0.00     0.029 A 
ATOM     51  C   UNL A   1      42.714  29.535  31.257  1.00  0.00     0.049 A 
ATOM     52  H   UNL A   1      40.907  30.182  30.295  1.00  0.00     0.167 HD
ATOM     53  C   UNL A   1      43.540  23.856  28.128  1.00  0.00     0.034 A 
ATOM     54  C   UNL A   1      42.478  29.352  32.590  1.00  0.00     0.034 A 
ATOM     55  C   UNL A   1      44.470  24.340  29.155  1.00  0.00     0.049 A 
ATOM     56  C   UNL A   1      43.157  28.125  33.154  1.00  0.00     0.074 A 
ATOM     57  C   UNL A   1      45.576  25.170  29.128  1.00  0.00     0.029 A 
ATOM     58  N   UNL A   1      44.136  24.178  30.500  1.00  0.00    -0.354 N 
ATOM     59  N   UNL A   1      43.593  27.128  32.431  1.00  0.00    -0.248 NA
ATOM     60  C   UNL A   1      43.409  27.933  34.578  1.00  0.00     0.031 C 
ATOM     61  C   UNL A   1      45.823  25.606  30.462  1.00  0.00     0.029 A 
ATOM     62  C   UNL A   1      44.908  24.994  31.303  1.00  0.00     0.049 A 
ATOM     63  H   UNL A   1      43.442  23.563  30.832  1.00  0.00     0.167 HD
ATOM     64  C   UNL A   1      44.171  26.186  33.244  1.00  0.00     0.074 A 
ATOM     65  C   UNL A   1      44.046  26.750  34.578  1.00  0.00     0.031 C 
ATOM     66  C   UNL A   1      44.702  25.025  32.750  1.00  0.00     0.034 A 
BRANCH  53  67
ATOM     67  C   UNL A   1      43.973  23.028  26.927  1.00  0.00     0.023 A 
ATOM     68  C   UNL A   1      43.335  21.790  26.689  1.00  0.00     0.031 A 
ATOM     69  C   UNL A   1      45.073  23.298  26.078  1.00  0.00     0.131 A 
ATOM     70  C   UNL A   1      43.793  20.900  25.693  1.00  0.00     0.055 A 
ATOM     71  C   UNL A   1      45.492  22.439  25.053  1.00  0.00     0.041 A 
ATOM     72  F   UNL A   1      45.857  24.370  26.218  1.00  0.00    -0.206 F 
ATOM     73  C   UNL A   1      44.859  21.228  24.860  1.00  0.00     0.022 A 
BRANCH  70  74
ATOM     74  S   UNL A   1      43.035  19.259  25.540  1.00  0.00     0.124 S 
ATOM     75  O   UNL A   1      43.632  18.761  24.304  1.00  0.00    -0.237 OA
ATOM     76  O   UNL A   1      43.454  18.606  26.774  1.00  0.00    -0.237 OA
ATOM     77  O   UNL A   1      41.604  19.553  25.455  1.00  0.00    -0.744 OA
ENDBRANCH  70  74
ENDBRANCH  53  67
BRANCH  54  78
ATOM     78  C   UNL A   1      41.163  29.914  33.023  1.00  0.00     0.023 A 
ATOM     79  C   UNL A   1      41.075  31.323  33.088  1.00  0.00     0.031 A 
ATOM     80  C   UNL A   1      39.969  29.190  32.916  1.00  0.00     0.131 A 
ATOM     81  C   UNL A   1      39.861  31.968  32.822  1.00  0.00     0.055 A 
ATOM     82  C   UNL A   1      38.738  29.842  32.754  1.00  0.00     0.041 A 
ATOM     83  F   UNL A   1      39.985  27.852  32.827  1.00  0.00    -0.206 F 
ATOM     84  C   UNL A   1      38.686  31.234  32.649  1.00  0.00     0.022 A 
BRANCH  81  85
ATOM     85  S   UNL A   1      39.914  33.734  32.382  1.00  0.00     0.124 S 
ATOM     86  O   UNL A   1      40.567  33.703  31.079  1.00  0.00    -0.237 OA
ATOM     87  O   UNL A   1      38.500  34.105  32.376  1.00  0.00    -0.237 OA
ATOM     88  O   UNL A   1      40.690  34.338  33.462  1.00  0.00    -0.744 OA
ENDBRANCH  81  85
ENDBRANCH  54  78
BRANCH  66  89
ATOM     89  C   UNL A   1      45.157  23.842  33.585  1.00  0.00     0.023 A 
ATOM     90  C   UNL A   1      46.474  23.674  34.041  1.00  0.00     0.031 A 
ATOM     91  C   UNL A   1      44.235  22.860  34.024  1.00  0.00     0.131 A 
ATOM     92  C   UNL A   1      46.853  22.544  34.788  1.00  0.00     0.055 A 
ATOM     93  C   UNL A   1      44.594  21.782  34.840  1.00  0.00     0.041 A 
ATOM     94  F   UNL A   1      42.937  22.909  33.688  1.00  0.00    -0.206 F 
ATOM     95  C   UNL A   1      45.917  21.605  35.210  1.00  0.00     0.022 A 
BRANCH  92  96
ATOM     96  S   UNL A   1      48.615  22.294  35.129  1.00  0.00     0.124 S 
ATOM     97  O   UNL A   1      48.745  20.846  34.990  1.00  0.00    -0.237 OA
ATOM     98  O   UNL A   1      49.254  23.090  34.086  1.00  0.00    -0.237 OA
ATOM     99  O   UNL A   1      48.781  22.803  36.490  1.00  0.00    -0.744 OA
ENDBRANCH  92  96
ENDBRANCH  66  89
ENDBRANCH  40  41
ENDBRANCH  32  35
ENDBRANCH  30  31
ENDBRANCH  29  30
ENDBRANCH  28  29
ENDBRANCH   1  28
TORSDOF 20
ENDMDL
MODEL 3
REMARK VINA RESULT:     -12.4      1.224      2.930
REMARK SMILES Cc1ccc(NC(=O)C[C@@H](C(=O)NCCCCCCNC(=O)c2ccc(-c3c4nc(c(-c5cc(S(=O)(=O)[O-])ccc5F)c5ccc([nH]5)c(-c5cc(S(=O)(=O)[O-])ccc5F)c5nc(c(-c6cc(S(=O)(=O)[O-])ccc6F)c6ccc3[nH]6)C=C5)C=C4)cc2)[NH+]2CCOCC2)cc1
REMARK SMILES IDX 16 1 15 2 14 3 13 4 11 5 12 6 10 8 9 9 7 10 6 11 8 13 5 14
REMARK SMILES IDX 1 15 2 16 3 17 93 18 4 19 92 20 86 21 87 22 91 23 88 25
REMARK SMILES IDX 90 26 89 27 17 28 18 29 19 30 20 31 21 32 22 34 23 35 24 36
REMARK SMILES IDX 85 37 25 38 84 39 26 40 27 41 28 42 78 43 29 44 83 45 77 46
REMARK SMILES IDX 79 47 30 48 82 49 76 50 75 51 31 53 63 54 43 55 62 56 44 57
REMARK SMILES IDX 47 58 61 59 80 60 45 61 46 62 60 64 81 65 48 66 32 67 33 68
REMARK SMILES IDX 41 69 34 70 40 71 42 72 39 73 35 74 36 75 37 76 38 77 64 78
REMARK SMILES IDX 65 79 73 80 66 81 72 82 74 83 71 84 67 85 68 86 69 87 70 88
REMARK SMILES IDX 49 89 50 90 58 91 51 92 57 93 59 94 56 95 52 96 53 97 54 98
REMARK SMILES IDX 55 99
REMARK H PARENT 13 7 6 12 86 24 20 33 79 52 47 63
REMARK Flexibility Score: inf
ROOT
ATOM      1  C   UNL A   1      31.486  28.697  25.717  1.00  0.00     0.002 C 
ENDROOT
BRANCH   1   2
ATOM      2  C   UNL A   1      31.704  27.555  26.727  1.00  0.00     0.021 C 
BRANCH   2   3
ATOM      3  C   UNL A   1      32.886  26.614  26.453  1.00  0.00     0.116 C 
BRANCH   3   4
ATOM      4  N   UNL A   1      33.509  26.878  25.174  1.00  0.00    -0.351 N 
ATOM      5  C   UNL A   1      33.985  26.103  24.169  1.00  0.00     0.278 C 
ATOM      6  O   UNL A   1      34.357  26.739  23.173  1.00  0.00    -0.268 OA
ATOM      7  H   UNL A   1      33.609  27.841  24.992  1.00  0.00     0.163 HD
BRANCH   5   8
ATOM      8  C   UNL A   1      33.956  24.534  24.188  1.00  0.00     0.283 C 
BRANCH   8   9
ATOM      9  C   UNL A   1      32.616  23.893  24.606  1.00  0.00     0.175 C 
BRANCH   9  10
ATOM     10  C   UNL A   1      31.662  23.367  23.566  1.00  0.00     0.230 C 
ATOM     11  N   UNL A   1      30.659  24.117  23.027  1.00  0.00    -0.326 N 
ATOM     12  H   UNL A   1      30.010  23.605  22.491  1.00  0.00     0.169 HD
ATOM     13  O   UNL A   1      31.799  22.202  23.170  1.00  0.00    -0.274 OA
BRANCH  11  14
ATOM     14  C   UNL A   1      30.392  25.493  23.107  1.00  0.00     0.041 A 
ATOM     15  C   UNL A   1      28.720  29.427  22.696  1.00  0.00     0.044 C 
ATOM     16  C   UNL A   1      29.363  28.100  22.958  1.00  0.00    -0.051 A 
ATOM     17  C   UNL A   1      30.563  27.774  22.323  1.00  0.00     0.005 A 
ATOM     18  C   UNL A   1      28.751  27.148  23.776  1.00  0.00     0.005 A 
ATOM     19  C   UNL A   1      31.080  26.480  22.408  1.00  0.00     0.026 A 
ATOM     20  C   UNL A   1      29.281  25.860  23.873  1.00  0.00     0.026 A 
ENDBRANCH  11  14
ENDBRANCH   9  10
ENDBRANCH   8   9
BRANCH   8  21
ATOM     21  N   UNL A   1      35.079  24.070  25.068  1.00  0.00    -0.320 N 
ATOM     22  C   UNL A   1      36.201  23.411  24.375  1.00  0.00     0.291 C 
ATOM     23  C   UNL A   1      34.835  23.448  26.372  1.00  0.00     0.291 C 
ATOM     24  H   UNL A   1      35.339  25.015  25.350  1.00  0.00     0.348 HD
ATOM     25  C   UNL A   1      36.151  21.878  24.426  1.00  0.00     0.221 C 
ATOM     26  C   UNL A   1      34.841  21.915  26.368  1.00  0.00     0.221 C 
ATOM     27  O   UNL A   1      36.032  21.395  25.768  1.00  0.00    -0.370 OA
ENDBRANCH   8  21
ENDBRANCH   5   8
ENDBRANCH   3   4
ENDBRANCH   2   3
ENDBRANCH   1   2
BRANCH   1  28
ATOM     28  C   UNL A   1      32.172  30.035  26.018  1.00  0.00     0.002 C 
BRANCH  28  29
ATOM     29  C   UNL A   1      32.982  30.101  27.312  1.00  0.00     0.021 C 
BRANCH  29  30
ATOM     30  C   UNL A   1      34.491  30.003  27.125  1.00  0.00     0.116 C 
BRANCH  30  31
ATOM     31  N   UNL A   1      35.253  31.158  27.560  1.00  0.00    -0.352 N 
ATOM     32  C   UNL A   1      36.458  31.202  28.235  1.00  0.00     0.251 C 
ATOM     33  H   UNL A   1      34.856  32.033  27.342  1.00  0.00     0.163 HD
ATOM     34  O   UNL A   1      36.838  32.263  28.734  1.00  0.00    -0.269 OA
BRANCH  32  35
ATOM     35  C   UNL A   1      37.357  30.016  28.269  1.00  0.00     0.039 A 
ATOM     36  C   UNL A   1      37.403  29.268  29.457  1.00  0.00     0.014 A 
ATOM     37  C   UNL A   1      38.259  29.730  27.249  1.00  0.00     0.014 A 
ATOM     38  C   UNL A   1      38.473  28.406  29.699  1.00  0.00     0.010 A 
ATOM     39  C   UNL A   1      39.368  28.957  27.520  1.00  0.00     0.010 A 
ATOM     40  C   UNL A   1      39.501  28.342  28.765  1.00  0.00    -0.014 A 
BRANCH  40  41
ATOM     41  C   UNL A   1      40.789  27.710  28.996  1.00  0.00     0.031 A 
ATOM     42  C   UNL A   1      40.979  26.284  28.678  1.00  0.00     0.074 A 
ATOM     43  C   UNL A   1      41.835  28.485  29.357  1.00  0.00     0.049 A 
ATOM     44  N   UNL A   1      41.993  25.585  29.056  1.00  0.00    -0.248 NA
ATOM     45  C   UNL A   1      39.981  25.496  27.955  1.00  0.00     0.031 C 
ATOM     46  C   UNL A   1      43.255  28.157  29.303  1.00  0.00     0.029 A 
ATOM     47  N   UNL A   1      41.773  29.647  30.121  1.00  0.00    -0.354 N 
ATOM     48  C   UNL A   1      41.956  24.401  28.362  1.00  0.00     0.074 A 
ATOM     49  C   UNL A   1      40.619  24.328  27.834  1.00  0.00     0.031 C 
ATOM     50  C   UNL A   1      43.908  28.917  30.198  1.00  0.00     0.029 A 
ATOM     51  C   UNL A   1      42.900  29.630  30.964  1.00  0.00     0.049 A 
ATOM     52  H   UNL A   1      41.079  30.343  30.079  1.00  0.00     0.167 HD
ATOM     53  C   UNL A   1      43.121  23.721  28.180  1.00  0.00     0.034 A 
ATOM     54  C   UNL A   1      42.746  29.549  32.319  1.00  0.00     0.034 A 
ATOM     55  C   UNL A   1      44.151  24.200  29.109  1.00  0.00     0.049 A 
ATOM     56  C   UNL A   1      43.377  28.314  32.920  1.00  0.00     0.074 A 
ATOM     57  C   UNL A   1      45.306  24.945  28.955  1.00  0.00     0.029 A 
ATOM     58  N   UNL A   1      43.900  24.148  30.482  1.00  0.00    -0.354 N 
ATOM     59  N   UNL A   1      43.694  27.245  32.240  1.00  0.00    -0.248 NA
ATOM     60  C   UNL A   1      43.714  28.195  34.334  1.00  0.00     0.031 C 
ATOM     61  C   UNL A   1      45.674  25.445  30.238  1.00  0.00     0.029 A 
ATOM     62  C   UNL A   1      44.780  24.954  31.176  1.00  0.00     0.049 A 
ATOM     63  H   UNL A   1      43.191  23.606  30.899  1.00  0.00     0.167 HD
ATOM     64  C   UNL A   1      44.262  26.316  33.075  1.00  0.00     0.074 A 
ATOM     65  C   UNL A   1      44.268  26.971  34.373  1.00  0.00     0.031 C 
ATOM     66  C   UNL A   1      44.678  25.091  32.627  1.00  0.00     0.034 A 
BRANCH  53  67
ATOM     67  C   UNL A   1      43.413  22.789  27.012  1.00  0.00     0.023 A 
ATOM     68  C   UNL A   1      42.813  21.510  26.996  1.00  0.00     0.031 A 
ATOM     69  C   UNL A   1      44.358  23.010  25.983  1.00  0.00     0.131 A 
ATOM     70  C   UNL A   1      43.163  20.540  26.032  1.00  0.00     0.055 A 
ATOM     71  C   UNL A   1      44.663  22.067  24.993  1.00  0.00     0.041 A 
ATOM     72  F   UNL A   1      45.097  24.120  25.896  1.00  0.00    -0.206 F 
ATOM     73  C   UNL A   1      44.073  20.819  25.018  1.00  0.00     0.022 A 
BRANCH  70  74
ATOM     74  S   UNL A   1      42.478  18.865  26.157  1.00  0.00     0.124 S 
ATOM     75  O   UNL A   1      42.641  18.572  27.577  1.00  0.00    -0.237 OA
ATOM     76  O   UNL A   1      41.111  19.050  25.683  1.00  0.00    -0.237 OA
ATOM     77  O   UNL A   1      43.335  18.081  25.266  1.00  0.00    -0.744 OA
ENDBRANCH  70  74
ENDBRANCH  53  67
BRANCH  54  78
ATOM     78  C   UNL A   1      41.505  30.231  32.797  1.00  0.00     0.023 A 
ATOM     79  C   UNL A   1      41.485  31.640  32.693  1.00  0.00     0.031 A 
ATOM     80  C   UNL A   1      40.276  29.565  32.891  1.00  0.00     0.131 A 
ATOM     81  C   UNL A   1      40.280  32.314  32.462  1.00  0.00     0.055 A 
ATOM     82  C   UNL A   1      39.064  30.260  32.763  1.00  0.00     0.041 A 
ATOM     83  F   UNL A   1      40.225  28.228  32.970  1.00  0.00    -0.206 F 
ATOM     84  C   UNL A   1      39.063  31.631  32.490  1.00  0.00     0.022 A 
BRANCH  81  85
ATOM     85  S   UNL A   1      40.366  34.009  31.801  1.00  0.00     0.124 S 
ATOM     86  O   UNL A   1      41.629  34.486  32.353  1.00  0.00    -0.237 OA
ATOM     87  O   UNL A   1      40.345  33.791  30.356  1.00  0.00    -0.237 OA
ATOM     88  O   UNL A   1      39.165  34.648  32.331  1.00  0.00    -0.744 OA
ENDBRANCH  81  85
ENDBRANCH  54  78
BRANCH  66  89
ATOM     89  C   UNL A   1      45.108  23.933  33.510  1.00  0.00     0.023 A 
ATOM     90  C   UNL A   1      46.406  23.791  34.024  1.00  0.00     0.031 A 
ATOM     91  C   UNL A   1      44.178  22.953  33.934  1.00  0.00     0.131 A 
ATOM     92  C   UNL A   1      46.764  22.683  34.814  1.00  0.00     0.055 A 
ATOM     93  C   UNL A   1      44.513  21.899  34.790  1.00  0.00     0.041 A 
ATOM     94  F   UNL A   1      42.894  22.980  33.543  1.00  0.00    -0.206 F 
ATOM     95  C   UNL A   1      45.821  21.745  35.219  1.00  0.00     0.022 A 
BRANCH  92  96
ATOM     96  S   UNL A   1      48.513  22.460  35.234  1.00  0.00     0.124 S 
ATOM     97  O   UNL A   1      48.638  21.004  35.234  1.00  0.00    -0.237 OA
ATOM     98  O   UNL A   1      49.190  23.153  34.143  1.00  0.00    -0.237 OA
ATOM     99  O   UNL A   1      48.638  23.093  36.546  1.00  0.00    -0.744 OA
ENDBRANCH  92  96
ENDBRANCH  66  89
ENDBRANCH  40  41
ENDBRANCH  32  35
ENDBRANCH  30  31
ENDBRANCH  29  30
ENDBRANCH  28  29
ENDBRANCH   1  28
TORSDOF 20
ENDMDL
