MODEL 1
REMARK VINA RESULT:     -11.3      0.000      0.000
REMARK SMILES Cc1cc([C@@H]([NH3+])C[C@H](C)CC(=O)NCCCCCCNC(=O)c2ccc(-c3c4nc(c(-c5cc(S(=O)(=O)[O-])ccc5F)c5ccc([nH]5)c(-c5cc(S(=O)(=O)[O-])ccc5F)c5nc(c(-c6cc(S(=O)(=O)[O-])ccc6F)c6ccc3[nH]6)C=C5)C=C4)cc2)ccc1F
REMARK SMILES IDX 16 1 15 2 14 3 13 4 11 5 12 6 10 8 8 9 9 10 7 11 5 12 4 13
REMARK SMILES IDX 1 14 2 15 3 16 88 17 87 18 89 19 86 20 6 21 17 25 18 26
REMARK SMILES IDX 19 27 20 28 21 29 22 31 23 32 24 33 85 34 25 35 84 36 26 37
REMARK SMILES IDX 27 38 28 39 78 40 29 41 83 42 77 43 79 44 30 45 82 46 76 47
REMARK SMILES IDX 75 48 31 50 63 51 43 52 62 53 44 54 47 55 61 56 80 57 45 58
REMARK SMILES IDX 46 59 60 61 81 62 48 63 32 64 33 65 41 66 34 67 40 68 42 69
REMARK SMILES IDX 39 70 35 71 36 72 37 73 38 74 64 75 65 76 73 77 66 78 72 79
REMARK SMILES IDX 74 80 71 81 67 82 68 83 69 84 70 85 49 86 50 87 58 88 51 89
REMARK SMILES IDX 57 90 59 91 56 92 52 93 53 94 54 95 55 96
REMARK H PARENT 13 7 6 22 6 23 6 24 20 30 79 49 47 60
REMARK Flexibility Score: inf
ROOT
ATOM      1  C   UNL A   1      35.595  20.615  24.997  1.00  0.00     0.002 C 
ENDROOT
BRANCH   1   2
ATOM      2  C   UNL A   1      34.637  21.329  25.949  1.00  0.00     0.021 C 
BRANCH   2   3
ATOM      3  C   UNL A   1      33.385  21.840  25.235  1.00  0.00     0.116 C 
BRANCH   3   4
ATOM      4  N   UNL A   1      32.314  22.064  26.178  1.00  0.00    -0.356 N 
ATOM      5  C   UNL A   1      31.824  23.242  26.652  1.00  0.00     0.220 C 
ATOM      6  O   UNL A   1      30.923  23.203  27.492  1.00  0.00    -0.275 OA
ATOM      7  H   UNL A   1      31.879  21.253  26.526  1.00  0.00     0.163 HD
BRANCH   5   8
ATOM      8  C   UNL A   1      32.351  24.571  26.119  1.00  0.00     0.103 C 
BRANCH   8   9
ATOM      9  C   UNL A   1      31.530  25.142  24.940  1.00  0.00     0.001 C 
ATOM     10  C   UNL A   1      30.334  25.975  25.449  1.00  0.00     0.008 C 
BRANCH   9  11
ATOM     11  C   UNL A   1      32.389  26.010  23.979  1.00  0.00     0.074 C 
BRANCH  11  12
ATOM     12  C   UNL A   1      31.887  27.474  23.825  1.00  0.00     0.212 C 
BRANCH  12  13
ATOM     13  C   UNL A   1      32.469  28.444  24.839  1.00  0.00     0.010 A 
ATOM     14  C   UNL A   1      31.369  31.670  26.577  1.00  0.00     0.047 C 
ATOM     15  C   UNL A   1      32.155  30.451  26.206  1.00  0.00    -0.015 A 
ATOM     16  C   UNL A   1      31.766  29.629  25.140  1.00  0.00     0.016 A 
ATOM     17  C   UNL A   1      33.294  30.105  26.934  1.00  0.00     0.126 A 
ATOM     18  C   UNL A   1      34.034  28.970  26.623  1.00  0.00     0.040 A 
ATOM     19  F   UNL A   1      33.670  30.862  27.974  1.00  0.00    -0.207 F 
ATOM     20  C   UNL A   1      33.625  28.140  25.577  1.00  0.00     0.013 A 
ENDBRANCH  12  13
BRANCH  12  21
ATOM     21  N   UNL A   1      32.138  27.920  22.450  1.00  0.00    -0.351 N 
ATOM     22  H   UNL A   1      31.476  28.656  22.206  1.00  0.00     0.345 HD
ATOM     23  H   UNL A   1      32.021  27.133  21.811  1.00  0.00     0.345 HD
ATOM     24  H   UNL A   1      33.090  28.278  22.377  1.00  0.00     0.345 HD
ENDBRANCH  12  21
ENDBRANCH  11  12
ENDBRANCH   9  11
ENDBRANCH   8   9
ENDBRANCH   5   8
ENDBRANCH   3   4
ENDBRANCH   2   3
ENDBRANCH   1   2
BRANCH   1  25
ATOM     25  C   UNL A   1      36.952  21.316  24.857  1.00  0.00     0.002 C 
BRANCH  25  26
ATOM     26  C   UNL A   1      36.860  22.825  24.586  1.00  0.00     0.021 C 
BRANCH  26  27
ATOM     27  C   UNL A   1      37.497  23.635  25.695  1.00  0.00     0.116 C 
BRANCH  27  28
ATOM     28  N   UNL A   1      38.643  22.899  26.206  1.00  0.00    -0.352 N 
ATOM     29  C   UNL A   1      39.853  23.407  26.592  1.00  0.00     0.251 C 
ATOM     30  H   UNL A   1      38.537  21.924  26.281  1.00  0.00     0.163 HD
ATOM     31  O   UNL A   1      40.831  22.685  26.656  1.00  0.00    -0.269 OA
BRANCH  29  32
ATOM     32  C   UNL A   1      39.848  24.795  27.055  1.00  0.00     0.039 A 
ATOM     33  C   UNL A   1      40.399  25.830  26.302  1.00  0.00     0.014 A 
ATOM     34  C   UNL A   1      39.313  25.003  28.329  1.00  0.00     0.014 A 
ATOM     35  C   UNL A   1      40.484  27.091  26.875  1.00  0.00     0.010 A 
ATOM     36  C   UNL A   1      39.274  26.262  28.834  1.00  0.00     0.010 A 
ATOM     37  C   UNL A   1      39.952  27.273  28.152  1.00  0.00    -0.014 A 
BRANCH  37  38
ATOM     38  C   UNL A   1      40.102  28.467  28.948  1.00  0.00     0.031 A 
ATOM     39  C   UNL A   1      39.097  29.530  28.846  1.00  0.00     0.074 A 
ATOM     40  C   UNL A   1      41.085  28.414  29.881  1.00  0.00     0.049 A 
ATOM     41  N   UNL A   1      39.298  30.724  29.269  1.00  0.00    -0.248 NA
ATOM     42  C   UNL A   1      37.774  29.347  28.244  1.00  0.00     0.031 C 
ATOM     43  C   UNL A   1      41.295  29.247  31.052  1.00  0.00     0.029 A 
ATOM     44  N   UNL A   1      42.193  27.558  29.928  1.00  0.00    -0.354 N 
ATOM     45  C   UNL A   1      38.077  31.358  29.296  1.00  0.00     0.074 A 
ATOM     46  C   UNL A   1      37.189  30.520  28.526  1.00  0.00     0.031 C 
ATOM     47  C   UNL A   1      42.569  29.087  31.463  1.00  0.00     0.029 A 
ATOM     48  C   UNL A   1      43.251  28.311  30.437  1.00  0.00     0.049 A 
ATOM     49  H   UNL A   1      42.220  26.613  29.655  1.00  0.00     0.167 HD
ATOM     50  C   UNL A   1      37.935  32.432  30.123  1.00  0.00     0.034 A 
ATOM     51  C   UNL A   1      44.267  28.768  29.633  1.00  0.00     0.034 A 
ATOM     52  C   UNL A   1      39.213  32.716  30.792  1.00  0.00     0.049 A 
ATOM     53  C   UNL A   1      44.291  30.294  29.535  1.00  0.00     0.074 A 
ATOM     54  C   UNL A   1      39.740  32.363  32.023  1.00  0.00     0.029 A 
ATOM     55  N   UNL A   1      40.295  33.100  30.016  1.00  0.00    -0.354 N 
ATOM     56  N   UNL A   1      43.378  31.070  30.055  1.00  0.00    -0.248 NA
ATOM     57  C   UNL A   1      45.284  31.057  28.782  1.00  0.00     0.031 C 
ATOM     58  C   UNL A   1      41.158  32.533  31.968  1.00  0.00     0.029 A 
ATOM     59  C   UNL A   1      41.490  33.005  30.712  1.00  0.00     0.049 A 
ATOM     60  H   UNL A   1      40.223  33.403  29.082  1.00  0.00     0.167 HD
ATOM     61  C   UNL A   1      43.583  32.367  29.683  1.00  0.00     0.074 A 
ATOM     62  C   UNL A   1      44.797  32.308  28.884  1.00  0.00     0.031 C 
ATOM     63  C   UNL A   1      42.725  33.376  30.025  1.00  0.00     0.034 A 
BRANCH  50  64
ATOM     64  C   UNL A   1      36.613  33.058  30.514  1.00  0.00     0.023 A 
ATOM     65  C   UNL A   1      35.849  33.916  29.689  1.00  0.00     0.031 A 
ATOM     66  C   UNL A   1      36.048  32.772  31.776  1.00  0.00     0.131 A 
ATOM     67  C   UNL A   1      34.579  34.383  30.091  1.00  0.00     0.055 A 
ATOM     68  C   UNL A   1      34.807  33.269  32.190  1.00  0.00     0.041 A 
ATOM     69  F   UNL A   1      36.658  31.965  32.656  1.00  0.00    -0.206 F 
ATOM     70  C   UNL A   1      34.058  34.066  31.343  1.00  0.00     0.022 A 
BRANCH  67  71
ATOM     71  S   UNL A   1      33.521  35.360  28.980  1.00  0.00     0.124 S 
ATOM     72  O   UNL A   1      32.765  34.324  28.279  1.00  0.00    -0.237 OA
ATOM     73  O   UNL A   1      32.743  36.168  29.914  1.00  0.00    -0.237 OA
ATOM     74  O   UNL A   1      34.469  36.095  28.148  1.00  0.00    -0.744 OA
ENDBRANCH  67  71
ENDBRANCH  50  64
BRANCH  51  75
ATOM     75  C   UNL A   1      44.585  27.836  28.500  1.00  0.00     0.023 A 
ATOM     76  C   UNL A   1      45.633  26.908  28.586  1.00  0.00     0.031 A 
ATOM     77  C   UNL A   1      44.121  28.186  27.211  1.00  0.00     0.131 A 
ATOM     78  C   UNL A   1      46.290  26.491  27.411  1.00  0.00     0.055 A 
ATOM     79  C   UNL A   1      44.819  27.826  26.057  1.00  0.00     0.041 A 
ATOM     80  F   UNL A   1      43.076  29.021  27.071  1.00  0.00    -0.206 F 
ATOM     81  C   UNL A   1      45.941  27.012  26.160  1.00  0.00     0.022 A 
BRANCH  78  82
ATOM     82  S   UNL A   1      47.687  25.334  27.524  1.00  0.00     0.124 S 
ATOM     83  O   UNL A   1      48.139  25.565  28.891  1.00  0.00    -0.237 OA
ATOM     84  O   UNL A   1      47.075  24.031  27.285  1.00  0.00    -0.237 OA
ATOM     85  O   UNL A   1      48.580  25.797  26.468  1.00  0.00    -0.744 OA
ENDBRANCH  78  82
ENDBRANCH  51  75
BRANCH  63  86
ATOM     86  C   UNL A   1      42.940  34.829  29.679  1.00  0.00     0.023 A 
ATOM     87  C   UNL A   1      43.543  35.693  30.622  1.00  0.00     0.031 A 
ATOM     88  C   UNL A   1      42.690  35.382  28.416  1.00  0.00     0.131 A 
ATOM     89  C   UNL A   1      43.780  37.040  30.344  1.00  0.00     0.055 A 
ATOM     90  C   UNL A   1      42.878  36.743  28.149  1.00  0.00     0.041 A 
ATOM     91  F   UNL A   1      42.317  34.615  27.381  1.00  0.00    -0.206 F 
ATOM     92  C   UNL A   1      43.413  37.583  29.120  1.00  0.00     0.022 A 
BRANCH  89  93
ATOM     93  S   UNL A   1      44.643  38.092  31.543  1.00  0.00     0.124 S 
ATOM     94  O   UNL A   1      45.238  39.106  30.674  1.00  0.00    -0.237 OA
ATOM     95  O   UNL A   1      43.541  38.554  32.381  1.00  0.00    -0.237 OA
ATOM     96  O   UNL A   1      45.589  37.189  32.187  1.00  0.00    -0.744 OA
ENDBRANCH  89  93
ENDBRANCH  63  86
ENDBRANCH  37  38
ENDBRANCH  29  32
ENDBRANCH  27  28
ENDBRANCH  26  27
ENDBRANCH  25  26
ENDBRANCH   1  25
TORSDOF 21
ENDMDL
MODEL 2
REMARK VINA RESULT:     -11.3      2.412      2.947
REMARK SMILES Cc1cc([C@@H]([NH3+])C[C@H](C)CC(=O)NCCCCCCNC(=O)c2ccc(-c3c4nc(c(-c5cc(S(=O)(=O)[O-])ccc5F)c5ccc([nH]5)c(-c5cc(S(=O)(=O)[O-])ccc5F)c5nc(c(-c6cc(S(=O)(=O)[O-])ccc6F)c6ccc3[nH]6)C=C5)C=C4)cc2)ccc1F
REMARK SMILES IDX 16 1 15 2 14 3 13 4 11 5 12 6 10 8 8 9 9 10 7 11 5 12 4 13
REMARK SMILES IDX 1 14 2 15 3 16 88 17 87 18 89 19 86 20 6 21 17 25 18 26
REMARK SMILES IDX 19 27 20 28 21 29 22 31 23 32 24 33 85 34 25 35 84 36 26 37
REMARK SMILES IDX 27 38 28 39 78 40 29 41 83 42 77 43 79 44 30 45 82 46 76 47
REMARK SMILES IDX 75 48 31 50 63 51 43 52 62 53 44 54 47 55 61 56 80 57 45 58
REMARK SMILES IDX 46 59 60 61 81 62 48 63 32 64 33 65 41 66 34 67 40 68 42 69
REMARK SMILES IDX 39 70 35 71 36 72 37 73 38 74 64 75 65 76 73 77 66 78 72 79
REMARK SMILES IDX 74 80 71 81 67 82 68 83 69 84 70 85 49 86 50 87 58 88 51 89
REMARK SMILES IDX 57 90 59 91 56 92 52 93 53 94 54 95 55 96
REMARK H PARENT 13 7 6 22 6 23 6 24 20 30 79 49 47 60
REMARK Flexibility Score: inf
ROOT
ATOM      1  C   UNL A   1      34.475  22.253  23.876  1.00  0.00     0.002 C 
ENDROOT
BRANCH   1   2
ATOM      2  C   UNL A   1      33.734  23.261  22.999  1.00  0.00     0.021 C 
BRANCH   2   3
ATOM      3  C   UNL A   1      33.387  24.543  23.757  1.00  0.00     0.116 C 
BRANCH   3   4
ATOM      4  N   UNL A   1      33.888  25.703  23.057  1.00  0.00    -0.356 N 
ATOM      5  C   UNL A   1      33.270  26.467  22.116  1.00  0.00     0.220 C 
ATOM      6  O   UNL A   1      33.902  27.397  21.612  1.00  0.00    -0.275 OA
ATOM      7  H   UNL A   1      34.803  25.978  23.292  1.00  0.00     0.163 HD
BRANCH   5   8
ATOM      8  C   UNL A   1      31.817  26.200  21.732  1.00  0.00     0.103 C 
BRANCH   8   9
ATOM      9  C   UNL A   1      30.801  27.116  22.452  1.00  0.00     0.001 C 
ATOM     10  C   UNL A   1      30.262  26.445  23.734  1.00  0.00     0.008 C 
BRANCH   9  11
ATOM     11  C   UNL A   1      31.397  28.505  22.810  1.00  0.00     0.074 C 
BRANCH  11  12
ATOM     12  C   UNL A   1      30.561  29.309  23.845  1.00  0.00     0.212 C 
BRANCH  12  13
ATOM     13  C   UNL A   1      31.338  29.739  25.078  1.00  0.00     0.010 A 
ATOM     14  C   UNL A   1      34.451  28.574  26.972  1.00  0.00     0.047 C 
ATOM     15  C   UNL A   1      33.273  29.390  26.537  1.00  0.00    -0.015 A 
ATOM     16  C   UNL A   1      32.405  28.938  25.534  1.00  0.00     0.016 A 
ATOM     17  C   UNL A   1      33.028  30.633  27.122  1.00  0.00     0.126 A 
ATOM     18  C   UNL A   1      31.952  31.418  26.725  1.00  0.00     0.040 A 
ATOM     19  F   UNL A   1      33.860  31.096  28.064  1.00  0.00    -0.207 F 
ATOM     20  C   UNL A   1      31.106  30.974  25.707  1.00  0.00     0.013 A 
ENDBRANCH  12  13
BRANCH  12  21
ATOM     21  N   UNL A   1      29.946  30.457  23.171  1.00  0.00    -0.351 N 
ATOM     22  H   UNL A   1      29.079  30.163  22.722  1.00  0.00     0.345 HD
ATOM     23  H   UNL A   1      30.588  30.820  22.465  1.00  0.00     0.345 HD
ATOM     24  H   UNL A   1      29.746  31.186  23.855  1.00  0.00     0.345 HD
ENDBRANCH  12  21
ENDBRANCH  11  12
ENDBRANCH   9  11
ENDBRANCH   8   9
ENDBRANCH   5   8
ENDBRANCH   3   4
ENDBRANCH   2   3
ENDBRANCH   1   2
BRANCH   1  25
ATOM     25  C   UNL A   1      35.953  22.605  24.095  1.00  0.00     0.002 C 
BRANCH  25  26
ATOM     26  C   UNL A   1      36.432  22.448  25.545  1.00  0.00     0.021 C 
BRANCH  26  27
ATOM     27  C   UNL A   1      37.497  23.465  25.898  1.00  0.00     0.116 C 
BRANCH  27  28
ATOM     28  N   UNL A   1      38.670  22.758  26.386  1.00  0.00    -0.352 N 
ATOM     29  C   UNL A   1      39.877  23.294  26.743  1.00  0.00     0.251 C 
ATOM     30  H   UNL A   1      38.588  21.781  26.468  1.00  0.00     0.163 HD
ATOM     31  O   UNL A   1      40.872  22.595  26.788  1.00  0.00    -0.269 OA
BRANCH  29  32
ATOM     32  C   UNL A   1      39.850  24.684  27.199  1.00  0.00     0.039 A 
ATOM     33  C   UNL A   1      40.516  25.702  26.517  1.00  0.00     0.014 A 
ATOM     34  C   UNL A   1      39.170  24.912  28.398  1.00  0.00     0.014 A 
ATOM     35  C   UNL A   1      40.562  26.963  27.094  1.00  0.00     0.010 A 
ATOM     36  C   UNL A   1      39.103  26.174  28.893  1.00  0.00     0.010 A 
ATOM     37  C   UNL A   1      39.884  27.164  28.296  1.00  0.00    -0.014 A 
BRANCH  37  38
ATOM     38  C   UNL A   1      39.966  28.358  29.103  1.00  0.00     0.031 A 
ATOM     39  C   UNL A   1      39.068  29.482  28.818  1.00  0.00     0.074 A 
ATOM     40  C   UNL A   1      40.759  28.256  30.198  1.00  0.00     0.049 A 
ATOM     41  N   UNL A   1      39.268  30.666  29.266  1.00  0.00    -0.248 NA
ATOM     42  C   UNL A   1      37.867  29.376  27.988  1.00  0.00     0.031 C 
ATOM     43  C   UNL A   1      40.810  29.091  31.385  1.00  0.00     0.029 A 
ATOM     44  N   UNL A   1      41.782  27.331  30.447  1.00  0.00    -0.354 N 
ATOM     45  C   UNL A   1      38.107  31.378  29.071  1.00  0.00     0.074 A 
ATOM     46  C   UNL A   1      37.319  30.587  28.156  1.00  0.00     0.031 C 
ATOM     47  C   UNL A   1      41.976  28.855  32.020  1.00  0.00     0.029 A 
ATOM     48  C   UNL A   1      42.778  28.023  31.137  1.00  0.00     0.049 A 
ATOM     49  H   UNL A   1      41.796  26.382  30.187  1.00  0.00     0.167 HD
ATOM     50  C   UNL A   1      37.890  32.471  29.855  1.00  0.00     0.034 A 
ATOM     51  C   UNL A   1      43.951  28.401  30.528  1.00  0.00     0.034 A 
ATOM     52  C   UNL A   1      39.042  32.682  30.743  1.00  0.00     0.049 A 
ATOM     53  C   UNL A   1      44.092  29.920  30.432  1.00  0.00     0.074 A 
ATOM     54  C   UNL A   1      39.314  32.314  32.051  1.00  0.00     0.029 A 
ATOM     55  N   UNL A   1      40.268  32.984  30.174  1.00  0.00    -0.354 N 
ATOM     56  N   UNL A   1      43.154  30.761  30.776  1.00  0.00    -0.248 NA
ATOM     57  C   UNL A   1      45.253  30.607  29.868  1.00  0.00     0.031 C 
ATOM     58  C   UNL A   1      40.727  32.392  32.252  1.00  0.00     0.029 A 
ATOM     59  C   UNL A   1      41.310  32.823  31.075  1.00  0.00     0.049 A 
ATOM     60  H   UNL A   1      40.386  33.278  29.242  1.00  0.00     0.167 HD
ATOM     61  C   UNL A   1      43.508  32.037  30.443  1.00  0.00     0.074 A 
ATOM     62  C   UNL A   1      44.839  31.888  29.876  1.00  0.00     0.031 C 
ATOM     63  C   UNL A   1      42.670  33.104  30.621  1.00  0.00     0.034 A 
BRANCH  50  64
ATOM     64  C   UNL A   1      36.563  33.186  29.999  1.00  0.00     0.023 A 
ATOM     65  C   UNL A   1      35.912  33.440  31.229  1.00  0.00     0.031 A 
ATOM     66  C   UNL A   1      35.902  33.678  28.852  1.00  0.00     0.131 A 
ATOM     67  C   UNL A   1      34.722  34.198  31.287  1.00  0.00     0.055 A 
ATOM     68  C   UNL A   1      34.701  34.394  28.909  1.00  0.00     0.041 A 
ATOM     69  F   UNL A   1      36.411  33.518  27.622  1.00  0.00    -0.206 F 
ATOM     70  C   UNL A   1      34.112  34.672  30.129  1.00  0.00     0.022 A 
BRANCH  67  71
ATOM     71  S   UNL A   1      33.957  34.662  32.872  1.00  0.00     0.124 S 
ATOM     72  O   UNL A   1      34.004  33.406  33.619  1.00  0.00    -0.237 OA
ATOM     73  O   UNL A   1      34.851  35.707  33.361  1.00  0.00    -0.237 OA
ATOM     74  O   UNL A   1      32.616  35.103  32.499  1.00  0.00    -0.744 OA
ENDBRANCH  67  71
ENDBRANCH  50  64
BRANCH  51  75
ATOM     75  C   UNL A   1      44.406  27.433  29.474  1.00  0.00     0.023 A 
ATOM     76  C   UNL A   1      44.462  27.797  28.120  1.00  0.00     0.031 A 
ATOM     77  C   UNL A   1      44.358  26.054  29.782  1.00  0.00     0.131 A 
ATOM     78  C   UNL A   1      44.302  26.810  27.129  1.00  0.00     0.055 A 
ATOM     79  C   UNL A   1      44.128  25.090  28.799  1.00  0.00     0.041 A 
ATOM     80  F   UNL A   1      44.368  25.646  31.063  1.00  0.00    -0.206 F 
ATOM     81  C   UNL A   1      44.051  25.476  27.466  1.00  0.00     0.022 A 
BRANCH  78  82
ATOM     82  S   UNL A   1      44.315  27.287  25.375  1.00  0.00     0.124 S 
ATOM     83  O   UNL A   1      45.470  28.177  25.330  1.00  0.00    -0.237 OA
ATOM     84  O   UNL A   1      44.483  26.018  24.675  1.00  0.00    -0.237 OA
ATOM     85  O   UNL A   1      43.012  27.919  25.198  1.00  0.00    -0.744 OA
ENDBRANCH  78  82
ENDBRANCH  51  75
BRANCH  63  86
ATOM     86  C   UNL A   1      43.040  34.535  30.315  1.00  0.00     0.023 A 
ATOM     87  C   UNL A   1      42.939  35.018  28.990  1.00  0.00     0.031 A 
ATOM     88  C   UNL A   1      43.373  35.485  31.289  1.00  0.00     0.131 A 
ATOM     89  C   UNL A   1      43.253  36.338  28.660  1.00  0.00     0.055 A 
ATOM     90  C   UNL A   1      43.738  36.795  30.956  1.00  0.00     0.041 A 
ATOM     91  F   UNL A   1      43.297  35.199  32.597  1.00  0.00    -0.206 F 
ATOM     92  C   UNL A   1      43.692  37.224  29.634  1.00  0.00     0.022 A 
BRANCH  89  93
ATOM     93  S   UNL A   1      43.018  36.946  26.967  1.00  0.00     0.124 S 
ATOM     94  O   UNL A   1      41.890  37.860  27.134  1.00  0.00    -0.237 OA
ATOM     95  O   UNL A   1      44.305  37.581  26.699  1.00  0.00    -0.237 OA
ATOM     96  O   UNL A   1      42.737  35.741  26.196  1.00  0.00    -0.744 OA
ENDBRANCH  89  93
ENDBRANCH  63  86
ENDBRANCH  37  38
ENDBRANCH  29  32
ENDBRANCH  27  28
ENDBRANCH  26  27
ENDBRANCH  25  26
ENDBRANCH   1  25
TORSDOF 21
ENDMDL
MODEL 3
REMARK VINA RESULT:     -11.3      3.922     10.083
REMARK SMILES Cc1cc([C@@H]([NH3+])C[C@H](C)CC(=O)NCCCCCCNC(=O)c2ccc(-c3c4nc(c(-c5cc(S(=O)(=O)[O-])ccc5F)c5ccc([nH]5)c(-c5cc(S(=O)(=O)[O-])ccc5F)c5nc(c(-c6cc(S(=O)(=O)[O-])ccc6F)c6ccc3[nH]6)C=C5)C=C4)cc2)ccc1F
REMARK SMILES IDX 16 1 15 2 14 3 13 4 11 5 12 6 10 8 8 9 9 10 7 11 5 12 4 13
REMARK SMILES IDX 1 14 2 15 3 16 88 17 87 18 89 19 86 20 6 21 17 25 18 26
REMARK SMILES IDX 19 27 20 28 21 29 22 31 23 32 24 33 85 34 25 35 84 36 26 37
REMARK SMILES IDX 27 38 28 39 78 40 29 41 83 42 77 43 79 44 30 45 82 46 76 47
REMARK SMILES IDX 75 48 31 50 63 51 43 52 62 53 44 54 47 55 61 56 80 57 45 58
REMARK SMILES IDX 46 59 60 61 81 62 48 63 32 64 33 65 41 66 34 67 40 68 42 69
REMARK SMILES IDX 39 70 35 71 36 72 37 73 38 74 64 75 65 76 73 77 66 78 72 79
REMARK SMILES IDX 74 80 71 81 67 82 68 83 69 84 70 85 49 86 50 87 58 88 51 89
REMARK SMILES IDX 57 90 59 91 56 92 52 93 53 94 54 95 55 96
REMARK H PARENT 13 7 6 22 6 23 6 24 20 30 79 49 47 60
REMARK Flexibility Score: inf
ROOT
ATOM      1  C   UNL A   1      31.942  29.914  25.042  1.00  0.00     0.002 C 
ENDROOT
BRANCH   1   2
ATOM      2  C   UNL A   1      30.798  29.340  24.207  1.00  0.00     0.021 C 
BRANCH   2   3
ATOM      3  C   UNL A   1      30.908  27.824  24.038  1.00  0.00     0.116 C 
BRANCH   3   4
ATOM      4  N   UNL A   1      31.741  27.495  22.906  1.00  0.00    -0.356 N 
ATOM      5  C   UNL A   1      33.033  27.065  22.889  1.00  0.00     0.220 C 
ATOM      6  O   UNL A   1      33.572  26.880  21.797  1.00  0.00    -0.275 OA
ATOM      7  H   UNL A   1      31.317  27.595  22.024  1.00  0.00     0.163 HD
BRANCH   5   8
ATOM      8  C   UNL A   1      33.772  26.782  24.194  1.00  0.00     0.103 C 
BRANCH   8   9
ATOM      9  C   UNL A   1      34.015  25.279  24.461  1.00  0.00     0.001 C 
ATOM     10  C   UNL A   1      34.651  25.060  25.851  1.00  0.00     0.008 C 
BRANCH   9  11
ATOM     11  C   UNL A   1      32.716  24.434  24.351  1.00  0.00     0.074 C 
BRANCH  11  12
ATOM     12  C   UNL A   1      32.791  23.285  23.306  1.00  0.00     0.212 C 
BRANCH  12  13
ATOM     13  C   UNL A   1      33.266  21.957  23.871  1.00  0.00     0.010 A 
ATOM     14  C   UNL A   1      32.211  18.286  23.653  1.00  0.00     0.047 C 
ATOM     15  C   UNL A   1      32.991  19.526  23.964  1.00  0.00    -0.015 A 
ATOM     16  C   UNL A   1      32.498  20.797  23.641  1.00  0.00     0.016 A 
ATOM     17  C   UNL A   1      34.240  19.431  24.577  1.00  0.00     0.126 A 
ATOM     18  C   UNL A   1      34.994  20.564  24.863  1.00  0.00     0.040 A 
ATOM     19  F   UNL A   1      34.742  18.224  24.872  1.00  0.00    -0.207 F 
ATOM     20  C   UNL A   1      34.508  21.826  24.513  1.00  0.00     0.013 A 
ENDBRANCH  12  13
BRANCH  12  21
ATOM     21  N   UNL A   1      31.487  23.154  22.650  1.00  0.00    -0.351 N 
ATOM     22  H   UNL A   1      31.221  22.170  22.615  1.00  0.00     0.345 HD
ATOM     23  H   UNL A   1      31.545  23.523  21.700  1.00  0.00     0.345 HD
ATOM     24  H   UNL A   1      30.787  23.677  23.175  1.00  0.00     0.345 HD
ENDBRANCH  12  21
ENDBRANCH  11  12
ENDBRANCH   9  11
ENDBRANCH   8   9
ENDBRANCH   5   8
ENDBRANCH   3   4
ENDBRANCH   2   3
ENDBRANCH   1   2
BRANCH   1  25
ATOM     25  C   UNL A   1      31.676  29.868  26.553  1.00  0.00     0.002 C 
BRANCH  25  26
ATOM     26  C   UNL A   1      32.361  28.701  27.280  1.00  0.00     0.021 C 
BRANCH  26  27
ATOM     27  C   UNL A   1      33.846  28.941  27.452  1.00  0.00     0.116 C 
BRANCH  27  28
ATOM     28  N   UNL A   1      34.054  30.340  27.789  1.00  0.00    -0.352 N 
ATOM     29  C   UNL A   1      34.985  30.861  28.644  1.00  0.00     0.251 C 
ATOM     30  H   UNL A   1      33.455  30.988  27.352  1.00  0.00     0.163 HD
ATOM     31  O   UNL A   1      34.835  31.974  29.114  1.00  0.00    -0.269 OA
BRANCH  29  32
ATOM     32  C   UNL A   1      36.204  30.072  28.823  1.00  0.00     0.039 A 
ATOM     33  C   UNL A   1      36.509  29.439  30.026  1.00  0.00     0.014 A 
ATOM     34  C   UNL A   1      37.073  30.051  27.729  1.00  0.00     0.014 A 
ATOM     35  C   UNL A   1      37.750  28.833  30.158  1.00  0.00     0.010 A 
ATOM     36  C   UNL A   1      38.229  29.345  27.814  1.00  0.00     0.010 A 
ATOM     37  C   UNL A   1      38.605  28.833  29.056  1.00  0.00    -0.014 A 
BRANCH  37  38
ATOM     38  C   UNL A   1      39.980  28.396  29.075  1.00  0.00     0.031 A 
ATOM     39  C   UNL A   1      40.297  27.002  28.745  1.00  0.00     0.074 A 
ATOM     40  C   UNL A   1      40.895  29.387  29.218  1.00  0.00     0.049 A 
ATOM     41  N   UNL A   1      41.422  26.456  29.026  1.00  0.00    -0.248 NA
ATOM     42  C   UNL A   1      39.364  26.090  28.079  1.00  0.00     0.031 C 
ATOM     43  C   UNL A   1      42.320  29.377  28.939  1.00  0.00     0.029 A 
ATOM     44  N   UNL A   1      40.703  30.680  29.723  1.00  0.00    -0.354 N 
ATOM     45  C   UNL A   1      41.490  25.276  28.322  1.00  0.00     0.074 A 
ATOM     46  C   UNL A   1      40.145  25.023  27.862  1.00  0.00     0.031 C 
ATOM     47  C   UNL A   1      42.883  30.426  29.574  1.00  0.00     0.029 A 
ATOM     48  C   UNL A   1      41.860  30.998  30.436  1.00  0.00     0.049 A 
ATOM     49  H   UNL A   1      39.911  31.250  29.600  1.00  0.00     0.167 HD
ATOM     50  C   UNL A   1      42.723  24.754  28.070  1.00  0.00     0.034 A 
ATOM     51  C   UNL A   1      41.884  31.005  31.810  1.00  0.00     0.034 A 
ATOM     52  C   UNL A   1      43.755  25.593  28.696  1.00  0.00     0.049 A 
ATOM     53  C   UNL A   1      42.803  29.924  32.380  1.00  0.00     0.074 A 
ATOM     54  C   UNL A   1      44.554  26.625  28.229  1.00  0.00     0.029 A 
ATOM     55  N   UNL A   1      43.772  25.701  30.077  1.00  0.00    -0.354 N 
ATOM     56  N   UNL A   1      43.401  29.020  31.652  1.00  0.00    -0.248 NA
ATOM     57  C   UNL A   1      43.054  29.722  33.806  1.00  0.00     0.031 C 
ATOM     58  C   UNL A   1      45.041  27.357  29.355  1.00  0.00     0.029 A 
ATOM     59  C   UNL A   1      44.554  26.763  30.504  1.00  0.00     0.049 A 
ATOM     60  H   UNL A   1      43.286  25.096  30.683  1.00  0.00     0.167 HD
ATOM     61  C   UNL A   1      44.033  28.106  32.446  1.00  0.00     0.074 A 
ATOM     62  C   UNL A   1      43.787  28.593  33.794  1.00  0.00     0.031 C 
ATOM     63  C   UNL A   1      44.671  27.006  31.940  1.00  0.00     0.034 A 
BRANCH  50  64
ATOM     64  C   UNL A   1      43.013  23.654  27.071  1.00  0.00     0.023 A 
ATOM     65  C   UNL A   1      42.558  22.319  27.183  1.00  0.00     0.031 A 
ATOM     66  C   UNL A   1      43.768  23.940  25.912  1.00  0.00     0.131 A 
ATOM     67  C   UNL A   1      42.791  21.375  26.160  1.00  0.00     0.055 A 
ATOM     68  C   UNL A   1      44.033  22.992  24.917  1.00  0.00     0.041 A 
ATOM     69  F   UNL A   1      44.253  25.167  25.671  1.00  0.00    -0.206 F 
ATOM     70  C   UNL A   1      43.533  21.707  25.029  1.00  0.00     0.022 A 
BRANCH  67  71
ATOM     71  S   UNL A   1      42.083  19.701  26.220  1.00  0.00     0.124 S 
ATOM     72  O   UNL A   1      40.652  19.963  26.071  1.00  0.00    -0.237 OA
ATOM     73  O   UNL A   1      42.715  19.048  25.078  1.00  0.00    -0.237 OA
ATOM     74  O   UNL A   1      42.479  19.198  27.532  1.00  0.00    -0.744 OA
ENDBRANCH  67  71
ENDBRANCH  50  64
BRANCH  51  75
ATOM     75  C   UNL A   1      40.577  31.421  32.420  1.00  0.00     0.023 A 
ATOM     76  C   UNL A   1      40.366  32.730  32.879  1.00  0.00     0.031 A 
ATOM     77  C   UNL A   1      39.731  30.405  32.921  1.00  0.00     0.131 A 
ATOM     78  C   UNL A   1      39.453  32.959  33.927  1.00  0.00     0.055 A 
ATOM     79  C   UNL A   1      38.882  30.626  34.006  1.00  0.00     0.041 A 
ATOM     80  F   UNL A   1      39.845  29.144  32.467  1.00  0.00    -0.206 F 
ATOM     81  C   UNL A   1      38.776  31.902  34.545  1.00  0.00     0.022 A 
BRANCH  78  82
ATOM     82  S   UNL A   1      39.222  34.646  34.564  1.00  0.00     0.124 S 
ATOM     83  O   UNL A   1      37.970  35.025  33.918  1.00  0.00    -0.237 OA
ATOM     84  O   UNL A   1      39.142  34.459  36.009  1.00  0.00    -0.237 OA
ATOM     85  O   UNL A   1      40.418  35.338  34.099  1.00  0.00    -0.744 OA
ENDBRANCH  78  82
ENDBRANCH  51  75
BRANCH  63  86
ATOM     86  C   UNL A   1      45.424  26.001  32.776  1.00  0.00     0.023 A 
ATOM     87  C   UNL A   1      44.711  25.074  33.571  1.00  0.00     0.031 A 
ATOM     88  C   UNL A   1      46.814  25.831  32.736  1.00  0.00     0.131 A 
ATOM     89  C   UNL A   1      45.362  24.114  34.348  1.00  0.00     0.055 A 
ATOM     90  C   UNL A   1      47.474  24.904  33.552  1.00  0.00     0.041 A 
ATOM     91  F   UNL A   1      47.575  26.508  31.864  1.00  0.00    -0.206 F 
ATOM     92  C   UNL A   1      46.748  24.048  34.374  1.00  0.00     0.022 A 
BRANCH  89  93
ATOM     93  S   UNL A   1      44.411  22.881  35.278  1.00  0.00     0.124 S 
ATOM     94  O   UNL A   1      45.018  21.633  34.823  1.00  0.00    -0.237 OA
ATOM     95  O   UNL A   1      44.708  23.256  36.658  1.00  0.00    -0.237 OA
ATOM     96  O   UNL A   1      43.035  23.100  34.848  1.00  0.00    -0.744 OA
ENDBRANCH  89  93
ENDBRANCH  63  86
ENDBRANCH  37  38
ENDBRANCH  29  32
ENDBRANCH  27  28
ENDBRANCH  26  27
ENDBRANCH  25  26
ENDBRANCH   1  25
TORSDOF 21
ENDMDL
