MODEL 1
REMARK VINA RESULT:     -12.5      0.000      0.000
REMARK SMILES COc1cc(C)cc2c1[C@@H](C)[C@@H](CC(=O)N[C@@H](Cc1c[nH]c3ccccc13)C(=O)NCCCCCCNC(=O)c1ccc(-c3c4nc(c(-c5cc(S(=O)(=O)[O-])ccc5F)c5ccc([nH]5)c(-c5cc(S(=O)(=O)[O-])ccc5F)c5nc(c(-c6cc(S(=O)(=O)[O-])ccc6F)c6ccc3[nH]6)C=C5)C=C4)cc1)C(=O)O2
REMARK SMILES IDX 33 1 32 2 31 3 30 4 28 5 29 6 17 8 16 9 14 10 15 11 13 13
REMARK SMILES IDX 12 14 3 15 4 16 9 17 5 18 8 19 10 20 6 21 7 22 105 23 11 24
REMARK SMILES IDX 103 25 104 26 2 27 1 28 18 29 19 30 20 31 27 32 21 33 22 34
REMARK SMILES IDX 26 35 23 37 25 38 24 39 34 40 35 41 36 42 37 43 38 44 39 46
REMARK SMILES IDX 40 47 41 48 102 49 42 50 101 51 43 52 44 53 45 54 95 55
REMARK SMILES IDX 46 56 100 57 94 58 96 59 47 60 99 61 93 62 92 63 48 65 80 66
REMARK SMILES IDX 60 67 79 68 61 69 64 70 78 71 97 72 62 73 63 74 77 76 98 77
REMARK SMILES IDX 65 78 49 79 50 80 58 81 51 82 57 83 59 84 56 85 52 86 53 87
REMARK SMILES IDX 54 88 55 89 81 90 82 91 90 92 83 93 89 94 91 95 88 96 84 97
REMARK SMILES IDX 85 98 86 99 87 100 66 101 67 102 75 103 68 104 74 105 76 106
REMARK SMILES IDX 73 107 69 108 70 109 71 110 72 111
REMARK H PARENT 30 7 16 12 21 36 37 45 96 64 64 75
REMARK Flexibility Score: inf
ROOT
ATOM      1  C   UNL A   1      35.180  30.367  27.518  1.00  0.00     0.002 C 
ENDROOT
BRANCH   1   2
ATOM      2  C   UNL A   1      33.899  29.533  27.519  1.00  0.00     0.021 C 
BRANCH   2   3
ATOM      3  C   UNL A   1      33.051  29.839  26.294  1.00  0.00     0.116 C 
BRANCH   3   4
ATOM      4  N   UNL A   1      33.647  29.257  25.127  1.00  0.00    -0.354 N 
ATOM      5  C   UNL A   1      33.284  28.117  24.499  1.00  0.00     0.242 C 
ATOM      6  O   UNL A   1      34.084  27.655  23.676  1.00  0.00    -0.273 OA
ATOM      7  H   UNL A   1      34.407  29.745  24.737  1.00  0.00     0.163 HD
BRANCH   5   8
ATOM      8  C   UNL A   1      31.946  27.393  24.777  1.00  0.00     0.175 C 
BRANCH   8   9
ATOM      9  N   UNL A   1      31.807  26.668  26.019  1.00  0.00    -0.344 N 
ATOM     10  C   UNL A   1      31.831  25.298  26.085  1.00  0.00     0.221 C 
ATOM     11  O   UNL A   1      31.106  24.716  26.888  1.00  0.00    -0.275 OA
ATOM     12  H   UNL A   1      31.690  27.178  26.852  1.00  0.00     0.164 HD
BRANCH  10  13
ATOM     13  C   UNL A   1      32.882  24.550  25.264  1.00  0.00     0.116 C 
BRANCH  13  14
ATOM     14  C   UNL A   1      32.551  24.019  23.841  1.00  0.00     0.116 C 
ATOM     15  C   UNL A   1      34.164  20.641  24.531  1.00  0.00     0.126 A 
ATOM     16  C   UNL A   1      35.472  20.287  24.903  1.00  0.00     0.050 A 
ATOM     17  C   UNL A   1      33.885  21.920  24.049  1.00  0.00     0.041 A 
ATOM     18  C   UNL A   1      36.534  21.198  24.786  1.00  0.00    -0.044 A 
ATOM     19  C   UNL A   1      34.989  22.750  23.799  1.00  0.00     0.138 A 
ATOM     20  C   UNL A   1      32.487  22.467  23.770  1.00  0.00     0.038 C 
ATOM     21  C   UNL A   1      37.920  20.822  25.214  1.00  0.00     0.044 C 
ATOM     22  C   UNL A   1      36.288  22.430  24.191  1.00  0.00     0.051 A 
ATOM     23  O   UNL A   1      34.857  23.933  23.060  1.00  0.00    -0.426 OA
ATOM     24  C   UNL A   1      31.358  21.959  24.674  1.00  0.00     0.014 C 
ATOM     25  C   UNL A   1      33.566  24.304  22.754  1.00  0.00     0.315 C 
ATOM     26  O   UNL A   1      33.286  24.818  21.676  1.00  0.00    -0.251 OA
BRANCH  15  27
ATOM     27  O   UNL A   1      33.159  19.714  24.478  1.00  0.00    -0.496 OA
ATOM     28  C   UNL A   1      33.344  18.611  25.353  1.00  0.00     0.278 C 
ENDBRANCH  15  27
ENDBRANCH  13  14
ENDBRANCH  10  13
ENDBRANCH   8   9
BRANCH   8  29
ATOM     29  C   UNL A   1      30.601  27.883  24.246  1.00  0.00     0.072 C 
BRANCH  29  30
ATOM     30  C   UNL A   1      30.325  29.073  23.368  1.00  0.00    -0.020 A 
ATOM     31  C   UNL A   1      31.286  29.482  22.452  1.00  0.00     0.087 A 
ATOM     32  C   UNL A   1      29.278  30.051  23.161  1.00  0.00     0.003 A 
ATOM     33  N   UNL A   1      30.551  29.873  21.367  1.00  0.00    -0.361 N 
ATOM     34  C   UNL A   1      29.556  30.643  21.917  1.00  0.00     0.046 A 
ATOM     35  C   UNL A   1      28.147  30.555  23.832  1.00  0.00     0.010 A 
ATOM     36  H   UNL A   1      30.700  29.656  20.419  1.00  0.00     0.166 HD
ATOM     37  C   UNL A   1      28.890  31.728  21.358  1.00  0.00     0.026 A 
ATOM     38  C   UNL A   1      27.493  31.698  23.320  1.00  0.00     0.001 A 
ATOM     39  C   UNL A   1      27.879  32.289  22.120  1.00  0.00     0.002 A 
ENDBRANCH  29  30
ENDBRANCH   8  29
ENDBRANCH   5   8
ENDBRANCH   3   4
ENDBRANCH   2   3
ENDBRANCH   1   2
BRANCH   1  40
ATOM     40  C   UNL A   1      35.065  31.656  28.341  1.00  0.00     0.002 C 
BRANCH  40  41
ATOM     41  C   UNL A   1      33.882  32.537  27.936  1.00  0.00     0.021 C 
BRANCH  41  42
ATOM     42  C   UNL A   1      34.262  34.004  27.814  1.00  0.00     0.116 C 
BRANCH  42  43
ATOM     43  N   UNL A   1      33.369  34.841  28.604  1.00  0.00    -0.352 N 
ATOM     44  C   UNL A   1      33.264  34.946  29.974  1.00  0.00     0.251 C 
ATOM     45  H   UNL A   1      32.755  35.412  28.088  1.00  0.00     0.163 HD
ATOM     46  O   UNL A   1      32.291  35.458  30.484  1.00  0.00    -0.269 OA
BRANCH  44  47
ATOM     47  C   UNL A   1      34.365  34.392  30.789  1.00  0.00     0.039 A 
ATOM     48  C   UNL A   1      35.637  34.957  30.697  1.00  0.00     0.014 A 
ATOM     49  C   UNL A   1      34.139  33.263  31.574  1.00  0.00     0.014 A 
ATOM     50  C   UNL A   1      36.722  34.274  31.218  1.00  0.00     0.010 A 
ATOM     51  C   UNL A   1      35.221  32.648  32.205  1.00  0.00     0.010 A 
ATOM     52  C   UNL A   1      36.527  33.113  31.984  1.00  0.00    -0.014 A 
BRANCH  52  53
ATOM     53  C   UNL A   1      37.708  32.410  32.545  1.00  0.00     0.031 A 
ATOM     54  C   UNL A   1      38.387  31.310  31.777  1.00  0.00     0.074 A 
ATOM     55  C   UNL A   1      38.190  32.801  33.741  1.00  0.00     0.049 A 
ATOM     56  N   UNL A   1      39.424  30.591  32.121  1.00  0.00    -0.248 NA
ATOM     57  C   UNL A   1      37.834  30.963  30.457  1.00  0.00     0.031 C 
ATOM     58  C   UNL A   1      37.613  33.866  34.565  1.00  0.00     0.029 A 
ATOM     59  N   UNL A   1      39.271  32.370  34.465  1.00  0.00    -0.354 N 
ATOM     60  C   UNL A   1      39.630  29.694  31.081  1.00  0.00     0.074 A 
ATOM     61  C   UNL A   1      38.590  29.932  30.106  1.00  0.00     0.031 C 
ATOM     62  C   UNL A   1      38.372  34.039  35.653  1.00  0.00     0.029 A 
ATOM     63  C   UNL A   1      39.433  33.036  35.658  1.00  0.00     0.049 A 
ATOM     64  H   UNL A   1      39.874  31.653  34.161  1.00  0.00     0.167 HD
ATOM     65  C   UNL A   1      40.610  28.769  30.949  1.00  0.00     0.034 A 
ATOM     66  C   UNL A   1      40.311  32.848  36.663  1.00  0.00     0.034 A 
ATOM     67  C   UNL A   1      41.655  28.569  31.924  1.00  0.00     0.049 A 
ATOM     68  C   UNL A   1      41.368  31.788  36.509  1.00  0.00     0.074 A 
ATOM     69  C   UNL A   1      42.719  27.688  31.860  1.00  0.00     0.029 A 
ATOM     70  N   UNL A   1      41.770  29.245  33.131  1.00  0.00    -0.354 N 
ATOM     71  N   UNL A   1      41.587  30.988  35.491  1.00  0.00    -0.248 NA
ATOM     72  C   UNL A   1      42.301  31.604  37.626  1.00  0.00     0.031 C 
ATOM     73  C   UNL A   1      43.419  27.760  33.062  1.00  0.00     0.029 A 
ATOM     74  C   UNL A   1      42.864  28.768  33.836  1.00  0.00     0.049 A 
ATOM     75  H   UNL A   1      41.166  29.957  33.441  1.00  0.00     0.167 HD
ATOM     76  C   UNL A   1      42.698  30.226  35.835  1.00  0.00     0.074 A 
ATOM     77  C   UNL A   1      43.123  30.681  37.142  1.00  0.00     0.031 C 
ATOM     78  C   UNL A   1      43.304  29.237  35.131  1.00  0.00     0.034 A 
BRANCH  65  79
ATOM     79  C   UNL A   1      40.635  27.890  29.720  1.00  0.00     0.023 A 
ATOM     80  C   UNL A   1      41.560  28.158  28.692  1.00  0.00     0.031 A 
ATOM     81  C   UNL A   1      39.651  26.912  29.487  1.00  0.00     0.131 A 
ATOM     82  C   UNL A   1      41.445  27.503  27.461  1.00  0.00     0.055 A 
ATOM     83  C   UNL A   1      39.580  26.218  28.277  1.00  0.00     0.041 A 
ATOM     84  F   UNL A   1      38.740  26.620  30.430  1.00  0.00    -0.206 F 
ATOM     85  C   UNL A   1      40.466  26.526  27.251  1.00  0.00     0.022 A 
BRANCH  82  86
ATOM     86  S   UNL A   1      42.491  27.966  26.054  1.00  0.00     0.124 S 
ATOM     87  O   UNL A   1      42.191  29.390  25.912  1.00  0.00    -0.237 OA
ATOM     88  O   UNL A   1      43.828  27.657  26.554  1.00  0.00    -0.237 OA
ATOM     89  O   UNL A   1      42.012  27.120  24.967  1.00  0.00    -0.744 OA
ENDBRANCH  82  86
ENDBRANCH  65  79
BRANCH  66  90
ATOM     90  C   UNL A   1      40.221  33.719  37.871  1.00  0.00     0.023 A 
ATOM     91  C   UNL A   1      39.412  33.350  38.961  1.00  0.00     0.031 A 
ATOM     92  C   UNL A   1      40.828  34.985  37.899  1.00  0.00     0.131 A 
ATOM     93  C   UNL A   1      39.155  34.270  39.984  1.00  0.00     0.055 A 
ATOM     94  C   UNL A   1      40.642  35.866  38.967  1.00  0.00     0.041 A 
ATOM     95  F   UNL A   1      41.597  35.391  36.876  1.00  0.00    -0.206 F 
ATOM     96  C   UNL A   1      39.783  35.519  40.005  1.00  0.00     0.022 A 
BRANCH  93  97
ATOM     97  S   UNL A   1      37.877  33.940  41.229  1.00  0.00     0.124 S 
ATOM     98  O   UNL A   1      38.591  33.098  42.183  1.00  0.00    -0.237 OA
ATOM     99  O   UNL A   1      37.559  35.290  41.691  1.00  0.00    -0.237 OA
ATOM    100  O   UNL A   1      36.820  33.279  40.471  1.00  0.00    -0.744 OA
ENDBRANCH  93  97
ENDBRANCH  66  90
BRANCH  78 101
ATOM    101  C   UNL A   1      44.519  28.559  35.721  1.00  0.00     0.023 A 
ATOM    102  C   UNL A   1      44.350  27.536  36.677  1.00  0.00     0.031 A 
ATOM    103  C   UNL A   1      45.820  29.034  35.483  1.00  0.00     0.131 A 
ATOM    104  C   UNL A   1      45.451  27.070  37.405  1.00  0.00     0.055 A 
ATOM    105  C   UNL A   1      46.924  28.517  36.163  1.00  0.00     0.041 A 
ATOM    106  F   UNL A   1      46.035  30.016  34.594  1.00  0.00    -0.206 F 
ATOM    107  C   UNL A   1      46.739  27.546  37.143  1.00  0.00     0.022 A 
BRANCH 104 108
ATOM    108  S   UNL A   1      45.236  25.925  38.794  1.00  0.00     0.124 S 
ATOM    109  O   UNL A   1      44.844  24.693  38.114  1.00  0.00    -0.237 OA
ATOM    110  O   UNL A   1      46.569  25.912  39.389  1.00  0.00    -0.237 OA
ATOM    111  O   UNL A   1      44.192  26.545  39.604  1.00  0.00    -0.744 OA
ENDBRANCH 104 108
ENDBRANCH  78 101
ENDBRANCH  52  53
ENDBRANCH  44  47
ENDBRANCH  42  43
ENDBRANCH  41  42
ENDBRANCH  40  41
ENDBRANCH   1  40
TORSDOF 22
ENDMDL
MODEL 2
REMARK VINA RESULT:     -11.7      1.937      2.142
REMARK SMILES COc1cc(C)cc2c1[C@@H](C)[C@@H](CC(=O)N[C@@H](Cc1c[nH]c3ccccc13)C(=O)NCCCCCCNC(=O)c1ccc(-c3c4nc(c(-c5cc(S(=O)(=O)[O-])ccc5F)c5ccc([nH]5)c(-c5cc(S(=O)(=O)[O-])ccc5F)c5nc(c(-c6cc(S(=O)(=O)[O-])ccc6F)c6ccc3[nH]6)C=C5)C=C4)cc1)C(=O)O2
REMARK SMILES IDX 33 1 32 2 31 3 30 4 28 5 29 6 17 8 16 9 14 10 15 11 13 13
REMARK SMILES IDX 12 14 3 15 4 16 9 17 5 18 8 19 10 20 6 21 7 22 105 23 11 24
REMARK SMILES IDX 103 25 104 26 2 27 1 28 18 29 19 30 20 31 27 32 21 33 22 34
REMARK SMILES IDX 26 35 23 37 25 38 24 39 34 40 35 41 36 42 37 43 38 44 39 46
REMARK SMILES IDX 40 47 41 48 102 49 42 50 101 51 43 52 44 53 45 54 95 55
REMARK SMILES IDX 46 56 100 57 94 58 96 59 47 60 99 61 93 62 92 63 48 65 80 66
REMARK SMILES IDX 60 67 79 68 61 69 64 70 78 71 97 72 62 73 63 74 77 76 98 77
REMARK SMILES IDX 65 78 49 79 50 80 58 81 51 82 57 83 59 84 56 85 52 86 53 87
REMARK SMILES IDX 54 88 55 89 81 90 82 91 90 92 83 93 89 94 91 95 88 96 84 97
REMARK SMILES IDX 85 98 86 99 87 100 66 101 67 102 75 103 68 104 74 105 76 106
REMARK SMILES IDX 73 107 69 108 70 109 71 110 72 111
REMARK H PARENT 30 7 16 12 21 36 37 45 96 64 64 75
REMARK Flexibility Score: inf
ROOT
ATOM      1  C   UNL A   1      35.290  30.280  27.596  1.00  0.00     0.002 C 
ENDROOT
BRANCH   1   2
ATOM      2  C   UNL A   1      33.991  29.475  27.629  1.00  0.00     0.021 C 
BRANCH   2   3
ATOM      3  C   UNL A   1      33.153  29.746  26.389  1.00  0.00     0.116 C 
BRANCH   3   4
ATOM      4  N   UNL A   1      33.751  29.122  25.246  1.00  0.00    -0.354 N 
ATOM      5  C   UNL A   1      33.382  27.965  24.652  1.00  0.00     0.242 C 
ATOM      6  O   UNL A   1      34.184  27.470  23.850  1.00  0.00    -0.273 OA
ATOM      7  H   UNL A   1      34.519  29.590  24.847  1.00  0.00     0.163 HD
BRANCH   5   8
ATOM      8  C   UNL A   1      32.035  27.263  24.943  1.00  0.00     0.175 C 
BRANCH   8   9
ATOM      9  N   UNL A   1      31.878  26.585  26.209  1.00  0.00    -0.344 N 
ATOM     10  C   UNL A   1      31.881  25.218  26.324  1.00  0.00     0.221 C 
ATOM     11  O   UNL A   1      31.142  24.676  27.142  1.00  0.00    -0.275 OA
ATOM     12  H   UNL A   1      31.763  27.126  27.022  1.00  0.00     0.164 HD
BRANCH  10  13
ATOM     13  C   UNL A   1      32.926  24.426  25.537  1.00  0.00     0.116 C 
BRANCH  13  14
ATOM     14  C   UNL A   1      32.641  23.959  24.081  1.00  0.00     0.116 C 
ATOM     15  C   UNL A   1      34.563  20.708  24.557  1.00  0.00     0.126 A 
ATOM     16  C   UNL A   1      35.900  20.454  24.909  1.00  0.00     0.050 A 
ATOM     17  C   UNL A   1      34.165  21.984  24.158  1.00  0.00     0.041 A 
ATOM     18  C   UNL A   1      36.871  21.466  24.854  1.00  0.00    -0.044 A 
ATOM     19  C   UNL A   1      35.186  22.928  23.964  1.00  0.00     0.138 A 
ATOM     20  C   UNL A   1      32.721  22.416  23.910  1.00  0.00     0.038 C 
ATOM     21  C   UNL A   1      38.288  21.192  25.261  1.00  0.00     0.044 C 
ATOM     22  C   UNL A   1      36.511  22.705  24.339  1.00  0.00     0.051 A 
ATOM     23  O   UNL A   1      34.943  24.138  23.303  1.00  0.00    -0.426 OA
ATOM     24  C   UNL A   1      31.647  21.749  24.776  1.00  0.00     0.014 C 
ATOM     25  C   UNL A   1      33.622  24.407  23.018  1.00  0.00     0.315 C 
ATOM     26  O   UNL A   1      33.292  24.961  21.975  1.00  0.00    -0.251 OA
BRANCH  15  27
ATOM     27  O   UNL A   1      33.648  19.698  24.441  1.00  0.00    -0.496 OA
ATOM     28  C   UNL A   1      34.032  18.494  25.092  1.00  0.00     0.278 C 
ENDBRANCH  15  27
ENDBRANCH  13  14
ENDBRANCH  10  13
ENDBRANCH   8   9
BRANCH   8  29
ATOM     29  C   UNL A   1      30.700  27.745  24.381  1.00  0.00     0.072 C 
BRANCH  29  30
ATOM     30  C   UNL A   1      30.439  28.923  23.484  1.00  0.00    -0.020 A 
ATOM     31  C   UNL A   1      31.447  29.376  22.641  1.00  0.00     0.087 A 
ATOM     32  C   UNL A   1      29.369  29.855  23.197  1.00  0.00     0.003 A 
ATOM     33  N   UNL A   1      30.779  29.737  21.504  1.00  0.00    -0.361 N 
ATOM     34  C   UNL A   1      29.713  30.461  21.977  1.00  0.00     0.046 A 
ATOM     35  C   UNL A   1      28.170  30.309  23.781  1.00  0.00     0.010 A 
ATOM     36  H   UNL A   1      31.008  29.528  20.570  1.00  0.00     0.166 HD
ATOM     37  C   UNL A   1      29.044  31.517  21.368  1.00  0.00     0.026 A 
ATOM     38  C   UNL A   1      27.506  31.423  23.220  1.00  0.00     0.001 A 
ATOM     39  C   UNL A   1      27.955  32.033  22.051  1.00  0.00     0.002 A 
ENDBRANCH  29  30
ENDBRANCH   8  29
ENDBRANCH   5   8
ENDBRANCH   3   4
ENDBRANCH   2   3
ENDBRANCH   1   2
BRANCH   1  40
ATOM     40  C   UNL A   1      35.224  31.572  28.421  1.00  0.00     0.002 C 
BRANCH  40  41
ATOM     41  C   UNL A   1      34.055  32.481  28.041  1.00  0.00     0.021 C 
BRANCH  41  42
ATOM     42  C   UNL A   1      34.449  33.949  27.996  1.00  0.00     0.116 C 
BRANCH  42  43
ATOM     43  N   UNL A   1      33.581  34.748  28.851  1.00  0.00    -0.352 N 
ATOM     44  C   UNL A   1      33.524  34.796  30.227  1.00  0.00     0.251 C 
ATOM     45  H   UNL A   1      32.947  35.336  28.381  1.00  0.00     0.163 HD
ATOM     46  O   UNL A   1      32.567  35.281  30.792  1.00  0.00    -0.269 OA
BRANCH  44  47
ATOM     47  C   UNL A   1      34.656  34.216  30.979  1.00  0.00     0.039 A 
ATOM     48  C   UNL A   1      35.928  34.771  30.840  1.00  0.00     0.014 A 
ATOM     49  C   UNL A   1      34.454  33.073  31.752  1.00  0.00     0.014 A 
ATOM     50  C   UNL A   1      37.029  34.067  31.297  1.00  0.00     0.010 A 
ATOM     51  C   UNL A   1      35.558  32.436  32.320  1.00  0.00     0.010 A 
ATOM     52  C   UNL A   1      36.857  32.893  32.048  1.00  0.00    -0.014 A 
BRANCH  52  53
ATOM     53  C   UNL A   1      38.056  32.168  32.540  1.00  0.00     0.031 A 
ATOM     54  C   UNL A   1      38.681  31.070  31.725  1.00  0.00     0.074 A 
ATOM     55  C   UNL A   1      38.602  32.538  33.715  1.00  0.00     0.049 A 
ATOM     56  N   UNL A   1      39.724  30.334  32.009  1.00  0.00    -0.248 NA
ATOM     57  C   UNL A   1      38.057  30.747  30.431  1.00  0.00     0.031 C 
ATOM     58  C   UNL A   1      38.082  33.599  34.580  1.00  0.00     0.029 A 
ATOM     59  N   UNL A   1      39.713  32.084  34.379  1.00  0.00    -0.354 N 
ATOM     60  C   UNL A   1      39.865  29.447  30.948  1.00  0.00     0.074 A 
ATOM     61  C   UNL A   1      38.780  29.711  30.030  1.00  0.00     0.031 C 
ATOM     62  C   UNL A   1      38.896  33.749  35.630  1.00  0.00     0.029 A 
ATOM     63  C   UNL A   1      39.943  32.732  35.570  1.00  0.00     0.049 A 
ATOM     64  H   UNL A   1      40.290  31.363  34.036  1.00  0.00     0.167 HD
ATOM     65  C   UNL A   1      40.825  28.511  30.756  1.00  0.00     0.034 A 
ATOM     66  C   UNL A   1      40.868  32.521  36.527  1.00  0.00     0.034 A 
ATOM     67  C   UNL A   1      41.915  28.286  31.674  1.00  0.00     0.049 A 
ATOM     68  C   UNL A   1      41.901  31.450  36.306  1.00  0.00     0.074 A 
ATOM     69  C   UNL A   1      42.962  27.393  31.545  1.00  0.00     0.029 A 
ATOM     70  N   UNL A   1      42.100  28.945  32.882  1.00  0.00    -0.354 N 
ATOM     71  N   UNL A   1      42.059  30.660  35.270  1.00  0.00    -0.248 NA
ATOM     72  C   UNL A   1      42.888  31.240  37.373  1.00  0.00     0.031 C 
ATOM     73  C   UNL A   1      43.723  27.441  32.712  1.00  0.00     0.029 A 
ATOM     74  C   UNL A   1      43.221  28.445  33.525  1.00  0.00     0.049 A 
ATOM     75  H   UNL A   1      41.521  29.661  33.231  1.00  0.00     0.167 HD
ATOM     76  C   UNL A   1      43.176  29.880  35.548  1.00  0.00     0.074 A 
ATOM     77  C   UNL A   1      43.672  30.313  36.837  1.00  0.00     0.031 C 
ATOM     78  C   UNL A   1      43.732  28.892  34.802  1.00  0.00     0.034 A 
BRANCH  65  79
ATOM     79  C   UNL A   1      40.776  27.648  29.517  1.00  0.00     0.023 A 
ATOM     80  C   UNL A   1      41.667  27.904  28.455  1.00  0.00     0.031 A 
ATOM     81  C   UNL A   1      39.757  26.700  29.312  1.00  0.00     0.131 A 
ATOM     82  C   UNL A   1      41.485  27.268  27.223  1.00  0.00     0.055 A 
ATOM     83  C   UNL A   1      39.619  26.024  28.098  1.00  0.00     0.041 A 
ATOM     84  F   UNL A   1      38.877  26.421  30.287  1.00  0.00    -0.206 F 
ATOM     85  C   UNL A   1      40.472  26.321  27.040  1.00  0.00     0.022 A 
BRANCH  82  86
ATOM     86  S   UNL A   1      42.486  27.721  25.779  1.00  0.00     0.124 S 
ATOM     87  O   UNL A   1      42.026  29.082  25.510  1.00  0.00    -0.237 OA
ATOM     88  O   UNL A   1      43.844  27.614  26.306  1.00  0.00    -0.237 OA
ATOM     89  O   UNL A   1      42.118  26.732  24.773  1.00  0.00    -0.744 OA
ENDBRANCH  82  86
ENDBRANCH  65  79
BRANCH  66  90
ATOM     90  C   UNL A   1      40.850  33.377  37.748  1.00  0.00     0.023 A 
ATOM     91  C   UNL A   1      41.831  34.367  37.943  1.00  0.00     0.031 A 
ATOM     92  C   UNL A   1      39.942  33.135  38.791  1.00  0.00     0.131 A 
ATOM     93  C   UNL A   1      41.942  35.006  39.184  1.00  0.00     0.055 A 
ATOM     94  C   UNL A   1      39.999  33.840  39.995  1.00  0.00     0.041 A 
ATOM     95  F   UNL A   1      38.997  32.190  38.660  1.00  0.00    -0.206 F 
ATOM     96  C   UNL A   1      41.017  34.765  40.204  1.00  0.00     0.022 A 
BRANCH  93  97
ATOM     97  S   UNL A   1      43.379  36.046  39.566  1.00  0.00     0.124 S 
ATOM     98  O   UNL A   1      44.475  35.084  39.509  1.00  0.00    -0.237 OA
ATOM     99  O   UNL A   1      43.336  37.020  38.476  1.00  0.00    -0.237 OA
ATOM    100  O   UNL A   1      43.076  36.581  40.888  1.00  0.00    -0.744 OA
ENDBRANCH  93  97
ENDBRANCH  66  90
BRANCH  78 101
ATOM    101  C   UNL A   1      44.966  28.191  35.322  1.00  0.00     0.023 A 
ATOM    102  C   UNL A   1      46.240  28.620  34.899  1.00  0.00     0.031 A 
ATOM    103  C   UNL A   1      44.883  27.009  36.076  1.00  0.00     0.131 A 
ATOM    104  C   UNL A   1      47.369  27.839  35.175  1.00  0.00     0.055 A 
ATOM    105  C   UNL A   1      46.019  26.270  36.407  1.00  0.00     0.041 A 
ATOM    106  F   UNL A   1      43.693  26.548  36.492  1.00  0.00    -0.206 F 
ATOM    107  C   UNL A   1      47.266  26.673  35.939  1.00  0.00     0.022 A 
BRANCH 104 108
ATOM    108  S   UNL A   1      48.984  28.241  34.453  1.00  0.00     0.124 S 
ATOM    109  O   UNL A   1      49.742  27.020  34.711  1.00  0.00    -0.237 OA
ATOM    110  O   UNL A   1      48.642  28.480  33.054  1.00  0.00    -0.237 OA
ATOM    111  O   UNL A   1      49.422  29.414  35.202  1.00  0.00    -0.744 OA
ENDBRANCH 104 108
ENDBRANCH  78 101
ENDBRANCH  52  53
ENDBRANCH  44  47
ENDBRANCH  42  43
ENDBRANCH  41  42
ENDBRANCH  40  41
ENDBRANCH   1  40
TORSDOF 22
ENDMDL
MODEL 3
REMARK VINA RESULT:     -11.2      5.450     12.608
REMARK SMILES COc1cc(C)cc2c1[C@@H](C)[C@@H](CC(=O)N[C@@H](Cc1c[nH]c3ccccc13)C(=O)NCCCCCCNC(=O)c1ccc(-c3c4nc(c(-c5cc(S(=O)(=O)[O-])ccc5F)c5ccc([nH]5)c(-c5cc(S(=O)(=O)[O-])ccc5F)c5nc(c(-c6cc(S(=O)(=O)[O-])ccc6F)c6ccc3[nH]6)C=C5)C=C4)cc1)C(=O)O2
REMARK SMILES IDX 33 1 32 2 31 3 30 4 28 5 29 6 17 8 16 9 14 10 15 11 13 13
REMARK SMILES IDX 12 14 3 15 4 16 9 17 5 18 8 19 10 20 6 21 7 22 105 23 11 24
REMARK SMILES IDX 103 25 104 26 2 27 1 28 18 29 19 30 20 31 27 32 21 33 22 34
REMARK SMILES IDX 26 35 23 37 25 38 24 39 34 40 35 41 36 42 37 43 38 44 39 46
REMARK SMILES IDX 40 47 41 48 102 49 42 50 101 51 43 52 44 53 45 54 95 55
REMARK SMILES IDX 46 56 100 57 94 58 96 59 47 60 99 61 93 62 92 63 48 65 80 66
REMARK SMILES IDX 60 67 79 68 61 69 64 70 78 71 97 72 62 73 63 74 77 76 98 77
REMARK SMILES IDX 65 78 49 79 50 80 58 81 51 82 57 83 59 84 56 85 52 86 53 87
REMARK SMILES IDX 54 88 55 89 81 90 82 91 90 92 83 93 89 94 91 95 88 96 84 97
REMARK SMILES IDX 85 98 86 99 87 100 66 101 67 102 75 103 68 104 74 105 76 106
REMARK SMILES IDX 73 107 69 108 70 109 71 110 72 111
REMARK H PARENT 30 7 16 12 21 36 37 45 96 64 64 75
REMARK Flexibility Score: inf
ROOT
ATOM      1  C   UNL A   1      43.306  23.063  29.917  1.00  0.00     0.002 C 
ENDROOT
BRANCH   1   2
ATOM      2  C   UNL A   1      44.414  24.055  30.273  1.00  0.00     0.021 C 
BRANCH   2   3
ATOM      3  C   UNL A   1      44.086  24.796  31.560  1.00  0.00     0.116 C 
BRANCH   3   4
ATOM      4  N   UNL A   1      44.413  26.185  31.423  1.00  0.00    -0.354 N 
ATOM      5  C   UNL A   1      44.244  27.164  32.339  1.00  0.00     0.242 C 
ATOM      6  O   UNL A   1      44.343  28.329  31.934  1.00  0.00    -0.273 OA
ATOM      7  H   UNL A   1      44.806  26.457  30.563  1.00  0.00     0.163 HD
BRANCH   5   8
ATOM      8  C   UNL A   1      43.934  26.879  33.828  1.00  0.00     0.175 C 
BRANCH   8   9
ATOM      9  N   UNL A   1      42.564  26.614  34.201  1.00  0.00    -0.344 N 
ATOM     10  C   UNL A   1      41.825  27.476  34.972  1.00  0.00     0.221 C 
ATOM     11  O   UNL A   1      41.026  27.026  35.789  1.00  0.00    -0.275 OA
ATOM     12  H   UNL A   1      42.143  25.782  33.890  1.00  0.00     0.164 HD
BRANCH  10  13
ATOM     13  C   UNL A   1      41.909  28.973  34.671  1.00  0.00     0.116 C 
BRANCH  13  14
ATOM     14  C   UNL A   1      41.255  29.566  33.391  1.00  0.00     0.116 C 
ATOM     15  C   UNL A   1      40.154  32.728  35.202  1.00  0.00     0.126 A 
ATOM     16  C   UNL A   1      39.327  32.926  36.321  1.00  0.00     0.050 A 
ATOM     17  C   UNL A   1      40.175  31.498  34.544  1.00  0.00     0.041 A 
ATOM     18  C   UNL A   1      38.491  31.904  36.797  1.00  0.00    -0.044 A 
ATOM     19  C   UNL A   1      39.217  30.555  34.947  1.00  0.00     0.138 A 
ATOM     20  C   UNL A   1      41.145  31.117  33.427  1.00  0.00     0.038 C 
ATOM     21  C   UNL A   1      37.635  32.115  38.010  1.00  0.00     0.044 C 
ATOM     22  C   UNL A   1      38.412  30.720  36.074  1.00  0.00     0.051 A 
ATOM     23  O   UNL A   1      38.958  29.410  34.184  1.00  0.00    -0.426 OA
ATOM     24  C   UNL A   1      42.547  31.729  33.497  1.00  0.00     0.014 C 
ATOM     25  C   UNL A   1      39.813  29.191  33.126  1.00  0.00     0.315 C 
ATOM     26  O   UNL A   1      39.411  28.733  32.062  1.00  0.00    -0.251 OA
BRANCH  15  27
ATOM     27  O   UNL A   1      40.841  33.762  34.626  1.00  0.00    -0.496 OA
ATOM     28  C   UNL A   1      40.108  34.978  34.565  1.00  0.00     0.278 C 
ENDBRANCH  15  27
ENDBRANCH  13  14
ENDBRANCH  10  13
ENDBRANCH   8   9
BRANCH   8  29
ATOM     29  C   UNL A   1      44.926  26.214  34.779  1.00  0.00     0.072 C 
BRANCH  29  30
ATOM     30  C   UNL A   1      45.773  24.995  34.535  1.00  0.00    -0.020 A 
ATOM     31  C   UNL A   1      47.003  25.134  33.905  1.00  0.00     0.087 A 
ATOM     32  C   UNL A   1      45.705  23.564  34.748  1.00  0.00     0.003 A 
ATOM     33  N   UNL A   1      47.800  24.229  34.550  1.00  0.00    -0.361 N 
ATOM     34  C   UNL A   1      47.023  23.099  34.601  1.00  0.00     0.046 A 
ATOM     35  C   UNL A   1      44.740  22.575  35.019  1.00  0.00     0.010 A 
ATOM     36  H   UNL A   1      48.713  24.357  34.895  1.00  0.00     0.166 HD
ATOM     37  C   UNL A   1      47.426  21.768  34.594  1.00  0.00     0.026 A 
ATOM     38  C   UNL A   1      45.110  21.213  34.952  1.00  0.00     0.001 A 
ATOM     39  C   UNL A   1      46.424  20.819  34.714  1.00  0.00     0.002 A 
ENDBRANCH  29  30
ENDBRANCH   8  29
ENDBRANCH   5   8
ENDBRANCH   3   4
ENDBRANCH   2   3
ENDBRANCH   1   2
BRANCH   1  40
ATOM     40  C   UNL A   1      42.705  23.299  28.526  1.00  0.00     0.002 C 
BRANCH  40  41
ATOM     41  C   UNL A   1      41.978  22.079  27.958  1.00  0.00     0.021 C 
BRANCH  41  42
ATOM     42  C   UNL A   1      41.786  22.163  26.452  1.00  0.00     0.116 C 
BRANCH  42  43
ATOM     43  N   UNL A   1      40.396  21.918  26.090  1.00  0.00    -0.352 N 
ATOM     44  C   UNL A   1      39.279  22.671  26.378  1.00  0.00     0.251 C 
ATOM     45  H   UNL A   1      40.232  21.101  25.566  1.00  0.00     0.163 HD
ATOM     46  O   UNL A   1      38.167  22.200  26.264  1.00  0.00    -0.269 OA
BRANCH  44  47
ATOM     47  C   UNL A   1      39.490  24.055  26.848  1.00  0.00     0.039 A 
ATOM     48  C   UNL A   1      40.012  25.006  25.971  1.00  0.00     0.014 A 
ATOM     49  C   UNL A   1      39.242  24.374  28.183  1.00  0.00     0.014 A 
ATOM     50  C   UNL A   1      40.483  26.206  26.473  1.00  0.00     0.010 A 
ATOM     51  C   UNL A   1      39.603  25.635  28.658  1.00  0.00     0.010 A 
ATOM     52  C   UNL A   1      40.280  26.538  27.822  1.00  0.00    -0.014 A 
BRANCH  52  53
ATOM     53  C   UNL A   1      40.782  27.840  28.330  1.00  0.00     0.031 A 
ATOM     54  C   UNL A   1      42.256  28.140  28.359  1.00  0.00     0.074 A 
ATOM     55  C   UNL A   1      39.891  28.769  28.730  1.00  0.00     0.049 A 
ATOM     56  N   UNL A   1      42.862  29.221  28.774  1.00  0.00    -0.248 NA
ATOM     57  C   UNL A   1      43.169  27.096  27.867  1.00  0.00     0.031 C 
ATOM     58  C   UNL A   1      38.439  28.584  28.733  1.00  0.00     0.029 A 
ATOM     59  N   UNL A   1      40.064  30.048  29.193  1.00  0.00    -0.354 N 
ATOM     60  C   UNL A   1      44.222  28.981  28.620  1.00  0.00     0.074 A 
ATOM     61  C   UNL A   1      44.356  27.636  28.107  1.00  0.00     0.031 C 
ATOM     62  C   UNL A   1      37.853  29.721  29.126  1.00  0.00     0.029 A 
ATOM     63  C   UNL A   1      38.884  30.685  29.498  1.00  0.00     0.049 A 
ATOM     64  H   UNL A   1      40.949  30.469  29.297  1.00  0.00     0.167 HD
ATOM     65  C   UNL A   1      45.258  29.816  28.871  1.00  0.00     0.034 A 
ATOM     66  C   UNL A   1      38.648  31.894  30.045  1.00  0.00     0.034 A 
ATOM     67  C   UNL A   1      45.096  31.164  29.357  1.00  0.00     0.049 A 
ATOM     68  C   UNL A   1      39.819  32.788  30.349  1.00  0.00     0.074 A 
ATOM     69  C   UNL A   1      46.081  32.104  29.598  1.00  0.00     0.029 A 
ATOM     70  N   UNL A   1      43.887  31.765  29.678  1.00  0.00    -0.354 N 
ATOM     71  N   UNL A   1      41.097  32.569  30.141  1.00  0.00    -0.248 NA
ATOM     72  C   UNL A   1      39.527  34.094  30.953  1.00  0.00     0.031 C 
ATOM     73  C   UNL A   1      45.482  33.232  30.154  1.00  0.00     0.029 A 
ATOM     74  C   UNL A   1      44.109  33.047  30.156  1.00  0.00     0.049 A 
ATOM     75  H   UNL A   1      43.002  31.344  29.582  1.00  0.00     0.167 HD
ATOM     76  C   UNL A   1      41.756  33.719  30.563  1.00  0.00     0.074 A 
ATOM     77  C   UNL A   1      40.735  34.641  31.011  1.00  0.00     0.031 C 
ATOM     78  C   UNL A   1      43.088  33.978  30.581  1.00  0.00     0.034 A 
BRANCH  65  79
ATOM     79  C   UNL A   1      46.669  29.332  28.631  1.00  0.00     0.023 A 
ATOM     80  C   UNL A   1      47.097  29.062  27.316  1.00  0.00     0.031 A 
ATOM     81  C   UNL A   1      47.523  28.979  29.691  1.00  0.00     0.131 A 
ATOM     82  C   UNL A   1      48.313  28.404  27.099  1.00  0.00     0.055 A 
ATOM     83  C   UNL A   1      48.763  28.377  29.464  1.00  0.00     0.041 A 
ATOM     84  F   UNL A   1      47.163  29.208  30.964  1.00  0.00    -0.206 F 
ATOM     85  C   UNL A   1      49.154  28.069  28.165  1.00  0.00     0.022 A 
BRANCH  82  86
ATOM     86  S   UNL A   1      48.800  27.863  25.438  1.00  0.00     0.124 S 
ATOM     87  O   UNL A   1      48.937  26.419  25.620  1.00  0.00    -0.237 OA
ATOM     88  O   UNL A   1      47.656  28.285  24.633  1.00  0.00    -0.237 OA
ATOM     89  O   UNL A   1      50.047  28.577  25.188  1.00  0.00    -0.744 OA
ENDBRANCH  82  86
ENDBRANCH  65  79
BRANCH  66  90
ATOM     90  C   UNL A   1      37.238  32.308  30.295  1.00  0.00     0.023 A 
ATOM     91  C   UNL A   1      36.418  32.739  29.234  1.00  0.00     0.031 A 
ATOM     92  C   UNL A   1      36.731  32.407  31.601  1.00  0.00     0.131 A 
ATOM     93  C   UNL A   1      35.181  33.336  29.505  1.00  0.00     0.055 A 
ATOM     94  C   UNL A   1      35.458  32.920  31.860  1.00  0.00     0.041 A 
ATOM     95  F   UNL A   1      37.479  32.024  32.648  1.00  0.00    -0.206 F 
ATOM     96  C   UNL A   1      34.686  33.409  30.809  1.00  0.00     0.022 A 
BRANCH  93  97
ATOM     97  S   UNL A   1      34.254  34.179  28.194  1.00  0.00     0.124 S 
ATOM     98  O   UNL A   1      33.273  33.167  27.814  1.00  0.00    -0.237 OA
ATOM     99  O   UNL A   1      33.722  35.339  28.908  1.00  0.00    -0.237 OA
ATOM    100  O   UNL A   1      35.269  34.481  27.191  1.00  0.00    -0.744 OA
ENDBRANCH  93  97
ENDBRANCH  66  90
BRANCH  78 101
ATOM    101  C   UNL A   1      43.563  35.323  31.082  1.00  0.00     0.023 A 
ATOM    102  C   UNL A   1      43.798  35.510  32.460  1.00  0.00     0.031 A 
ATOM    103  C   UNL A   1      43.609  36.450  30.244  1.00  0.00     0.131 A 
ATOM    104  C   UNL A   1      44.001  36.798  32.966  1.00  0.00     0.055 A 
ATOM    105  C   UNL A   1      43.881  37.724  30.745  1.00  0.00     0.041 A 
ATOM    106  F   UNL A   1      43.379  36.331  28.927  1.00  0.00    -0.206 F 
ATOM    107  C   UNL A   1      44.057  37.905  32.114  1.00  0.00     0.022 A 
BRANCH 104 108
ATOM    108  S   UNL A   1      44.078  37.099  34.753  1.00  0.00     0.124 S 
ATOM    109  O   UNL A   1      44.596  38.464  34.808  1.00  0.00    -0.237 OA
ATOM    110  O   UNL A   1      42.681  36.945  35.150  1.00  0.00    -0.237 OA
ATOM    111  O   UNL A   1      44.988  36.070  35.245  1.00  0.00    -0.744 OA
ENDBRANCH 104 108
ENDBRANCH  78 101
ENDBRANCH  52  53
ENDBRANCH  44  47
ENDBRANCH  42  43
ENDBRANCH  41  42
ENDBRANCH  40  41
ENDBRANCH   1  40
TORSDOF 22
ENDMDL
