MODEL 1
REMARK VINA RESULT:     -12.8      0.000      0.000
REMARK SMILES Cc1ccc(S(=O)(=O)n2cc(C(=O)C(=O)NCC(=O)NCCCCCCNC(=O)c3ccc(-c4c5nc(c(-c6cc(S(=O)(=O)[O-])ccc6F)c6ccc([nH]6)c(-c6cc(S(=O)(=O)[O-])ccc6F)c6nc(c(-c7cc(S(=O)(=O)[O-])ccc7F)c7ccc4[nH]7)C=C6)C=C5)cc3)c3ccccc32)cc1
REMARK SMILES IDX 22 1 21 2 20 3 18 4 19 5 17 7 16 8 14 9 15 10 12 12 13 13
REMARK SMILES IDX 11 14 9 15 10 16 98 17 93 18 97 19 94 20 96 21 95 22 6 23
REMARK SMILES IDX 7 24 8 25 5 26 1 27 2 28 3 29 100 30 4 31 99 32 23 33 24 34
REMARK SMILES IDX 25 35 26 36 27 37 28 38 29 40 30 41 31 42 92 43 32 44 91 45
REMARK SMILES IDX 33 46 34 47 35 48 85 49 36 50 90 51 84 52 86 53 37 54 89 55
REMARK SMILES IDX 83 56 82 57 38 59 70 60 50 61 69 62 51 63 54 64 68 65 87 66
REMARK SMILES IDX 52 67 53 68 67 70 88 71 55 72 39 73 40 74 48 75 41 76 47 77
REMARK SMILES IDX 49 78 46 79 42 80 43 81 44 82 45 83 71 84 72 85 80 86 73 87
REMARK SMILES IDX 79 88 81 89 78 90 74 91 75 92 76 93 77 94 56 95 57 96 65 97
REMARK SMILES IDX 58 98 64 99 66 100 63 101 59 102 60 103 61 104 62 105
REMARK H PARENT 20 6 16 11 27 39 86 58 54 69
REMARK Flexibility Score: inf
ROOT
ATOM      1  C   UNL A   1      32.343  29.783  25.803  1.00  0.00     0.021 C 
ENDROOT
BRANCH   1   2
ATOM      2  C   UNL A   1      31.178  29.109  25.084  1.00  0.00     0.116 C 
BRANCH   2   3
ATOM      3  N   UNL A   1      30.942  29.700  23.784  1.00  0.00    -0.355 N 
ATOM      4  C   UNL A   1      30.674  29.096  22.593  1.00  0.00     0.239 C 
ATOM      5  O   UNL A   1      30.392  29.802  21.621  1.00  0.00    -0.273 OA
ATOM      6  H   UNL A   1      30.983  30.684  23.756  1.00  0.00     0.163 HD
BRANCH   4   7
ATOM      7  C   UNL A   1      30.556  27.571  22.510  1.00  0.00     0.216 C 
BRANCH   7   8
ATOM      8  N   UNL A   1      31.547  26.922  21.657  1.00  0.00    -0.340 N 
ATOM      9  C   UNL A   1      32.785  26.390  21.951  1.00  0.00     0.292 C 
ATOM     10  O   UNL A   1      33.401  25.806  21.066  1.00  0.00    -0.265 OA
ATOM     11  H   UNL A   1      31.287  26.850  20.710  1.00  0.00     0.164 HD
BRANCH   9  12
ATOM     12  C   UNL A   1      33.410  26.535  23.365  1.00  0.00     0.252 C 
ATOM     13  O   UNL A   1      33.922  27.609  23.669  1.00  0.00    -0.283 OA
BRANCH  12  14
ATOM     14  C   UNL A   1      33.390  25.432  24.344  1.00  0.00     0.054 A 
ATOM     15  N   UNL A   1      33.952  23.638  25.556  1.00  0.00    -0.240 N 
ATOM     16  C   UNL A   1      34.421  24.561  24.657  1.00  0.00     0.117 A 
ATOM     17  C   UNL A   1      32.636  23.884  25.884  1.00  0.00     0.065 A 
ATOM     18  C   UNL A   1      32.259  25.011  25.139  1.00  0.00     0.012 A 
ATOM     19  C   UNL A   1      31.731  23.212  26.729  1.00  0.00     0.028 A 
ATOM     20  C   UNL A   1      30.936  25.486  25.275  1.00  0.00     0.011 A 
ATOM     21  C   UNL A   1      30.423  23.692  26.816  1.00  0.00     0.002 A 
ATOM     22  C   UNL A   1      30.029  24.820  26.106  1.00  0.00     0.001 A 
BRANCH  15  23
ATOM     23  S   UNL A   1      34.848  22.286  26.080  1.00  0.00     0.268 S 
ATOM     24  O   UNL A   1      34.462  22.084  27.461  1.00  0.00    -0.201 OA
ATOM     25  O   UNL A   1      36.220  22.545  25.685  1.00  0.00    -0.201 OA
BRANCH  23  26
ATOM     26  C   UNL A   1      34.297  20.869  25.161  1.00  0.00     0.088 A 
ATOM     27  C   UNL A   1      33.105  17.211  23.233  1.00  0.00     0.044 C 
ATOM     28  C   UNL A   1      33.520  18.496  23.886  1.00  0.00    -0.051 A 
ATOM     29  C   UNL A   1      34.809  18.623  24.418  1.00  0.00     0.005 A 
ATOM     30  C   UNL A   1      32.638  19.580  23.969  1.00  0.00     0.005 A 
ATOM     31  C   UNL A   1      35.196  19.801  25.058  1.00  0.00     0.022 A 
ATOM     32  C   UNL A   1      33.026  20.771  24.593  1.00  0.00     0.022 A 
ENDBRANCH  23  26
ENDBRANCH  15  23
ENDBRANCH  12  14
ENDBRANCH   9  12
ENDBRANCH   7   8
ENDBRANCH   4   7
ENDBRANCH   2   3
ENDBRANCH   1   2
BRANCH   1  33
ATOM     33  C   UNL A   1      32.809  29.041  27.065  1.00  0.00     0.002 C 
BRANCH  33  34
ATOM     34  C   UNL A   1      34.330  28.980  27.276  1.00  0.00     0.002 C 
BRANCH  34  35
ATOM     35  C   UNL A   1      35.035  30.331  27.303  1.00  0.00     0.021 C 
BRANCH  35  36
ATOM     36  C   UNL A   1      35.209  30.910  28.698  1.00  0.00     0.116 C 
BRANCH  36  37
ATOM     37  N   UNL A   1      34.346  32.060  28.956  1.00  0.00    -0.352 N 
ATOM     38  C   UNL A   1      34.525  33.133  29.812  1.00  0.00     0.251 C 
ATOM     39  H   UNL A   1      33.508  32.074  28.441  1.00  0.00     0.163 HD
ATOM     40  O   UNL A   1      33.620  33.924  30.066  1.00  0.00    -0.269 OA
BRANCH  38  41
ATOM     41  C   UNL A   1      35.901  33.467  30.252  1.00  0.00     0.039 A 
ATOM     42  C   UNL A   1      36.794  33.783  29.216  1.00  0.00     0.014 A 
ATOM     43  C   UNL A   1      36.364  33.038  31.485  1.00  0.00     0.014 A 
ATOM     44  C   UNL A   1      38.100  33.331  29.297  1.00  0.00     0.010 A 
ATOM     45  C   UNL A   1      37.601  32.450  31.512  1.00  0.00     0.010 A 
ATOM     46  C   UNL A   1      38.425  32.535  30.385  1.00  0.00    -0.014 A 
BRANCH  46  47
ATOM     47  C   UNL A   1      39.635  31.754  30.481  1.00  0.00     0.031 A 
ATOM     48  C   UNL A   1      39.553  30.363  30.030  1.00  0.00     0.074 A 
ATOM     49  C   UNL A   1      40.781  32.399  30.785  1.00  0.00     0.049 A 
ATOM     50  N   UNL A   1      40.429  29.462  30.269  1.00  0.00    -0.248 NA
ATOM     51  C   UNL A   1      38.396  29.856  29.293  1.00  0.00     0.031 C 
ATOM     52  C   UNL A   1      42.157  31.947  30.623  1.00  0.00     0.029 A 
ATOM     53  N   UNL A   1      40.889  33.562  31.550  1.00  0.00    -0.354 N 
ATOM     54  C   UNL A   1      40.137  28.383  29.464  1.00  0.00     0.074 A 
ATOM     55  C   UNL A   1      38.808  28.628  28.974  1.00  0.00     0.031 C 
ATOM     56  C   UNL A   1      42.940  32.632  31.478  1.00  0.00     0.029 A 
ATOM     57  C   UNL A   1      42.058  33.421  32.323  1.00  0.00     0.049 A 
ATOM     58  H   UNL A   1      40.271  34.329  31.549  1.00  0.00     0.167 HD
ATOM     59  C   UNL A   1      41.144  27.507  29.194  1.00  0.00     0.034 A 
ATOM     60  C   UNL A   1      41.944  33.276  33.679  1.00  0.00     0.034 A 
ATOM     61  C   UNL A   1      42.303  27.826  30.032  1.00  0.00     0.049 A 
ATOM     62  C   UNL A   1      42.389  31.901  34.138  1.00  0.00     0.074 A 
ATOM     63  C   UNL A   1      43.466  28.543  29.803  1.00  0.00     0.029 A 
ATOM     64  N   UNL A   1      42.165  27.735  31.413  1.00  0.00    -0.354 N 
ATOM     65  N   UNL A   1      42.420  30.837  33.376  1.00  0.00    -0.248 NA
ATOM     66  C   UNL A   1      42.909  31.646  35.475  1.00  0.00     0.031 C 
ATOM     67  C   UNL A   1      43.962  28.974  31.067  1.00  0.00     0.029 A 
ATOM     68  C   UNL A   1      43.129  28.482  32.059  1.00  0.00     0.049 A 
ATOM     69  H   UNL A   1      41.469  27.208  31.869  1.00  0.00     0.167 HD
ATOM     70  C   UNL A   1      42.974  29.787  34.069  1.00  0.00     0.074 A 
ATOM     71  C   UNL A   1      43.273  30.357  35.374  1.00  0.00     0.031 C 
ATOM     72  C   UNL A   1      43.154  28.543  33.516  1.00  0.00     0.034 A 
BRANCH  59  73
ATOM     73  C   UNL A   1      41.205  26.570  28.008  1.00  0.00     0.023 A 
ATOM     74  C   UNL A   1      41.438  25.201  28.261  1.00  0.00     0.031 A 
ATOM     75  C   UNL A   1      41.125  26.916  26.644  1.00  0.00     0.131 A 
ATOM     76  C   UNL A   1      41.641  24.278  27.220  1.00  0.00     0.055 A 
ATOM     77  C   UNL A   1      41.349  26.002  25.605  1.00  0.00     0.041 A 
ATOM     78  F   UNL A   1      40.794  28.141  26.229  1.00  0.00    -0.206 F 
ATOM     79  C   UNL A   1      41.616  24.675  25.888  1.00  0.00     0.022 A 
BRANCH  76  80
ATOM     80  S   UNL A   1      41.948  22.543  27.638  1.00  0.00     0.124 S 
ATOM     81  O   UNL A   1      42.754  22.655  28.849  1.00  0.00    -0.237 OA
ATOM     82  O   UNL A   1      40.597  22.020  27.804  1.00  0.00    -0.237 OA
ATOM     83  O   UNL A   1      42.663  22.035  26.468  1.00  0.00    -0.744 OA
ENDBRANCH  76  80
ENDBRANCH  59  73
BRANCH  60  84
ATOM     84  C   UNL A   1      40.819  34.100  34.234  1.00  0.00     0.023 A 
ATOM     85  C   UNL A   1      39.684  33.383  34.683  1.00  0.00     0.031 A 
ATOM     86  C   UNL A   1      41.029  35.379  34.768  1.00  0.00     0.131 A 
ATOM     87  C   UNL A   1      38.955  33.830  35.796  1.00  0.00     0.055 A 
ATOM     88  C   UNL A   1      40.232  35.866  35.816  1.00  0.00     0.041 A 
ATOM     89  F   UNL A   1      42.088  36.112  34.396  1.00  0.00    -0.206 F 
ATOM     90  C   UNL A   1      39.236  35.064  36.380  1.00  0.00     0.022 A 
BRANCH  87  91
ATOM     91  S   UNL A   1      37.873  32.647  36.660  1.00  0.00     0.124 S 
ATOM     92  O   UNL A   1      37.599  31.664  35.618  1.00  0.00    -0.237 OA
ATOM     93  O   UNL A   1      38.714  32.183  37.762  1.00  0.00    -0.237 OA
ATOM     94  O   UNL A   1      36.732  33.457  37.084  1.00  0.00    -0.744 OA
ENDBRANCH  87  91
ENDBRANCH  60  84
BRANCH  72  95
ATOM     95  C   UNL A   1      43.441  27.264  34.287  1.00  0.00     0.023 A 
ATOM     96  C   UNL A   1      44.735  26.851  34.622  1.00  0.00     0.031 A 
ATOM     97  C   UNL A   1      42.402  26.438  34.790  1.00  0.00     0.131 A 
ATOM     98  C   UNL A   1      44.971  25.644  35.301  1.00  0.00     0.055 A 
ATOM     99  C   UNL A   1      42.632  25.298  35.567  1.00  0.00     0.041 A 
ATOM    100  F   UNL A   1      41.107  26.700  34.568  1.00  0.00    -0.206 F 
ATOM    101  C   UNL A   1      43.927  24.876  35.806  1.00  0.00     0.022 A 
BRANCH  98 102
ATOM    102  S   UNL A   1      46.680  25.063  35.408  1.00  0.00     0.124 S 
ATOM    103  O   UNL A   1      46.959  25.223  36.833  1.00  0.00    -0.237 OA
ATOM    104  O   UNL A   1      46.573  23.687  34.935  1.00  0.00    -0.237 OA
ATOM    105  O   UNL A   1      47.409  25.972  34.526  1.00  0.00    -0.744 OA
ENDBRANCH  98 102
ENDBRANCH  72  95
ENDBRANCH  46  47
ENDBRANCH  38  41
ENDBRANCH  36  37
ENDBRANCH  35  36
ENDBRANCH  34  35
ENDBRANCH  33  34
ENDBRANCH   1  33
TORSDOF 21
ENDMDL
MODEL 2
REMARK VINA RESULT:     -12.7      2.508      3.702
REMARK SMILES Cc1ccc(S(=O)(=O)n2cc(C(=O)C(=O)NCC(=O)NCCCCCCNC(=O)c3ccc(-c4c5nc(c(-c6cc(S(=O)(=O)[O-])ccc6F)c6ccc([nH]6)c(-c6cc(S(=O)(=O)[O-])ccc6F)c6nc(c(-c7cc(S(=O)(=O)[O-])ccc7F)c7ccc4[nH]7)C=C6)C=C5)cc3)c3ccccc32)cc1
REMARK SMILES IDX 22 1 21 2 20 3 18 4 19 5 17 7 16 8 14 9 15 10 12 12 13 13
REMARK SMILES IDX 11 14 9 15 10 16 98 17 93 18 97 19 94 20 96 21 95 22 6 23
REMARK SMILES IDX 7 24 8 25 5 26 1 27 2 28 3 29 100 30 4 31 99 32 23 33 24 34
REMARK SMILES IDX 25 35 26 36 27 37 28 38 29 40 30 41 31 42 92 43 32 44 91 45
REMARK SMILES IDX 33 46 34 47 35 48 85 49 36 50 90 51 84 52 86 53 37 54 89 55
REMARK SMILES IDX 83 56 82 57 38 59 70 60 50 61 69 62 51 63 54 64 68 65 87 66
REMARK SMILES IDX 52 67 53 68 67 70 88 71 55 72 39 73 40 74 48 75 41 76 47 77
REMARK SMILES IDX 49 78 46 79 42 80 43 81 44 82 45 83 71 84 72 85 80 86 73 87
REMARK SMILES IDX 79 88 81 89 78 90 74 91 75 92 76 93 77 94 56 95 57 96 65 97
REMARK SMILES IDX 58 98 64 99 66 100 63 101 59 102 60 103 61 104 62 105
REMARK H PARENT 20 6 16 11 27 39 86 58 54 69
REMARK Flexibility Score: inf
ROOT
ATOM      1  C   UNL A   1      31.586  28.449  26.232  1.00  0.00     0.021 C 
ENDROOT
BRANCH   1   2
ATOM      2  C   UNL A   1      30.977  27.635  25.095  1.00  0.00     0.116 C 
BRANCH   2   3
ATOM      3  N   UNL A   1      30.690  28.463  23.942  1.00  0.00    -0.355 N 
ATOM      4  C   UNL A   1      31.508  28.839  22.920  1.00  0.00     0.239 C 
ATOM      5  O   UNL A   1      31.023  29.462  21.972  1.00  0.00    -0.273 OA
ATOM      6  H   UNL A   1      29.769  28.807  23.891  1.00  0.00     0.163 HD
BRANCH   4   7
ATOM      7  C   UNL A   1      32.958  28.345  22.870  1.00  0.00     0.216 C 
BRANCH   7   8
ATOM      8  N   UNL A   1      33.264  27.444  21.763  1.00  0.00    -0.340 N 
ATOM      9  C   UNL A   1      32.917  26.127  21.546  1.00  0.00     0.292 C 
ATOM     10  O   UNL A   1      33.221  25.605  20.478  1.00  0.00    -0.265 OA
ATOM     11  H   UNL A   1      33.811  27.845  21.049  1.00  0.00     0.164 HD
BRANCH   9  12
ATOM     12  C   UNL A   1      32.171  25.299  22.628  1.00  0.00     0.252 C 
ATOM     13  O   UNL A   1      30.943  25.330  22.641  1.00  0.00    -0.283 OA
BRANCH  12  14
ATOM     14  C   UNL A   1      32.893  24.478  23.617  1.00  0.00     0.054 A 
ATOM     15  N   UNL A   1      34.397  23.148  24.602  1.00  0.00    -0.240 N 
ATOM     16  C   UNL A   1      34.138  23.889  23.478  1.00  0.00     0.117 A 
ATOM     17  C   UNL A   1      33.367  23.247  25.514  1.00  0.00     0.065 A 
ATOM     18  C   UNL A   1      32.410  24.083  24.921  1.00  0.00     0.012 A 
ATOM     19  C   UNL A   1      33.165  22.662  26.779  1.00  0.00     0.028 A 
ATOM     20  C   UNL A   1      31.226  24.355  25.642  1.00  0.00     0.011 A 
ATOM     21  C   UNL A   1      31.970  22.929  27.450  1.00  0.00     0.002 A 
ATOM     22  C   UNL A   1      31.015  23.772  26.896  1.00  0.00     0.001 A 
BRANCH  15  23
ATOM     23  S   UNL A   1      35.751  22.126  24.774  1.00  0.00     0.268 S 
ATOM     24  O   UNL A   1      36.234  22.357  26.119  1.00  0.00    -0.201 OA
ATOM     25  O   UNL A   1      36.573  22.361  23.601  1.00  0.00    -0.201 OA
BRANCH  23  26
ATOM     26  C   UNL A   1      35.188  20.444  24.691  1.00  0.00     0.088 A 
ATOM     27  C   UNL A   1      33.621  16.471  24.158  1.00  0.00     0.044 C 
ATOM     28  C   UNL A   1      34.170  17.852  24.364  1.00  0.00    -0.051 A 
ATOM     29  C   UNL A   1      33.321  18.961  24.273  1.00  0.00     0.005 A 
ATOM     30  C   UNL A   1      35.525  18.053  24.654  1.00  0.00     0.005 A 
ATOM     31  C   UNL A   1      33.826  20.253  24.430  1.00  0.00     0.022 A 
ATOM     32  C   UNL A   1      36.035  19.344  24.831  1.00  0.00     0.022 A 
ENDBRANCH  23  26
ENDBRANCH  15  23
ENDBRANCH  12  14
ENDBRANCH   9  12
ENDBRANCH   7   8
ENDBRANCH   4   7
ENDBRANCH   2   3
ENDBRANCH   1   2
BRANCH   1  33
ATOM     33  C   UNL A   1      32.810  27.788  26.884  1.00  0.00     0.002 C 
BRANCH  33  34
ATOM     34  C   UNL A   1      34.134  28.555  26.743  1.00  0.00     0.002 C 
BRANCH  34  35
ATOM     35  C   UNL A   1      34.385  29.615  27.809  1.00  0.00     0.021 C 
BRANCH  35  36
ATOM     36  C   UNL A   1      34.852  30.951  27.252  1.00  0.00     0.116 C 
BRANCH  36  37
ATOM     37  N   UNL A   1      35.746  31.671  28.156  1.00  0.00    -0.352 N 
ATOM     38  C   UNL A   1      36.745  31.193  28.987  1.00  0.00     0.251 C 
ATOM     39  H   UNL A   1      35.619  32.646  28.178  1.00  0.00     0.163 HD
ATOM     40  O   UNL A   1      37.282  31.899  29.836  1.00  0.00    -0.269 OA
BRANCH  38  41
ATOM     41  C   UNL A   1      37.340  29.868  28.690  1.00  0.00     0.039 A 
ATOM     42  C   UNL A   1      37.370  28.974  29.772  1.00  0.00     0.014 A 
ATOM     43  C   UNL A   1      38.203  29.713  27.616  1.00  0.00     0.014 A 
ATOM     44  C   UNL A   1      38.481  28.167  29.944  1.00  0.00     0.010 A 
ATOM     45  C   UNL A   1      39.372  29.040  27.853  1.00  0.00     0.010 A 
ATOM     46  C   UNL A   1      39.530  28.340  29.053  1.00  0.00    -0.014 A 
BRANCH  46  47
ATOM     47  C   UNL A   1      40.854  27.799  29.248  1.00  0.00     0.031 A 
ATOM     48  C   UNL A   1      41.069  26.420  28.803  1.00  0.00     0.074 A 
ATOM     49  C   UNL A   1      41.831  28.645  29.633  1.00  0.00     0.049 A 
ATOM     50  N   UNL A   1      42.077  25.698  29.116  1.00  0.00    -0.248 NA
ATOM     51  C   UNL A   1      40.087  25.710  27.984  1.00  0.00     0.031 C 
ATOM     52  C   UNL A   1      43.276  28.461  29.581  1.00  0.00     0.029 A 
ATOM     53  N   UNL A   1      41.660  29.803  30.395  1.00  0.00    -0.354 N 
ATOM     54  C   UNL A   1      42.055  24.588  28.300  1.00  0.00     0.074 A 
ATOM     55  C   UNL A   1      40.745  24.583  27.708  1.00  0.00     0.031 C 
ATOM     56  C   UNL A   1      43.849  29.275  30.488  1.00  0.00     0.029 A 
ATOM     57  C   UNL A   1      42.772  29.879  31.256  1.00  0.00     0.049 A 
ATOM     58  H   UNL A   1      40.912  30.441  30.340  1.00  0.00     0.167 HD
ATOM     59  C   UNL A   1      43.226  23.919  28.115  1.00  0.00     0.034 A 
ATOM     60  C   UNL A   1      42.584  29.706  32.600  1.00  0.00     0.034 A 
ATOM     61  C   UNL A   1      44.237  24.443  29.037  1.00  0.00     0.049 A 
ATOM     62  C   UNL A   1      43.242  28.437  33.104  1.00  0.00     0.074 A 
ATOM     63  C   UNL A   1      45.259  25.367  28.891  1.00  0.00     0.029 A 
ATOM     64  N   UNL A   1      44.012  24.320  30.403  1.00  0.00    -0.354 N 
ATOM     65  N   UNL A   1      43.530  27.403  32.355  1.00  0.00    -0.248 NA
ATOM     66  C   UNL A   1      43.697  28.275  34.479  1.00  0.00     0.031 C 
ATOM     67  C   UNL A   1      45.567  25.876  30.186  1.00  0.00     0.029 A 
ATOM     68  C   UNL A   1      44.767  25.230  31.116  1.00  0.00     0.049 A 
ATOM     69  H   UNL A   1      43.395  23.669  30.810  1.00  0.00     0.167 HD
ATOM     70  C   UNL A   1      44.217  26.470  33.096  1.00  0.00     0.074 A 
ATOM     71  C   UNL A   1      44.302  27.078  34.416  1.00  0.00     0.031 C 
ATOM     72  C   UNL A   1      44.668  25.286  32.570  1.00  0.00     0.034 A 
BRANCH  59  73
ATOM     73  C   UNL A   1      43.552  23.017  26.945  1.00  0.00     0.023 A 
ATOM     74  C   UNL A   1      43.023  21.709  26.953  1.00  0.00     0.031 A 
ATOM     75  C   UNL A   1      44.398  23.309  25.855  1.00  0.00     0.131 A 
ATOM     76  C   UNL A   1      43.377  20.759  25.978  1.00  0.00     0.055 A 
ATOM     77  C   UNL A   1      44.770  22.357  24.895  1.00  0.00     0.041 A 
ATOM     78  F   UNL A   1      44.888  24.530  25.630  1.00  0.00    -0.206 F 
ATOM     79  C   UNL A   1      44.265  21.071  24.955  1.00  0.00     0.022 A 
BRANCH  76  80
ATOM     80  S   UNL A   1      42.661  19.099  26.075  1.00  0.00     0.124 S 
ATOM     81  O   UNL A   1      42.588  18.877  27.515  1.00  0.00    -0.237 OA
ATOM     82  O   UNL A   1      41.389  19.268  25.381  1.00  0.00    -0.237 OA
ATOM     83  O   UNL A   1      43.638  18.267  25.373  1.00  0.00    -0.744 OA
ENDBRANCH  76  80
ENDBRANCH  59  73
BRANCH  60  84
ATOM     84  C   UNL A   1      41.286  30.302  33.061  1.00  0.00     0.023 A 
ATOM     85  C   UNL A   1      41.219  31.716  33.070  1.00  0.00     0.031 A 
ATOM     86  C   UNL A   1      40.077  29.597  32.986  1.00  0.00     0.131 A 
ATOM     87  C   UNL A   1      40.017  32.373  32.760  1.00  0.00     0.055 A 
ATOM     88  C   UNL A   1      38.860  30.266  32.775  1.00  0.00     0.041 A 
ATOM     89  F   UNL A   1      40.065  28.257  32.965  1.00  0.00    -0.206 F 
ATOM     90  C   UNL A   1      38.836  31.651  32.592  1.00  0.00     0.022 A 
BRANCH  87  91
ATOM     91  S   UNL A   1      40.086  34.122  32.257  1.00  0.00     0.124 S 
ATOM     92  O   UNL A   1      38.959  34.695  32.985  1.00  0.00    -0.237 OA
ATOM     93  O   UNL A   1      41.411  34.539  32.711  1.00  0.00    -0.237 OA
ATOM     94  O   UNL A   1      39.943  34.076  30.802  1.00  0.00    -0.744 OA
ENDBRANCH  87  91
ENDBRANCH  60  84
BRANCH  72  95
ATOM     95  C   UNL A   1      45.130  24.079  33.371  1.00  0.00     0.023 A 
ATOM     96  C   UNL A   1      46.393  23.997  33.966  1.00  0.00     0.031 A 
ATOM     97  C   UNL A   1      44.274  22.977  33.634  1.00  0.00     0.131 A 
ATOM     98  C   UNL A   1      46.805  22.853  34.668  1.00  0.00     0.055 A 
ATOM     99  C   UNL A   1      44.644  21.888  34.430  1.00  0.00     0.041 A 
ATOM    100  F   UNL A   1      43.028  22.904  33.147  1.00  0.00    -0.206 F 
ATOM    101  C   UNL A   1      45.929  21.806  34.934  1.00  0.00     0.022 A 
BRANCH  98 102
ATOM    102  S   UNL A   1      48.551  22.735  35.127  1.00  0.00     0.124 S 
ATOM    103  O   UNL A   1      49.040  24.065  34.773  1.00  0.00    -0.237 OA
ATOM    104  O   UNL A   1      48.480  22.447  36.555  1.00  0.00    -0.237 OA
ATOM    105  O   UNL A   1      49.053  21.646  34.294  1.00  0.00    -0.744 OA
ENDBRANCH  98 102
ENDBRANCH  72  95
ENDBRANCH  46  47
ENDBRANCH  38  41
ENDBRANCH  36  37
ENDBRANCH  35  36
ENDBRANCH  34  35
ENDBRANCH  33  34
ENDBRANCH   1  33
TORSDOF 21
ENDMDL
MODEL 3
REMARK VINA RESULT:     -11.7      1.746      2.577
REMARK SMILES Cc1ccc(S(=O)(=O)n2cc(C(=O)C(=O)NCC(=O)NCCCCCCNC(=O)c3ccc(-c4c5nc(c(-c6cc(S(=O)(=O)[O-])ccc6F)c6ccc([nH]6)c(-c6cc(S(=O)(=O)[O-])ccc6F)c6nc(c(-c7cc(S(=O)(=O)[O-])ccc7F)c7ccc4[nH]7)C=C6)C=C5)cc3)c3ccccc32)cc1
REMARK SMILES IDX 22 1 21 2 20 3 18 4 19 5 17 7 16 8 14 9 15 10 12 12 13 13
REMARK SMILES IDX 11 14 9 15 10 16 98 17 93 18 97 19 94 20 96 21 95 22 6 23
REMARK SMILES IDX 7 24 8 25 5 26 1 27 2 28 3 29 100 30 4 31 99 32 23 33 24 34
REMARK SMILES IDX 25 35 26 36 27 37 28 38 29 40 30 41 31 42 92 43 32 44 91 45
REMARK SMILES IDX 33 46 34 47 35 48 85 49 36 50 90 51 84 52 86 53 37 54 89 55
REMARK SMILES IDX 83 56 82 57 38 59 70 60 50 61 69 62 51 63 54 64 68 65 87 66
REMARK SMILES IDX 52 67 53 68 67 70 88 71 55 72 39 73 40 74 48 75 41 76 47 77
REMARK SMILES IDX 49 78 46 79 42 80 43 81 44 82 45 83 71 84 72 85 80 86 73 87
REMARK SMILES IDX 79 88 81 89 78 90 74 91 75 92 76 93 77 94 56 95 57 96 65 97
REMARK SMILES IDX 58 98 64 99 66 100 63 101 59 102 60 103 61 104 62 105
REMARK H PARENT 20 6 16 11 27 39 86 58 54 69
REMARK Flexibility Score: inf
ROOT
ATOM      1  C   UNL A   1      34.747  29.120  26.800  1.00  0.00     0.021 C 
ENDROOT
BRANCH   1   2
ATOM      2  C   UNL A   1      33.422  29.192  27.551  1.00  0.00     0.116 C 
BRANCH   2   3
ATOM      3  N   UNL A   1      32.596  30.279  27.068  1.00  0.00    -0.355 N 
ATOM      4  C   UNL A   1      31.825  30.351  25.948  1.00  0.00     0.239 C 
ATOM      5  O   UNL A   1      31.107  31.342  25.785  1.00  0.00    -0.273 OA
ATOM      6  H   UNL A   1      32.593  31.087  27.632  1.00  0.00     0.163 HD
BRANCH   4   7
ATOM      7  C   UNL A   1      31.723  29.149  25.003  1.00  0.00     0.216 C 
BRANCH   7   8
ATOM      8  N   UNL A   1      31.250  29.461  23.658  1.00  0.00    -0.340 N 
ATOM      9  C   UNL A   1      30.264  28.881  22.887  1.00  0.00     0.292 C 
ATOM     10  O   UNL A   1      29.984  29.390  21.807  1.00  0.00    -0.265 OA
ATOM     11  H   UNL A   1      31.714  30.215  23.226  1.00  0.00     0.164 HD
BRANCH   9  12
ATOM     12  C   UNL A   1      29.523  27.599  23.356  1.00  0.00     0.252 C 
ATOM     13  O   UNL A   1      28.299  27.635  23.451  1.00  0.00    -0.283 OA
BRANCH  12  14
ATOM     14  C   UNL A   1      30.245  26.352  23.670  1.00  0.00     0.054 A 
ATOM     15  N   UNL A   1      31.068  24.570  24.743  1.00  0.00    -0.240 N 
ATOM     16  C   UNL A   1      30.174  25.606  24.835  1.00  0.00     0.117 A 
ATOM     17  C   UNL A   1      31.719  24.579  23.528  1.00  0.00     0.065 A 
ATOM     18  C   UNL A   1      31.216  25.688  22.832  1.00  0.00     0.012 A 
ATOM     19  C   UNL A   1      32.721  23.751  22.987  1.00  0.00     0.028 A 
ATOM     20  C   UNL A   1      31.724  25.948  21.540  1.00  0.00     0.011 A 
ATOM     21  C   UNL A   1      33.221  24.055  21.719  1.00  0.00     0.002 A 
ATOM     22  C   UNL A   1      32.724  25.134  20.998  1.00  0.00     0.001 A 
BRANCH  15  23
ATOM     23  S   UNL A   1      31.419  23.505  26.027  1.00  0.00     0.268 S 
ATOM     24  O   UNL A   1      30.663  22.303  25.743  1.00  0.00    -0.201 OA
ATOM     25  O   UNL A   1      31.230  24.275  27.242  1.00  0.00    -0.201 OA
BRANCH  23  26
ATOM     26  C   UNL A   1      33.142  23.083  25.937  1.00  0.00     0.088 A 
ATOM     27  C   UNL A   1      37.237  21.885  25.367  1.00  0.00     0.044 C 
ATOM     28  C   UNL A   1      35.813  22.304  25.586  1.00  0.00    -0.051 A 
ATOM     29  C   UNL A   1      34.777  21.385  25.387  1.00  0.00     0.005 A 
ATOM     30  C   UNL A   1      35.500  23.606  25.996  1.00  0.00     0.005 A 
ATOM     31  C   UNL A   1      33.447  21.771  25.556  1.00  0.00     0.022 A 
ATOM     32  C   UNL A   1      34.169  23.996  26.184  1.00  0.00     0.022 A 
ENDBRANCH  23  26
ENDBRANCH  15  23
ENDBRANCH  12  14
ENDBRANCH   9  12
ENDBRANCH   7   8
ENDBRANCH   4   7
ENDBRANCH   2   3
ENDBRANCH   1   2
BRANCH   1  33
ATOM     33  C   UNL A   1      35.961  29.549  27.638  1.00  0.00     0.002 C 
BRANCH  33  34
ATOM     34  C   UNL A   1      35.682  30.603  28.721  1.00  0.00     0.002 C 
BRANCH  34  35
ATOM     35  C   UNL A   1      36.213  30.263  30.108  1.00  0.00     0.021 C 
BRANCH  35  36
ATOM     36  C   UNL A   1      35.753  31.220  31.197  1.00  0.00     0.116 C 
BRANCH  36  37
ATOM     37  N   UNL A   1      35.168  32.451  30.672  1.00  0.00    -0.352 N 
ATOM     38  C   UNL A   1      35.662  33.744  30.679  1.00  0.00     0.251 C 
ATOM     39  H   UNL A   1      34.287  32.345  30.249  1.00  0.00     0.163 HD
ATOM     40  O   UNL A   1      34.968  34.711  30.374  1.00  0.00    -0.269 OA
BRANCH  38  41
ATOM     41  C   UNL A   1      37.123  33.944  30.834  1.00  0.00     0.039 A 
ATOM     42  C   UNL A   1      37.859  33.899  29.639  1.00  0.00     0.014 A 
ATOM     43  C   UNL A   1      37.735  33.710  32.055  1.00  0.00     0.014 A 
ATOM     44  C   UNL A   1      39.094  33.276  29.637  1.00  0.00     0.010 A 
ATOM     45  C   UNL A   1      38.878  32.955  32.041  1.00  0.00     0.010 A 
ATOM     46  C   UNL A   1      39.502  32.678  30.820  1.00  0.00    -0.014 A 
BRANCH  46  47
ATOM     47  C   UNL A   1      40.607  31.756  30.921  1.00  0.00     0.031 A 
ATOM     48  C   UNL A   1      40.451  30.471  30.236  1.00  0.00     0.074 A 
ATOM     49  C   UNL A   1      41.761  32.208  31.456  1.00  0.00     0.049 A 
ATOM     50  N   UNL A   1      41.196  29.447  30.419  1.00  0.00    -0.248 NA
ATOM     51  C   UNL A   1      39.356  30.222  29.299  1.00  0.00     0.031 C 
ATOM     52  C   UNL A   1      43.096  31.629  31.378  1.00  0.00     0.029 A 
ATOM     53  N   UNL A   1      41.880  33.218  32.412  1.00  0.00    -0.354 N 
ATOM     54  C   UNL A   1      40.909  28.547  29.416  1.00  0.00     0.074 A 
ATOM     55  C   UNL A   1      39.685  29.019  28.827  1.00  0.00     0.031 C 
ATOM     56  C   UNL A   1      43.823  32.077  32.419  1.00  0.00     0.029 A 
ATOM     57  C   UNL A   1      42.919  32.824  33.278  1.00  0.00     0.049 A 
ATOM     58  H   UNL A   1      41.345  34.043  32.470  1.00  0.00     0.167 HD
ATOM     59  C   UNL A   1      41.852  27.612  29.119  1.00  0.00     0.034 A 
ATOM     60  C   UNL A   1      42.615  32.485  34.569  1.00  0.00     0.034 A 
ATOM     61  C   UNL A   1      42.917  27.659  30.124  1.00  0.00     0.049 A 
ATOM     62  C   UNL A   1      42.861  31.013  34.838  1.00  0.00     0.074 A 
ATOM     63  C   UNL A   1      44.164  28.263  30.151  1.00  0.00     0.029 A 
ATOM     64  N   UNL A   1      42.591  27.374  31.445  1.00  0.00    -0.354 N 
ATOM     65  N   UNL A   1      42.888  30.084  33.917  1.00  0.00    -0.248 NA
ATOM     66  C   UNL A   1      43.174  30.496  36.164  1.00  0.00     0.031 C 
ATOM     67  C   UNL A   1      44.530  28.432  31.518  1.00  0.00     0.029 A 
ATOM     68  C   UNL A   1      43.531  27.894  32.313  1.00  0.00     0.049 A 
ATOM     69  H   UNL A   1      41.794  26.868  31.725  1.00  0.00     0.167 HD
ATOM     70  C   UNL A   1      43.242  28.881  34.482  1.00  0.00     0.074 A 
ATOM     71  C   UNL A   1      43.421  29.204  35.889  1.00  0.00     0.031 C 
ATOM     72  C   UNL A   1      43.370  27.726  33.753  1.00  0.00     0.034 A 
BRANCH  59  73
ATOM     73  C   UNL A   1      41.976  26.868  27.807  1.00  0.00     0.023 A 
ATOM     74  C   UNL A   1      41.912  25.459  27.840  1.00  0.00     0.031 A 
ATOM     75  C   UNL A   1      42.224  27.422  26.534  1.00  0.00     0.131 A 
ATOM     76  C   UNL A   1      42.148  24.679  26.694  1.00  0.00     0.055 A 
ATOM     77  C   UNL A   1      42.481  26.646  25.395  1.00  0.00     0.041 A 
ATOM     78  F   UNL A   1      42.199  28.737  26.303  1.00  0.00    -0.206 F 
ATOM     79  C   UNL A   1      42.451  25.266  25.470  1.00  0.00     0.022 A 
BRANCH  76  80
ATOM     80  S   UNL A   1      42.060  22.875  26.831  1.00  0.00     0.124 S 
ATOM     81  O   UNL A   1      42.822  22.621  28.049  1.00  0.00    -0.237 OA
ATOM     82  O   UNL A   1      40.622  22.640  26.906  1.00  0.00    -0.237 OA
ATOM     83  O   UNL A   1      42.694  22.411  25.598  1.00  0.00    -0.744 OA
ENDBRANCH  76  80
ENDBRANCH  59  73
BRANCH  60  84
ATOM     84  C   UNL A   1      41.513  33.340  35.124  1.00  0.00     0.023 A 
ATOM     85  C   UNL A   1      40.219  32.766  35.118  1.00  0.00     0.031 A 
ATOM     86  C   UNL A   1      41.762  34.368  36.043  1.00  0.00     0.131 A 
ATOM     87  C   UNL A   1      39.315  33.042  36.157  1.00  0.00     0.055 A 
ATOM     88  C   UNL A   1      40.813  34.711  37.020  1.00  0.00     0.041 A 
ATOM     89  F   UNL A   1      42.967  34.951  36.110  1.00  0.00    -0.206 F 
ATOM     90  C   UNL A   1      39.615  34.001  37.124  1.00  0.00     0.022 A 
BRANCH  87  91
ATOM     91  S   UNL A   1      37.912  31.909  36.413  1.00  0.00     0.124 S 
ATOM     92  O   UNL A   1      38.584  30.651  36.717  1.00  0.00    -0.237 OA
ATOM     93  O   UNL A   1      37.193  32.528  37.525  1.00  0.00    -0.237 OA
ATOM     94  O   UNL A   1      37.189  31.951  35.142  1.00  0.00    -0.744 OA
ENDBRANCH  87  91
ENDBRANCH  60  84
BRANCH  72  95
ATOM     95  C   UNL A   1      43.429  26.318  34.326  1.00  0.00     0.023 A 
ATOM     96  C   UNL A   1      44.613  25.577  34.407  1.00  0.00     0.031 A 
ATOM     97  C   UNL A   1      42.290  25.687  34.893  1.00  0.00     0.131 A 
ATOM     98  C   UNL A   1      44.628  24.265  34.906  1.00  0.00     0.055 A 
ATOM     99  C   UNL A   1      42.329  24.426  35.496  1.00  0.00     0.041 A 
ATOM    100  F   UNL A   1      41.083  26.267  34.907  1.00  0.00    -0.206 F 
ATOM    101  C   UNL A   1      43.500  23.691  35.482  1.00  0.00     0.022 A 
BRANCH  98 102
ATOM    102  S   UNL A   1      46.141  23.300  34.679  1.00  0.00     0.124 S 
ATOM    103  O   UNL A   1      46.566  23.087  36.060  1.00  0.00    -0.237 OA
ATOM    104  O   UNL A   1      45.656  22.116  33.978  1.00  0.00    -0.237 OA
ATOM    105  O   UNL A   1      46.999  24.183  33.894  1.00  0.00    -0.744 OA
ENDBRANCH  98 102
ENDBRANCH  72  95
ENDBRANCH  46  47
ENDBRANCH  38  41
ENDBRANCH  36  37
ENDBRANCH  35  36
ENDBRANCH  34  35
ENDBRANCH  33  34
ENDBRANCH   1  33
TORSDOF 21
ENDMDL
