MODEL 1
REMARK VINA RESULT:     -10.6      0.000      0.000
REMARK SMILES CC[C@@H](C)NC(=O)[C@H](C)[NH+]1CC(n2cc(C(=O)NCCCCCCNC(=O)c3ccc(-c4c5nc(c(-c6cc(S(=O)(=O)[O-])ccc6F)c6ccc([nH]6)c(-c6cc(S(=O)(=O)[O-])ccc6F)c6nc(c(-c7cc(S(=O)(=O)[O-])ccc7F)c7ccc4[nH]7)C=C6)C=C5)cc3)nn2)C1
REMARK SMILES IDX 20 1 19 2 18 3 16 4 17 5 15 7 13 8 14 9 92 10 91 11 12 12
REMARK SMILES IDX 10 13 11 14 93 15 8 17 9 18 6 19 5 20 7 22 3 23 4 24 2 25
REMARK SMILES IDX 1 26 21 27 22 28 23 29 24 30 25 31 26 32 27 34 28 35 29 36
REMARK SMILES IDX 90 37 30 38 89 39 31 40 32 41 33 42 83 43 34 44 88 45 82 46
REMARK SMILES IDX 84 47 35 48 87 49 81 50 80 51 36 53 68 54 48 55 67 56 49 57
REMARK SMILES IDX 52 58 66 59 85 60 50 61 51 62 65 64 86 65 53 66 37 67 38 68
REMARK SMILES IDX 46 69 39 70 45 71 47 72 44 73 40 74 41 75 42 76 43 77 69 78
REMARK SMILES IDX 70 79 78 80 71 81 77 82 79 83 76 84 72 85 73 86 74 87 75 88
REMARK SMILES IDX 54 89 55 90 63 91 56 92 62 93 64 94 61 95 57 96 58 97 59 98
REMARK SMILES IDX 60 99
REMARK H PARENT 18 6 10 16 5 21 25 33 84 52 52 63
REMARK Flexibility Score: inf
ROOT
ATOM      1  C   UNL A   1      34.115  28.869  27.249  1.00  0.00     0.021 C 
ENDROOT
BRANCH   1   2
ATOM      2  C   UNL A   1      33.746  27.986  26.058  1.00  0.00     0.116 C 
BRANCH   2   3
ATOM      3  N   UNL A   1      33.855  28.723  24.819  1.00  0.00    -0.351 N 
ATOM      4  C   UNL A   1      33.538  28.390  23.525  1.00  0.00     0.273 C 
ATOM      5  O   UNL A   1      33.640  29.286  22.685  1.00  0.00    -0.267 OA
ATOM      6  H   UNL A   1      34.225  29.630  24.921  1.00  0.00     0.163 HD
BRANCH   4   7
ATOM      7  C   UNL A   1      33.044  27.063  23.176  1.00  0.00     0.170 A 
ATOM      8  N   UNL A   1      32.648  24.952  22.843  1.00  0.00    -0.237 N 
ATOM      9  C   UNL A   1      33.662  25.825  23.130  1.00  0.00     0.145 A 
ATOM     10  N   UNL A   1      31.499  25.606  22.624  1.00  0.00    -0.066 NA
ATOM     11  N   UNL A   1      31.730  26.896  22.795  1.00  0.00    -0.125 NA
BRANCH   8  12
ATOM     12  C   UNL A   1      32.776  23.524  22.830  1.00  0.00     0.218 C 
ATOM     13  N   UNL A   1      33.598  21.949  23.952  1.00  0.00    -0.321 N 
ATOM     14  C   UNL A   1      32.412  22.825  24.159  1.00  0.00     0.296 C 
ATOM     15  C   UNL A   1      34.215  23.068  23.184  1.00  0.00     0.296 C 
ATOM     16  H   UNL A   1      33.497  21.013  23.559  1.00  0.00     0.348 HD
BRANCH  13  17
ATOM     17  C   UNL A   1      34.339  21.553  25.182  1.00  0.00     0.271 C 
ATOM     18  C   UNL A   1      33.610  21.554  26.529  1.00  0.00     0.086 C 
BRANCH  17  19
ATOM     19  C   UNL A   1      35.077  20.199  25.048  1.00  0.00     0.278 C 
ATOM     20  N   UNL A   1      34.403  19.017  25.018  1.00  0.00    -0.349 N 
ATOM     21  H   UNL A   1      34.979  18.221  25.087  1.00  0.00     0.163 HD
ATOM     22  O   UNL A   1      36.301  20.118  24.900  1.00  0.00    -0.268 OA
BRANCH  20  23
ATOM     23  C   UNL A   1      32.980  18.717  24.903  1.00  0.00     0.078 C 
ATOM     24  C   UNL A   1      32.673  17.479  25.743  1.00  0.00     0.031 C 
BRANCH  23  25
ATOM     25  C   UNL A   1      32.645  18.525  23.414  1.00  0.00     0.021 C 
ATOM     26  C   UNL A   1      33.294  17.300  22.789  1.00  0.00     0.006 C 
ENDBRANCH  23  25
ENDBRANCH  20  23
ENDBRANCH  17  19
ENDBRANCH  13  17
ENDBRANCH   8  12
ENDBRANCH   4   7
ENDBRANCH   2   3
ENDBRANCH   1   2
BRANCH   1  27
ATOM     27  C   UNL A   1      34.316  30.346  26.885  1.00  0.00     0.002 C 
BRANCH  27  28
ATOM     28  C   UNL A   1      33.882  31.360  27.955  1.00  0.00     0.002 C 
BRANCH  28  29
ATOM     29  C   UNL A   1      32.630  32.189  27.629  1.00  0.00     0.021 C 
BRANCH  29  30
ATOM     30  C   UNL A   1      32.930  33.642  27.285  1.00  0.00     0.116 C 
BRANCH  30  31
ATOM     31  N   UNL A   1      32.565  34.540  28.374  1.00  0.00    -0.352 N 
ATOM     32  C   UNL A   1      33.118  34.635  29.635  1.00  0.00     0.251 C 
ATOM     33  H   UNL A   1      31.824  35.161  28.185  1.00  0.00     0.163 HD
ATOM     34  O   UNL A   1      32.476  35.130  30.548  1.00  0.00    -0.269 OA
BRANCH  32  35
ATOM     35  C   UNL A   1      34.485  34.126  29.862  1.00  0.00     0.039 A 
ATOM     36  C   UNL A   1      34.725  33.162  30.846  1.00  0.00     0.014 A 
ATOM     37  C   UNL A   1      35.530  34.623  29.085  1.00  0.00     0.014 A 
ATOM     38  C   UNL A   1      36.009  32.639  30.981  1.00  0.00     0.010 A 
ATOM     39  C   UNL A   1      36.774  34.034  29.148  1.00  0.00     0.010 A 
ATOM     40  C   UNL A   1      37.027  33.061  30.112  1.00  0.00    -0.014 A 
BRANCH  40  41
ATOM     41  C   UNL A   1      38.312  32.362  30.080  1.00  0.00     0.031 A 
ATOM     42  C   UNL A   1      38.283  31.067  29.349  1.00  0.00     0.074 A 
ATOM     43  C   UNL A   1      39.480  32.928  30.455  1.00  0.00     0.049 A 
ATOM     44  N   UNL A   1      38.435  29.887  29.846  1.00  0.00    -0.248 NA
ATOM     45  C   UNL A   1      37.875  31.061  27.934  1.00  0.00     0.031 C 
ATOM     46  C   UNL A   1      39.695  34.291  30.944  1.00  0.00     0.029 A 
ATOM     47  N   UNL A   1      40.750  32.441  30.355  1.00  0.00    -0.354 N 
ATOM     48  C   UNL A   1      38.406  29.006  28.769  1.00  0.00     0.074 A 
ATOM     49  C   UNL A   1      37.838  29.750  27.677  1.00  0.00     0.031 C 
ATOM     50  C   UNL A   1      41.009  34.596  30.864  1.00  0.00     0.029 A 
ATOM     51  C   UNL A   1      41.746  33.414  30.453  1.00  0.00     0.049 A 
ATOM     52  H   UNL A   1      40.947  31.485  30.225  1.00  0.00     0.167 HD
ATOM     53  C   UNL A   1      39.088  27.827  28.811  1.00  0.00     0.034 A 
ATOM     54  C   UNL A   1      43.074  33.274  30.180  1.00  0.00     0.034 A 
ATOM     55  C   UNL A   1      39.498  27.524  30.169  1.00  0.00     0.049 A 
ATOM     56  C   UNL A   1      43.381  31.827  30.317  1.00  0.00     0.074 A 
ATOM     57  C   UNL A   1      38.828  27.388  31.370  1.00  0.00     0.029 A 
ATOM     58  N   UNL A   1      40.822  27.715  30.506  1.00  0.00    -0.354 N 
ATOM     59  N   UNL A   1      43.309  31.192  31.455  1.00  0.00    -0.248 NA
ATOM     60  C   UNL A   1      43.280  30.982  29.135  1.00  0.00     0.031 C 
ATOM     61  C   UNL A   1      39.668  28.025  32.329  1.00  0.00     0.029 A 
ATOM     62  C   UNL A   1      40.848  28.412  31.689  1.00  0.00     0.049 A 
ATOM     63  H   UNL A   1      41.605  27.410  29.992  1.00  0.00     0.167 HD
ATOM     64  C   UNL A   1      42.693  29.988  31.150  1.00  0.00     0.074 A 
ATOM     65  C   UNL A   1      42.805  29.865  29.697  1.00  0.00     0.031 C 
ATOM     66  C   UNL A   1      41.889  29.354  32.056  1.00  0.00     0.034 A 
BRANCH  53  67
ATOM     67  C   UNL A   1      39.728  27.137  27.622  1.00  0.00     0.023 A 
ATOM     68  C   UNL A   1      39.692  25.728  27.616  1.00  0.00     0.031 A 
ATOM     69  C   UNL A   1      40.608  27.726  26.689  1.00  0.00     0.131 A 
ATOM     70  C   UNL A   1      40.593  24.982  26.840  1.00  0.00     0.055 A 
ATOM     71  C   UNL A   1      41.452  26.977  25.861  1.00  0.00     0.041 A 
ATOM     72  F   UNL A   1      40.776  29.048  26.578  1.00  0.00    -0.206 F 
ATOM     73  C   UNL A   1      41.478  25.598  25.963  1.00  0.00     0.022 A 
BRANCH  70  74
ATOM     74  S   UNL A   1      40.724  23.206  27.163  1.00  0.00     0.124 S 
ATOM     75  O   UNL A   1      41.341  23.200  28.485  1.00  0.00    -0.237 OA
ATOM     76  O   UNL A   1      39.328  22.787  27.100  1.00  0.00    -0.237 OA
ATOM     77  O   UNL A   1      41.570  22.726  26.073  1.00  0.00    -0.744 OA
ENDBRANCH  70  74
ENDBRANCH  53  67
BRANCH  54  78
ATOM     78  C   UNL A   1      44.015  34.278  29.597  1.00  0.00     0.023 A 
ATOM     79  C   UNL A   1      43.596  35.313  28.730  1.00  0.00     0.031 A 
ATOM     80  C   UNL A   1      45.339  34.375  30.087  1.00  0.00     0.131 A 
ATOM     81  C   UNL A   1      44.475  36.374  28.397  1.00  0.00     0.055 A 
ATOM     82  C   UNL A   1      46.205  35.419  29.747  1.00  0.00     0.041 A 
ATOM     83  F   UNL A   1      45.818  33.507  30.991  1.00  0.00    -0.206 F 
ATOM     84  C   UNL A   1      45.772  36.432  28.911  1.00  0.00     0.022 A 
BRANCH  81  85
ATOM     85  S   UNL A   1      43.909  37.779  27.378  1.00  0.00     0.124 S 
ATOM     86  O   UNL A   1      45.136  38.188  26.706  1.00  0.00    -0.237 OA
ATOM     87  O   UNL A   1      42.881  37.170  26.541  1.00  0.00    -0.237 OA
ATOM     88  O   UNL A   1      43.400  38.732  28.366  1.00  0.00    -0.744 OA
ENDBRANCH  81  85
ENDBRANCH  54  78
BRANCH  66  89
ATOM     89  C   UNL A   1      41.915  29.808  33.504  1.00  0.00     0.023 A 
ATOM     90  C   UNL A   1      41.138  30.861  34.040  1.00  0.00     0.031 A 
ATOM     91  C   UNL A   1      42.673  29.037  34.404  1.00  0.00     0.131 A 
ATOM     92  C   UNL A   1      41.152  31.113  35.426  1.00  0.00     0.055 A 
ATOM     93  C   UNL A   1      42.662  29.272  35.779  1.00  0.00     0.041 A 
ATOM     94  F   UNL A   1      43.412  28.005  33.965  1.00  0.00    -0.206 F 
ATOM     95  C   UNL A   1      41.906  30.316  36.294  1.00  0.00     0.022 A 
BRANCH  92  96
ATOM     96  S   UNL A   1      40.201  32.500  36.129  1.00  0.00     0.124 S 
ATOM     97  O   UNL A   1      41.129  33.622  36.056  1.00  0.00    -0.237 OA
ATOM     98  O   UNL A   1      39.042  32.570  35.244  1.00  0.00    -0.237 OA
ATOM     99  O   UNL A   1      39.898  32.049  37.488  1.00  0.00    -0.744 OA
ENDBRANCH  92  96
ENDBRANCH  66  89
ENDBRANCH  40  41
ENDBRANCH  32  35
ENDBRANCH  30  31
ENDBRANCH  29  30
ENDBRANCH  28  29
ENDBRANCH  27  28
ENDBRANCH   1  27
TORSDOF 21
ENDMDL
MODEL 2
REMARK VINA RESULT:     -10.3      1.844      2.086
REMARK SMILES CC[C@@H](C)NC(=O)[C@H](C)[NH+]1CC(n2cc(C(=O)NCCCCCCNC(=O)c3ccc(-c4c5nc(c(-c6cc(S(=O)(=O)[O-])ccc6F)c6ccc([nH]6)c(-c6cc(S(=O)(=O)[O-])ccc6F)c6nc(c(-c7cc(S(=O)(=O)[O-])ccc7F)c7ccc4[nH]7)C=C6)C=C5)cc3)nn2)C1
REMARK SMILES IDX 20 1 19 2 18 3 16 4 17 5 15 7 13 8 14 9 92 10 91 11 12 12
REMARK SMILES IDX 10 13 11 14 93 15 8 17 9 18 6 19 5 20 7 22 3 23 4 24 2 25
REMARK SMILES IDX 1 26 21 27 22 28 23 29 24 30 25 31 26 32 27 34 28 35 29 36
REMARK SMILES IDX 90 37 30 38 89 39 31 40 32 41 33 42 83 43 34 44 88 45 82 46
REMARK SMILES IDX 84 47 35 48 87 49 81 50 80 51 36 53 68 54 48 55 67 56 49 57
REMARK SMILES IDX 52 58 66 59 85 60 50 61 51 62 65 64 86 65 53 66 37 67 38 68
REMARK SMILES IDX 46 69 39 70 45 71 47 72 44 73 40 74 41 75 42 76 43 77 69 78
REMARK SMILES IDX 70 79 78 80 71 81 77 82 79 83 76 84 72 85 73 86 74 87 75 88
REMARK SMILES IDX 54 89 55 90 63 91 56 92 62 93 64 94 61 95 57 96 58 97 59 98
REMARK SMILES IDX 60 99
REMARK H PARENT 18 6 10 16 5 21 25 33 84 52 52 63
REMARK Flexibility Score: inf
ROOT
ATOM      1  C   UNL A   1      33.737  28.466  27.283  1.00  0.00     0.021 C 
ENDROOT
BRANCH   1   2
ATOM      2  C   UNL A   1      32.310  28.087  26.889  1.00  0.00     0.116 C 
BRANCH   2   3
ATOM      3  N   UNL A   1      31.895  28.807  25.706  1.00  0.00    -0.351 N 
ATOM      4  C   UNL A   1      31.399  28.377  24.500  1.00  0.00     0.273 C 
ATOM      5  O   UNL A   1      31.022  29.250  23.717  1.00  0.00    -0.267 OA
ATOM      6  H   UNL A   1      31.982  29.785  25.779  1.00  0.00     0.163 HD
BRANCH   4   7
ATOM      7  C   UNL A   1      31.266  26.958  24.191  1.00  0.00     0.170 A 
ATOM      8  N   UNL A   1      31.478  24.841  23.746  1.00  0.00    -0.237 N 
ATOM      9  C   UNL A   1      32.174  26.019  23.732  1.00  0.00     0.145 A 
ATOM     10  N   UNL A   1      30.198  25.044  24.090  1.00  0.00    -0.066 NA
ATOM     11  N   UNL A   1      30.046  26.334  24.336  1.00  0.00    -0.125 NA
BRANCH   8  12
ATOM     12  C   UNL A   1      32.046  23.551  23.484  1.00  0.00     0.218 C 
ATOM     13  N   UNL A   1      33.360  22.145  24.325  1.00  0.00    -0.321 N 
ATOM     14  C   UNL A   1      31.968  22.553  24.661  1.00  0.00     0.296 C 
ATOM     15  C   UNL A   1      33.567  23.516  23.779  1.00  0.00     0.296 C 
ATOM     16  H   UNL A   1      33.543  21.307  23.771  1.00  0.00     0.348 HD
BRANCH  13  17
ATOM     17  C   UNL A   1      34.232  21.794  25.480  1.00  0.00     0.271 C 
ATOM     18  C   UNL A   1      33.600  21.576  26.858  1.00  0.00     0.086 C 
BRANCH  17  19
ATOM     19  C   UNL A   1      35.173  20.597  25.201  1.00  0.00     0.278 C 
ATOM     20  N   UNL A   1      34.689  19.362  24.899  1.00  0.00    -0.349 N 
ATOM     21  H   UNL A   1      35.370  18.650  24.895  1.00  0.00     0.163 HD
ATOM     22  O   UNL A   1      36.403  20.708  25.175  1.00  0.00    -0.268 OA
BRANCH  20  23
ATOM     23  C   UNL A   1      33.342  18.901  24.581  1.00  0.00     0.078 C 
ATOM     24  C   UNL A   1      32.775  18.173  25.797  1.00  0.00     0.031 C 
BRANCH  23  25
ATOM     25  C   UNL A   1      33.419  18.005  23.333  1.00  0.00     0.021 C 
ATOM     26  C   UNL A   1      33.730  16.548  23.639  1.00  0.00     0.006 C 
ENDBRANCH  23  25
ENDBRANCH  20  23
ENDBRANCH  17  19
ENDBRANCH  13  17
ENDBRANCH   8  12
ENDBRANCH   4   7
ENDBRANCH   2   3
ENDBRANCH   1   2
BRANCH   1  27
ATOM     27  C   UNL A   1      34.193  29.820  26.723  1.00  0.00     0.002 C 
BRANCH  27  28
ATOM     28  C   UNL A   1      34.119  31.003  27.701  1.00  0.00     0.002 C 
BRANCH  28  29
ATOM     29  C   UNL A   1      32.885  31.909  27.569  1.00  0.00     0.021 C 
BRANCH  29  30
ATOM     30  C   UNL A   1      33.215  33.338  27.158  1.00  0.00     0.116 C 
BRANCH  30  31
ATOM     31  N   UNL A   1      32.804  34.299  28.175  1.00  0.00    -0.352 N 
ATOM     32  C   UNL A   1      33.309  34.479  29.446  1.00  0.00     0.251 C 
ATOM     33  H   UNL A   1      32.065  34.899  27.920  1.00  0.00     0.163 HD
ATOM     34  O   UNL A   1      32.630  35.025  30.302  1.00  0.00    -0.269 OA
BRANCH  32  35
ATOM     35  C   UNL A   1      34.670  34.000  29.755  1.00  0.00     0.039 A 
ATOM     36  C   UNL A   1      34.880  33.091  30.797  1.00  0.00     0.014 A 
ATOM     37  C   UNL A   1      35.742  34.468  28.995  1.00  0.00     0.014 A 
ATOM     38  C   UNL A   1      36.163  32.593  31.011  1.00  0.00     0.010 A 
ATOM     39  C   UNL A   1      36.987  33.899  29.138  1.00  0.00     0.010 A 
ATOM     40  C   UNL A   1      37.211  32.981  30.162  1.00  0.00    -0.014 A 
BRANCH  40  41
ATOM     41  C   UNL A   1      38.503  32.297  30.219  1.00  0.00     0.031 A 
ATOM     42  C   UNL A   1      38.482  30.910  29.684  1.00  0.00     0.074 A 
ATOM     43  C   UNL A   1      39.668  32.923  30.495  1.00  0.00     0.049 A 
ATOM     44  N   UNL A   1      38.652  29.815  30.345  1.00  0.00    -0.248 NA
ATOM     45  C   UNL A   1      38.062  30.694  28.288  1.00  0.00     0.031 C 
ATOM     46  C   UNL A   1      39.873  34.344  30.779  1.00  0.00     0.029 A 
ATOM     47  N   UNL A   1      40.943  32.439  30.454  1.00  0.00    -0.354 N 
ATOM     48  C   UNL A   1      38.623  28.788  29.407  1.00  0.00     0.074 A 
ATOM     49  C   UNL A   1      38.037  29.360  28.225  1.00  0.00     0.031 C 
ATOM     50  C   UNL A   1      41.182  34.647  30.643  1.00  0.00     0.029 A 
ATOM     51  C   UNL A   1      41.929  33.425  30.399  1.00  0.00     0.049 A 
ATOM     52  H   UNL A   1      41.149  31.476  30.463  1.00  0.00     0.167 HD
ATOM     53  C   UNL A   1      39.318  27.634  29.613  1.00  0.00     0.034 A 
ATOM     54  C   UNL A   1      43.255  33.260  30.136  1.00  0.00     0.034 A 
ATOM     55  C   UNL A   1      39.743  27.535  30.996  1.00  0.00     0.049 A 
ATOM     56  C   UNL A   1      43.580  31.851  30.478  1.00  0.00     0.074 A 
ATOM     57  C   UNL A   1      39.085  27.568  32.211  1.00  0.00     0.029 A 
ATOM     58  N   UNL A   1      41.068  27.786  31.288  1.00  0.00    -0.354 N 
ATOM     59  N   UNL A   1      43.525  31.387  31.697  1.00  0.00    -0.248 NA
ATOM     60  C   UNL A   1      43.478  30.843  29.432  1.00  0.00     0.031 C 
ATOM     61  C   UNL A   1      39.927  28.345  33.059  1.00  0.00     0.029 A 
ATOM     62  C   UNL A   1      41.097  28.647  32.357  1.00  0.00     0.049 A 
ATOM     63  H   UNL A   1      41.849  27.416  30.816  1.00  0.00     0.167 HD
ATOM     64  C   UNL A   1      42.919  30.146  31.577  1.00  0.00     0.074 A 
ATOM     65  C   UNL A   1      43.020  29.814  30.155  1.00  0.00     0.031 C 
ATOM     66  C   UNL A   1      42.130  29.643  32.573  1.00  0.00     0.034 A 
BRANCH  53  67
ATOM     67  C   UNL A   1      39.955  26.785  28.530  1.00  0.00     0.023 A 
ATOM     68  C   UNL A   1      41.081  27.330  27.880  1.00  0.00     0.031 A 
ATOM     69  C   UNL A   1      39.377  25.661  27.901  1.00  0.00     0.131 A 
ATOM     70  C   UNL A   1      41.482  26.872  26.615  1.00  0.00     0.055 A 
ATOM     71  C   UNL A   1      39.828  25.158  26.676  1.00  0.00     0.041 A 
ATOM     72  F   UNL A   1      38.295  25.036  28.376  1.00  0.00    -0.206 F 
ATOM     73  C   UNL A   1      40.860  25.790  26.005  1.00  0.00     0.022 A 
BRANCH  70  74
ATOM     74  S   UNL A   1      42.693  27.858  25.700  1.00  0.00     0.124 S 
ATOM     75  O   UNL A   1      41.822  28.730  24.920  1.00  0.00    -0.237 OA
ATOM     76  O   UNL A   1      43.441  28.491  26.780  1.00  0.00    -0.237 OA
ATOM     77  O   UNL A   1      43.430  26.858  24.931  1.00  0.00    -0.744 OA
ENDBRANCH  70  74
ENDBRANCH  53  67
BRANCH  54  78
ATOM     78  C   UNL A   1      44.181  34.177  29.405  1.00  0.00     0.023 A 
ATOM     79  C   UNL A   1      44.810  33.825  28.188  1.00  0.00     0.031 A 
ATOM     80  C   UNL A   1      44.276  35.537  29.782  1.00  0.00     0.131 A 
ATOM     81  C   UNL A   1      45.483  34.804  27.415  1.00  0.00     0.055 A 
ATOM     82  C   UNL A   1      44.949  36.497  29.021  1.00  0.00     0.041 A 
ATOM     83  F   UNL A   1      43.638  36.010  30.864  1.00  0.00    -0.206 F 
ATOM     84  C   UNL A   1      45.545  36.138  27.825  1.00  0.00     0.022 A 
BRANCH  81  85
ATOM     85  S   UNL A   1      46.195  34.390  25.786  1.00  0.00     0.124 S 
ATOM     86  O   UNL A   1      45.009  34.316  24.941  1.00  0.00    -0.237 OA
ATOM     87  O   UNL A   1      47.100  35.507  25.541  1.00  0.00    -0.237 OA
ATOM     88  O   UNL A   1      46.863  33.109  26.023  1.00  0.00    -0.744 OA
ENDBRANCH  81  85
ENDBRANCH  54  78
BRANCH  66  89
ATOM     89  C   UNL A   1      42.165  30.302  33.939  1.00  0.00     0.023 A 
ATOM     90  C   UNL A   1      41.459  31.474  34.294  1.00  0.00     0.031 A 
ATOM     91  C   UNL A   1      42.846  29.620  34.964  1.00  0.00     0.131 A 
ATOM     92  C   UNL A   1      41.466  31.927  35.628  1.00  0.00     0.055 A 
ATOM     93  C   UNL A   1      42.828  30.055  36.288  1.00  0.00     0.041 A 
ATOM     94  F   UNL A   1      43.514  28.485  34.701  1.00  0.00    -0.206 F 
ATOM     95  C   UNL A   1      42.143  31.215  36.624  1.00  0.00     0.022 A 
BRANCH  92  96
ATOM     96  S   UNL A   1      40.608  33.467  36.094  1.00  0.00     0.124 S 
ATOM     97  O   UNL A   1      40.090  33.965  34.826  1.00  0.00    -0.237 OA
ATOM     98  O   UNL A   1      39.612  32.996  37.052  1.00  0.00    -0.237 OA
ATOM     99  O   UNL A   1      41.673  34.284  36.679  1.00  0.00    -0.744 OA
ENDBRANCH  92  96
ENDBRANCH  66  89
ENDBRANCH  40  41
ENDBRANCH  32  35
ENDBRANCH  30  31
ENDBRANCH  29  30
ENDBRANCH  28  29
ENDBRANCH  27  28
ENDBRANCH   1  27
TORSDOF 21
ENDMDL
MODEL 3
REMARK VINA RESULT:     -10.1      3.409      7.801
REMARK SMILES CC[C@@H](C)NC(=O)[C@H](C)[NH+]1CC(n2cc(C(=O)NCCCCCCNC(=O)c3ccc(-c4c5nc(c(-c6cc(S(=O)(=O)[O-])ccc6F)c6ccc([nH]6)c(-c6cc(S(=O)(=O)[O-])ccc6F)c6nc(c(-c7cc(S(=O)(=O)[O-])ccc7F)c7ccc4[nH]7)C=C6)C=C5)cc3)nn2)C1
REMARK SMILES IDX 20 1 19 2 18 3 16 4 17 5 15 7 13 8 14 9 92 10 91 11 12 12
REMARK SMILES IDX 10 13 11 14 93 15 8 17 9 18 6 19 5 20 7 22 3 23 4 24 2 25
REMARK SMILES IDX 1 26 21 27 22 28 23 29 24 30 25 31 26 32 27 34 28 35 29 36
REMARK SMILES IDX 90 37 30 38 89 39 31 40 32 41 33 42 83 43 34 44 88 45 82 46
REMARK SMILES IDX 84 47 35 48 87 49 81 50 80 51 36 53 68 54 48 55 67 56 49 57
REMARK SMILES IDX 52 58 66 59 85 60 50 61 51 62 65 64 86 65 53 66 37 67 38 68
REMARK SMILES IDX 46 69 39 70 45 71 47 72 44 73 40 74 41 75 42 76 43 77 69 78
REMARK SMILES IDX 70 79 78 80 71 81 77 82 79 83 76 84 72 85 73 86 74 87 75 88
REMARK SMILES IDX 54 89 55 90 63 91 56 92 62 93 64 94 61 95 57 96 58 97 59 98
REMARK SMILES IDX 60 99
REMARK H PARENT 18 6 10 16 5 21 25 33 84 52 52 63
REMARK Flexibility Score: inf
ROOT
ATOM      1  C   UNL A   1      33.631  28.380  27.313  1.00  0.00     0.021 C 
ENDROOT
BRANCH   1   2
ATOM      2  C   UNL A   1      32.125  28.643  27.312  1.00  0.00     0.116 C 
BRANCH   2   3
ATOM      3  N   UNL A   1      31.839  29.990  26.870  1.00  0.00    -0.351 N 
ATOM      4  C   UNL A   1      31.337  30.477  25.688  1.00  0.00     0.273 C 
ATOM      5  O   UNL A   1      31.094  31.684  25.650  1.00  0.00    -0.267 OA
ATOM      6  H   UNL A   1      32.040  30.684  27.538  1.00  0.00     0.163 HD
BRANCH   4   7
ATOM      7  C   UNL A   1      31.048  29.599  24.560  1.00  0.00     0.170 A 
ATOM      8  N   UNL A   1      30.881  28.034  23.060  1.00  0.00    -0.237 N 
ATOM      9  C   UNL A   1      31.702  28.487  24.058  1.00  0.00     0.145 A 
ATOM     10  N   UNL A   1      29.841  28.861  22.882  1.00  0.00    -0.066 NA
ATOM     11  N   UNL A   1      29.944  29.835  23.770  1.00  0.00    -0.125 NA
BRANCH   8  12
ATOM     12  C   UNL A   1      31.071  26.812  22.336  1.00  0.00     0.218 C 
ATOM     13  N   UNL A   1      31.821  24.866  22.586  1.00  0.00    -0.321 N 
ATOM     14  C   UNL A   1      30.583  25.540  23.064  1.00  0.00     0.296 C 
ATOM     15  C   UNL A   1      32.477  26.205  22.580  1.00  0.00     0.296 C 
ATOM     16  H   UNL A   1      31.808  24.265  21.761  1.00  0.00     0.348 HD
BRANCH  13  17
ATOM     17  C   UNL A   1      32.428  23.878  23.521  1.00  0.00     0.271 C 
ATOM     18  C   UNL A   1      31.636  22.624  23.905  1.00  0.00     0.086 C 
BRANCH  17  19
ATOM     19  C   UNL A   1      33.849  23.426  23.104  1.00  0.00     0.278 C 
ATOM     20  N   UNL A   1      34.748  22.963  24.014  1.00  0.00    -0.349 N 
ATOM     21  H   UNL A   1      35.661  22.853  23.660  1.00  0.00     0.163 HD
ATOM     22  O   UNL A   1      34.221  23.401  21.926  1.00  0.00    -0.268 OA
BRANCH  20  23
ATOM     23  C   UNL A   1      34.604  22.601  25.419  1.00  0.00     0.078 C 
ATOM     24  C   UNL A   1      35.551  23.467  26.246  1.00  0.00     0.031 C 
BRANCH  23  25
ATOM     25  C   UNL A   1      34.893  21.097  25.564  1.00  0.00     0.021 C 
ATOM     26  C   UNL A   1      36.274  20.686  25.079  1.00  0.00     0.006 C 
ENDBRANCH  23  25
ENDBRANCH  20  23
ENDBRANCH  17  19
ENDBRANCH  13  17
ENDBRANCH   8  12
ENDBRANCH   4   7
ENDBRANCH   2   3
ENDBRANCH   1   2
BRANCH   1  27
ATOM     27  C   UNL A   1      34.454  29.502  26.666  1.00  0.00     0.002 C 
BRANCH  27  28
ATOM     28  C   UNL A   1      35.241  30.395  27.637  1.00  0.00     0.002 C 
BRANCH  28  29
ATOM     29  C   UNL A   1      34.791  31.862  27.720  1.00  0.00     0.021 C 
BRANCH  29  30
ATOM     30  C   UNL A   1      35.819  32.783  28.363  1.00  0.00     0.116 C 
BRANCH  30  31
ATOM     31  N   UNL A   1      35.610  32.903  29.801  1.00  0.00    -0.352 N 
ATOM     32  C   UNL A   1      36.163  32.153  30.819  1.00  0.00     0.251 C 
ATOM     33  H   UNL A   1      34.989  33.614  30.084  1.00  0.00     0.163 HD
ATOM     34  O   UNL A   1      35.611  32.098  31.907  1.00  0.00    -0.269 OA
BRANCH  32  35
ATOM     35  C   UNL A   1      37.419  31.418  30.570  1.00  0.00     0.039 A 
ATOM     36  C   UNL A   1      38.639  32.100  30.528  1.00  0.00     0.014 A 
ATOM     37  C   UNL A   1      37.369  30.038  30.376  1.00  0.00     0.014 A 
ATOM     38  C   UNL A   1      39.816  31.370  30.375  1.00  0.00     0.010 A 
ATOM     39  C   UNL A   1      38.535  29.308  30.328  1.00  0.00     0.010 A 
ATOM     40  C   UNL A   1      39.761  29.969  30.301  1.00  0.00    -0.014 A 
BRANCH  40  41
ATOM     41  C   UNL A   1      40.987  29.174  30.377  1.00  0.00     0.031 A 
ATOM     42  C   UNL A   1      41.487  28.957  31.760  1.00  0.00     0.074 A 
ATOM     43  C   UNL A   1      41.497  28.486  29.332  1.00  0.00     0.049 A 
ATOM     44  N   UNL A   1      42.574  29.418  32.279  1.00  0.00    -0.248 NA
ATOM     45  C   UNL A   1      40.607  28.291  32.736  1.00  0.00     0.031 C 
ATOM     46  C   UNL A   1      40.958  28.394  27.974  1.00  0.00     0.029 A 
ATOM     47  N   UNL A   1      42.545  27.614  29.298  1.00  0.00    -0.354 N 
ATOM     48  C   UNL A   1      42.648  28.885  33.562  1.00  0.00     0.074 A 
ATOM     49  C   UNL A   1      41.326  28.403  33.856  1.00  0.00     0.031 C 
ATOM     50  C   UNL A   1      41.524  27.348  27.334  1.00  0.00     0.029 A 
ATOM     51  C   UNL A   1      42.561  26.780  28.179  1.00  0.00     0.049 A 
ATOM     52  H   UNL A   1      43.232  27.575  30.003  1.00  0.00     0.167 HD
ATOM     53  C   UNL A   1      43.853  28.663  34.158  1.00  0.00     0.034 A 
ATOM     54  C   UNL A   1      43.339  25.681  27.972  1.00  0.00     0.034 A 
ATOM     55  C   UNL A   1      44.911  29.350  33.442  1.00  0.00     0.049 A 
ATOM     56  C   UNL A   1      44.534  25.842  28.840  1.00  0.00     0.074 A 
ATOM     57  C   UNL A   1      45.130  30.665  33.076  1.00  0.00     0.029 A 
ATOM     58  N   UNL A   1      45.744  28.601  32.638  1.00  0.00    -0.354 N 
ATOM     59  N   UNL A   1      45.415  26.788  28.665  1.00  0.00    -0.248 NA
ATOM     60  C   UNL A   1      44.493  25.282  30.185  1.00  0.00     0.031 C 
ATOM     61  C   UNL A   1      45.657  30.591  31.753  1.00  0.00     0.029 A 
ATOM     62  C   UNL A   1      45.836  29.244  31.429  1.00  0.00     0.049 A 
ATOM     63  H   UNL A   1      46.190  27.758  32.885  1.00  0.00     0.167 HD
ATOM     64  C   UNL A   1      45.689  27.258  29.940  1.00  0.00     0.074 A 
ATOM     65  C   UNL A   1      45.186  26.220  30.840  1.00  0.00     0.031 C 
ATOM     66  C   UNL A   1      46.020  28.567  30.157  1.00  0.00     0.034 A 
BRANCH  53  67
ATOM     67  C   UNL A   1      44.161  27.542  35.131  1.00  0.00     0.023 A 
ATOM     68  C   UNL A   1      44.039  26.227  34.639  1.00  0.00     0.031 A 
ATOM     69  C   UNL A   1      44.259  27.658  36.535  1.00  0.00     0.131 A 
ATOM     70  C   UNL A   1      43.867  25.139  35.509  1.00  0.00     0.055 A 
ATOM     71  C   UNL A   1      44.164  26.560  37.397  1.00  0.00     0.041 A 
ATOM     72  F   UNL A   1      44.362  28.833  37.164  1.00  0.00    -0.206 F 
ATOM     73  C   UNL A   1      43.924  25.296  36.889  1.00  0.00     0.022 A 
BRANCH  70  74
ATOM     74  S   UNL A   1      43.355  23.555  34.797  1.00  0.00     0.124 S 
ATOM     75  O   UNL A   1      44.181  22.620  35.555  1.00  0.00    -0.237 OA
ATOM     76  O   UNL A   1      41.926  23.541  35.093  1.00  0.00    -0.237 OA
ATOM     77  O   UNL A   1      43.699  23.692  33.384  1.00  0.00    -0.744 OA
ENDBRANCH  70  74
ENDBRANCH  53  67
BRANCH  54  78
ATOM     78  C   UNL A   1      42.996  24.420  27.247  1.00  0.00     0.023 A 
ATOM     79  C   UNL A   1      43.856  23.822  26.296  1.00  0.00     0.031 A 
ATOM     80  C   UNL A   1      41.892  23.640  27.664  1.00  0.00     0.131 A 
ATOM     81  C   UNL A   1      43.599  22.513  25.815  1.00  0.00     0.055 A 
ATOM     82  C   UNL A   1      41.638  22.354  27.179  1.00  0.00     0.041 A 
ATOM     83  F   UNL A   1      41.064  24.060  28.632  1.00  0.00    -0.206 F 
ATOM     84  C   UNL A   1      42.499  21.778  26.262  1.00  0.00     0.022 A 
BRANCH  81  85
ATOM     85  S   UNL A   1      44.764  21.683  24.681  1.00  0.00     0.124 S 
ATOM     86  O   UNL A   1      46.049  21.934  25.321  1.00  0.00    -0.237 OA
ATOM     87  O   UNL A   1      44.289  20.303  24.693  1.00  0.00    -0.237 OA
ATOM     88  O   UNL A   1      44.560  22.384  23.412  1.00  0.00    -0.744 OA
ENDBRANCH  81  85
ENDBRANCH  54  78
BRANCH  66  89
ATOM     89  C   UNL A   1      46.389  29.437  28.971  1.00  0.00     0.023 A 
ATOM     90  C   UNL A   1      45.511  30.328  28.313  1.00  0.00     0.031 A 
ATOM     91  C   UNL A   1      47.741  29.451  28.582  1.00  0.00     0.131 A 
ATOM     92  C   UNL A   1      45.998  31.179  27.300  1.00  0.00     0.055 A 
ATOM     93  C   UNL A   1      48.224  30.314  27.599  1.00  0.00     0.041 A 
ATOM     94  F   UNL A   1      48.633  28.649  29.186  1.00  0.00    -0.206 F 
ATOM     95  C   UNL A   1      47.352  31.177  26.949  1.00  0.00     0.022 A 
BRANCH  92  96
ATOM     96  S   UNL A   1      44.871  32.296  26.401  1.00  0.00     0.124 S 
ATOM     97  O   UNL A   1      43.588  31.606  26.461  1.00  0.00    -0.237 OA
ATOM     98  O   UNL A   1      44.971  33.532  27.171  1.00  0.00    -0.237 OA
ATOM     99  O   UNL A   1      45.461  32.367  25.063  1.00  0.00    -0.744 OA
ENDBRANCH  92  96
ENDBRANCH  66  89
ENDBRANCH  40  41
ENDBRANCH  32  35
ENDBRANCH  30  31
ENDBRANCH  29  30
ENDBRANCH  28  29
ENDBRANCH  27  28
ENDBRANCH   1  27
TORSDOF 21
ENDMDL
