MODEL 1
REMARK VINA RESULT:     -10.4      0.000      0.000
REMARK SMILES C[C@H]([NH3+])C(=O)N1CCC[C@H]1C(=O)NCCCCCCNC(=O)c1ccc(-c2c3nc(c(-c4cc(S(=O)(=O)[O-])ccc4F)c4ccc([nH]4)c(-c4cc(S(=O)(=O)[O-])ccc4F)c4nc(c(-c5cc(S(=O)(=O)[O-])ccc5F)c5ccc2[nH]5)C=C4)C=C3)cc1
REMARK SMILES IDX 16 1 15 2 14 3 13 4 11 5 12 6 10 8 6 9 7 10 8 11 9 12 4 13
REMARK SMILES IDX 5 14 2 15 1 16 3 17 17 21 18 22 19 23 20 24 21 25 22 27
REMARK SMILES IDX 23 28 24 29 85 30 25 31 84 32 26 33 27 34 28 35 78 36 29 37
REMARK SMILES IDX 83 38 77 39 79 40 30 41 82 42 76 43 75 44 31 46 63 47 43 48
REMARK SMILES IDX 62 49 44 50 47 51 61 52 80 53 45 54 46 55 60 57 81 58 48 59
REMARK SMILES IDX 32 60 33 61 41 62 34 63 40 64 42 65 39 66 35 67 36 68 37 69
REMARK SMILES IDX 38 70 64 71 65 72 73 73 66 74 72 75 74 76 71 77 67 78 68 79
REMARK SMILES IDX 69 80 70 81 49 82 50 83 58 84 51 85 57 86 59 87 56 88 52 89
REMARK SMILES IDX 53 90 54 91 55 92
REMARK H PARENT 13 7 3 18 3 19 3 20 20 26 79 45 47 56
REMARK Flexibility Score: inf
ROOT
ATOM      1  C   UNL A   1      34.895  23.408  22.717  1.00  0.00     0.002 C 
ENDROOT
BRANCH   1   2
ATOM      2  C   UNL A   1      33.508  23.227  23.341  1.00  0.00     0.021 C 
BRANCH   2   3
ATOM      3  C   UNL A   1      32.925  24.495  23.961  1.00  0.00     0.116 C 
BRANCH   3   4
ATOM      4  N   UNL A   1      33.500  25.692  23.375  1.00  0.00    -0.354 N 
ATOM      5  C   UNL A   1      32.998  26.963  23.316  1.00  0.00     0.242 C 
ATOM      6  O   UNL A   1      33.684  27.839  22.782  1.00  0.00    -0.273 OA
ATOM      7  H   UNL A   1      34.384  25.572  22.958  1.00  0.00     0.163 HD
BRANCH   5   8
ATOM      8  C   UNL A   1      31.572  27.234  23.826  1.00  0.00     0.174 C 
ATOM      9  N   UNL A   1      31.436  28.486  24.569  1.00  0.00    -0.326 N 
ATOM     10  C   UNL A   1      30.585  29.416  23.855  1.00  0.00     0.120 C 
ATOM     11  C   UNL A   1      29.696  28.515  23.016  1.00  0.00     0.024 C 
ATOM     12  C   UNL A   1      30.618  27.366  22.633  1.00  0.00     0.037 C 
BRANCH   9  13
ATOM     13  C   UNL A   1      31.985  28.559  25.829  1.00  0.00     0.281 C 
ATOM     14  O   UNL A   1      31.491  27.902  26.756  1.00  0.00    -0.268 OA
BRANCH  13  15
ATOM     15  C   UNL A   1      33.033  29.633  26.179  1.00  0.00     0.268 C 
ATOM     16  C   UNL A   1      34.196  28.952  26.896  1.00  0.00     0.086 C 
BRANCH  15  17
ATOM     17  N   UNL A   1      32.520  30.793  26.930  1.00  0.00    -0.348 N 
ATOM     18  H   UNL A   1      31.942  30.468  27.705  1.00  0.00     0.345 HD
ATOM     19  H   UNL A   1      31.960  31.378  26.311  1.00  0.00     0.345 HD
ATOM     20  H   UNL A   1      33.304  31.335  27.295  1.00  0.00     0.345 HD
ENDBRANCH  15  17
ENDBRANCH  13  15
ENDBRANCH   9  13
ENDBRANCH   5   8
ENDBRANCH   3   4
ENDBRANCH   2   3
ENDBRANCH   1   2
BRANCH   1  21
ATOM     21  C   UNL A   1      36.054  22.798  23.511  1.00  0.00     0.002 C 
BRANCH  21  22
ATOM     22  C   UNL A   1      35.668  21.695  24.502  1.00  0.00     0.021 C 
BRANCH  22  23
ATOM     23  C   UNL A   1      36.439  21.704  25.821  1.00  0.00     0.116 C 
BRANCH  23  24
ATOM     24  N   UNL A   1      37.533  20.748  25.827  1.00  0.00    -0.352 N 
ATOM     25  C   UNL A   1      38.879  20.952  25.980  1.00  0.00     0.251 C 
ATOM     26  H   UNL A   1      37.266  19.809  25.701  1.00  0.00     0.163 HD
ATOM     27  O   UNL A   1      39.654  20.017  25.771  1.00  0.00    -0.269 OA
BRANCH  25  28
ATOM     28  C   UNL A   1      39.411  22.279  26.368  1.00  0.00     0.039 A 
ATOM     29  C   UNL A   1      40.464  22.334  27.285  1.00  0.00     0.014 A 
ATOM     30  C   UNL A   1      38.864  23.464  25.867  1.00  0.00     0.014 A 
ATOM     31  C   UNL A   1      41.004  23.568  27.656  1.00  0.00     0.010 A 
ATOM     32  C   UNL A   1      39.445  24.693  26.190  1.00  0.00     0.010 A 
ATOM     33  C   UNL A   1      40.521  24.759  27.088  1.00  0.00    -0.014 A 
BRANCH  33  34
ATOM     34  C   UNL A   1      41.153  26.064  27.413  1.00  0.00     0.031 A 
ATOM     35  C   UNL A   1      42.530  26.401  26.903  1.00  0.00     0.074 A 
ATOM     36  C   UNL A   1      40.499  26.931  28.214  1.00  0.00     0.049 A 
ATOM     37  N   UNL A   1      43.241  27.482  27.098  1.00  0.00    -0.248 NA
ATOM     38  C   UNL A   1      43.204  25.380  26.089  1.00  0.00     0.031 C 
ATOM     39  C   UNL A   1      39.186  26.693  28.818  1.00  0.00     0.029 A 
ATOM     40  N   UNL A   1      40.846  28.181  28.664  1.00  0.00    -0.354 N 
ATOM     41  C   UNL A   1      44.452  27.268  26.447  1.00  0.00     0.074 A 
ATOM     42  C   UNL A   1      44.393  25.933  25.889  1.00  0.00     0.031 C 
ATOM     43  C   UNL A   1      38.833  27.767  29.543  1.00  0.00     0.029 A 
ATOM     44  C   UNL A   1      39.905  28.755  29.489  1.00  0.00     0.049 A 
ATOM     45  H   UNL A   1      41.690  28.626  28.421  1.00  0.00     0.167 HD
ATOM     46  C   UNL A   1      45.506  28.111  26.317  1.00  0.00     0.034 A 
ATOM     47  C   UNL A   1      39.907  29.936  30.136  1.00  0.00     0.034 A 
ATOM     48  C   UNL A   1      45.537  29.449  26.857  1.00  0.00     0.049 A 
ATOM     49  C   UNL A   1      41.084  30.862  29.956  1.00  0.00     0.074 A 
ATOM     50  C   UNL A   1      46.514  30.418  26.698  1.00  0.00     0.029 A 
ATOM     51  N   UNL A   1      44.559  30.004  27.672  1.00  0.00    -0.354 N 
ATOM     52  N   UNL A   1      42.180  30.677  29.259  1.00  0.00    -0.248 NA
ATOM     53  C   UNL A   1      41.015  32.162  30.635  1.00  0.00     0.031 C 
ATOM     54  C   UNL A   1      46.162  31.528  27.473  1.00  0.00     0.029 A 
ATOM     55  C   UNL A   1      44.929  31.285  28.055  1.00  0.00     0.049 A 
ATOM     56  H   UNL A   1      43.725  29.555  27.938  1.00  0.00     0.167 HD
ATOM     57  C   UNL A   1      42.920  31.848  29.398  1.00  0.00     0.074 A 
ATOM     58  C   UNL A   1      42.130  32.742  30.220  1.00  0.00     0.031 C 
ATOM     59  C   UNL A   1      44.142  32.160  28.892  1.00  0.00     0.034 A 
BRANCH  46  60
ATOM     60  C   UNL A   1      46.727  27.607  25.584  1.00  0.00     0.023 A 
ATOM     61  C   UNL A   1      46.992  27.957  24.248  1.00  0.00     0.031 A 
ATOM     62  C   UNL A   1      47.648  26.771  26.240  1.00  0.00     0.131 A 
ATOM     63  C   UNL A   1      48.120  27.432  23.598  1.00  0.00     0.055 A 
ATOM     64  C   UNL A   1      48.805  26.310  25.610  1.00  0.00     0.041 A 
ATOM     65  F   UNL A   1      47.438  26.387  27.510  1.00  0.00    -0.206 F 
ATOM     66  C   UNL A   1      49.041  26.631  24.277  1.00  0.00     0.022 A 
BRANCH  63  67
ATOM     67  S   UNL A   1      48.310  27.721  21.818  1.00  0.00     0.124 S 
ATOM     68  O   UNL A   1      49.368  28.727  21.792  1.00  0.00    -0.237 OA
ATOM     69  O   UNL A   1      48.673  26.398  21.321  1.00  0.00    -0.237 OA
ATOM     70  O   UNL A   1      46.993  28.202  21.405  1.00  0.00    -0.744 OA
ENDBRANCH  63  67
ENDBRANCH  46  60
BRANCH  47  71
ATOM     71  C   UNL A   1      38.774  30.315  31.031  1.00  0.00     0.023 A 
ATOM     72  C   UNL A   1      37.643  30.982  30.533  1.00  0.00     0.031 A 
ATOM     73  C   UNL A   1      38.835  30.066  32.415  1.00  0.00     0.131 A 
ATOM     74  C   UNL A   1      36.649  31.430  31.416  1.00  0.00     0.055 A 
ATOM     75  C   UNL A   1      37.815  30.462  33.282  1.00  0.00     0.041 A 
ATOM     76  F   UNL A   1      39.890  29.428  32.944  1.00  0.00    -0.206 F 
ATOM     77  C   UNL A   1      36.721  31.164  32.786  1.00  0.00     0.022 A 
BRANCH  74  78
ATOM     78  S   UNL A   1      35.310  32.465  30.763  1.00  0.00     0.124 S 
ATOM     79  O   UNL A   1      34.330  32.402  31.843  1.00  0.00    -0.237 OA
ATOM     80  O   UNL A   1      35.981  33.747  30.581  1.00  0.00    -0.237 OA
ATOM     81  O   UNL A   1      34.925  31.782  29.529  1.00  0.00    -0.744 OA
ENDBRANCH  74  78
ENDBRANCH  47  71
BRANCH  59  82
ATOM     82  C   UNL A   1      44.674  33.538  29.200  1.00  0.00     0.023 A 
ATOM     83  C   UNL A   1      44.317  34.656  28.424  1.00  0.00     0.031 A 
ATOM     84  C   UNL A   1      45.574  33.732  30.262  1.00  0.00     0.131 A 
ATOM     85  C   UNL A   1      44.910  35.901  28.679  1.00  0.00     0.055 A 
ATOM     86  C   UNL A   1      46.110  34.987  30.551  1.00  0.00     0.041 A 
ATOM     87  F   UNL A   1      45.952  32.701  31.034  1.00  0.00    -0.206 F 
ATOM     88  C   UNL A   1      45.791  36.077  29.748  1.00  0.00     0.022 A 
BRANCH  85  89
ATOM     89  S   UNL A   1      44.598  37.266  27.524  1.00  0.00     0.124 S 
ATOM     90  O   UNL A   1      45.838  37.304  26.758  1.00  0.00    -0.237 OA
ATOM     91  O   UNL A   1      43.417  36.799  26.803  1.00  0.00    -0.237 OA
ATOM     92  O   UNL A   1      44.374  38.414  28.401  1.00  0.00    -0.744 OA
ENDBRANCH  85  89
ENDBRANCH  59  82
ENDBRANCH  33  34
ENDBRANCH  25  28
ENDBRANCH  23  24
ENDBRANCH  22  23
ENDBRANCH  21  22
ENDBRANCH   1  21
TORSDOF 19
ENDMDL
MODEL 2
REMARK VINA RESULT:     -10.4      5.454      8.744
REMARK SMILES C[C@H]([NH3+])C(=O)N1CCC[C@H]1C(=O)NCCCCCCNC(=O)c1ccc(-c2c3nc(c(-c4cc(S(=O)(=O)[O-])ccc4F)c4ccc([nH]4)c(-c4cc(S(=O)(=O)[O-])ccc4F)c4nc(c(-c5cc(S(=O)(=O)[O-])ccc5F)c5ccc2[nH]5)C=C4)C=C3)cc1
REMARK SMILES IDX 16 1 15 2 14 3 13 4 11 5 12 6 10 8 6 9 7 10 8 11 9 12 4 13
REMARK SMILES IDX 5 14 2 15 1 16 3 17 17 21 18 22 19 23 20 24 21 25 22 27
REMARK SMILES IDX 23 28 24 29 85 30 25 31 84 32 26 33 27 34 28 35 78 36 29 37
REMARK SMILES IDX 83 38 77 39 79 40 30 41 82 42 76 43 75 44 31 46 63 47 43 48
REMARK SMILES IDX 62 49 44 50 47 51 61 52 80 53 45 54 46 55 60 57 81 58 48 59
REMARK SMILES IDX 32 60 33 61 41 62 34 63 40 64 42 65 39 66 35 67 36 68 37 69
REMARK SMILES IDX 38 70 64 71 65 72 73 73 66 74 72 75 74 76 71 77 67 78 68 79
REMARK SMILES IDX 69 80 70 81 49 82 50 83 58 84 51 85 57 86 59 87 56 88 52 89
REMARK SMILES IDX 53 90 54 91 55 92
REMARK H PARENT 13 7 3 18 3 19 3 20 20 26 79 45 47 56
REMARK Flexibility Score: inf
ROOT
ATOM      1  C   UNL A   1      31.858  29.303  26.507  1.00  0.00     0.002 C 
ENDROOT
BRANCH   1   2
ATOM      2  C   UNL A   1      33.310  28.815  26.539  1.00  0.00     0.021 C 
BRANCH   2   3
ATOM      3  C   UNL A   1      33.509  27.393  26.023  1.00  0.00     0.116 C 
BRANCH   3   4
ATOM      4  N   UNL A   1      32.650  26.447  26.712  1.00  0.00    -0.354 N 
ATOM      5  C   UNL A   1      31.984  25.356  26.224  1.00  0.00     0.242 C 
ATOM      6  O   UNL A   1      31.322  24.674  27.011  1.00  0.00    -0.273 OA
ATOM      7  H   UNL A   1      32.529  26.615  27.675  1.00  0.00     0.163 HD
BRANCH   5   8
ATOM      8  C   UNL A   1      32.003  25.076  24.711  1.00  0.00     0.174 C 
ATOM      9  N   UNL A   1      32.565  23.774  24.357  1.00  0.00    -0.326 N 
ATOM     10  C   UNL A   1      31.552  22.919  23.774  1.00  0.00     0.120 C 
ATOM     11  C   UNL A   1      30.553  23.900  23.185  1.00  0.00     0.024 C 
ATOM     12  C   UNL A   1      30.567  25.057  24.175  1.00  0.00     0.037 C 
BRANCH   9  13
ATOM     13  C   UNL A   1      33.924  23.592  24.488  1.00  0.00     0.281 C 
ATOM     14  O   UNL A   1      34.695  24.075  23.647  1.00  0.00    -0.268 OA
BRANCH  13  15
ATOM     15  C   UNL A   1      34.497  22.586  25.504  1.00  0.00     0.268 C 
ATOM     16  C   UNL A   1      34.732  21.260  24.784  1.00  0.00     0.086 C 
BRANCH  15  17
ATOM     17  N   UNL A   1      33.709  22.417  26.738  1.00  0.00    -0.348 N 
ATOM     18  H   UNL A   1      32.811  22.889  26.635  1.00  0.00     0.345 HD
ATOM     19  H   UNL A   1      34.217  22.822  27.524  1.00  0.00     0.345 HD
ATOM     20  H   UNL A   1      33.554  21.423  26.908  1.00  0.00     0.345 HD
ENDBRANCH  15  17
ENDBRANCH  13  15
ENDBRANCH   9  13
ENDBRANCH   5   8
ENDBRANCH   3   4
ENDBRANCH   2   3
ENDBRANCH   1   2
BRANCH   1  21
ATOM     21  C   UNL A   1      31.631  30.633  25.782  1.00  0.00     0.002 C 
BRANCH  21  22
ATOM     22  C   UNL A   1      31.434  31.855  26.686  1.00  0.00     0.021 C 
BRANCH  22  23
ATOM     23  C   UNL A   1      32.711  32.427  27.297  1.00  0.00     0.116 C 
BRANCH  23  24
ATOM     24  N   UNL A   1      32.579  33.833  27.636  1.00  0.00    -0.352 N 
ATOM     25  C   UNL A   1      33.247  34.580  28.571  1.00  0.00     0.251 C 
ATOM     26  H   UNL A   1      31.905  34.325  27.114  1.00  0.00     0.163 HD
ATOM     27  O   UNL A   1      32.850  35.720  28.821  1.00  0.00    -0.269 OA
BRANCH  25  28
ATOM     28  C   UNL A   1      34.415  34.029  29.296  1.00  0.00     0.039 A 
ATOM     29  C   UNL A   1      34.186  33.171  30.375  1.00  0.00     0.014 A 
ATOM     30  C   UNL A   1      35.724  34.374  28.949  1.00  0.00     0.014 A 
ATOM     31  C   UNL A   1      35.265  32.617  31.068  1.00  0.00     0.010 A 
ATOM     32  C   UNL A   1      36.802  33.770  29.601  1.00  0.00     0.010 A 
ATOM     33  C   UNL A   1      36.585  32.885  30.667  1.00  0.00    -0.014 A 
BRANCH  33  34
ATOM     34  C   UNL A   1      37.732  32.225  31.346  1.00  0.00     0.031 A 
ATOM     35  C   UNL A   1      38.482  31.105  30.675  1.00  0.00     0.074 A 
ATOM     36  C   UNL A   1      38.067  32.609  32.595  1.00  0.00     0.049 A 
ATOM     37  N   UNL A   1      39.494  30.406  31.121  1.00  0.00    -0.248 NA
ATOM     38  C   UNL A   1      38.018  30.701  29.340  1.00  0.00     0.031 C 
ATOM     39  C   UNL A   1      37.377  33.642  33.372  1.00  0.00     0.029 A 
ATOM     40  N   UNL A   1      39.062  32.175  33.435  1.00  0.00    -0.354 N 
ATOM     41  C   UNL A   1      39.779  29.469  30.132  1.00  0.00     0.074 A 
ATOM     42  C   UNL A   1      38.802  29.663  29.081  1.00  0.00     0.031 C 
ATOM     43  C   UNL A   1      37.981  33.774  34.564  1.00  0.00     0.029 A 
ATOM     44  C   UNL A   1      39.075  32.813  34.655  1.00  0.00     0.049 A 
ATOM     45  H   UNL A   1      39.708  31.474  33.188  1.00  0.00     0.167 HD
ATOM     46  C   UNL A   1      40.772  28.545  30.100  1.00  0.00     0.034 A 
ATOM     47  C   UNL A   1      39.869  32.638  35.730  1.00  0.00     0.034 A 
ATOM     48  C   UNL A   1      41.755  28.383  31.144  1.00  0.00     0.049 A 
ATOM     49  C   UNL A   1      40.977  31.618  35.657  1.00  0.00     0.074 A 
ATOM     50  C   UNL A   1      42.858  27.546  31.164  1.00  0.00     0.029 A 
ATOM     51  N   UNL A   1      41.749  29.058  32.358  1.00  0.00    -0.354 N 
ATOM     52  N   UNL A   1      41.287  30.805  34.674  1.00  0.00    -0.248 NA
ATOM     53  C   UNL A   1      41.852  31.504  36.831  1.00  0.00     0.031 C 
ATOM     54  C   UNL A   1      43.474  27.661  32.415  1.00  0.00     0.029 A 
ATOM     55  C   UNL A   1      42.804  28.626  33.149  1.00  0.00     0.049 A 
ATOM     56  H   UNL A   1      41.092  29.743  32.619  1.00  0.00     0.167 HD
ATOM     57  C   UNL A   1      42.409  30.101  35.104  1.00  0.00     0.074 A 
ATOM     58  C   UNL A   1      42.735  30.607  36.422  1.00  0.00     0.031 C 
ATOM     59  C   UNL A   1      43.107  29.124  34.469  1.00  0.00     0.034 A 
BRANCH  46  60
ATOM     60  C   UNL A   1      40.832  27.616  28.910  1.00  0.00     0.023 A 
ATOM     61  C   UNL A   1      41.791  27.769  27.893  1.00  0.00     0.031 A 
ATOM     62  C   UNL A   1      39.922  26.550  28.801  1.00  0.00     0.131 A 
ATOM     63  C   UNL A   1      41.783  26.904  26.788  1.00  0.00     0.055 A 
ATOM     64  C   UNL A   1      39.964  25.650  27.734  1.00  0.00     0.041 A 
ATOM     65  F   UNL A   1      38.971  26.366  29.731  1.00  0.00    -0.206 F 
ATOM     66  C   UNL A   1      40.892  25.831  26.713  1.00  0.00     0.022 A 
BRANCH  63  67
ATOM     67  S   UNL A   1      42.883  27.266  25.392  1.00  0.00     0.124 S 
ATOM     68  O   UNL A   1      44.118  27.638  26.076  1.00  0.00    -0.237 OA
ATOM     69  O   UNL A   1      42.908  25.997  24.673  1.00  0.00    -0.237 OA
ATOM     70  O   UNL A   1      42.208  28.361  24.698  1.00  0.00    -0.744 OA
ENDBRANCH  63  67
ENDBRANCH  46  60
BRANCH  47  71
ATOM     71  C   UNL A   1      39.645  33.427  36.977  1.00  0.00     0.023 A 
ATOM     72  C   UNL A   1      38.947  32.883  38.067  1.00  0.00     0.031 A 
ATOM     73  C   UNL A   1      40.075  34.764  37.072  1.00  0.00     0.131 A 
ATOM     74  C   UNL A   1      38.648  33.686  39.179  1.00  0.00     0.055 A 
ATOM     75  C   UNL A   1      39.827  35.540  38.204  1.00  0.00     0.041 A 
ATOM     76  F   UNL A   1      40.750  35.333  36.062  1.00  0.00    -0.206 F 
ATOM     77  C   UNL A   1      39.093  35.007  39.260  1.00  0.00     0.022 A 
BRANCH  74  78
ATOM     78  S   UNL A   1      37.571  33.011  40.473  1.00  0.00     0.124 S 
ATOM     79  O   UNL A   1      38.363  31.888  40.964  1.00  0.00    -0.237 OA
ATOM     80  O   UNL A   1      37.439  34.147  41.378  1.00  0.00    -0.237 OA
ATOM     81  O   UNL A   1      36.355  32.648  39.748  1.00  0.00    -0.744 OA
ENDBRANCH  74  78
ENDBRANCH  47  71
BRANCH  59  82
ATOM     82  C   UNL A   1      44.309  28.567  35.193  1.00  0.00     0.023 A 
ATOM     83  C   UNL A   1      44.206  27.450  36.042  1.00  0.00     0.031 A 
ATOM     84  C   UNL A   1      45.567  29.180  35.057  1.00  0.00     0.131 A 
ATOM     85  C   UNL A   1      45.324  27.024  36.774  1.00  0.00     0.055 A 
ATOM     86  C   UNL A   1      46.691  28.711  35.739  1.00  0.00     0.041 A 
ATOM     87  F   UNL A   1      45.724  30.251  34.263  1.00  0.00    -0.206 F 
ATOM     88  C   UNL A   1      46.569  27.637  36.615  1.00  0.00     0.022 A 
BRANCH  85  89
ATOM     89  S   UNL A   1      45.103  25.726  38.022  1.00  0.00     0.124 S 
ATOM     90  O   UNL A   1      44.875  26.506  39.234  1.00  0.00    -0.237 OA
ATOM     91  O   UNL A   1      43.948  24.994  37.509  1.00  0.00    -0.237 OA
ATOM     92  O   UNL A   1      46.367  24.994  37.984  1.00  0.00    -0.744 OA
ENDBRANCH  85  89
ENDBRANCH  59  82
ENDBRANCH  33  34
ENDBRANCH  25  28
ENDBRANCH  23  24
ENDBRANCH  22  23
ENDBRANCH  21  22
ENDBRANCH   1  21
TORSDOF 19
ENDMDL
MODEL 3
REMARK VINA RESULT:     -10.3      5.427      8.660
REMARK SMILES C[C@H]([NH3+])C(=O)N1CCC[C@H]1C(=O)NCCCCCCNC(=O)c1ccc(-c2c3nc(c(-c4cc(S(=O)(=O)[O-])ccc4F)c4ccc([nH]4)c(-c4cc(S(=O)(=O)[O-])ccc4F)c4nc(c(-c5cc(S(=O)(=O)[O-])ccc5F)c5ccc2[nH]5)C=C4)C=C3)cc1
REMARK SMILES IDX 16 1 15 2 14 3 13 4 11 5 12 6 10 8 6 9 7 10 8 11 9 12 4 13
REMARK SMILES IDX 5 14 2 15 1 16 3 17 17 21 18 22 19 23 20 24 21 25 22 27
REMARK SMILES IDX 23 28 24 29 85 30 25 31 84 32 26 33 27 34 28 35 78 36 29 37
REMARK SMILES IDX 83 38 77 39 79 40 30 41 82 42 76 43 75 44 31 46 63 47 43 48
REMARK SMILES IDX 62 49 44 50 47 51 61 52 80 53 45 54 46 55 60 57 81 58 48 59
REMARK SMILES IDX 32 60 33 61 41 62 34 63 40 64 42 65 39 66 35 67 36 68 37 69
REMARK SMILES IDX 38 70 64 71 65 72 73 73 66 74 72 75 74 76 71 77 67 78 68 79
REMARK SMILES IDX 69 80 70 81 49 82 50 83 58 84 51 85 57 86 59 87 56 88 52 89
REMARK SMILES IDX 53 90 54 91 55 92
REMARK H PARENT 13 7 3 18 3 19 3 20 20 26 79 45 47 56
REMARK Flexibility Score: inf
ROOT
ATOM      1  C   UNL A   1      32.076  28.689  26.905  1.00  0.00     0.002 C 
ENDROOT
BRANCH   1   2
ATOM      2  C   UNL A   1      33.298  27.892  26.437  1.00  0.00     0.021 C 
BRANCH   2   3
ATOM      3  C   UNL A   1      33.015  26.422  26.136  1.00  0.00     0.116 C 
BRANCH   3   4
ATOM      4  N   UNL A   1      34.200  25.736  25.654  1.00  0.00    -0.354 N 
ATOM      5  C   UNL A   1      34.307  24.571  24.947  1.00  0.00     0.242 C 
ATOM      6  O   UNL A   1      35.433  24.185  24.619  1.00  0.00    -0.273 OA
ATOM      7  H   UNL A   1      35.055  26.176  25.868  1.00  0.00     0.163 HD
BRANCH   5   8
ATOM      8  C   UNL A   1      33.042  23.739  24.669  1.00  0.00     0.174 C 
ATOM      9  N   UNL A   1      32.582  23.804  23.283  1.00  0.00    -0.326 N 
ATOM     10  C   UNL A   1      32.702  22.511  22.642  1.00  0.00     0.120 C 
ATOM     11  C   UNL A   1      32.621  21.530  23.799  1.00  0.00     0.024 C 
ATOM     12  C   UNL A   1      33.336  22.257  24.929  1.00  0.00     0.037 C 
BRANCH   9  13
ATOM     13  C   UNL A   1      32.006  24.974  22.840  1.00  0.00     0.281 C 
ATOM     14  O   UNL A   1      30.844  25.252  23.168  1.00  0.00    -0.268 OA
BRANCH  13  15
ATOM     15  C   UNL A   1      32.671  25.821  21.738  1.00  0.00     0.268 C 
ATOM     16  C   UNL A   1      32.881  27.233  22.281  1.00  0.00     0.086 C 
BRANCH  15  17
ATOM     17  N   UNL A   1      31.976  25.822  20.439  1.00  0.00    -0.348 N 
ATOM     18  H   UNL A   1      31.365  26.635  20.381  1.00  0.00     0.345 HD
ATOM     19  H   UNL A   1      31.421  24.972  20.350  1.00  0.00     0.345 HD
ATOM     20  H   UNL A   1      32.665  25.859  19.686  1.00  0.00     0.345 HD
ENDBRANCH  15  17
ENDBRANCH  13  15
ENDBRANCH   9  13
ENDBRANCH   5   8
ENDBRANCH   3   4
ENDBRANCH   2   3
ENDBRANCH   1   2
BRANCH   1  21
ATOM     21  C   UNL A   1      31.755  29.938  26.080  1.00  0.00     0.002 C 
BRANCH  21  22
ATOM     22  C   UNL A   1      31.637  31.244  26.874  1.00  0.00     0.021 C 
BRANCH  22  23
ATOM     23  C   UNL A   1      32.874  32.140  26.844  1.00  0.00     0.116 C 
BRANCH  23  24
ATOM     24  N   UNL A   1      32.588  33.490  27.297  1.00  0.00    -0.352 N 
ATOM     25  C   UNL A   1      33.119  34.199  28.342  1.00  0.00     0.251 C 
ATOM     26  H   UNL A   1      31.907  33.969  26.772  1.00  0.00     0.163 HD
ATOM     27  O   UNL A   1      32.602  35.271  28.663  1.00  0.00    -0.269 OA
BRANCH  25  28
ATOM     28  C   UNL A   1      34.283  33.685  29.100  1.00  0.00     0.039 A 
ATOM     29  C   UNL A   1      34.058  32.758  30.121  1.00  0.00     0.014 A 
ATOM     30  C   UNL A   1      35.583  34.131  28.840  1.00  0.00     0.014 A 
ATOM     31  C   UNL A   1      35.136  32.238  30.842  1.00  0.00     0.010 A 
ATOM     32  C   UNL A   1      36.664  33.563  29.518  1.00  0.00     0.010 A 
ATOM     33  C   UNL A   1      36.453  32.610  30.526  1.00  0.00    -0.014 A 
BRANCH  33  34
ATOM     34  C   UNL A   1      37.606  31.989  31.230  1.00  0.00     0.031 A 
ATOM     35  C   UNL A   1      38.401  30.886  30.583  1.00  0.00     0.074 A 
ATOM     36  C   UNL A   1      37.907  32.392  32.483  1.00  0.00     0.049 A 
ATOM     37  N   UNL A   1      39.424  30.220  31.053  1.00  0.00    -0.248 NA
ATOM     38  C   UNL A   1      37.973  30.458  29.243  1.00  0.00     0.031 C 
ATOM     39  C   UNL A   1      37.173  33.410  33.238  1.00  0.00     0.029 A 
ATOM     40  N   UNL A   1      38.898  31.994  33.344  1.00  0.00    -0.354 N 
ATOM     41  C   UNL A   1      39.754  29.284  30.077  1.00  0.00     0.074 A 
ATOM     42  C   UNL A   1      38.791  29.441  29.007  1.00  0.00     0.031 C 
ATOM     43  C   UNL A   1      37.751  33.569  34.440  1.00  0.00     0.029 A 
ATOM     44  C   UNL A   1      38.870  32.641  34.559  1.00  0.00     0.049 A 
ATOM     45  H   UNL A   1      39.568  31.310  33.115  1.00  0.00     0.167 HD
ATOM     46  C   UNL A   1      40.773  28.390  30.070  1.00  0.00     0.034 A 
ATOM     47  C   UNL A   1      39.649  32.498  35.650  1.00  0.00     0.034 A 
ATOM     48  C   UNL A   1      41.741  28.264  31.134  1.00  0.00     0.049 A 
ATOM     49  C   UNL A   1      40.787  31.509  35.605  1.00  0.00     0.074 A 
ATOM     50  C   UNL A   1      42.868  27.459  31.181  1.00  0.00     0.029 A 
ATOM     51  N   UNL A   1      41.693  28.948  32.342  1.00  0.00    -0.354 N 
ATOM     52  N   UNL A   1      41.139  30.698  34.635  1.00  0.00    -0.248 NA
ATOM     53  C   UNL A   1      41.643  31.430  36.796  1.00  0.00     0.031 C 
ATOM     54  C   UNL A   1      43.457  27.602  32.442  1.00  0.00     0.029 A 
ATOM     55  C   UNL A   1      42.745  28.553  33.155  1.00  0.00     0.049 A 
ATOM     56  H   UNL A   1      41.012  29.615  32.585  1.00  0.00     0.167 HD
ATOM     57  C   UNL A   1      42.272  30.030  35.091  1.00  0.00     0.074 A 
ATOM     58  C   UNL A   1      42.559  30.555  36.410  1.00  0.00     0.031 C 
ATOM     59  C   UNL A   1      43.010  29.070  34.477  1.00  0.00     0.034 A 
BRANCH  46  60
ATOM     60  C   UNL A   1      40.883  27.454  28.890  1.00  0.00     0.023 A 
ATOM     61  C   UNL A   1      41.843  27.637  27.879  1.00  0.00     0.031 A 
ATOM     62  C   UNL A   1      40.019  26.349  28.783  1.00  0.00     0.131 A 
ATOM     63  C   UNL A   1      41.881  26.763  26.782  1.00  0.00     0.055 A 
ATOM     64  C   UNL A   1      40.108  25.443  27.725  1.00  0.00     0.041 A 
ATOM     65  F   UNL A   1      39.069  26.133  29.707  1.00  0.00    -0.206 F 
ATOM     66  C   UNL A   1      41.036  25.653  26.710  1.00  0.00     0.022 A 
BRANCH  63  67
ATOM     67  S   UNL A   1      42.976  27.159  25.392  1.00  0.00     0.124 S 
ATOM     68  O   UNL A   1      43.011  25.889  24.672  1.00  0.00    -0.237 OA
ATOM     69  O   UNL A   1      42.267  28.249  24.732  1.00  0.00    -0.237 OA
ATOM     70  O   UNL A   1      44.232  27.534  26.039  1.00  0.00    -0.744 OA
ENDBRANCH  63  67
ENDBRANCH  46  60
BRANCH  47  71
ATOM     71  C   UNL A   1      39.379  33.289  36.886  1.00  0.00     0.023 A 
ATOM     72  C   UNL A   1      40.009  34.522  37.114  1.00  0.00     0.031 A 
ATOM     73  C   UNL A   1      38.527  32.789  37.889  1.00  0.00     0.131 A 
ATOM     74  C   UNL A   1      39.828  35.186  38.338  1.00  0.00     0.055 A 
ATOM     75  C   UNL A   1      38.303  33.482  39.080  1.00  0.00     0.041 A 
ATOM     76  F   UNL A   1      37.895  31.618  37.722  1.00  0.00    -0.206 F 
ATOM     77  C   UNL A   1      38.970  34.681  39.317  1.00  0.00     0.022 A 
BRANCH  74  78
ATOM     78  S   UNL A   1      40.817  36.669  38.676  1.00  0.00     0.124 S 
ATOM     79  O   UNL A   1      41.536  36.841  37.418  1.00  0.00    -0.237 OA
ATOM     80  O   UNL A   1      39.786  37.659  38.965  1.00  0.00    -0.237 OA
ATOM     81  O   UNL A   1      41.640  36.275  39.817  1.00  0.00    -0.744 OA
ENDBRANCH  74  78
ENDBRANCH  47  71
BRANCH  59  82
ATOM     82  C   UNL A   1      44.214  28.553  35.227  1.00  0.00     0.023 A 
ATOM     83  C   UNL A   1      44.147  27.394  36.021  1.00  0.00     0.031 A 
ATOM     84  C   UNL A   1      45.436  29.247  35.174  1.00  0.00     0.131 A 
ATOM     85  C   UNL A   1      45.258  27.002  36.781  1.00  0.00     0.055 A 
ATOM     86  C   UNL A   1      46.557  28.815  35.883  1.00  0.00     0.041 A 
ATOM     87  F   UNL A   1      45.557  30.361  34.435  1.00  0.00    -0.206 F 
ATOM     88  C   UNL A   1      46.468  27.696  36.704  1.00  0.00     0.022 A 
BRANCH  85  89
ATOM     89  S   UNL A   1      45.067  25.636  37.960  1.00  0.00     0.124 S 
ATOM     90  O   UNL A   1      44.482  26.310  39.114  1.00  0.00    -0.237 OA
ATOM     91  O   UNL A   1      44.184  24.724  37.239  1.00  0.00    -0.237 OA
ATOM     92  O   UNL A   1      46.434  25.154  38.151  1.00  0.00    -0.744 OA
ENDBRANCH  85  89
ENDBRANCH  59  82
ENDBRANCH  33  34
ENDBRANCH  25  28
ENDBRANCH  23  24
ENDBRANCH  22  23
ENDBRANCH  21  22
ENDBRANCH   1  21
TORSDOF 19
ENDMDL
