MODEL 1
REMARK VINA RESULT:     -11.4      0.000      0.000
REMARK SMILES C[C@@H]([C@H]1CC=CS1)n1nccc1NC(=O)CC1(CC(=O)NCCCCCCNC(=O)c2ccc(-c3c4nc(c(-c5cc(S(=O)(=O)[O-])ccc5F)c5ccc([nH]5)c(-c5cc(S(=O)(=O)[O-])ccc5F)c5nc(c(-c6cc(S(=O)(=O)[O-])ccc6F)c6ccc3[nH]6)C=C5)C=C4)cc2)CCCCC1
REMARK SMILES IDX 23 1 22 2 21 3 19 4 20 5 18 7 17 8 94 9 98 10 95 11 97 12
REMARK SMILES IDX 96 13 16 14 14 15 13 16 15 18 12 19 8 20 9 21 10 22 11 23
REMARK SMILES IDX 2 24 1 25 3 26 4 27 7 28 5 29 6 30 24 31 25 32 26 33 27 34
REMARK SMILES IDX 28 35 29 36 30 38 31 39 32 40 93 41 33 42 92 43 34 44 35 45
REMARK SMILES IDX 36 46 86 47 37 48 91 49 85 50 87 51 38 52 90 53 84 54 83 55
REMARK SMILES IDX 39 57 71 58 51 59 70 60 52 61 55 62 69 63 88 64 53 65 54 66
REMARK SMILES IDX 68 68 89 69 56 70 40 71 41 72 49 73 42 74 48 75 50 76 47 77
REMARK SMILES IDX 43 78 44 79 45 80 46 81 72 82 73 83 81 84 74 85 80 86 82 87
REMARK SMILES IDX 79 88 75 89 76 90 77 91 78 92 57 93 58 94 66 95 59 96 65 97
REMARK SMILES IDX 67 98 64 99 60 100 61 101 62 102 63 103
REMARK H PARENT 21 6 13 17 28 37 87 56 55 67
REMARK Flexibility Score: inf
ROOT
ATOM      1  C   UNL A   1      38.841  21.366  25.958  1.00  0.00     0.021 C 
ENDROOT
BRANCH   1   2
ATOM      2  C   UNL A   1      37.931  22.565  25.692  1.00  0.00     0.116 C 
BRANCH   2   3
ATOM      3  N   UNL A   1      37.465  22.578  24.326  1.00  0.00    -0.356 N 
ATOM      4  C   UNL A   1      36.402  23.220  23.785  1.00  0.00     0.220 C 
ATOM      5  O   UNL A   1      36.236  23.150  22.568  1.00  0.00    -0.275 OA
ATOM      6  H   UNL A   1      37.999  22.043  23.696  1.00  0.00     0.163 HD
BRANCH   4   7
ATOM      7  C   UNL A   1      35.445  24.033  24.645  1.00  0.00     0.107 C 
BRANCH   7   8
ATOM      8  C   UNL A   1      33.966  23.556  24.792  1.00  0.00    -0.012 C 
ATOM      9  C   UNL A   1      33.561  23.765  26.279  1.00  0.00     0.008 C 
ATOM     10  C   UNL A   1      33.747  22.040  24.524  1.00  0.00     0.008 C 
ATOM     11  C   UNL A   1      34.248  22.839  27.284  1.00  0.00     0.001 C 
ATOM     12  C   UNL A   1      34.443  21.095  25.503  1.00  0.00     0.001 C 
ATOM     13  C   UNL A   1      34.008  21.378  26.931  1.00  0.00     0.000 C 
BRANCH   8  14
ATOM     14  C   UNL A   1      33.017  24.293  23.788  1.00  0.00     0.108 C 
BRANCH  14  15
ATOM     15  C   UNL A   1      33.555  25.474  23.013  1.00  0.00     0.226 C 
ATOM     16  N   UNL A   1      33.637  26.782  23.577  1.00  0.00    -0.311 N 
ATOM     17  H   UNL A   1      34.223  27.414  23.101  1.00  0.00     0.171 HD
ATOM     18  O   UNL A   1      33.995  25.399  21.886  1.00  0.00    -0.275 OA
BRANCH  16  19
ATOM     19  C   UNL A   1      33.007  27.286  24.698  1.00  0.00     0.131 A 
ATOM     20  N   UNL A   1      31.680  27.651  24.801  1.00  0.00    -0.246 N 
ATOM     21  N   UNL A   1      31.417  28.337  25.933  1.00  0.00    -0.179 NA
ATOM     22  C   UNL A   1      32.534  28.208  26.649  1.00  0.00     0.137 A 
ATOM     23  C   UNL A   1      33.530  27.494  25.955  1.00  0.00     0.068 A 
BRANCH  20  24
ATOM     24  C   UNL A   1      30.561  27.369  23.895  1.00  0.00     0.120 C 
ATOM     25  C   UNL A   1      29.657  26.265  24.450  1.00  0.00     0.034 C 
BRANCH  24  26
ATOM     26  C   UNL A   1      29.870  28.670  23.448  1.00  0.00     0.079 C 
ATOM     27  C   UNL A   1      30.516  29.342  22.230  1.00  0.00     0.045 C 
ATOM     28  S   UNL A   1      28.084  28.555  22.990  1.00  0.00    -0.128 SA
ATOM     29  C   UNL A   1      29.473  30.252  21.653  1.00  0.00    -0.019 C 
ATOM     30  C   UNL A   1      28.210  29.942  21.964  1.00  0.00     0.037 C 
ENDBRANCH  24  26
ENDBRANCH  20  24
ENDBRANCH  16  19
ENDBRANCH  14  15
ENDBRANCH   8  14
ENDBRANCH   7   8
ENDBRANCH   4   7
ENDBRANCH   2   3
ENDBRANCH   1   2
BRANCH   1  31
ATOM     31  C   UNL A   1      40.206  21.742  26.522  1.00  0.00     0.002 C 
BRANCH  31  32
ATOM     32  C   UNL A   1      41.029  20.558  27.046  1.00  0.00     0.002 C 
BRANCH  32  33
ATOM     33  C   UNL A   1      41.425  19.501  26.002  1.00  0.00     0.021 C 
BRANCH  33  34
ATOM     34  C   UNL A   1      42.818  18.922  26.224  1.00  0.00     0.116 C 
BRANCH  34  35
ATOM     35  N   UNL A   1      43.654  19.109  25.046  1.00  0.00    -0.352 N 
ATOM     36  C   UNL A   1      44.101  20.269  24.462  1.00  0.00     0.251 C 
ATOM     37  H   UNL A   1      43.941  18.279  24.601  1.00  0.00     0.163 HD
ATOM     38  O   UNL A   1      44.494  20.245  23.299  1.00  0.00    -0.269 OA
BRANCH  36  39
ATOM     39  C   UNL A   1      44.098  21.529  25.225  1.00  0.00     0.039 A 
ATOM     40  C   UNL A   1      43.493  22.668  24.683  1.00  0.00     0.014 A 
ATOM     41  C   UNL A   1      44.724  21.584  26.470  1.00  0.00     0.014 A 
ATOM     42  C   UNL A   1      43.457  23.839  25.434  1.00  0.00     0.010 A 
ATOM     43  C   UNL A   1      44.608  22.712  27.252  1.00  0.00     0.010 A 
ATOM     44  C   UNL A   1      44.001  23.850  26.727  1.00  0.00    -0.014 A 
BRANCH  44  45
ATOM     45  C   UNL A   1      43.755  24.982  27.618  1.00  0.00     0.031 A 
ATOM     46  C   UNL A   1      42.372  25.516  27.515  1.00  0.00     0.074 A 
ATOM     47  C   UNL A   1      44.579  25.345  28.623  1.00  0.00     0.049 A 
ATOM     48  N   UNL A   1      41.992  26.633  26.991  1.00  0.00    -0.248 NA
ATOM     49  C   UNL A   1      41.256  24.613  27.850  1.00  0.00     0.031 C 
ATOM     50  C   UNL A   1      45.830  24.692  29.021  1.00  0.00     0.029 A 
ATOM     51  N   UNL A   1      44.415  26.295  29.588  1.00  0.00    -0.354 N 
ATOM     52  C   UNL A   1      40.621  26.701  27.221  1.00  0.00     0.074 A 
ATOM     53  C   UNL A   1      40.209  25.348  27.471  1.00  0.00     0.031 C 
ATOM     54  C   UNL A   1      46.178  25.105  30.259  1.00  0.00     0.029 A 
ATOM     55  C   UNL A   1      45.263  26.151  30.686  1.00  0.00     0.049 A 
ATOM     56  H   UNL A   1      43.754  27.020  29.516  1.00  0.00     0.167 HD
ATOM     57  C   UNL A   1      40.027  27.888  27.528  1.00  0.00     0.034 A 
ATOM     58  C   UNL A   1      45.201  26.806  31.879  1.00  0.00     0.034 A 
ATOM     59  C   UNL A   1      40.900  29.000  27.179  1.00  0.00     0.049 A 
ATOM     60  C   UNL A   1      44.438  28.056  31.641  1.00  0.00     0.074 A 
ATOM     61  C   UNL A   1      41.581  29.376  26.034  1.00  0.00     0.029 A 
ATOM     62  N   UNL A   1      41.500  29.710  28.200  1.00  0.00    -0.354 N 
ATOM     63  N   UNL A   1      44.870  29.020  30.876  1.00  0.00    -0.248 NA
ATOM     64  C   UNL A   1      42.998  28.036  31.852  1.00  0.00     0.031 C 
ATOM     65  C   UNL A   1      42.844  29.857  26.495  1.00  0.00     0.029 A 
ATOM     66  C   UNL A   1      42.828  29.851  27.890  1.00  0.00     0.049 A 
ATOM     67  H   UNL A   1      41.054  30.054  29.007  1.00  0.00     0.167 HD
ATOM     68  C   UNL A   1      43.759  29.427  30.154  1.00  0.00     0.074 A 
ATOM     69  C   UNL A   1      42.618  28.870  30.879  1.00  0.00     0.031 C 
ATOM     70  C   UNL A   1      43.884  29.918  28.884  1.00  0.00     0.034 A 
BRANCH  57  71
ATOM     71  C   UNL A   1      38.903  28.044  28.546  1.00  0.00     0.023 A 
ATOM     72  C   UNL A   1      37.881  28.945  28.198  1.00  0.00     0.031 A 
ATOM     73  C   UNL A   1      38.931  27.661  29.908  1.00  0.00     0.131 A 
ATOM     74  C   UNL A   1      37.116  29.585  29.187  1.00  0.00     0.055 A 
ATOM     75  C   UNL A   1      38.108  28.243  30.878  1.00  0.00     0.041 A 
ATOM     76  F   UNL A   1      39.786  26.763  30.405  1.00  0.00    -0.206 F 
ATOM     77  C   UNL A   1      37.230  29.251  30.530  1.00  0.00     0.022 A 
BRANCH  74  78
ATOM     78  S   UNL A   1      36.161  31.038  28.690  1.00  0.00     0.124 S 
ATOM     79  O   UNL A   1      37.236  31.975  28.378  1.00  0.00    -0.237 OA
ATOM     80  O   UNL A   1      35.402  30.521  27.557  1.00  0.00    -0.237 OA
ATOM     81  O   UNL A   1      35.378  31.348  29.883  1.00  0.00    -0.744 OA
ENDBRANCH  74  78
ENDBRANCH  57  71
BRANCH  58  82
ATOM     82  C   UNL A   1      45.530  26.282  33.238  1.00  0.00     0.023 A 
ATOM     83  C   UNL A   1      44.982  25.088  33.759  1.00  0.00     0.031 A 
ATOM     84  C   UNL A   1      46.604  26.846  33.965  1.00  0.00     0.131 A 
ATOM     85  C   UNL A   1      45.506  24.516  34.946  1.00  0.00     0.055 A 
ATOM     86  C   UNL A   1      47.111  26.283  35.138  1.00  0.00     0.041 A 
ATOM     87  F   UNL A   1      47.266  27.922  33.512  1.00  0.00    -0.206 F 
ATOM     88  C   UNL A   1      46.570  25.108  35.630  1.00  0.00     0.022 A 
BRANCH  85  89
ATOM     89  S   UNL A   1      44.883  22.920  35.577  1.00  0.00     0.124 S 
ATOM     90  O   UNL A   1      45.362  22.922  36.953  1.00  0.00    -0.237 OA
ATOM     91  O   UNL A   1      43.444  23.046  35.383  1.00  0.00    -0.237 OA
ATOM     92  O   UNL A   1      45.530  21.938  34.705  1.00  0.00    -0.744 OA
ENDBRANCH  85  89
ENDBRANCH  58  82
BRANCH  70  93
ATOM     93  C   UNL A   1      45.249  30.371  28.411  1.00  0.00     0.023 A 
ATOM     94  C   UNL A   1      46.261  29.527  27.902  1.00  0.00     0.031 A 
ATOM     95  C   UNL A   1      45.493  31.757  28.398  1.00  0.00     0.131 A 
ATOM     96  C   UNL A   1      47.468  30.078  27.426  1.00  0.00     0.055 A 
ATOM     97  C   UNL A   1      46.678  32.301  27.906  1.00  0.00     0.041 A 
ATOM     98  F   UNL A   1      44.562  32.617  28.843  1.00  0.00    -0.206 F 
ATOM     99  C   UNL A   1      47.675  31.461  27.425  1.00  0.00     0.022 A 
BRANCH  96 100
ATOM    100  S   UNL A   1      48.810  29.002  26.824  1.00  0.00     0.124 S 
ATOM    101  O   UNL A   1      49.775  29.938  26.259  1.00  0.00    -0.237 OA
ATOM    102  O   UNL A   1      49.229  28.312  28.041  1.00  0.00    -0.237 OA
ATOM    103  O   UNL A   1      48.142  28.148  25.840  1.00  0.00    -0.744 OA
ENDBRANCH  96 100
ENDBRANCH  70  93
ENDBRANCH  44  45
ENDBRANCH  36  39
ENDBRANCH  34  35
ENDBRANCH  33  34
ENDBRANCH  32  33
ENDBRANCH  31  32
ENDBRANCH   1  31
TORSDOF 22
ENDMDL
MODEL 2
REMARK VINA RESULT:     -11.3      2.265      3.047
REMARK SMILES C[C@@H]([C@H]1CC=CS1)n1nccc1NC(=O)CC1(CC(=O)NCCCCCCNC(=O)c2ccc(-c3c4nc(c(-c5cc(S(=O)(=O)[O-])ccc5F)c5ccc([nH]5)c(-c5cc(S(=O)(=O)[O-])ccc5F)c5nc(c(-c6cc(S(=O)(=O)[O-])ccc6F)c6ccc3[nH]6)C=C5)C=C4)cc2)CCCCC1
REMARK SMILES IDX 23 1 22 2 21 3 19 4 20 5 18 7 17 8 94 9 98 10 95 11 97 12
REMARK SMILES IDX 96 13 16 14 14 15 13 16 15 18 12 19 8 20 9 21 10 22 11 23
REMARK SMILES IDX 2 24 1 25 3 26 4 27 7 28 5 29 6 30 24 31 25 32 26 33 27 34
REMARK SMILES IDX 28 35 29 36 30 38 31 39 32 40 93 41 33 42 92 43 34 44 35 45
REMARK SMILES IDX 36 46 86 47 37 48 91 49 85 50 87 51 38 52 90 53 84 54 83 55
REMARK SMILES IDX 39 57 71 58 51 59 70 60 52 61 55 62 69 63 88 64 53 65 54 66
REMARK SMILES IDX 68 68 89 69 56 70 40 71 41 72 49 73 42 74 48 75 50 76 47 77
REMARK SMILES IDX 43 78 44 79 45 80 46 81 72 82 73 83 81 84 74 85 80 86 82 87
REMARK SMILES IDX 79 88 75 89 76 90 77 91 78 92 57 93 58 94 66 95 59 96 65 97
REMARK SMILES IDX 67 98 64 99 60 100 61 101 62 102 63 103
REMARK H PARENT 21 6 13 17 28 37 87 56 55 67
REMARK Flexibility Score: inf
ROOT
ATOM      1  C   UNL A   1      34.719  20.986  25.752  1.00  0.00     0.021 C 
ENDROOT
BRANCH   1   2
ATOM      2  C   UNL A   1      33.985  21.493  26.993  1.00  0.00     0.116 C 
BRANCH   2   3
ATOM      3  N   UNL A   1      32.557  21.515  26.786  1.00  0.00    -0.356 N 
ATOM      4  C   UNL A   1      31.782  22.477  26.230  1.00  0.00     0.220 C 
ATOM      5  O   UNL A   1      30.582  22.248  26.085  1.00  0.00    -0.275 OA
ATOM      6  H   UNL A   1      32.076  20.713  27.093  1.00  0.00     0.163 HD
BRANCH   4   7
ATOM      7  C   UNL A   1      32.372  23.802  25.768  1.00  0.00     0.107 C 
BRANCH   7   8
ATOM      8  C   UNL A   1      31.902  24.408  24.408  1.00  0.00    -0.012 C 
ATOM      9  C   UNL A   1      31.551  23.219  23.471  1.00  0.00     0.008 C 
ATOM     10  C   UNL A   1      32.995  25.212  23.649  1.00  0.00     0.008 C 
ATOM     11  C   UNL A   1      32.740  22.380  22.999  1.00  0.00     0.001 C 
ATOM     12  C   UNL A   1      34.203  24.398  23.187  1.00  0.00     0.001 C 
ATOM     13  C   UNL A   1      33.773  23.248  22.294  1.00  0.00     0.000 C 
BRANCH   8  14
ATOM     14  C   UNL A   1      30.714  25.410  24.601  1.00  0.00     0.108 C 
BRANCH  14  15
ATOM     15  C   UNL A   1      30.355  25.849  26.002  1.00  0.00     0.226 C 
ATOM     16  N   UNL A   1      30.933  27.004  26.611  1.00  0.00    -0.311 N 
ATOM     17  H   UNL A   1      30.459  27.347  27.403  1.00  0.00     0.171 HD
ATOM     18  O   UNL A   1      29.529  25.293  26.694  1.00  0.00    -0.275 OA
BRANCH  16  19
ATOM     19  C   UNL A   1      32.064  27.705  26.245  1.00  0.00     0.131 A 
ATOM     20  N   UNL A   1      32.105  28.954  25.660  1.00  0.00    -0.246 N 
ATOM     21  N   UNL A   1      33.331  29.269  25.192  1.00  0.00    -0.179 NA
ATOM     22  C   UNL A   1      34.114  28.309  25.686  1.00  0.00     0.137 A 
ATOM     23  C   UNL A   1      33.385  27.351  26.415  1.00  0.00     0.068 A 
BRANCH  20  24
ATOM     24  C   UNL A   1      31.040  29.954  25.520  1.00  0.00     0.120 C 
ATOM     25  C   UNL A   1      31.414  31.269  26.209  1.00  0.00     0.034 C 
BRANCH  24  26
ATOM     26  C   UNL A   1      30.559  30.049  24.060  1.00  0.00     0.079 C 
ATOM     27  C   UNL A   1      29.995  28.740  23.495  1.00  0.00     0.045 C 
ATOM     28  S   UNL A   1      29.242  31.291  23.692  1.00  0.00    -0.128 SA
ATOM     29  C   UNL A   1      29.151  29.125  22.315  1.00  0.00    -0.019 C 
ATOM     30  C   UNL A   1      28.709  30.387  22.318  1.00  0.00     0.037 C 
ENDBRANCH  24  26
ENDBRANCH  20  24
ENDBRANCH  16  19
ENDBRANCH  14  15
ENDBRANCH   8  14
ENDBRANCH   7   8
ENDBRANCH   4   7
ENDBRANCH   2   3
ENDBRANCH   1   2
BRANCH   1  31
ATOM     31  C   UNL A   1      35.919  21.838  25.356  1.00  0.00     0.002 C 
BRANCH  31  32
ATOM     32  C   UNL A   1      36.791  21.236  24.247  1.00  0.00     0.002 C 
BRANCH  32  33
ATOM     33  C   UNL A   1      37.693  20.062  24.663  1.00  0.00     0.021 C 
BRANCH  33  34
ATOM     34  C   UNL A   1      38.660  20.410  25.788  1.00  0.00     0.116 C 
BRANCH  34  35
ATOM     35  N   UNL A   1      39.755  19.450  25.850  1.00  0.00    -0.352 N 
ATOM     36  C   UNL A   1      41.096  19.662  26.060  1.00  0.00     0.251 C 
ATOM     37  H   UNL A   1      39.495  18.510  25.720  1.00  0.00     0.163 HD
ATOM     38  O   UNL A   1      41.901  18.793  25.736  1.00  0.00    -0.269 OA
BRANCH  36  39
ATOM     39  C   UNL A   1      41.559  20.924  26.661  1.00  0.00     0.039 A 
ATOM     40  C   UNL A   1      42.122  21.915  25.849  1.00  0.00     0.014 A 
ATOM     41  C   UNL A   1      41.459  21.110  28.040  1.00  0.00     0.014 A 
ATOM     42  C   UNL A   1      42.514  23.120  26.423  1.00  0.00     0.010 A 
ATOM     43  C   UNL A   1      41.759  22.335  28.594  1.00  0.00     0.010 A 
ATOM     44  C   UNL A   1      42.313  23.332  27.796  1.00  0.00    -0.014 A 
BRANCH  44  45
ATOM     45  C   UNL A   1      42.483  24.667  28.365  1.00  0.00     0.031 A 
ATOM     46  C   UNL A   1      41.321  25.560  28.120  1.00  0.00     0.074 A 
ATOM     47  C   UNL A   1      43.450  24.992  29.249  1.00  0.00     0.049 A 
ATOM     48  N   UNL A   1      41.256  26.574  27.326  1.00  0.00    -0.248 NA
ATOM     49  C   UNL A   1      40.013  25.157  28.669  1.00  0.00     0.031 C 
ATOM     50  C   UNL A   1      44.473  24.104  29.808  1.00  0.00     0.029 A 
ATOM     51  N   UNL A   1      43.650  26.153  29.937  1.00  0.00    -0.354 N 
ATOM     52  C   UNL A   1      39.990  27.117  27.523  1.00  0.00     0.074 A 
ATOM     53  C   UNL A   1      39.210  26.062  28.108  1.00  0.00     0.031 C 
ATOM     54  C   UNL A   1      45.019  24.680  30.901  1.00  0.00     0.029 A 
ATOM     55  C   UNL A   1      44.494  26.028  31.041  1.00  0.00     0.049 A 
ATOM     56  H   UNL A   1      43.233  27.006  29.678  1.00  0.00     0.167 HD
ATOM     57  C   UNL A   1      39.804  28.467  27.510  1.00  0.00     0.034 A 
ATOM     58  C   UNL A   1      44.719  26.943  32.026  1.00  0.00     0.034 A 
ATOM     59  C   UNL A   1      40.942  29.133  26.895  1.00  0.00     0.049 A 
ATOM     60  C   UNL A   1      44.351  28.268  31.471  1.00  0.00     0.074 A 
ATOM     61  C   UNL A   1      41.618  28.987  25.695  1.00  0.00     0.029 A 
ATOM     62  N   UNL A   1      41.800  29.851  27.703  1.00  0.00    -0.354 N 
ATOM     63  N   UNL A   1      44.995  28.833  30.488  1.00  0.00    -0.248 NA
ATOM     64  C   UNL A   1      42.991  28.746  31.671  1.00  0.00     0.031 C 
ATOM     65  C   UNL A   1      42.998  29.152  26.026  1.00  0.00     0.029 A 
ATOM     66  C   UNL A   1      43.083  29.494  27.375  1.00  0.00     0.049 A 
ATOM     67  H   UNL A   1      41.539  30.503  28.392  1.00  0.00     0.167 HD
ATOM     68  C   UNL A   1      44.007  29.373  29.679  1.00  0.00     0.074 A 
ATOM     69  C   UNL A   1      42.808  29.391  30.515  1.00  0.00     0.031 C 
ATOM     70  C   UNL A   1      44.180  29.473  28.326  1.00  0.00     0.034 A 
BRANCH  57  71
ATOM     71  C   UNL A   1      38.856  29.208  28.448  1.00  0.00     0.023 A 
ATOM     72  C   UNL A   1      39.199  29.183  29.812  1.00  0.00     0.031 A 
ATOM     73  C   UNL A   1      37.532  29.617  28.167  1.00  0.00     0.131 A 
ATOM     74  C   UNL A   1      38.217  29.323  30.805  1.00  0.00     0.055 A 
ATOM     75  C   UNL A   1      36.576  29.838  29.165  1.00  0.00     0.041 A 
ATOM     76  F   UNL A   1      37.051  29.766  26.930  1.00  0.00    -0.206 F 
ATOM     77  C   UNL A   1      36.901  29.638  30.493  1.00  0.00     0.022 A 
BRANCH  74  78
ATOM     78  S   UNL A   1      38.659  28.831  32.488  1.00  0.00     0.124 S 
ATOM     79  O   UNL A   1      39.703  27.849  32.217  1.00  0.00    -0.237 OA
ATOM     80  O   UNL A   1      39.094  30.098  33.063  1.00  0.00    -0.237 OA
ATOM     81  O   UNL A   1      37.408  28.295  33.019  1.00  0.00    -0.744 OA
ENDBRANCH  74  78
ENDBRANCH  57  71
BRANCH  58  82
ATOM     82  C   UNL A   1      44.974  26.693  33.476  1.00  0.00     0.023 A 
ATOM     83  C   UNL A   1      43.941  26.486  34.418  1.00  0.00     0.031 A 
ATOM     84  C   UNL A   1      46.288  26.411  33.917  1.00  0.00     0.131 A 
ATOM     85  C   UNL A   1      44.243  26.020  35.723  1.00  0.00     0.055 A 
ATOM     86  C   UNL A   1      46.581  25.960  35.206  1.00  0.00     0.041 A 
ATOM     87  F   UNL A   1      47.336  26.475  33.080  1.00  0.00    -0.206 F 
ATOM     88  C   UNL A   1      45.557  25.752  36.113  1.00  0.00     0.022 A 
BRANCH  85  89
ATOM     89  S   UNL A   1      42.915  25.646  36.920  1.00  0.00     0.124 S 
ATOM     90  O   UNL A   1      43.592  24.774  37.871  1.00  0.00    -0.237 OA
ATOM     91  O   UNL A   1      42.541  26.971  37.397  1.00  0.00    -0.237 OA
ATOM     92  O   UNL A   1      41.898  24.986  36.099  1.00  0.00    -0.744 OA
ENDBRANCH  85  89
ENDBRANCH  58  82
BRANCH  70  93
ATOM     93  C   UNL A   1      45.581  29.352  27.761  1.00  0.00     0.023 A 
ATOM     94  C   UNL A   1      46.164  28.163  27.269  1.00  0.00     0.031 A 
ATOM     95  C   UNL A   1      46.324  30.540  27.638  1.00  0.00     0.131 A 
ATOM     96  C   UNL A   1      47.454  28.193  26.702  1.00  0.00     0.055 A 
ATOM     97  C   UNL A   1      47.590  30.570  27.056  1.00  0.00     0.041 A 
ATOM     98  F   UNL A   1      45.817  31.709  28.060  1.00  0.00    -0.206 F 
ATOM     99  C   UNL A   1      48.164  29.392  26.592  1.00  0.00     0.022 A 
BRANCH  96 100
ATOM    100  S   UNL A   1      48.250  26.660  26.119  1.00  0.00     0.124 S 
ATOM    101  O   UNL A   1      49.581  26.716  26.713  1.00  0.00    -0.237 OA
ATOM    102  O   UNL A   1      47.362  25.626  26.642  1.00  0.00    -0.237 OA
ATOM    103  O   UNL A   1      48.227  26.800  24.661  1.00  0.00    -0.744 OA
ENDBRANCH  96 100
ENDBRANCH  70  93
ENDBRANCH  44  45
ENDBRANCH  36  39
ENDBRANCH  34  35
ENDBRANCH  33  34
ENDBRANCH  32  33
ENDBRANCH  31  32
ENDBRANCH   1  31
TORSDOF 22
ENDMDL
MODEL 3
REMARK VINA RESULT:     -11.2      1.910      2.449
REMARK SMILES C[C@@H]([C@H]1CC=CS1)n1nccc1NC(=O)CC1(CC(=O)NCCCCCCNC(=O)c2ccc(-c3c4nc(c(-c5cc(S(=O)(=O)[O-])ccc5F)c5ccc([nH]5)c(-c5cc(S(=O)(=O)[O-])ccc5F)c5nc(c(-c6cc(S(=O)(=O)[O-])ccc6F)c6ccc3[nH]6)C=C5)C=C4)cc2)CCCCC1
REMARK SMILES IDX 23 1 22 2 21 3 19 4 20 5 18 7 17 8 94 9 98 10 95 11 97 12
REMARK SMILES IDX 96 13 16 14 14 15 13 16 15 18 12 19 8 20 9 21 10 22 11 23
REMARK SMILES IDX 2 24 1 25 3 26 4 27 7 28 5 29 6 30 24 31 25 32 26 33 27 34
REMARK SMILES IDX 28 35 29 36 30 38 31 39 32 40 93 41 33 42 92 43 34 44 35 45
REMARK SMILES IDX 36 46 86 47 37 48 91 49 85 50 87 51 38 52 90 53 84 54 83 55
REMARK SMILES IDX 39 57 71 58 51 59 70 60 52 61 55 62 69 63 88 64 53 65 54 66
REMARK SMILES IDX 68 68 89 69 56 70 40 71 41 72 49 73 42 74 48 75 50 76 47 77
REMARK SMILES IDX 43 78 44 79 45 80 46 81 72 82 73 83 81 84 74 85 80 86 82 87
REMARK SMILES IDX 79 88 75 89 76 90 77 91 78 92 57 93 58 94 66 95 59 96 65 97
REMARK SMILES IDX 67 98 64 99 60 100 61 101 62 102 63 103
REMARK H PARENT 21 6 13 17 28 37 87 56 55 67
REMARK Flexibility Score: inf
ROOT
ATOM      1  C   UNL A   1      37.200  21.343  24.646  1.00  0.00     0.021 C 
ENDROOT
BRANCH   1   2
ATOM      2  C   UNL A   1      35.846  20.813  25.118  1.00  0.00     0.116 C 
BRANCH   2   3
ATOM      3  N   UNL A   1      35.479  21.373  26.397  1.00  0.00    -0.356 N 
ATOM      4  C   UNL A   1      34.299  21.901  26.799  1.00  0.00     0.220 C 
ATOM      5  O   UNL A   1      34.187  22.255  27.973  1.00  0.00    -0.275 OA
ATOM      6  H   UNL A   1      36.192  21.370  27.076  1.00  0.00     0.163 HD
BRANCH   4   7
ATOM      7  C   UNL A   1      33.123  22.036  25.843  1.00  0.00     0.107 C 
BRANCH   7   8
ATOM      8  C   UNL A   1      32.736  23.451  25.309  1.00  0.00    -0.012 C 
ATOM      9  C   UNL A   1      31.679  23.247  24.187  1.00  0.00     0.008 C 
ATOM     10  C   UNL A   1      33.901  24.224  24.630  1.00  0.00     0.008 C 
ATOM     11  C   UNL A   1      32.200  22.604  22.901  1.00  0.00     0.001 C 
ATOM     12  C   UNL A   1      34.453  23.588  23.354  1.00  0.00     0.001 C 
ATOM     13  C   UNL A   1      33.356  23.406  22.320  1.00  0.00     0.000 C 
BRANCH   8  14
ATOM     14  C   UNL A   1      32.238  24.388  26.461  1.00  0.00     0.108 C 
BRANCH  14  15
ATOM     15  C   UNL A   1      30.961  25.171  26.259  1.00  0.00     0.226 C 
ATOM     16  N   UNL A   1      30.941  26.444  25.613  1.00  0.00    -0.311 N 
ATOM     17  H   UNL A   1      30.057  26.750  25.305  1.00  0.00     0.171 HD
ATOM     18  O   UNL A   1      29.863  24.770  26.583  1.00  0.00    -0.275 OA
BRANCH  16  19
ATOM     19  C   UNL A   1      31.989  27.306  25.360  1.00  0.00     0.131 A 
ATOM     20  N   UNL A   1      32.315  27.870  24.143  1.00  0.00    -0.246 N 
ATOM     21  N   UNL A   1      33.527  28.465  24.155  1.00  0.00    -0.179 NA
ATOM     22  C   UNL A   1      33.865  28.469  25.444  1.00  0.00     0.137 A 
ATOM     23  C   UNL A   1      32.904  27.828  26.248  1.00  0.00     0.068 A 
BRANCH  20  24
ATOM     24  C   UNL A   1      31.532  27.936  22.905  1.00  0.00     0.120 C 
ATOM     25  C   UNL A   1      31.322  26.544  22.302  1.00  0.00     0.034 C 
BRANCH  24  26
ATOM     26  C   UNL A   1      30.276  28.807  23.089  1.00  0.00     0.079 C 
ATOM     27  C   UNL A   1      30.020  29.797  21.946  1.00  0.00     0.045 C 
ATOM     28  S   UNL A   1      28.664  27.925  23.276  1.00  0.00    -0.128 SA
ATOM     29  C   UNL A   1      28.570  30.172  22.035  1.00  0.00    -0.019 C 
ATOM     30  C   UNL A   1      27.793  29.293  22.677  1.00  0.00     0.037 C 
ENDBRANCH  24  26
ENDBRANCH  20  24
ENDBRANCH  16  19
ENDBRANCH  14  15
ENDBRANCH   8  14
ENDBRANCH   7   8
ENDBRANCH   4   7
ENDBRANCH   2   3
ENDBRANCH   1   2
BRANCH   1  31
ATOM     31  C   UNL A   1      37.936  22.169  25.694  1.00  0.00     0.002 C 
BRANCH  31  32
ATOM     32  C   UNL A   1      39.291  21.593  26.124  1.00  0.00     0.002 C 
BRANCH  32  33
ATOM     33  C   UNL A   1      39.620  20.185  25.602  1.00  0.00     0.021 C 
BRANCH  33  34
ATOM     34  C   UNL A   1      40.606  19.426  26.482  1.00  0.00     0.116 C 
BRANCH  34  35
ATOM     35  N   UNL A   1      41.868  19.212  25.786  1.00  0.00    -0.352 N 
ATOM     36  C   UNL A   1      42.895  20.091  25.541  1.00  0.00     0.251 C 
ATOM     37  H   UNL A   1      42.004  18.302  25.439  1.00  0.00     0.163 HD
ATOM     38  O   UNL A   1      43.707  19.837  24.656  1.00  0.00    -0.269 OA
BRANCH  36  39
ATOM     39  C   UNL A   1      43.012  21.329  26.331  1.00  0.00     0.039 A 
ATOM     40  C   UNL A   1      43.278  22.542  25.687  1.00  0.00     0.014 A 
ATOM     41  C   UNL A   1      42.886  21.277  27.719  1.00  0.00     0.014 A 
ATOM     42  C   UNL A   1      43.341  23.710  26.439  1.00  0.00     0.010 A 
ATOM     43  C   UNL A   1      42.855  22.442  28.453  1.00  0.00     0.010 A 
ATOM     44  C   UNL A   1      43.110  23.657  27.823  1.00  0.00    -0.014 A 
BRANCH  44  45
ATOM     45  C   UNL A   1      42.925  24.890  28.584  1.00  0.00     0.031 A 
ATOM     46  C   UNL A   1      41.604  25.529  28.351  1.00  0.00     0.074 A 
ATOM     47  C   UNL A   1      43.729  25.280  29.595  1.00  0.00     0.049 A 
ATOM     48  N   UNL A   1      41.354  26.615  27.700  1.00  0.00    -0.248 NA
ATOM     49  C   UNL A   1      40.395  24.764  28.707  1.00  0.00     0.031 C 
ATOM     50  C   UNL A   1      44.894  24.566  30.126  1.00  0.00     0.029 A 
ATOM     51  N   UNL A   1      43.606  26.334  30.453  1.00  0.00    -0.354 N 
ATOM     52  C   UNL A   1      39.986  26.825  27.843  1.00  0.00     0.074 A 
ATOM     53  C   UNL A   1      39.440  25.545  28.198  1.00  0.00     0.031 C 
ATOM     54  C   UNL A   1      45.218  25.070  31.336  1.00  0.00     0.029 A 
ATOM     55  C   UNL A   1      44.383  26.228  31.607  1.00  0.00     0.049 A 
ATOM     56  H   UNL A   1      43.019  27.102  30.273  1.00  0.00     0.167 HD
ATOM     57  C   UNL A   1      39.489  28.084  27.999  1.00  0.00     0.034 A 
ATOM     58  C   UNL A   1      44.322  27.005  32.726  1.00  0.00     0.034 A 
ATOM     59  C   UNL A   1      40.477  29.075  27.596  1.00  0.00     0.049 A 
ATOM     60  C   UNL A   1      43.690  28.285  32.325  1.00  0.00     0.074 A 
ATOM     61  C   UNL A   1      41.244  29.273  26.461  1.00  0.00     0.029 A 
ATOM     62  N   UNL A   1      41.088  29.830  28.576  1.00  0.00    -0.354 N 
ATOM     63  N   UNL A   1      44.246  29.125  31.497  1.00  0.00    -0.248 NA
ATOM     64  C   UNL A   1      42.246  28.411  32.453  1.00  0.00     0.031 C 
ATOM     65  C   UNL A   1      42.522  29.686  26.946  1.00  0.00     0.029 A 
ATOM     66  C   UNL A   1      42.438  29.824  28.331  1.00  0.00     0.049 A 
ATOM     67  H   UNL A   1      40.637  30.292  29.319  1.00  0.00     0.167 HD
ATOM     68  C   UNL A   1      43.214  29.552  30.676  1.00  0.00     0.074 A 
ATOM     69  C   UNL A   1      41.992  29.172  31.384  1.00  0.00     0.031 C 
ATOM     70  C   UNL A   1      43.445  29.899  29.373  1.00  0.00     0.034 A 
BRANCH  57  71
ATOM     71  C   UNL A   1      38.335  28.439  28.931  1.00  0.00     0.023 A 
ATOM     72  C   UNL A   1      37.402  29.363  28.427  1.00  0.00     0.031 A 
ATOM     73  C   UNL A   1      38.273  28.220  30.327  1.00  0.00     0.131 A 
ATOM     74  C   UNL A   1      36.646  30.168  29.294  1.00  0.00     0.055 A 
ATOM     75  C   UNL A   1      37.454  28.969  31.179  1.00  0.00     0.041 A 
ATOM     76  F   UNL A   1      39.033  27.329  30.969  1.00  0.00    -0.206 F 
ATOM     77  C   UNL A   1      36.673  29.988  30.670  1.00  0.00     0.022 A 
BRANCH  74  78
ATOM     78  S   UNL A   1      35.828  31.616  28.582  1.00  0.00     0.124 S 
ATOM     79  O   UNL A   1      36.977  32.479  28.331  1.00  0.00    -0.237 OA
ATOM     80  O   UNL A   1      35.178  31.043  27.409  1.00  0.00    -0.237 OA
ATOM     81  O   UNL A   1      34.930  32.051  29.649  1.00  0.00    -0.744 OA
ENDBRANCH  74  78
ENDBRANCH  57  71
BRANCH  58  82
ATOM     82  C   UNL A   1      44.535  26.594  34.146  1.00  0.00     0.023 A 
ATOM     83  C   UNL A   1      45.665  26.983  34.902  1.00  0.00     0.031 A 
ATOM     84  C   UNL A   1      43.477  25.992  34.867  1.00  0.00     0.131 A 
ATOM     85  C   UNL A   1      45.700  26.766  36.303  1.00  0.00     0.055 A 
ATOM     86  C   UNL A   1      43.521  25.774  36.246  1.00  0.00     0.041 A 
ATOM     87  F   UNL A   1      42.317  25.675  34.271  1.00  0.00    -0.206 F 
ATOM     88  C   UNL A   1      44.629  26.170  36.973  1.00  0.00     0.022 A 
BRANCH  85  89
ATOM     89  S   UNL A   1      47.103  27.356  37.312  1.00  0.00     0.124 S 
ATOM     90  O   UNL A   1      46.691  26.988  38.660  1.00  0.00    -0.237 OA
ATOM     91  O   UNL A   1      48.227  26.620  36.746  1.00  0.00    -0.237 OA
ATOM     92  O   UNL A   1      47.124  28.796  37.049  1.00  0.00    -0.744 OA
ENDBRANCH  85  89
ENDBRANCH  58  82
BRANCH  70  93
ATOM     93  C   UNL A   1      44.868  30.182  28.939  1.00  0.00     0.023 A 
ATOM     94  C   UNL A   1      45.757  29.236  28.381  1.00  0.00     0.031 A 
ATOM     95  C   UNL A   1      45.306  31.517  29.018  1.00  0.00     0.131 A 
ATOM     96  C   UNL A   1      47.037  29.639  27.949  1.00  0.00     0.055 A 
ATOM     97  C   UNL A   1      46.563  31.917  28.569  1.00  0.00     0.041 A 
ATOM     98  F   UNL A   1      44.500  32.471  29.512  1.00  0.00    -0.206 F 
ATOM     99  C   UNL A   1      47.438  30.976  28.040  1.00  0.00     0.022 A 
BRANCH  96 100
ATOM    100  S   UNL A   1      48.221  28.423  27.286  1.00  0.00     0.124 S 
ATOM    101  O   UNL A   1      47.529  27.149  27.440  1.00  0.00    -0.237 OA
ATOM    102  O   UNL A   1      48.409  28.885  25.913  1.00  0.00    -0.237 OA
ATOM    103  O   UNL A   1      49.394  28.588  28.148  1.00  0.00    -0.744 OA
ENDBRANCH  96 100
ENDBRANCH  70  93
ENDBRANCH  44  45
ENDBRANCH  36  39
ENDBRANCH  34  35
ENDBRANCH  33  34
ENDBRANCH  32  33
ENDBRANCH  31  32
ENDBRANCH   1  31
TORSDOF 22
ENDMDL
