MODEL 1
REMARK VINA RESULT:     -11.2      0.000      0.000
REMARK SMILES COc1cccc(NC(=O)COc2csc(C(=O)NCCCCCCNC(=O)c3ccc(-c4c5nc(c(-c6cc(S(=O)(=O)[O-])ccc6F)c6ccc([nH]6)c(-c6cc(S(=O)(=O)[O-])ccc6F)c6nc(c(-c7cc(S(=O)(=O)[O-])ccc7F)c7ccc4[nH]7)C=C6)C=C5)cc3)c2)c1
REMARK SMILES IDX 21 1 20 2 19 3 17 4 18 5 16 7 13 8 14 9 92 10 15 11 12 12
REMARK SMILES IDX 11 13 9 14 8 15 10 17 7 18 3 19 4 20 93 21 5 22 6 23 2 24
REMARK SMILES IDX 1 25 22 26 23 27 24 28 25 29 26 30 27 31 28 33 29 34 30 35
REMARK SMILES IDX 91 36 31 37 90 38 32 39 33 40 34 41 84 42 35 43 89 44 83 45
REMARK SMILES IDX 85 46 36 47 88 48 82 49 81 50 37 52 69 53 49 54 68 55 50 56
REMARK SMILES IDX 53 57 67 58 86 59 51 60 52 61 66 63 87 64 54 65 38 66 39 67
REMARK SMILES IDX 47 68 40 69 46 70 48 71 45 72 41 73 42 74 43 75 44 76 70 77
REMARK SMILES IDX 71 78 79 79 72 80 78 81 80 82 77 83 73 84 74 85 75 86 76 87
REMARK SMILES IDX 55 88 56 89 64 90 57 91 63 92 65 93 62 94 58 95 59 96 60 97
REMARK SMILES IDX 61 98
REMARK H PARENT 19 6 8 16 26 32 85 51 53 62
REMARK Flexibility Score: inf
ROOT
ATOM      1  C   UNL A   1      30.559  28.350  24.188  1.00  0.00     0.021 C 
ENDROOT
BRANCH   1   2
ATOM      2  C   UNL A   1      30.873  27.840  22.781  1.00  0.00     0.116 C 
BRANCH   2   3
ATOM      3  N   UNL A   1      32.201  28.249  22.373  1.00  0.00    -0.351 N 
ATOM      4  C   UNL A   1      33.398  27.575  22.321  1.00  0.00     0.261 C 
ATOM      5  O   UNL A   1      34.347  28.231  21.882  1.00  0.00    -0.268 OA
ATOM      6  H   UNL A   1      32.258  29.187  22.079  1.00  0.00     0.163 HD
BRANCH   4   7
ATOM      7  C   UNL A   1      33.508  26.178  22.723  1.00  0.00     0.096 A 
ATOM      8  C   UNL A   1      33.803  24.163  23.890  1.00  0.00     0.131 A 
ATOM      9  C   UNL A   1      33.214  23.706  22.738  1.00  0.00     0.112 A 
ATOM     10  C   UNL A   1      34.039  25.566  23.844  1.00  0.00     0.072 A 
ATOM     11  S   UNL A   1      32.900  24.980  21.639  1.00  0.00    -0.135 S 
BRANCH   8  12
ATOM     12  O   UNL A   1      34.071  23.458  25.015  1.00  0.00    -0.483 OA
BRANCH  12  13
ATOM     13  C   UNL A   1      32.969  23.022  25.778  1.00  0.00     0.329 C 
BRANCH  13  14
ATOM     14  C   UNL A   1      33.115  21.899  26.806  1.00  0.00     0.262 C 
ATOM     15  N   UNL A   1      33.079  20.573  26.504  1.00  0.00    -0.323 N 
ATOM     16  H   UNL A   1      33.249  20.005  27.290  1.00  0.00     0.170 HD
ATOM     17  O   UNL A   1      33.293  22.187  27.999  1.00  0.00    -0.271 OA
BRANCH  15  18
ATOM     18  C   UNL A   1      32.857  19.822  25.338  1.00  0.00     0.044 A 
ATOM     19  C   UNL A   1      32.836  17.579  24.376  1.00  0.00     0.120 A 
ATOM     20  C   UNL A   1      32.536  18.114  23.130  1.00  0.00     0.046 A 
ATOM     21  C   UNL A   1      33.007  18.430  25.470  1.00  0.00     0.072 A 
ATOM     22  C   UNL A   1      32.346  19.488  22.993  1.00  0.00     0.006 A 
ATOM     23  C   UNL A   1      32.491  20.338  24.097  1.00  0.00     0.026 A 
BRANCH  19  24
ATOM     24  O   UNL A   1      33.007  16.221  24.425  1.00  0.00    -0.497 OA
ATOM     25  C   UNL A   1      34.046  15.793  25.300  1.00  0.00     0.278 C 
ENDBRANCH  19  24
ENDBRANCH  15  18
ENDBRANCH  13  14
ENDBRANCH  12  13
ENDBRANCH   8  12
ENDBRANCH   4   7
ENDBRANCH   2   3
ENDBRANCH   1   2
BRANCH   1  26
ATOM     26  C   UNL A   1      31.063  27.415  25.297  1.00  0.00     0.002 C 
BRANCH  26  27
ATOM     27  C   UNL A   1      31.641  28.126  26.529  1.00  0.00     0.002 C 
BRANCH  27  28
ATOM     28  C   UNL A   1      33.147  27.940  26.736  1.00  0.00     0.021 C 
BRANCH  28  29
ATOM     29  C   UNL A   1      34.014  28.899  25.926  1.00  0.00     0.116 C 
BRANCH  29  30
ATOM     30  N   UNL A   1      33.881  30.266  26.400  1.00  0.00    -0.352 N 
ATOM     31  C   UNL A   1      34.568  30.910  27.398  1.00  0.00     0.251 C 
ATOM     32  H   UNL A   1      33.201  30.808  25.938  1.00  0.00     0.163 HD
ATOM     33  O   UNL A   1      34.146  31.977  27.832  1.00  0.00    -0.269 OA
BRANCH  31  34
ATOM     34  C   UNL A   1      35.803  30.313  27.952  1.00  0.00     0.039 A 
ATOM     35  C   UNL A   1      35.742  29.642  29.175  1.00  0.00     0.014 A 
ATOM     36  C   UNL A   1      37.027  30.453  27.289  1.00  0.00     0.014 A 
ATOM     37  C   UNL A   1      36.902  29.083  29.718  1.00  0.00     0.010 A 
ATOM     38  C   UNL A   1      38.166  29.832  27.793  1.00  0.00     0.010 A 
ATOM     39  C   UNL A   1      38.120  29.161  29.025  1.00  0.00    -0.014 A 
BRANCH  39  40
ATOM     40  C   UNL A   1      39.370  28.599  29.601  1.00  0.00     0.031 A 
ATOM     41  C   UNL A   1      39.967  29.218  30.836  1.00  0.00     0.074 A 
ATOM     42  C   UNL A   1      39.989  27.572  28.989  1.00  0.00     0.049 A 
ATOM     43  N   UNL A   1      41.081  28.926  31.457  1.00  0.00    -0.248 NA
ATOM     44  C   UNL A   1      39.227  30.342  31.429  1.00  0.00     0.031 C 
ATOM     45  C   UNL A   1      39.527  26.917  27.763  1.00  0.00     0.029 A 
ATOM     46  N   UNL A   1      41.143  26.904  29.308  1.00  0.00    -0.354 N 
ATOM     47  C   UNL A   1      41.185  29.841  32.501  1.00  0.00     0.074 A 
ATOM     48  C   UNL A   1      40.057  30.740  32.380  1.00  0.00     0.031 C 
ATOM     49  C   UNL A   1      40.377  25.926  27.448  1.00  0.00     0.029 A 
ATOM     50  C   UNL A   1      41.463  25.899  28.423  1.00  0.00     0.049 A 
ATOM     51  H   UNL A   1      41.691  27.121  30.095  1.00  0.00     0.167 HD
ATOM     52  C   UNL A   1      42.119  29.909  33.483  1.00  0.00     0.034 A 
ATOM     53  C   UNL A   1      42.515  25.058  28.400  1.00  0.00     0.034 A 
ATOM     54  C   UNL A   1      43.228  28.992  33.591  1.00  0.00     0.049 A 
ATOM     55  C   UNL A   1      43.541  25.146  29.500  1.00  0.00     0.074 A 
ATOM     56  C   UNL A   1      44.209  28.934  34.566  1.00  0.00     0.029 A 
ATOM     57  N   UNL A   1      43.507  27.970  32.691  1.00  0.00    -0.354 N 
ATOM     58  N   UNL A   1      43.604  25.988  30.507  1.00  0.00    -0.248 NA
ATOM     59  C   UNL A   1      44.626  24.158  29.473  1.00  0.00     0.031 C 
ATOM     60  C   UNL A   1      45.114  27.924  34.220  1.00  0.00     0.029 A 
ATOM     61  C   UNL A   1      44.654  27.294  33.074  1.00  0.00     0.049 A 
ATOM     62  H   UNL A   1      42.966  27.758  31.895  1.00  0.00     0.167 HD
ATOM     63  C   UNL A   1      44.714  25.603  31.255  1.00  0.00     0.074 A 
ATOM     64  C   UNL A   1      45.282  24.449  30.585  1.00  0.00     0.031 C 
ATOM     65  C   UNL A   1      45.214  26.147  32.394  1.00  0.00     0.034 A 
BRANCH  52  66
ATOM     66  C   UNL A   1      41.986  31.032  34.488  1.00  0.00     0.023 A 
ATOM     67  C   UNL A   1      42.677  32.248  34.335  1.00  0.00     0.031 A 
ATOM     68  C   UNL A   1      41.201  30.867  35.643  1.00  0.00     0.131 A 
ATOM     69  C   UNL A   1      42.651  33.205  35.360  1.00  0.00     0.055 A 
ATOM     70  C   UNL A   1      41.103  31.864  36.617  1.00  0.00     0.041 A 
ATOM     71  F   UNL A   1      40.534  29.723  35.860  1.00  0.00    -0.206 F 
ATOM     72  C   UNL A   1      41.846  33.034  36.489  1.00  0.00     0.022 A 
BRANCH  69  73
ATOM     73  S   UNL A   1      43.820  34.590  35.279  1.00  0.00     0.124 S 
ATOM     74  O   UNL A   1      43.111  35.521  34.405  1.00  0.00    -0.237 OA
ATOM     75  O   UNL A   1      43.936  34.987  36.677  1.00  0.00    -0.237 OA
ATOM     76  O   UNL A   1      45.020  33.992  34.697  1.00  0.00    -0.744 OA
ENDBRANCH  69  73
ENDBRANCH  52  66
BRANCH  53  77
ATOM     77  C   UNL A   1      42.650  24.055  27.305  1.00  0.00     0.023 A 
ATOM     78  C   UNL A   1      41.987  22.819  27.369  1.00  0.00     0.031 A 
ATOM     79  C   UNL A   1      43.466  24.310  26.189  1.00  0.00     0.131 A 
ATOM     80  C   UNL A   1      42.185  21.866  26.357  1.00  0.00     0.055 A 
ATOM     81  C   UNL A   1      43.620  23.378  25.160  1.00  0.00     0.041 A 
ATOM     82  F   UNL A   1      44.114  25.480  26.074  1.00  0.00    -0.206 F 
ATOM     83  C   UNL A   1      42.986  22.142  25.248  1.00  0.00     0.022 A 
BRANCH  80  84
ATOM     84  S   UNL A   1      41.433  20.227  26.550  1.00  0.00     0.124 S 
ATOM     85  O   UNL A   1      41.939  19.527  25.376  1.00  0.00    -0.237 OA
ATOM     86  O   UNL A   1      41.970  19.797  27.836  1.00  0.00    -0.237 OA
ATOM     87  O   UNL A   1      39.999  20.508  26.540  1.00  0.00    -0.744 OA
ENDBRANCH  80  84
ENDBRANCH  53  77
BRANCH  65  88
ATOM     88  C   UNL A   1      46.404  25.458  33.019  1.00  0.00     0.023 A 
ATOM     89  C   UNL A   1      46.260  24.344  33.865  1.00  0.00     0.031 A 
ATOM     90  C   UNL A   1      47.702  25.942  32.779  1.00  0.00     0.131 A 
ATOM     91  C   UNL A   1      47.388  23.792  34.491  1.00  0.00     0.055 A 
ATOM     92  C   UNL A   1      48.826  25.347  33.352  1.00  0.00     0.041 A 
ATOM     93  F   UNL A   1      47.899  27.004  31.981  1.00  0.00    -0.206 F 
ATOM     94  C   UNL A   1      48.671  24.276  34.226  1.00  0.00     0.022 A 
BRANCH  91  95
ATOM     95  S   UNL A   1      47.145  22.502  35.743  1.00  0.00     0.124 S 
ATOM     96  O   UNL A   1      48.385  22.586  36.510  1.00  0.00    -0.237 OA
ATOM     97  O   UNL A   1      45.941  22.957  36.430  1.00  0.00    -0.237 OA
ATOM     98  O   UNL A   1      46.986  21.283  34.953  1.00  0.00    -0.744 OA
ENDBRANCH  91  95
ENDBRANCH  65  88
ENDBRANCH  39  40
ENDBRANCH  31  34
ENDBRANCH  29  30
ENDBRANCH  28  29
ENDBRANCH  27  28
ENDBRANCH  26  27
ENDBRANCH   1  26
TORSDOF 21
ENDMDL
MODEL 2
REMARK VINA RESULT:     -11.2      1.846      2.118
REMARK SMILES COc1cccc(NC(=O)COc2csc(C(=O)NCCCCCCNC(=O)c3ccc(-c4c5nc(c(-c6cc(S(=O)(=O)[O-])ccc6F)c6ccc([nH]6)c(-c6cc(S(=O)(=O)[O-])ccc6F)c6nc(c(-c7cc(S(=O)(=O)[O-])ccc7F)c7ccc4[nH]7)C=C6)C=C5)cc3)c2)c1
REMARK SMILES IDX 21 1 20 2 19 3 17 4 18 5 16 7 13 8 14 9 92 10 15 11 12 12
REMARK SMILES IDX 11 13 9 14 8 15 10 17 7 18 3 19 4 20 93 21 5 22 6 23 2 24
REMARK SMILES IDX 1 25 22 26 23 27 24 28 25 29 26 30 27 31 28 33 29 34 30 35
REMARK SMILES IDX 91 36 31 37 90 38 32 39 33 40 34 41 84 42 35 43 89 44 83 45
REMARK SMILES IDX 85 46 36 47 88 48 82 49 81 50 37 52 69 53 49 54 68 55 50 56
REMARK SMILES IDX 53 57 67 58 86 59 51 60 52 61 66 63 87 64 54 65 38 66 39 67
REMARK SMILES IDX 47 68 40 69 46 70 48 71 45 72 41 73 42 74 43 75 44 76 70 77
REMARK SMILES IDX 71 78 79 79 72 80 78 81 80 82 77 83 73 84 74 85 75 86 76 87
REMARK SMILES IDX 55 88 56 89 64 90 57 91 63 92 65 93 62 94 58 95 59 96 60 97
REMARK SMILES IDX 61 98
REMARK H PARENT 19 6 8 16 26 32 85 51 53 62
REMARK Flexibility Score: inf
ROOT
ATOM      1  C   UNL A   1      30.583  28.368  24.106  1.00  0.00     0.021 C 
ENDROOT
BRANCH   1   2
ATOM      2  C   UNL A   1      30.870  27.929  22.669  1.00  0.00     0.116 C 
BRANCH   2   3
ATOM      3  N   UNL A   1      32.205  28.324  22.270  1.00  0.00    -0.351 N 
ATOM      4  C   UNL A   1      33.391  27.631  22.208  1.00  0.00     0.261 C 
ATOM      5  O   UNL A   1      34.351  28.280  21.782  1.00  0.00    -0.268 OA
ATOM      6  H   UNL A   1      32.277  29.266  21.993  1.00  0.00     0.163 HD
BRANCH   4   7
ATOM      7  C   UNL A   1      33.478  26.226  22.585  1.00  0.00     0.096 A 
ATOM      8  C   UNL A   1      33.737  24.186  23.716  1.00  0.00     0.131 A 
ATOM      9  C   UNL A   1      33.146  23.759  22.554  1.00  0.00     0.112 A 
ATOM     10  C   UNL A   1      33.995  25.586  23.696  1.00  0.00     0.072 A 
ATOM     11  S   UNL A   1      32.855  25.058  21.478  1.00  0.00    -0.135 S 
BRANCH   8  12
ATOM     12  O   UNL A   1      33.990  23.456  24.828  1.00  0.00    -0.483 OA
BRANCH  12  13
ATOM     13  C   UNL A   1      32.896  23.164  25.668  1.00  0.00     0.329 C 
BRANCH  13  14
ATOM     14  C   UNL A   1      33.007  22.112  26.773  1.00  0.00     0.262 C 
ATOM     15  N   UNL A   1      32.969  20.770  26.561  1.00  0.00    -0.323 N 
ATOM     16  H   UNL A   1      33.114  20.255  27.387  1.00  0.00     0.170 HD
ATOM     17  O   UNL A   1      33.157  22.480  27.948  1.00  0.00    -0.271 OA
BRANCH  15  18
ATOM     18  C   UNL A   1      32.770  19.943  25.443  1.00  0.00     0.044 A 
ATOM     19  C   UNL A   1      32.721  17.637  24.644  1.00  0.00     0.120 A 
ATOM     20  C   UNL A   1      32.484  18.088  23.351  1.00  0.00     0.046 A 
ATOM     21  C   UNL A   1      32.874  18.560  25.680  1.00  0.00     0.072 A 
ATOM     22  C   UNL A   1      32.340  19.453  23.109  1.00  0.00     0.006 A 
ATOM     23  C   UNL A   1      32.467  20.376  24.155  1.00  0.00     0.026 A 
BRANCH  19  24
ATOM     24  O   UNL A   1      32.850  16.282  24.795  1.00  0.00    -0.497 OA
ATOM     25  C   UNL A   1      34.170  15.852  25.117  1.00  0.00     0.278 C 
ENDBRANCH  19  24
ENDBRANCH  15  18
ENDBRANCH  13  14
ENDBRANCH  12  13
ENDBRANCH   8  12
ENDBRANCH   4   7
ENDBRANCH   2   3
ENDBRANCH   1   2
BRANCH   1  26
ATOM     26  C   UNL A   1      31.112  27.381  25.157  1.00  0.00     0.002 C 
BRANCH  26  27
ATOM     27  C   UNL A   1      31.632  28.028  26.447  1.00  0.00     0.002 C 
BRANCH  27  28
ATOM     28  C   UNL A   1      33.111  27.769  26.751  1.00  0.00     0.021 C 
BRANCH  28  29
ATOM     29  C   UNL A   1      34.070  28.734  26.063  1.00  0.00     0.116 C 
BRANCH  29  30
ATOM     30  N   UNL A   1      33.904  30.091  26.555  1.00  0.00    -0.352 N 
ATOM     31  C   UNL A   1      34.610  30.756  27.525  1.00  0.00     0.251 C 
ATOM     32  H   UNL A   1      33.181  30.608  26.130  1.00  0.00     0.163 HD
ATOM     33  O   UNL A   1      34.165  31.802  27.987  1.00  0.00    -0.269 OA
BRANCH  31  34
ATOM     34  C   UNL A   1      35.894  30.207  28.015  1.00  0.00     0.039 A 
ATOM     35  C   UNL A   1      35.917  29.518  29.230  1.00  0.00     0.014 A 
ATOM     36  C   UNL A   1      37.079  30.410  27.302  1.00  0.00     0.014 A 
ATOM     37  C   UNL A   1      37.122  29.004  29.713  1.00  0.00     0.010 A 
ATOM     38  C   UNL A   1      38.266  29.833  27.746  1.00  0.00     0.010 A 
ATOM     39  C   UNL A   1      38.304  29.145  28.968  1.00  0.00    -0.014 A 
BRANCH  39  40
ATOM     40  C   UNL A   1      39.601  28.630  29.479  1.00  0.00     0.031 A 
ATOM     41  C   UNL A   1      40.301  29.355  30.598  1.00  0.00     0.074 A 
ATOM     42  C   UNL A   1      40.168  27.551  28.909  1.00  0.00     0.049 A 
ATOM     43  N   UNL A   1      41.467  29.115  31.142  1.00  0.00    -0.248 NA
ATOM     44  C   UNL A   1      39.613  30.530  31.152  1.00  0.00     0.031 C 
ATOM     45  C   UNL A   1      39.604  26.792  27.791  1.00  0.00     0.029 A 
ATOM     46  N   UNL A   1      41.348  26.909  29.184  1.00  0.00    -0.354 N 
ATOM     47  C   UNL A   1      41.659  30.117  32.088  1.00  0.00     0.074 A 
ATOM     48  C   UNL A   1      40.521  31.007  31.988  1.00  0.00     0.031 C 
ATOM     49  C   UNL A   1      40.426  25.774  27.493  1.00  0.00     0.029 A 
ATOM     50  C   UNL A   1      41.594  25.829  28.367  1.00  0.00     0.049 A 
ATOM     51  H   UNL A   1      41.962  27.194  29.898  1.00  0.00     0.167 HD
ATOM     52  C   UNL A   1      42.675  30.268  32.975  1.00  0.00     0.034 A 
ATOM     53  C   UNL A   1      42.643  24.985  28.326  1.00  0.00     0.034 A 
ATOM     54  C   UNL A   1      43.792  29.361  33.067  1.00  0.00     0.049 A 
ATOM     55  C   UNL A   1      43.761  25.166  29.321  1.00  0.00     0.074 A 
ATOM     56  C   UNL A   1      44.855  29.385  33.953  1.00  0.00     0.029 A 
ATOM     57  N   UNL A   1      43.995  28.262  32.239  1.00  0.00    -0.354 N 
ATOM     58  N   UNL A   1      43.908  26.093  30.240  1.00  0.00    -0.248 NA
ATOM     59  C   UNL A   1      44.843  24.175  29.286  1.00  0.00     0.031 C 
ATOM     60  C   UNL A   1      45.730  28.345  33.620  1.00  0.00     0.029 A 
ATOM     61  C   UNL A   1      45.174  27.617  32.579  1.00  0.00     0.049 A 
ATOM     62  H   UNL A   1      43.388  27.982  31.516  1.00  0.00     0.167 HD
ATOM     63  C   UNL A   1      45.081  25.772  30.919  1.00  0.00     0.074 A 
ATOM     64  C   UNL A   1      45.593  24.561  30.307  1.00  0.00     0.031 C 
ATOM     65  C   UNL A   1      45.677  26.413  31.956  1.00  0.00     0.034 A 
BRANCH  52  66
ATOM     66  C   UNL A   1      42.625  31.477  33.884  1.00  0.00     0.023 A 
ATOM     67  C   UNL A   1      42.095  31.402  35.185  1.00  0.00     0.031 A 
ATOM     68  C   UNL A   1      43.063  32.732  33.428  1.00  0.00     0.131 A 
ATOM     69  C   UNL A   1      41.924  32.571  35.943  1.00  0.00     0.055 A 
ATOM     70  C   UNL A   1      42.979  33.877  34.224  1.00  0.00     0.041 A 
ATOM     71  F   UNL A   1      43.560  32.875  32.190  1.00  0.00    -0.206 F 
ATOM     72  C   UNL A   1      42.388  33.805  35.482  1.00  0.00     0.022 A 
BRANCH  69  73
ATOM     73  S   UNL A   1      40.929  32.481  37.457  1.00  0.00     0.124 S 
ATOM     74  O   UNL A   1      41.794  31.695  38.331  1.00  0.00    -0.237 OA
ATOM     75  O   UNL A   1      40.768  33.887  37.811  1.00  0.00    -0.237 OA
ATOM     76  O   UNL A   1      39.709  31.802  37.025  1.00  0.00    -0.744 OA
ENDBRANCH  69  73
ENDBRANCH  52  66
BRANCH  53  77
ATOM     77  C   UNL A   1      42.685  23.889  27.317  1.00  0.00     0.023 A 
ATOM     78  C   UNL A   1      42.073  22.650  27.567  1.00  0.00     0.031 A 
ATOM     79  C   UNL A   1      43.362  24.056  26.096  1.00  0.00     0.131 A 
ATOM     80  C   UNL A   1      42.186  21.612  26.628  1.00  0.00     0.055 A 
ATOM     81  C   UNL A   1      43.428  23.037  25.144  1.00  0.00     0.041 A 
ATOM     82  F   UNL A   1      43.956  25.224  25.804  1.00  0.00    -0.206 F 
ATOM     83  C   UNL A   1      42.848  21.802  25.414  1.00  0.00     0.022 A 
BRANCH  80  84
ATOM     84  S   UNL A   1      41.512  19.982  27.051  1.00  0.00     0.124 S 
ATOM     85  O   UNL A   1      42.656  19.344  27.689  1.00  0.00    -0.237 OA
ATOM     86  O   UNL A   1      40.399  20.333  27.927  1.00  0.00    -0.237 OA
ATOM     87  O   UNL A   1      41.128  19.427  25.754  1.00  0.00    -0.744 OA
ENDBRANCH  80  84
ENDBRANCH  53  77
BRANCH  65  88
ATOM     88  C   UNL A   1      46.919  25.777  32.534  1.00  0.00     0.023 A 
ATOM     89  C   UNL A   1      48.193  25.991  31.979  1.00  0.00     0.031 A 
ATOM     90  C   UNL A   1      46.818  24.925  33.648  1.00  0.00     0.131 A 
ATOM     91  C   UNL A   1      49.304  25.309  32.499  1.00  0.00     0.055 A 
ATOM     92  C   UNL A   1      47.938  24.302  34.202  1.00  0.00     0.041 A 
ATOM     93  F   UNL A   1      45.627  24.683  34.219  1.00  0.00    -0.206 F 
ATOM     94  C   UNL A   1      49.187  24.480  33.616  1.00  0.00     0.022 A 
BRANCH  91  95
ATOM     95  S   UNL A   1      50.889  25.435  31.624  1.00  0.00     0.124 S 
ATOM     96  O   UNL A   1      51.181  26.862  31.728  1.00  0.00    -0.237 OA
ATOM     97  O   UNL A   1      51.747  24.550  32.405  1.00  0.00    -0.237 OA
ATOM     98  O   UNL A   1      50.575  24.964  30.277  1.00  0.00    -0.744 OA
ENDBRANCH  91  95
ENDBRANCH  65  88
ENDBRANCH  39  40
ENDBRANCH  31  34
ENDBRANCH  29  30
ENDBRANCH  28  29
ENDBRANCH  27  28
ENDBRANCH  26  27
ENDBRANCH   1  26
TORSDOF 21
ENDMDL
MODEL 3
REMARK VINA RESULT:     -10.8      1.731      2.324
REMARK SMILES COc1cccc(NC(=O)COc2csc(C(=O)NCCCCCCNC(=O)c3ccc(-c4c5nc(c(-c6cc(S(=O)(=O)[O-])ccc6F)c6ccc([nH]6)c(-c6cc(S(=O)(=O)[O-])ccc6F)c6nc(c(-c7cc(S(=O)(=O)[O-])ccc7F)c7ccc4[nH]7)C=C6)C=C5)cc3)c2)c1
REMARK SMILES IDX 21 1 20 2 19 3 17 4 18 5 16 7 13 8 14 9 92 10 15 11 12 12
REMARK SMILES IDX 11 13 9 14 8 15 10 17 7 18 3 19 4 20 93 21 5 22 6 23 2 24
REMARK SMILES IDX 1 25 22 26 23 27 24 28 25 29 26 30 27 31 28 33 29 34 30 35
REMARK SMILES IDX 91 36 31 37 90 38 32 39 33 40 34 41 84 42 35 43 89 44 83 45
REMARK SMILES IDX 85 46 36 47 88 48 82 49 81 50 37 52 69 53 49 54 68 55 50 56
REMARK SMILES IDX 53 57 67 58 86 59 51 60 52 61 66 63 87 64 54 65 38 66 39 67
REMARK SMILES IDX 47 68 40 69 46 70 48 71 45 72 41 73 42 74 43 75 44 76 70 77
REMARK SMILES IDX 71 78 79 79 72 80 78 81 80 82 77 83 73 84 74 85 75 86 76 87
REMARK SMILES IDX 55 88 56 89 64 90 57 91 63 92 65 93 62 94 58 95 59 96 60 97
REMARK SMILES IDX 61 98
REMARK H PARENT 19 6 8 16 26 32 85 51 53 62
REMARK Flexibility Score: inf
ROOT
ATOM      1  C   UNL A   1      30.918  27.507  24.982  1.00  0.00     0.021 C 
ENDROOT
BRANCH   1   2
ATOM      2  C   UNL A   1      30.972  26.941  26.402  1.00  0.00     0.116 C 
BRANCH   2   3
ATOM      3  N   UNL A   1      30.561  25.552  26.415  1.00  0.00    -0.351 N 
ATOM      4  C   UNL A   1      31.173  24.406  25.966  1.00  0.00     0.261 C 
ATOM      5  O   UNL A   1      30.543  23.364  26.171  1.00  0.00    -0.268 OA
ATOM      6  H   UNL A   1      29.677  25.401  26.821  1.00  0.00     0.163 HD
BRANCH   4   7
ATOM      7  C   UNL A   1      32.485  24.436  25.331  1.00  0.00     0.096 A 
ATOM      8  C   UNL A   1      34.777  24.326  24.838  1.00  0.00     0.131 A 
ATOM      9  C   UNL A   1      34.247  24.384  23.573  1.00  0.00     0.112 A 
ATOM     10  C   UNL A   1      33.771  24.435  25.839  1.00  0.00     0.072 A 
ATOM     11  S   UNL A   1      32.540  24.508  23.607  1.00  0.00    -0.135 S 
BRANCH   8  12
ATOM     12  O   UNL A   1      36.067  24.100  25.181  1.00  0.00    -0.483 OA
BRANCH  12  13
ATOM     13  C   UNL A   1      36.319  23.031  26.065  1.00  0.00     0.329 C 
BRANCH  13  14
ATOM     14  C   UNL A   1      36.986  21.744  25.578  1.00  0.00     0.262 C 
ATOM     15  N   UNL A   1      36.310  20.649  25.137  1.00  0.00    -0.323 N 
ATOM     16  H   UNL A   1      36.913  19.943  24.812  1.00  0.00     0.170 HD
ATOM     17  O   UNL A   1      38.223  21.671  25.561  1.00  0.00    -0.271 OA
BRANCH  15  18
ATOM     18  C   UNL A   1      34.957  20.287  25.036  1.00  0.00     0.044 A 
ATOM     19  C   UNL A   1      33.399  18.545  24.331  1.00  0.00     0.120 A 
ATOM     20  C   UNL A   1      32.328  19.364  24.667  1.00  0.00     0.046 A 
ATOM     21  C   UNL A   1      34.705  19.010  24.504  1.00  0.00     0.072 A 
ATOM     22  C   UNL A   1      32.564  20.616  25.231  1.00  0.00     0.006 A 
ATOM     23  C   UNL A   1      33.875  21.070  25.429  1.00  0.00     0.026 A 
BRANCH  19  24
ATOM     24  O   UNL A   1      33.081  17.332  23.782  1.00  0.00    -0.497 OA
ATOM     25  C   UNL A   1      34.209  16.521  23.461  1.00  0.00     0.278 C 
ENDBRANCH  19  24
ENDBRANCH  15  18
ENDBRANCH  13  14
ENDBRANCH  12  13
ENDBRANCH   8  12
ENDBRANCH   4   7
ENDBRANCH   2   3
ENDBRANCH   1   2
BRANCH   1  26
ATOM     26  C   UNL A   1      31.211  29.013  24.918  1.00  0.00     0.002 C 
BRANCH  26  27
ATOM     27  C   UNL A   1      32.625  29.377  24.446  1.00  0.00     0.002 C 
BRANCH  27  28
ATOM     28  C   UNL A   1      33.732  28.435  24.928  1.00  0.00     0.021 C 
BRANCH  28  29
ATOM     29  C   UNL A   1      34.160  28.659  26.374  1.00  0.00     0.116 C 
BRANCH  29  30
ATOM     30  N   UNL A   1      34.017  30.053  26.761  1.00  0.00    -0.352 N 
ATOM     31  C   UNL A   1      34.745  30.781  27.668  1.00  0.00     0.251 C 
ATOM     32  H   UNL A   1      33.296  30.544  26.306  1.00  0.00     0.163 HD
ATOM     33  O   UNL A   1      34.320  31.865  28.053  1.00  0.00    -0.269 OA
BRANCH  31  34
ATOM     34  C   UNL A   1      36.028  30.254  28.182  1.00  0.00     0.039 A 
ATOM     35  C   UNL A   1      37.196  30.479  27.449  1.00  0.00     0.014 A 
ATOM     36  C   UNL A   1      36.075  29.504  29.361  1.00  0.00     0.014 A 
ATOM     37  C   UNL A   1      38.414  29.978  27.914  1.00  0.00     0.010 A 
ATOM     38  C   UNL A   1      37.299  29.069  29.862  1.00  0.00     0.010 A 
ATOM     39  C   UNL A   1      38.478  29.281  29.131  1.00  0.00    -0.014 A 
BRANCH  39  40
ATOM     40  C   UNL A   1      39.760  28.716  29.627  1.00  0.00     0.031 A 
ATOM     41  C   UNL A   1      40.490  29.399  30.752  1.00  0.00     0.074 A 
ATOM     42  C   UNL A   1      40.286  27.626  29.038  1.00  0.00     0.049 A 
ATOM     43  N   UNL A   1      41.649  29.112  31.286  1.00  0.00    -0.248 NA
ATOM     44  C   UNL A   1      39.845  30.589  31.327  1.00  0.00     0.031 C 
ATOM     45  C   UNL A   1      39.690  26.903  27.913  1.00  0.00     0.029 A 
ATOM     46  N   UNL A   1      41.445  26.941  29.297  1.00  0.00    -0.354 N 
ATOM     47  C   UNL A   1      41.881  30.093  32.245  1.00  0.00     0.074 A 
ATOM     48  C   UNL A   1      40.774  31.022  32.164  1.00  0.00     0.031 C 
ATOM     49  C   UNL A   1      40.475  25.862  27.595  1.00  0.00     0.029 A 
ATOM     50  C   UNL A   1      41.649  25.865  28.463  1.00  0.00     0.049 A 
ATOM     51  H   UNL A   1      42.072  27.193  30.011  1.00  0.00     0.167 HD
ATOM     52  C   UNL A   1      42.906  30.197  33.127  1.00  0.00     0.034 A 
ATOM     53  C   UNL A   1      42.668  24.985  28.404  1.00  0.00     0.034 A 
ATOM     54  C   UNL A   1      43.993  29.250  33.200  1.00  0.00     0.049 A 
ATOM     55  C   UNL A   1      43.798  25.114  29.394  1.00  0.00     0.074 A 
ATOM     56  C   UNL A   1      45.060  29.225  34.080  1.00  0.00     0.029 A 
ATOM     57  N   UNL A   1      44.153  28.157  32.356  1.00  0.00    -0.354 N 
ATOM     58  N   UNL A   1      43.981  26.022  30.325  1.00  0.00    -0.248 NA
ATOM     59  C   UNL A   1      44.845  24.087  29.339  1.00  0.00     0.031 C 
ATOM     60  C   UNL A   1      45.897  28.161  33.727  1.00  0.00     0.029 A 
ATOM     61  C   UNL A   1      45.311  27.468  32.679  1.00  0.00     0.049 A 
ATOM     62  H   UNL A   1      43.533  27.909  31.631  1.00  0.00     0.167 HD
ATOM     63  C   UNL A   1      45.146  25.651  30.993  1.00  0.00     0.074 A 
ATOM     64  C   UNL A   1      45.613  24.433  30.360  1.00  0.00     0.031 C 
ATOM     65  C   UNL A   1      45.769  26.257  32.036  1.00  0.00     0.034 A 
BRANCH  52  66
ATOM     66  C   UNL A   1      42.903  31.393  34.054  1.00  0.00     0.023 A 
ATOM     67  C   UNL A   1      42.309  31.340  35.329  1.00  0.00     0.031 A 
ATOM     68  C   UNL A   1      43.452  32.618  33.640  1.00  0.00     0.131 A 
ATOM     69  C   UNL A   1      42.189  32.507  36.098  1.00  0.00     0.055 A 
ATOM     70  C   UNL A   1      43.415  33.756  34.452  1.00  0.00     0.041 A 
ATOM     71  F   UNL A   1      44.015  32.742  32.428  1.00  0.00    -0.206 F 
ATOM     72  C   UNL A   1      42.763  33.710  35.680  1.00  0.00     0.022 A 
BRANCH  69  73
ATOM     73  S   UNL A   1      41.120  32.470  37.563  1.00  0.00     0.124 S 
ATOM     74  O   UNL A   1      39.941  31.779  37.049  1.00  0.00    -0.237 OA
ATOM     75  O   UNL A   1      41.928  31.728  38.524  1.00  0.00    -0.237 OA
ATOM     76  O   UNL A   1      40.918  33.884  37.876  1.00  0.00    -0.744 OA
ENDBRANCH  69  73
ENDBRANCH  52  66
BRANCH  53  77
ATOM     77  C   UNL A   1      42.667  23.904  27.379  1.00  0.00     0.023 A 
ATOM     78  C   UNL A   1      42.059  22.664  27.634  1.00  0.00     0.031 A 
ATOM     79  C   UNL A   1      43.300  24.085  26.136  1.00  0.00     0.131 A 
ATOM     80  C   UNL A   1      42.132  21.639  26.678  1.00  0.00     0.055 A 
ATOM     81  C   UNL A   1      43.325  23.079  25.168  1.00  0.00     0.041 A 
ATOM     82  F   UNL A   1      43.888  25.254  25.838  1.00  0.00    -0.206 F 
ATOM     83  C   UNL A   1      42.749  21.843  25.442  1.00  0.00     0.022 A 
BRANCH  80  84
ATOM     84  S   UNL A   1      41.467  20.006  27.103  1.00  0.00     0.124 S 
ATOM     85  O   UNL A   1      40.576  20.327  28.211  1.00  0.00    -0.237 OA
ATOM     86  O   UNL A   1      40.823  19.608  25.856  1.00  0.00    -0.237 OA
ATOM     87  O   UNL A   1      42.657  19.237  27.460  1.00  0.00    -0.744 OA
ENDBRANCH  80  84
ENDBRANCH  53  77
BRANCH  65  88
ATOM     88  C   UNL A   1      46.992  25.570  32.597  1.00  0.00     0.023 A 
ATOM     89  C   UNL A   1      46.916  24.683  33.685  1.00  0.00     0.031 A 
ATOM     90  C   UNL A   1      48.258  25.830  32.043  1.00  0.00     0.131 A 
ATOM     91  C   UNL A   1      48.091  24.138  34.225  1.00  0.00     0.055 A 
ATOM     92  C   UNL A   1      49.416  25.232  32.543  1.00  0.00     0.041 A 
ATOM     93  F   UNL A   1      48.392  26.670  31.004  1.00  0.00    -0.206 F 
ATOM     94  C   UNL A   1      49.338  24.393  33.651  1.00  0.00     0.022 A 
BRANCH  91  95
ATOM     95  S   UNL A   1      47.978  23.176  35.760  1.00  0.00     0.124 S 
ATOM     96  O   UNL A   1      49.313  22.592  35.850  1.00  0.00    -0.237 OA
ATOM     97  O   UNL A   1      47.664  24.203  36.748  1.00  0.00    -0.237 OA
ATOM     98  O   UNL A   1      46.903  22.225  35.490  1.00  0.00    -0.744 OA
ENDBRANCH  91  95
ENDBRANCH  65  88
ENDBRANCH  39  40
ENDBRANCH  31  34
ENDBRANCH  29  30
ENDBRANCH  28  29
ENDBRANCH  27  28
ENDBRANCH  26  27
ENDBRANCH   1  26
TORSDOF 21
ENDMDL
