MODEL 1
REMARK VINA RESULT:     -11.6      0.000      0.000
REMARK SMILES COc1ccc(S(=O)(=O)Nc2c(C)cccc2C(=O)NCCCCCCNC(=O)c2ccc(-c3c4nc(c(-c5cc(S(=O)(=O)[O-])ccc5F)c5ccc([nH]5)c(-c5cc(S(=O)(=O)[O-])ccc5F)c5nc(c(-c6cc(S(=O)(=O)[O-])ccc6F)c6ccc3[nH]6)C=C5)C=C4)cc2)cc1
REMARK SMILES IDX 23 1 22 2 21 3 20 4 18 5 19 6 17 8 11 9 12 10 13 11 14 12
REMARK SMILES IDX 16 13 15 14 10 15 7 17 8 18 9 19 6 20 3 21 4 22 94 23 5 24
REMARK SMILES IDX 93 25 2 26 1 27 24 28 25 29 26 30 27 31 28 32 29 34 30 35
REMARK SMILES IDX 31 36 92 37 32 38 91 39 33 40 34 41 35 42 85 43 36 44 90 45
REMARK SMILES IDX 84 46 86 47 37 48 89 49 83 50 82 51 38 53 70 54 50 55 69 56
REMARK SMILES IDX 51 57 54 58 68 59 87 60 52 61 53 62 67 64 88 65 55 66 39 67
REMARK SMILES IDX 40 68 48 69 41 70 47 71 49 72 46 73 42 74 43 75 44 76 45 77
REMARK SMILES IDX 71 78 72 79 80 80 73 81 79 82 81 83 78 84 74 85 75 86 76 87
REMARK SMILES IDX 77 88 56 89 57 90 65 91 58 92 64 93 66 94 63 95 59 96 60 97
REMARK SMILES IDX 61 98 62 99
REMARK H PARENT 20 7 10 16 27 33 86 52 54 63
REMARK Flexibility Score: inf
ROOT
ATOM      1  C   UNL A   1      35.935  21.062  25.139  1.00  0.00     0.002 C 
ENDROOT
BRANCH   1   2
ATOM      2  C   UNL A   1      35.296  22.384  25.586  1.00  0.00     0.021 C 
BRANCH   2   3
ATOM      3  C   UNL A   1      34.480  23.137  24.540  1.00  0.00     0.116 C 
BRANCH   3   4
ATOM      4  N   UNL A   1      33.575  22.297  23.782  1.00  0.00    -0.352 N 
ATOM      5  C   UNL A   1      32.542  22.656  22.957  1.00  0.00     0.253 C 
ATOM      6  O   UNL A   1      31.875  21.777  22.414  1.00  0.00    -0.269 OA
ATOM      7  H   UNL A   1      33.723  21.328  23.874  1.00  0.00     0.163 HD
BRANCH   5   8
ATOM      8  C   UNL A   1      32.141  24.072  22.775  1.00  0.00     0.064 A 
ATOM      9  C   UNL A   1      31.129  24.743  23.489  1.00  0.00     0.064 A 
ATOM     10  C   UNL A   1      30.737  26.037  23.062  1.00  0.00    -0.026 A 
ATOM     11  C   UNL A   1      29.538  26.770  23.610  1.00  0.00     0.046 C 
ATOM     12  C   UNL A   1      31.500  26.708  22.088  1.00  0.00     0.005 A 
ATOM     13  C   UNL A   1      32.888  24.771  21.807  1.00  0.00     0.016 A 
ATOM     14  C   UNL A   1      32.588  26.090  21.486  1.00  0.00     0.001 A 
BRANCH   9  15
ATOM     15  N   UNL A   1      30.446  24.173  24.617  1.00  0.00    -0.279 N 
ATOM     16  H   UNL A   1      29.678  23.582  24.443  1.00  0.00     0.180 HD
BRANCH  15  17
ATOM     17  S   UNL A   1      30.880  24.455  26.230  1.00  0.00     0.261 S 
ATOM     18  O   UNL A   1      31.734  23.354  26.613  1.00  0.00    -0.201 OA
ATOM     19  O   UNL A   1      29.613  24.661  26.909  1.00  0.00    -0.201 OA
BRANCH  17  20
ATOM     20  C   UNL A   1      31.791  25.956  26.437  1.00  0.00     0.088 A 
ATOM     21  C   UNL A   1      33.102  28.417  26.667  1.00  0.00     0.118 A 
ATOM     22  C   UNL A   1      31.789  28.278  27.116  1.00  0.00     0.048 A 
ATOM     23  C   UNL A   1      33.761  27.315  26.113  1.00  0.00     0.048 A 
ATOM     24  C   UNL A   1      31.131  27.053  27.006  1.00  0.00     0.026 A 
ATOM     25  C   UNL A   1      33.096  26.093  25.964  1.00  0.00     0.026 A 
BRANCH  21  26
ATOM     26  O   UNL A   1      33.634  29.668  26.822  1.00  0.00    -0.497 OA
ATOM     27  C   UNL A   1      32.700  30.733  26.929  1.00  0.00     0.278 C 
ENDBRANCH  21  26
ENDBRANCH  17  20
ENDBRANCH  15  17
ENDBRANCH   9  15
ENDBRANCH   5   8
ENDBRANCH   3   4
ENDBRANCH   2   3
ENDBRANCH   1   2
BRANCH   1  28
ATOM     28  C   UNL A   1      37.383  21.105  24.647  1.00  0.00     0.002 C 
BRANCH  28  29
ATOM     29  C   UNL A   1      38.294  19.945  25.054  1.00  0.00     0.021 C 
BRANCH  29  30
ATOM     30  C   UNL A   1      39.429  20.289  26.010  1.00  0.00     0.116 C 
BRANCH  30  31
ATOM     31  N   UNL A   1      40.494  19.301  26.017  1.00  0.00    -0.352 N 
ATOM     32  C   UNL A   1      41.850  19.475  26.144  1.00  0.00     0.251 C 
ATOM     33  H   UNL A   1      40.199  18.368  25.915  1.00  0.00     0.163 HD
ATOM     34  O   UNL A   1      42.597  18.509  26.017  1.00  0.00    -0.269 OA
BRANCH  32  35
ATOM     35  C   UNL A   1      42.412  20.823  26.391  1.00  0.00     0.039 A 
ATOM     36  C   UNL A   1      42.752  21.615  25.291  1.00  0.00     0.014 A 
ATOM     37  C   UNL A   1      42.603  21.309  27.687  1.00  0.00     0.014 A 
ATOM     38  C   UNL A   1      43.212  22.920  25.488  1.00  0.00     0.010 A 
ATOM     39  C   UNL A   1      42.998  22.631  27.881  1.00  0.00     0.010 A 
ATOM     40  C   UNL A   1      43.298  23.453  26.783  1.00  0.00    -0.014 A 
BRANCH  40  41
ATOM     41  C   UNL A   1      43.674  24.874  27.009  1.00  0.00     0.031 A 
ATOM     42  C   UNL A   1      45.082  25.335  26.760  1.00  0.00     0.074 A 
ATOM     43  C   UNL A   1      42.759  25.729  27.506  1.00  0.00     0.049 A 
ATOM     44  N   UNL A   1      45.624  26.504  26.986  1.00  0.00    -0.248 NA
ATOM     45  C   UNL A   1      46.011  24.338  26.208  1.00  0.00     0.031 C 
ATOM     46  C   UNL A   1      41.368  25.389  27.818  1.00  0.00     0.029 A 
ATOM     47  N   UNL A   1      42.860  27.054  27.849  1.00  0.00    -0.354 N 
ATOM     48  C   UNL A   1      46.959  26.382  26.616  1.00  0.00     0.074 A 
ATOM     49  C   UNL A   1      47.154  25.007  26.206  1.00  0.00     0.031 C 
ATOM     50  C   UNL A   1      40.743  26.480  28.287  1.00  0.00     0.029 A 
ATOM     51  C   UNL A   1      41.695  27.582  28.360  1.00  0.00     0.049 A 
ATOM     52  H   UNL A   1      43.687  27.578  27.741  1.00  0.00     0.167 HD
ATOM     53  C   UNL A   1      47.926  27.336  26.600  1.00  0.00     0.034 A 
ATOM     54  C   UNL A   1      41.432  28.810  28.852  1.00  0.00     0.034 A 
ATOM     55  C   UNL A   1      47.709  28.702  27.009  1.00  0.00     0.049 A 
ATOM     56  C   UNL A   1      42.534  29.837  28.874  1.00  0.00     0.074 A 
ATOM     57  C   UNL A   1      48.596  29.765  26.973  1.00  0.00     0.029 A 
ATOM     58  N   UNL A   1      46.525  29.196  27.544  1.00  0.00    -0.354 N 
ATOM     59  N   UNL A   1      43.778  29.721  28.470  1.00  0.00    -0.248 NA
ATOM     60  C   UNL A   1      42.195  31.159  29.416  1.00  0.00     0.031 C 
ATOM     61  C   UNL A   1      47.974  30.877  27.553  1.00  0.00     0.029 A 
ATOM     62  C   UNL A   1      46.673  30.532  27.883  1.00  0.00     0.049 A 
ATOM     63  H   UNL A   1      45.700  28.672  27.664  1.00  0.00     0.167 HD
ATOM     64  C   UNL A   1      44.365  30.962  28.695  1.00  0.00     0.074 A 
ATOM     65  C   UNL A   1      43.333  31.816  29.247  1.00  0.00     0.031 C 
ATOM     66  C   UNL A   1      45.643  31.363  28.463  1.00  0.00     0.034 A 
BRANCH  53  67
ATOM     67  C   UNL A   1      49.307  26.915  26.154  1.00  0.00     0.023 A 
ATOM     68  C   UNL A   1      49.843  27.327  24.921  1.00  0.00     0.031 A 
ATOM     69  C   UNL A   1      50.088  26.064  26.957  1.00  0.00     0.131 A 
ATOM     70  C   UNL A   1      51.080  26.823  24.490  1.00  0.00     0.055 A 
ATOM     71  C   UNL A   1      51.356  25.634  26.560  1.00  0.00     0.041 A 
ATOM     72  F   UNL A   1      49.624  25.621  28.136  1.00  0.00    -0.206 F 
ATOM     73  C   UNL A   1      51.852  25.999  25.312  1.00  0.00     0.022 A 
BRANCH  70  74
ATOM     74  S   UNL A   1      51.592  27.134  22.778  1.00  0.00     0.124 S 
ATOM     75  O   UNL A   1      51.847  28.572  22.803  1.00  0.00    -0.237 OA
ATOM     76  O   UNL A   1      52.765  26.278  22.640  1.00  0.00    -0.237 OA
ATOM     77  O   UNL A   1      50.429  26.730  21.992  1.00  0.00    -0.744 OA
ENDBRANCH  70  74
ENDBRANCH  53  67
BRANCH  54  78
ATOM     78  C   UNL A   1      40.078  29.131  29.387  1.00  0.00     0.023 A 
ATOM     79  C   UNL A   1      39.841  29.182  30.770  1.00  0.00     0.031 A 
ATOM     80  C   UNL A   1      38.992  29.359  28.523  1.00  0.00     0.131 A 
ATOM     81  C   UNL A   1      38.543  29.417  31.249  1.00  0.00     0.055 A 
ATOM     82  C   UNL A   1      37.712  29.645  29.005  1.00  0.00     0.041 A 
ATOM     83  F   UNL A   1      39.164  29.324  27.192  1.00  0.00    -0.206 F 
ATOM     84  C   UNL A   1      37.480  29.663  30.376  1.00  0.00     0.022 A 
BRANCH  81  85
ATOM     85  S   UNL A   1      38.246  29.320  33.035  1.00  0.00     0.124 S 
ATOM     86  O   UNL A   1      37.682  30.634  33.315  1.00  0.00    -0.237 OA
ATOM     87  O   UNL A   1      37.324  28.192  33.128  1.00  0.00    -0.237 OA
ATOM     88  O   UNL A   1      39.577  29.080  33.589  1.00  0.00    -0.744 OA
ENDBRANCH  81  85
ENDBRANCH  54  78
BRANCH  66  89
ATOM     89  C   UNL A   1      45.978  32.795  28.798  1.00  0.00     0.023 A 
ATOM     90  C   UNL A   1      45.706  33.843  27.901  1.00  0.00     0.031 A 
ATOM     91  C   UNL A   1      46.589  33.116  30.023  1.00  0.00     0.131 A 
ATOM     92  C   UNL A   1      46.092  35.154  28.219  1.00  0.00     0.055 A 
ATOM     93  C   UNL A   1      46.916  34.429  30.360  1.00  0.00     0.041 A 
ATOM     94  F   UNL A   1      46.875  32.155  30.916  1.00  0.00    -0.206 F 
ATOM     95  C   UNL A   1      46.679  35.456  29.449  1.00  0.00     0.022 A 
BRANCH  92  96
ATOM     96  S   UNL A   1      45.893  36.449  26.964  1.00  0.00     0.124 S 
ATOM     97  O   UNL A   1      44.450  36.448  26.752  1.00  0.00    -0.237 OA
ATOM     98  O   UNL A   1      46.438  37.623  27.637  1.00  0.00    -0.237 OA
ATOM     99  O   UNL A   1      46.686  35.958  25.836  1.00  0.00    -0.744 OA
ENDBRANCH  92  96
ENDBRANCH  66  89
ENDBRANCH  40  41
ENDBRANCH  32  35
ENDBRANCH  30  31
ENDBRANCH  29  30
ENDBRANCH  28  29
ENDBRANCH   1  28
TORSDOF 20
ENDMDL
MODEL 2
REMARK VINA RESULT:     -11.6      1.939      3.869
REMARK SMILES COc1ccc(S(=O)(=O)Nc2c(C)cccc2C(=O)NCCCCCCNC(=O)c2ccc(-c3c4nc(c(-c5cc(S(=O)(=O)[O-])ccc5F)c5ccc([nH]5)c(-c5cc(S(=O)(=O)[O-])ccc5F)c5nc(c(-c6cc(S(=O)(=O)[O-])ccc6F)c6ccc3[nH]6)C=C5)C=C4)cc2)cc1
REMARK SMILES IDX 23 1 22 2 21 3 20 4 18 5 19 6 17 8 11 9 12 10 13 11 14 12
REMARK SMILES IDX 16 13 15 14 10 15 7 17 8 18 9 19 6 20 3 21 4 22 94 23 5 24
REMARK SMILES IDX 93 25 2 26 1 27 24 28 25 29 26 30 27 31 28 32 29 34 30 35
REMARK SMILES IDX 31 36 92 37 32 38 91 39 33 40 34 41 35 42 85 43 36 44 90 45
REMARK SMILES IDX 84 46 86 47 37 48 89 49 83 50 82 51 38 53 70 54 50 55 69 56
REMARK SMILES IDX 51 57 54 58 68 59 87 60 52 61 53 62 67 64 88 65 55 66 39 67
REMARK SMILES IDX 40 68 48 69 41 70 47 71 49 72 46 73 42 74 43 75 44 76 45 77
REMARK SMILES IDX 71 78 72 79 80 80 73 81 79 82 81 83 78 84 74 85 75 86 76 87
REMARK SMILES IDX 77 88 56 89 57 90 65 91 58 92 64 93 66 94 63 95 59 96 60 97
REMARK SMILES IDX 61 98 62 99
REMARK H PARENT 20 7 10 16 27 33 86 52 54 63
REMARK Flexibility Score: inf
ROOT
ATOM      1  C   UNL A   1      39.879  23.511  26.444  1.00  0.00     0.002 C 
ENDROOT
BRANCH   1   2
ATOM      2  C   UNL A   1      38.508  24.143  26.712  1.00  0.00     0.021 C 
BRANCH   2   3
ATOM      3  C   UNL A   1      37.363  23.702  25.804  1.00  0.00     0.116 C 
BRANCH   3   4
ATOM      4  N   UNL A   1      36.334  22.939  26.482  1.00  0.00    -0.352 N 
ATOM      5  C   UNL A   1      34.973  23.000  26.341  1.00  0.00     0.253 C 
ATOM      6  O   UNL A   1      34.266  22.269  27.033  1.00  0.00    -0.269 OA
ATOM      7  H   UNL A   1      36.661  22.282  27.139  1.00  0.00     0.163 HD
BRANCH   5   8
ATOM      8  C   UNL A   1      34.321  23.990  25.450  1.00  0.00     0.064 A 
ATOM      9  C   UNL A   1      33.865  23.749  24.140  1.00  0.00     0.064 A 
ATOM     10  C   UNL A   1      33.442  24.851  23.353  1.00  0.00    -0.026 A 
ATOM     11  C   UNL A   1      33.127  24.752  21.881  1.00  0.00     0.046 C 
ATOM     12  C   UNL A   1      33.279  26.112  23.953  1.00  0.00     0.005 A 
ATOM     13  C   UNL A   1      34.144  25.264  26.025  1.00  0.00     0.016 A 
ATOM     14  C   UNL A   1      33.599  26.311  25.290  1.00  0.00     0.001 A 
BRANCH   9  15
ATOM     15  N   UNL A   1      33.832  22.444  23.542  1.00  0.00    -0.279 N 
ATOM     16  H   UNL A   1      34.630  22.138  23.053  1.00  0.00     0.180 HD
BRANCH  15  17
ATOM     17  S   UNL A   1      32.503  21.397  23.625  1.00  0.00     0.261 S 
ATOM     18  O   UNL A   1      31.797  21.546  22.374  1.00  0.00    -0.201 OA
ATOM     19  O   UNL A   1      31.851  21.748  24.874  1.00  0.00    -0.201 OA
BRANCH  17  20
ATOM     20  C   UNL A   1      32.982  19.703  23.788  1.00  0.00     0.088 A 
ATOM     21  C   UNL A   1      33.911  17.072  24.008  1.00  0.00     0.118 A 
ATOM     22  C   UNL A   1      34.456  18.077  24.808  1.00  0.00     0.048 A 
ATOM     23  C   UNL A   1      32.891  17.387  23.106  1.00  0.00     0.048 A 
ATOM     24  C   UNL A   1      33.995  19.390  24.704  1.00  0.00     0.026 A 
ATOM     25  C   UNL A   1      32.449  18.708  22.968  1.00  0.00     0.026 A 
BRANCH  21  26
ATOM     26  O   UNL A   1      34.453  15.830  24.197  1.00  0.00    -0.497 OA
ATOM     27  C   UNL A   1      35.388  15.713  25.260  1.00  0.00     0.278 C 
ENDBRANCH  21  26
ENDBRANCH  17  20
ENDBRANCH  15  17
ENDBRANCH   9  15
ENDBRANCH   5   8
ENDBRANCH   3   4
ENDBRANCH   2   3
ENDBRANCH   1   2
BRANCH   1  28
ATOM     28  C   UNL A   1      40.298  22.327  27.318  1.00  0.00     0.002 C 
BRANCH  28  29
ATOM     29  C   UNL A   1      40.403  20.960  26.639  1.00  0.00     0.021 C 
BRANCH  29  30
ATOM     30  C   UNL A   1      41.501  20.039  27.155  1.00  0.00     0.116 C 
BRANCH  30  31
ATOM     31  N   UNL A   1      42.366  19.532  26.103  1.00  0.00    -0.352 N 
ATOM     32  C   UNL A   1      43.352  20.173  25.394  1.00  0.00     0.251 C 
ATOM     33  H   UNL A   1      42.223  18.588  25.863  1.00  0.00     0.163 HD
ATOM     34  O   UNL A   1      43.902  19.590  24.464  1.00  0.00    -0.269 OA
BRANCH  32  35
ATOM     35  C   UNL A   1      43.722  21.568  25.721  1.00  0.00     0.039 A 
ATOM     36  C   UNL A   1      43.453  22.567  24.781  1.00  0.00     0.014 A 
ATOM     37  C   UNL A   1      44.327  21.899  26.937  1.00  0.00     0.014 A 
ATOM     38  C   UNL A   1      43.719  23.904  25.089  1.00  0.00     0.010 A 
ATOM     39  C   UNL A   1      44.530  23.237  27.270  1.00  0.00     0.010 A 
ATOM     40  C   UNL A   1      44.220  24.254  26.353  1.00  0.00    -0.014 A 
BRANCH  40  41
ATOM     41  C   UNL A   1      44.401  25.677  26.743  1.00  0.00     0.031 A 
ATOM     42  C   UNL A   1      45.759  26.316  26.672  1.00  0.00     0.074 A 
ATOM     43  C   UNL A   1      43.351  26.368  27.229  1.00  0.00     0.049 A 
ATOM     44  N   UNL A   1      46.136  27.509  27.056  1.00  0.00    -0.248 NA
ATOM     45  C   UNL A   1      46.844  25.491  26.121  1.00  0.00     0.031 C 
ATOM     46  C   UNL A   1      41.991  25.844  27.376  1.00  0.00     0.029 A 
ATOM     47  N   UNL A   1      43.262  27.654  27.702  1.00  0.00    -0.354 N 
ATOM     48  C   UNL A   1      47.501  27.576  26.804  1.00  0.00     0.074 A 
ATOM     49  C   UNL A   1      47.894  26.281  26.289  1.00  0.00     0.031 C 
ATOM     50  C   UNL A   1      41.202  26.804  27.882  1.00  0.00     0.029 A 
ATOM     51  C   UNL A   1      42.004  27.993  28.147  1.00  0.00     0.049 A 
ATOM     52  H   UNL A   1      44.026  28.275  27.721  1.00  0.00     0.167 HD
ATOM     53  C   UNL A   1      48.343  28.629  26.968  1.00  0.00     0.034 A 
ATOM     54  C   UNL A   1      41.554  29.126  28.723  1.00  0.00     0.034 A 
ATOM     55  C   UNL A   1      47.930  29.913  27.479  1.00  0.00     0.049 A 
ATOM     56  C   UNL A   1      42.519  30.262  28.944  1.00  0.00     0.074 A 
ATOM     57  C   UNL A   1      48.682  31.066  27.626  1.00  0.00     0.029 A 
ATOM     58  N   UNL A   1      46.655  30.213  27.943  1.00  0.00    -0.354 N 
ATOM     59  N   UNL A   1      43.797  30.329  28.651  1.00  0.00    -0.248 NA
ATOM     60  C   UNL A   1      41.979  31.475  29.572  1.00  0.00     0.031 C 
ATOM     61  C   UNL A   1      47.884  32.036  28.245  1.00  0.00     0.029 A 
ATOM     62  C   UNL A   1      46.612  31.516  28.417  1.00  0.00     0.049 A 
ATOM     63  H   UNL A   1      45.892  29.591  27.936  1.00  0.00     0.167 HD
ATOM     64  C   UNL A   1      44.209  31.598  29.044  1.00  0.00     0.074 A 
ATOM     65  C   UNL A   1      43.040  32.269  29.573  1.00  0.00     0.031 C 
ATOM     66  C   UNL A   1      45.444  32.161  28.972  1.00  0.00     0.034 A 
BRANCH  53  67
ATOM     67  C   UNL A   1      49.797  28.414  26.618  1.00  0.00     0.023 A 
ATOM     68  C   UNL A   1      50.280  28.611  25.312  1.00  0.00     0.031 A 
ATOM     69  C   UNL A   1      50.710  27.975  27.594  1.00  0.00     0.131 A 
ATOM     70  C   UNL A   1      51.611  28.290  24.999  1.00  0.00     0.055 A 
ATOM     71  C   UNL A   1      52.054  27.739  27.296  1.00  0.00     0.041 A 
ATOM     72  F   UNL A   1      50.306  27.750  28.855  1.00  0.00    -0.206 F 
ATOM     73  C   UNL A   1      52.507  27.879  25.987  1.00  0.00     0.022 A 
BRANCH  70  74
ATOM     74  S   UNL A   1      52.108  28.267  23.255  1.00  0.00     0.124 S 
ATOM     75  O   UNL A   1      51.744  29.615  22.826  1.00  0.00    -0.237 OA
ATOM     76  O   UNL A   1      53.537  27.986  23.339  1.00  0.00    -0.237 OA
ATOM     77  O   UNL A   1      51.295  27.198  22.680  1.00  0.00    -0.744 OA
ENDBRANCH  70  74
ENDBRANCH  53  67
BRANCH  54  78
ATOM     78  C   UNL A   1      40.132  29.236  29.156  1.00  0.00     0.023 A 
ATOM     79  C   UNL A   1      39.779  29.140  30.511  1.00  0.00     0.031 A 
ATOM     80  C   UNL A   1      39.100  29.407  28.215  1.00  0.00     0.131 A 
ATOM     81  C   UNL A   1      38.428  29.177  30.886  1.00  0.00     0.055 A 
ATOM     82  C   UNL A   1      37.760  29.496  28.599  1.00  0.00     0.041 A 
ATOM     83  F   UNL A   1      39.382  29.506  26.907  1.00  0.00    -0.206 F 
ATOM     84  C   UNL A   1      37.416  29.368  29.941  1.00  0.00     0.022 A 
BRANCH  81  85
ATOM     85  S   UNL A   1      38.001  28.892  32.625  1.00  0.00     0.124 S 
ATOM     86  O   UNL A   1      39.024  29.669  33.314  1.00  0.00    -0.237 OA
ATOM     87  O   UNL A   1      36.641  29.416  32.694  1.00  0.00    -0.237 OA
ATOM     88  O   UNL A   1      38.116  27.442  32.771  1.00  0.00    -0.744 OA
ENDBRANCH  81  85
ENDBRANCH  54  78
BRANCH  66  89
ATOM     89  C   UNL A   1      45.575  33.580  29.468  1.00  0.00     0.023 A 
ATOM     90  C   UNL A   1      45.267  34.678  28.645  1.00  0.00     0.031 A 
ATOM     91  C   UNL A   1      46.025  33.838  30.776  1.00  0.00     0.131 A 
ATOM     92  C   UNL A   1      45.464  35.983  29.119  1.00  0.00     0.055 A 
ATOM     93  C   UNL A   1      46.160  35.139  31.261  1.00  0.00     0.041 A 
ATOM     94  F   UNL A   1      46.336  32.828  31.603  1.00  0.00    -0.206 F 
ATOM     95  C   UNL A   1      45.892  36.221  30.427  1.00  0.00     0.022 A 
BRANCH  92  96
ATOM     96  S   UNL A   1      45.234  37.370  27.972  1.00  0.00     0.124 S 
ATOM     97  O   UNL A   1      44.230  36.842  27.055  1.00  0.00    -0.237 OA
ATOM     98  O   UNL A   1      44.788  38.440  28.859  1.00  0.00    -0.237 OA
ATOM     99  O   UNL A   1      46.564  37.560  27.394  1.00  0.00    -0.744 OA
ENDBRANCH  92  96
ENDBRANCH  66  89
ENDBRANCH  40  41
ENDBRANCH  32  35
ENDBRANCH  30  31
ENDBRANCH  29  30
ENDBRANCH  28  29
ENDBRANCH   1  28
TORSDOF 20
ENDMDL
MODEL 3
REMARK VINA RESULT:     -11.4      5.617     10.953
REMARK SMILES COc1ccc(S(=O)(=O)Nc2c(C)cccc2C(=O)NCCCCCCNC(=O)c2ccc(-c3c4nc(c(-c5cc(S(=O)(=O)[O-])ccc5F)c5ccc([nH]5)c(-c5cc(S(=O)(=O)[O-])ccc5F)c5nc(c(-c6cc(S(=O)(=O)[O-])ccc6F)c6ccc3[nH]6)C=C5)C=C4)cc2)cc1
REMARK SMILES IDX 23 1 22 2 21 3 20 4 18 5 19 6 17 8 11 9 12 10 13 11 14 12
REMARK SMILES IDX 16 13 15 14 10 15 7 17 8 18 9 19 6 20 3 21 4 22 94 23 5 24
REMARK SMILES IDX 93 25 2 26 1 27 24 28 25 29 26 30 27 31 28 32 29 34 30 35
REMARK SMILES IDX 31 36 92 37 32 38 91 39 33 40 34 41 35 42 85 43 36 44 90 45
REMARK SMILES IDX 84 46 86 47 37 48 89 49 83 50 82 51 38 53 70 54 50 55 69 56
REMARK SMILES IDX 51 57 54 58 68 59 87 60 52 61 53 62 67 64 88 65 55 66 39 67
REMARK SMILES IDX 40 68 48 69 41 70 47 71 49 72 46 73 42 74 43 75 44 76 45 77
REMARK SMILES IDX 71 78 72 79 80 80 73 81 79 82 81 83 78 84 74 85 75 86 76 87
REMARK SMILES IDX 77 88 56 89 57 90 65 91 58 92 64 93 66 94 63 95 59 96 60 97
REMARK SMILES IDX 61 98 62 99
REMARK H PARENT 20 7 10 16 27 33 86 52 54 63
REMARK Flexibility Score: inf
ROOT
ATOM      1  C   UNL A   1      32.179  29.126  26.361  1.00  0.00     0.002 C 
ENDROOT
BRANCH   1   2
ATOM      2  C   UNL A   1      31.399  27.910  26.878  1.00  0.00     0.021 C 
BRANCH   2   3
ATOM      3  C   UNL A   1      32.116  26.564  26.822  1.00  0.00     0.116 C 
BRANCH   3   4
ATOM      4  N   UNL A   1      31.226  25.427  26.701  1.00  0.00    -0.352 N 
ATOM      5  C   UNL A   1      31.516  24.128  26.376  1.00  0.00     0.253 C 
ATOM      6  O   UNL A   1      30.601  23.308  26.310  1.00  0.00    -0.269 OA
ATOM      7  H   UNL A   1      30.276  25.614  26.880  1.00  0.00     0.163 HD
BRANCH   5   8
ATOM      8  C   UNL A   1      32.886  23.700  26.003  1.00  0.00     0.064 A 
ATOM      9  C   UNL A   1      33.449  23.762  24.714  1.00  0.00     0.064 A 
ATOM     10  C   UNL A   1      34.701  23.135  24.487  1.00  0.00    -0.026 A 
ATOM     11  C   UNL A   1      35.309  22.956  23.117  1.00  0.00     0.046 C 
ATOM     12  C   UNL A   1      35.449  22.660  25.579  1.00  0.00     0.005 A 
ATOM     13  C   UNL A   1      33.660  23.221  27.078  1.00  0.00     0.016 A 
ATOM     14  C   UNL A   1      34.945  22.730  26.872  1.00  0.00     0.001 A 
BRANCH   9  15
ATOM     15  N   UNL A   1      32.809  24.406  23.601  1.00  0.00    -0.279 N 
ATOM     16  H   UNL A   1      32.120  23.902  23.109  1.00  0.00     0.180 HD
BRANCH  15  17
ATOM     17  S   UNL A   1      33.165  25.978  23.081  1.00  0.00     0.261 S 
ATOM     18  O   UNL A   1      33.655  25.851  21.728  1.00  0.00    -0.201 OA
ATOM     19  O   UNL A   1      34.030  26.509  24.120  1.00  0.00    -0.201 OA
BRANCH  17  20
ATOM     20  C   UNL A   1      31.740  27.024  23.055  1.00  0.00     0.088 A 
ATOM     21  C   UNL A   1      29.573  28.794  23.128  1.00  0.00     0.118 A 
ATOM     22  C   UNL A   1      30.831  29.242  22.722  1.00  0.00     0.048 A 
ATOM     23  C   UNL A   1      29.402  27.453  23.486  1.00  0.00     0.048 A 
ATOM     24  C   UNL A   1      31.914  28.363  22.681  1.00  0.00     0.026 A 
ATOM     25  C   UNL A   1      30.492  26.575  23.485  1.00  0.00     0.026 A 
BRANCH  21  26
ATOM     26  O   UNL A   1      28.596  29.751  23.134  1.00  0.00    -0.497 OA
ATOM     27  C   UNL A   1      27.280  29.299  22.846  1.00  0.00     0.278 C 
ENDBRANCH  21  26
ENDBRANCH  17  20
ENDBRANCH  15  17
ENDBRANCH   9  15
ENDBRANCH   5   8
ENDBRANCH   3   4
ENDBRANCH   2   3
ENDBRANCH   1   2
BRANCH   1  28
ATOM     28  C   UNL A   1      31.404  30.428  26.149  1.00  0.00     0.002 C 
BRANCH  28  29
ATOM     29  C   UNL A   1      32.188  31.736  26.277  1.00  0.00     0.021 C 
BRANCH  29  30
ATOM     30  C   UNL A   1      32.106  32.437  27.627  1.00  0.00     0.116 C 
BRANCH  30  31
ATOM     31  N   UNL A   1      32.581  33.809  27.592  1.00  0.00    -0.352 N 
ATOM     32  C   UNL A   1      33.773  34.335  28.024  1.00  0.00     0.251 C 
ATOM     33  H   UNL A   1      31.954  34.459  27.199  1.00  0.00     0.163 HD
ATOM     34  O   UNL A   1      33.942  35.551  28.000  1.00  0.00    -0.269 OA
BRANCH  32  35
ATOM     35  C   UNL A   1      34.834  33.448  28.553  1.00  0.00     0.039 A 
ATOM     36  C   UNL A   1      36.169  33.778  28.297  1.00  0.00     0.014 A 
ATOM     37  C   UNL A   1      34.529  32.304  29.295  1.00  0.00     0.014 A 
ATOM     38  C   UNL A   1      37.195  33.005  28.846  1.00  0.00     0.010 A 
ATOM     39  C   UNL A   1      35.552  31.573  29.898  1.00  0.00     0.010 A 
ATOM     40  C   UNL A   1      36.895  31.922  29.687  1.00  0.00    -0.014 A 
BRANCH  40  41
ATOM     41  C   UNL A   1      37.970  31.159  30.374  1.00  0.00     0.031 A 
ATOM     42  C   UNL A   1      38.330  31.474  31.799  1.00  0.00     0.074 A 
ATOM     43  C   UNL A   1      38.667  30.233  29.688  1.00  0.00     0.049 A 
ATOM     44  N   UNL A   1      39.296  30.988  32.537  1.00  0.00    -0.248 NA
ATOM     45  C   UNL A   1      37.512  32.491  32.474  1.00  0.00     0.031 C 
ATOM     46  C   UNL A   1      38.430  29.865  28.289  1.00  0.00     0.029 A 
ATOM     47  N   UNL A   1      39.724  29.441  30.063  1.00  0.00    -0.354 N 
ATOM     48  C   UNL A   1      39.209  31.646  33.758  1.00  0.00     0.074 A 
ATOM     49  C   UNL A   1      38.132  32.607  33.638  1.00  0.00     0.031 C 
ATOM     50  C   UNL A   1      39.300  28.907  27.933  1.00  0.00     0.029 A 
ATOM     51  C   UNL A   1      40.191  28.629  29.054  1.00  0.00     0.049 A 
ATOM     52  H   UNL A   1      40.111  29.453  30.969  1.00  0.00     0.167 HD
ATOM     53  C   UNL A   1      39.946  31.451  34.882  1.00  0.00     0.034 A 
ATOM     54  C   UNL A   1      41.233  27.774  29.030  1.00  0.00     0.034 A 
ATOM     55  C   UNL A   1      41.013  30.484  34.982  1.00  0.00     0.049 A 
ATOM     56  C   UNL A   1      42.071  27.612  30.272  1.00  0.00     0.074 A 
ATOM     57  C   UNL A   1      41.781  30.157  36.086  1.00  0.00     0.029 A 
ATOM     58  N   UNL A   1      41.475  29.697  33.933  1.00  0.00    -0.354 N 
ATOM     59  N   UNL A   1      41.942  28.204  31.437  1.00  0.00    -0.248 NA
ATOM     60  C   UNL A   1      43.191  26.666  30.195  1.00  0.00     0.031 C 
ATOM     61  C   UNL A   1      42.752  29.231  35.688  1.00  0.00     0.029 A 
ATOM     62  C   UNL A   1      42.545  28.920  34.354  1.00  0.00     0.049 A 
ATOM     63  H   UNL A   1      41.098  29.691  33.024  1.00  0.00     0.167 HD
ATOM     64  C   UNL A   1      42.957  27.688  32.237  1.00  0.00     0.074 A 
ATOM     65  C   UNL A   1      43.673  26.722  31.428  1.00  0.00     0.031 C 
ATOM     66  C   UNL A   1      43.269  27.983  33.526  1.00  0.00     0.034 A 
BRANCH  53  67
ATOM     67  C   UNL A   1      39.637  32.326  36.074  1.00  0.00     0.023 A 
ATOM     68  C   UNL A   1      38.764  31.905  37.093  1.00  0.00     0.031 A 
ATOM     69  C   UNL A   1      40.197  33.612  36.181  1.00  0.00     0.131 A 
ATOM     70  C   UNL A   1      38.412  32.789  38.125  1.00  0.00     0.055 A 
ATOM     71  C   UNL A   1      39.908  34.456  37.255  1.00  0.00     0.041 A 
ATOM     72  F   UNL A   1      41.023  34.078  35.230  1.00  0.00    -0.206 F 
ATOM     73  C   UNL A   1      38.997  34.052  38.227  1.00  0.00     0.022 A 
BRANCH  70  74
ATOM     74  S   UNL A   1      37.060  32.322  39.240  1.00  0.00     0.124 S 
ATOM     75  O   UNL A   1      37.443  33.009  40.471  1.00  0.00    -0.237 OA
ATOM     76  O   UNL A   1      35.887  32.848  38.552  1.00  0.00    -0.237 OA
ATOM     77  O   UNL A   1      37.149  30.864  39.297  1.00  0.00    -0.744 OA
ENDBRANCH  70  74
ENDBRANCH  53  67
BRANCH  54  78
ATOM     78  C   UNL A   1      41.561  27.023  27.784  1.00  0.00     0.023 A 
ATOM     79  C   UNL A   1      41.319  25.644  27.686  1.00  0.00     0.031 A 
ATOM     80  C   UNL A   1      42.153  27.669  26.683  1.00  0.00     0.131 A 
ATOM     81  C   UNL A   1      41.702  24.947  26.530  1.00  0.00     0.055 A 
ATOM     82  C   UNL A   1      42.484  26.981  25.514  1.00  0.00     0.041 A 
ATOM     83  F   UNL A   1      42.405  28.987  26.724  1.00  0.00    -0.206 F 
ATOM     84  C   UNL A   1      42.269  25.609  25.438  1.00  0.00     0.022 A 
BRANCH  81  85
ATOM     85  S   UNL A   1      41.517  23.144  26.502  1.00  0.00     0.124 S 
ATOM     86  O   UNL A   1      42.304  22.782  25.330  1.00  0.00    -0.237 OA
ATOM     87  O   UNL A   1      42.078  22.762  27.794  1.00  0.00    -0.237 OA
ATOM     88  O   UNL A   1      40.074  22.951  26.370  1.00  0.00    -0.744 OA
ENDBRANCH  81  85
ENDBRANCH  54  78
BRANCH  66  89
ATOM     89  C   UNL A   1      44.429  27.234  34.134  1.00  0.00     0.023 A 
ATOM     90  C   UNL A   1      44.256  25.977  34.740  1.00  0.00     0.031 A 
ATOM     91  C   UNL A   1      45.722  27.790  34.119  1.00  0.00     0.131 A 
ATOM     92  C   UNL A   1      45.346  25.341  35.353  1.00  0.00     0.055 A 
ATOM     93  C   UNL A   1      46.813  27.124  34.677  1.00  0.00     0.041 A 
ATOM     94  F   UNL A   1      45.944  28.988  33.557  1.00  0.00    -0.206 F 
ATOM     95  C   UNL A   1      46.626  25.898  35.311  1.00  0.00     0.022 A 
BRANCH  92  96
ATOM     96  S   UNL A   1      45.050  23.812  36.284  1.00  0.00     0.124 S 
ATOM     97  O   UNL A   1      44.630  24.325  37.583  1.00  0.00    -0.237 OA
ATOM     98  O   UNL A   1      44.014  23.158  35.491  1.00  0.00    -0.237 OA
ATOM     99  O   UNL A   1      46.352  23.146  36.271  1.00  0.00    -0.744 OA
ENDBRANCH  92  96
ENDBRANCH  66  89
ENDBRANCH  40  41
ENDBRANCH  32  35
ENDBRANCH  30  31
ENDBRANCH  29  30
ENDBRANCH  28  29
ENDBRANCH   1  28
TORSDOF 20
ENDMDL
