MODEL 1
REMARK VINA RESULT:     -11.5      0.000      0.000
REMARK SMILES CN(C(=O)N1CCC(C(=O)NCCCCCCNC(=O)c2ccc(-c3c4nc(c(-c5cc(S(=O)(=O)[O-])ccc5F)c5ccc([nH]5)c(-c5cc(S(=O)(=O)[O-])ccc5F)c5nc(c(-c6cc(S(=O)(=O)[O-])ccc6F)c6ccc3[nH]6)C=C5)C=C4)cc2)CC1)[C@H]1CCSC1
REMARK SMILES IDX 15 1 14 2 13 3 12 4 11 5 9 6 10 7 8 9 3 10 4 11 5 12 6 13
REMARK SMILES IDX 85 14 7 15 84 16 2 17 1 18 86 19 87 20 90 21 88 22 89 23
REMARK SMILES IDX 16 24 17 25 18 26 19 27 20 29 21 30 22 31 83 32 23 33 82 34
REMARK SMILES IDX 24 35 25 36 26 37 76 38 27 39 81 40 75 41 77 42 28 43 80 44
REMARK SMILES IDX 74 45 73 46 29 48 61 49 41 50 60 51 42 52 45 53 59 54 78 55
REMARK SMILES IDX 43 56 44 57 58 59 79 60 46 61 30 62 31 63 39 64 32 65 38 66
REMARK SMILES IDX 40 67 37 68 33 69 34 70 35 71 36 72 62 73 63 74 71 75 64 76
REMARK SMILES IDX 70 77 72 78 69 79 65 80 66 81 67 82 68 83 47 84 48 85 56 86
REMARK SMILES IDX 49 87 55 88 57 89 54 90 50 91 51 92 52 93 53 94
REMARK H PARENT 11 8 18 28 77 47 45 58
REMARK Flexibility Score: inf
ROOT
ATOM      1  C   UNL A   1      34.705  22.214  24.357  1.00  0.00     0.002 C 
ENDROOT
BRANCH   1   2
ATOM      2  C   UNL A   1      34.005  20.857  24.491  1.00  0.00     0.002 C 
BRANCH   2   3
ATOM      3  C   UNL A   1      33.143  20.684  25.746  1.00  0.00     0.021 C 
BRANCH   3   4
ATOM      4  C   UNL A   1      33.281  21.813  26.765  1.00  0.00     0.116 C 
BRANCH   4   5
ATOM      5  N   UNL A   1      31.981  22.317  27.177  1.00  0.00    -0.356 N 
ATOM      6  C   UNL A   1      31.222  23.335  26.691  1.00  0.00     0.223 C 
ATOM      7  O   UNL A   1      30.148  23.571  27.250  1.00  0.00    -0.275 OA
ATOM      8  H   UNL A   1      31.581  21.840  27.939  1.00  0.00     0.163 HD
BRANCH   6   9
ATOM      9  C   UNL A   1      31.651  24.157  25.485  1.00  0.00     0.082 C 
ATOM     10  C   UNL A   1      30.153  27.204  23.515  1.00  0.00     0.320 C 
ATOM     11  O   UNL A   1      29.004  26.797  23.669  1.00  0.00    -0.248 OA
ATOM     12  N   UNL A   1      31.214  26.322  23.645  1.00  0.00    -0.325 N 
ATOM     13  C   UNL A   1      31.043  24.958  23.169  1.00  0.00     0.122 C 
ATOM     14  C   UNL A   1      32.232  26.500  24.672  1.00  0.00     0.122 C 
ATOM     15  C   UNL A   1      30.693  24.000  24.299  1.00  0.00     0.035 C 
ATOM     16  C   UNL A   1      31.956  25.610  25.880  1.00  0.00     0.035 C 
BRANCH  10  17
ATOM     17  N   UNL A   1      30.467  28.504  23.134  1.00  0.00    -0.324 N 
ATOM     18  C   UNL A   1      31.826  28.964  22.866  1.00  0.00     0.149 C 
BRANCH  17  19
ATOM     19  C   UNL A   1      29.425  29.540  22.985  1.00  0.00     0.097 C 
ATOM     20  C   UNL A   1      29.521  30.787  23.874  1.00  0.00     0.037 C 
ATOM     21  C   UNL A   1      29.275  30.063  21.557  1.00  0.00     0.094 C 
ATOM     22  C   UNL A   1      28.310  31.638  23.516  1.00  0.00     0.072 C 
ATOM     23  S   UNL A   1      28.140  31.474  21.712  1.00  0.00    -0.160 SA
ENDBRANCH  17  19
ENDBRANCH  10  17
ENDBRANCH   6   9
ENDBRANCH   4   5
ENDBRANCH   3   4
ENDBRANCH   2   3
ENDBRANCH   1   2
BRANCH   1  24
ATOM     24  C   UNL A   1      36.235  22.169  24.389  1.00  0.00     0.021 C 
BRANCH  24  25
ATOM     25  C   UNL A   1      36.846  22.166  25.786  1.00  0.00     0.116 C 
BRANCH  25  26
ATOM     26  N   UNL A   1      37.932  21.208  25.910  1.00  0.00    -0.352 N 
ATOM     27  C   UNL A   1      39.254  21.443  26.204  1.00  0.00     0.251 C 
ATOM     28  H   UNL A   1      37.688  20.265  25.763  1.00  0.00     0.163 HD
ATOM     29  O   UNL A   1      40.079  20.540  26.097  1.00  0.00    -0.269 OA
BRANCH  27  30
ATOM     30  C   UNL A   1      39.672  22.798  26.622  1.00  0.00     0.039 A 
ATOM     31  C   UNL A   1      40.545  22.941  27.703  1.00  0.00     0.014 A 
ATOM     32  C   UNL A   1      39.217  23.923  25.929  1.00  0.00     0.014 A 
ATOM     33  C   UNL A   1      41.016  24.211  28.050  1.00  0.00     0.010 A 
ATOM     34  C   UNL A   1      39.734  25.178  26.237  1.00  0.00     0.010 A 
ATOM     35  C   UNL A   1      40.639  25.335  27.299  1.00  0.00    -0.014 A 
BRANCH  35  36
ATOM     36  C   UNL A   1      41.156  26.694  27.607  1.00  0.00     0.031 A 
ATOM     37  C   UNL A   1      42.579  27.039  27.263  1.00  0.00     0.074 A 
ATOM     38  C   UNL A   1      40.386  27.575  28.275  1.00  0.00     0.049 A 
ATOM     39  N   UNL A   1      43.281  28.093  27.590  1.00  0.00    -0.248 NA
ATOM     40  C   UNL A   1      43.321  26.045  26.472  1.00  0.00     0.031 C 
ATOM     41  C   UNL A   1      38.996  27.349  28.679  1.00  0.00     0.029 A 
ATOM     42  N   UNL A   1      40.668  28.832  28.751  1.00  0.00    -0.354 N 
ATOM     43  C   UNL A   1      44.554  27.875  27.078  1.00  0.00     0.074 A 
ATOM     44  C   UNL A   1      44.536  26.570  26.450  1.00  0.00     0.031 C 
ATOM     45  C   UNL A   1      38.547  28.433  29.332  1.00  0.00     0.029 A 
ATOM     46  C   UNL A   1      39.626  29.409  29.442  1.00  0.00     0.049 A 
ATOM     47  H   UNL A   1      41.534  29.278  28.611  1.00  0.00     0.167 HD
ATOM     48  C   UNL A   1      45.635  28.693  27.118  1.00  0.00     0.034 A 
ATOM     49  C   UNL A   1      39.560  30.579  30.108  1.00  0.00     0.034 A 
ATOM     50  C   UNL A   1      45.625  30.004  27.719  1.00  0.00     0.049 A 
ATOM     51  C   UNL A   1      40.783  31.463  30.156  1.00  0.00     0.074 A 
ATOM     52  C   UNL A   1      46.641  30.944  27.753  1.00  0.00     0.029 A 
ATOM     53  N   UNL A   1      44.548  30.560  28.395  1.00  0.00    -0.354 N 
ATOM     54  N   UNL A   1      41.970  31.259  29.633  1.00  0.00    -0.248 NA
ATOM     55  C   UNL A   1      40.655  32.736  30.879  1.00  0.00     0.031 C 
ATOM     56  C   UNL A   1      46.199  32.041  28.500  1.00  0.00     0.029 A 
ATOM     57  C   UNL A   1      44.883  31.817  28.873  1.00  0.00     0.049 A 
ATOM     58  H   UNL A   1      43.673  30.124  28.518  1.00  0.00     0.167 HD
ATOM     59  C   UNL A   1      42.714  32.397  29.930  1.00  0.00     0.074 A 
ATOM     60  C   UNL A   1      41.844  33.283  30.676  1.00  0.00     0.031 C 
ATOM     61  C   UNL A   1      43.999  32.690  29.607  1.00  0.00     0.034 A 
BRANCH  48  62
ATOM     62  C   UNL A   1      46.924  28.177  26.525  1.00  0.00     0.023 A 
ATOM     63  C   UNL A   1      47.180  28.232  25.144  1.00  0.00     0.031 A 
ATOM     64  C   UNL A   1      47.903  27.602  27.354  1.00  0.00     0.131 A 
ATOM     65  C   UNL A   1      48.351  27.659  24.626  1.00  0.00     0.055 A 
ATOM     66  C   UNL A   1      49.102  27.104  26.841  1.00  0.00     0.041 A 
ATOM     67  F   UNL A   1      47.706  27.504  28.679  1.00  0.00    -0.206 F 
ATOM     68  C   UNL A   1      49.325  27.118  25.467  1.00  0.00     0.022 A 
BRANCH  65  69
ATOM     69  S   UNL A   1      48.521  27.512  22.827  1.00  0.00     0.124 S 
ATOM     70  O   UNL A   1      49.789  28.199  22.593  1.00  0.00    -0.237 OA
ATOM     71  O   UNL A   1      48.532  26.067  22.628  1.00  0.00    -0.237 OA
ATOM     72  O   UNL A   1      47.341  28.204  22.313  1.00  0.00    -0.744 OA
ENDBRANCH  65  69
ENDBRANCH  48  62
BRANCH  49  73
ATOM     73  C   UNL A   1      38.307  30.988  30.805  1.00  0.00     0.023 A 
ATOM     74  C   UNL A   1      37.281  31.649  30.112  1.00  0.00     0.031 A 
ATOM     75  C   UNL A   1      38.139  30.777  32.185  1.00  0.00     0.131 A 
ATOM     76  C   UNL A   1      36.156  32.121  30.806  1.00  0.00     0.055 A 
ATOM     77  C   UNL A   1      36.995  31.202  32.862  1.00  0.00     0.041 A 
ATOM     78  F   UNL A   1      39.088  30.147  32.895  1.00  0.00    -0.206 F 
ATOM     79  C   UNL A   1      36.001  31.891  32.175  1.00  0.00     0.022 A 
BRANCH  76  80
ATOM     80  S   UNL A   1      34.940  33.124  29.908  1.00  0.00     0.124 S 
ATOM     81  O   UNL A   1      34.029  33.515  30.978  1.00  0.00    -0.237 OA
ATOM     82  O   UNL A   1      35.773  34.186  29.354  1.00  0.00    -0.237 OA
ATOM     83  O   UNL A   1      34.388  32.192  28.928  1.00  0.00    -0.744 OA
ENDBRANCH  76  80
ENDBRANCH  49  73
BRANCH  61  84
ATOM     84  C   UNL A   1      44.514  34.053  29.993  1.00  0.00     0.023 A 
ATOM     85  C   UNL A   1      44.361  35.172  29.156  1.00  0.00     0.031 A 
ATOM     86  C   UNL A   1      45.162  34.231  31.229  1.00  0.00     0.131 A 
ATOM     87  C   UNL A   1      44.885  36.413  29.551  1.00  0.00     0.055 A 
ATOM     88  C   UNL A   1      45.635  35.476  31.638  1.00  0.00     0.041 A 
ATOM     89  F   UNL A   1      45.333  33.193  32.064  1.00  0.00    -0.206 F 
ATOM     90  C   UNL A   1      45.507  36.574  30.792  1.00  0.00     0.022 A 
BRANCH  87  91
ATOM     91  S   UNL A   1      44.797  37.806  28.393  1.00  0.00     0.124 S 
ATOM     92  O   UNL A   1      46.208  38.101  28.163  1.00  0.00    -0.237 OA
ATOM     93  O   UNL A   1      44.075  37.231  27.264  1.00  0.00    -0.237 OA
ATOM     94  O   UNL A   1      44.064  38.827  29.140  1.00  0.00    -0.744 OA
ENDBRANCH  87  91
ENDBRANCH  61  84
ENDBRANCH  35  36
ENDBRANCH  27  30
ENDBRANCH  25  26
ENDBRANCH  24  25
ENDBRANCH   1  24
TORSDOF 18
ENDMDL
MODEL 2
REMARK VINA RESULT:     -11.5      2.868      8.297
REMARK SMILES CN(C(=O)N1CCC(C(=O)NCCCCCCNC(=O)c2ccc(-c3c4nc(c(-c5cc(S(=O)(=O)[O-])ccc5F)c5ccc([nH]5)c(-c5cc(S(=O)(=O)[O-])ccc5F)c5nc(c(-c6cc(S(=O)(=O)[O-])ccc6F)c6ccc3[nH]6)C=C5)C=C4)cc2)CC1)[C@H]1CCSC1
REMARK SMILES IDX 15 1 14 2 13 3 12 4 11 5 9 6 10 7 8 9 3 10 4 11 5 12 6 13
REMARK SMILES IDX 85 14 7 15 84 16 2 17 1 18 86 19 87 20 90 21 88 22 89 23
REMARK SMILES IDX 16 24 17 25 18 26 19 27 20 29 21 30 22 31 83 32 23 33 82 34
REMARK SMILES IDX 24 35 25 36 26 37 76 38 27 39 81 40 75 41 77 42 28 43 80 44
REMARK SMILES IDX 74 45 73 46 29 48 61 49 41 50 60 51 42 52 45 53 59 54 78 55
REMARK SMILES IDX 43 56 44 57 58 59 79 60 46 61 30 62 31 63 39 64 32 65 38 66
REMARK SMILES IDX 40 67 37 68 33 69 34 70 35 71 36 72 62 73 63 74 71 75 64 76
REMARK SMILES IDX 70 77 72 78 69 79 65 80 66 81 67 82 68 83 47 84 48 85 56 86
REMARK SMILES IDX 49 87 55 88 57 89 54 90 50 91 51 92 52 93 53 94
REMARK H PARENT 11 8 18 28 77 47 45 58
REMARK Flexibility Score: inf
ROOT
ATOM      1  C   UNL A   1      37.044  21.614  24.488  1.00  0.00     0.002 C 
ENDROOT
BRANCH   1   2
ATOM      2  C   UNL A   1      35.522  21.494  24.616  1.00  0.00     0.002 C 
BRANCH   2   3
ATOM      3  C   UNL A   1      35.003  20.102  24.996  1.00  0.00     0.021 C 
BRANCH   3   4
ATOM      4  C   UNL A   1      33.530  20.067  25.396  1.00  0.00     0.116 C 
BRANCH   4   5
ATOM      5  N   UNL A   1      33.315  20.702  26.686  1.00  0.00    -0.356 N 
ATOM      6  C   UNL A   1      32.974  21.977  27.008  1.00  0.00     0.223 C 
ATOM      7  O   UNL A   1      32.876  22.262  28.205  1.00  0.00    -0.275 OA
ATOM      8  H   UNL A   1      33.438  20.106  27.459  1.00  0.00     0.163 HD
BRANCH   6   9
ATOM      9  C   UNL A   1      32.694  23.030  25.947  1.00  0.00     0.082 C 
ATOM     10  C   UNL A   1      31.186  26.655  25.949  1.00  0.00     0.320 C 
ATOM     11  O   UNL A   1      30.381  26.368  26.831  1.00  0.00    -0.248 OA
ATOM     12  N   UNL A   1      31.763  25.645  25.196  1.00  0.00    -0.325 N 
ATOM     13  C   UNL A   1      30.951  24.489  24.849  1.00  0.00     0.122 C 
ATOM     14  C   UNL A   1      33.202  25.414  25.205  1.00  0.00     0.122 C 
ATOM     15  C   UNL A   1      31.196  23.317  25.787  1.00  0.00     0.035 C 
ATOM     16  C   UNL A   1      33.570  24.276  26.152  1.00  0.00     0.035 C 
BRANCH  10  17
ATOM     17  N   UNL A   1      31.509  27.959  25.592  1.00  0.00    -0.324 N 
ATOM     18  C   UNL A   1      31.139  28.567  24.317  1.00  0.00     0.149 C 
BRANCH  17  19
ATOM     19  C   UNL A   1      32.280  28.840  26.494  1.00  0.00     0.097 C 
ATOM     20  C   UNL A   1      33.791  28.600  26.611  1.00  0.00     0.037 C 
ATOM     21  C   UNL A   1      32.121  30.328  26.187  1.00  0.00     0.094 C 
ATOM     22  C   UNL A   1      34.291  29.626  27.620  1.00  0.00     0.072 C 
ATOM     23  S   UNL A   1      33.351  31.140  27.251  1.00  0.00    -0.160 SA
ENDBRANCH  17  19
ENDBRANCH  10  17
ENDBRANCH   6   9
ENDBRANCH   4   5
ENDBRANCH   3   4
ENDBRANCH   2   3
ENDBRANCH   1   2
BRANCH   1  24
ATOM     24  C   UNL A   1      37.844  20.420  25.015  1.00  0.00     0.021 C 
BRANCH  24  25
ATOM     25  C   UNL A   1      39.106  20.786  25.787  1.00  0.00     0.116 C 
BRANCH  25  26
ATOM     26  N   UNL A   1      40.031  19.668  25.891  1.00  0.00    -0.352 N 
ATOM     27  C   UNL A   1      41.394  19.696  26.061  1.00  0.00     0.251 C 
ATOM     28  H   UNL A   1      39.626  18.772  25.831  1.00  0.00     0.163 HD
ATOM     29  O   UNL A   1      42.051  18.664  25.952  1.00  0.00    -0.269 OA
BRANCH  27  30
ATOM     30  C   UNL A   1      42.061  20.984  26.346  1.00  0.00     0.039 A 
ATOM     31  C   UNL A   1      42.293  21.881  25.300  1.00  0.00     0.014 A 
ATOM     32  C   UNL A   1      42.436  21.312  27.652  1.00  0.00     0.014 A 
ATOM     33  C   UNL A   1      42.841  23.137  25.573  1.00  0.00     0.010 A 
ATOM     34  C   UNL A   1      42.926  22.585  27.930  1.00  0.00     0.010 A 
ATOM     35  C   UNL A   1      43.132  23.511  26.894  1.00  0.00    -0.014 A 
BRANCH  35  36
ATOM     36  C   UNL A   1      43.672  24.855  27.229  1.00  0.00     0.031 A 
ATOM     37  C   UNL A   1      42.755  25.896  27.809  1.00  0.00     0.074 A 
ATOM     38  C   UNL A   1      44.947  25.166  26.925  1.00  0.00     0.049 A 
ATOM     39  N   UNL A   1      42.968  27.170  28.016  1.00  0.00    -0.248 NA
ATOM     40  C   UNL A   1      41.402  25.447  28.175  1.00  0.00     0.031 C 
ATOM     41  C   UNL A   1      45.928  24.247  26.342  1.00  0.00     0.029 A 
ATOM     42  N   UNL A   1      45.634  26.349  27.043  1.00  0.00    -0.354 N 
ATOM     43  C   UNL A   1      41.771  27.682  28.501  1.00  0.00     0.074 A 
ATOM     44  C   UNL A   1      40.824  26.587  28.522  1.00  0.00     0.031 C 
ATOM     45  C   UNL A   1      47.089  24.898  26.164  1.00  0.00     0.029 A 
ATOM     46  C   UNL A   1      46.924  26.291  26.568  1.00  0.00     0.049 A 
ATOM     47  H   UNL A   1      45.240  27.163  27.434  1.00  0.00     0.167 HD
ATOM     48  C   UNL A   1      41.491  28.947  28.902  1.00  0.00     0.034 A 
ATOM     49  C   UNL A   1      47.857  27.256  26.448  1.00  0.00     0.034 A 
ATOM     50  C   UNL A   1      42.457  30.018  28.905  1.00  0.00     0.049 A 
ATOM     51  C   UNL A   1      47.515  28.661  26.882  1.00  0.00     0.074 A 
ATOM     52  C   UNL A   1      42.302  31.317  29.357  1.00  0.00     0.029 A 
ATOM     53  N   UNL A   1      43.758  29.917  28.430  1.00  0.00    -0.354 N 
ATOM     54  N   UNL A   1      46.389  29.122  27.375  1.00  0.00    -0.248 NA
ATOM     55  C   UNL A   1      48.572  29.674  26.748  1.00  0.00     0.031 C 
ATOM     56  C   UNL A   1      43.486  32.016  29.100  1.00  0.00     0.029 A 
ATOM     57  C   UNL A   1      44.406  31.136  28.553  1.00  0.00     0.049 A 
ATOM     58  H   UNL A   1      44.161  29.097  28.060  1.00  0.00     0.167 HD
ATOM     59  C   UNL A   1      46.617  30.468  27.647  1.00  0.00     0.074 A 
ATOM     60  C   UNL A   1      47.987  30.744  27.266  1.00  0.00     0.031 C 
ATOM     61  C   UNL A   1      45.775  31.390  28.176  1.00  0.00     0.034 A 
BRANCH  48  62
ATOM     62  C   UNL A   1      40.077  29.245  29.336  1.00  0.00     0.023 A 
ATOM     63  C   UNL A   1      39.711  29.289  30.693  1.00  0.00     0.031 A 
ATOM     64  C   UNL A   1      39.075  29.469  28.377  1.00  0.00     0.131 A 
ATOM     65  C   UNL A   1      38.368  29.479  31.049  1.00  0.00     0.055 A 
ATOM     66  C   UNL A   1      37.754  29.736  28.739  1.00  0.00     0.041 A 
ATOM     67  F   UNL A   1      39.360  29.420  27.065  1.00  0.00    -0.206 F 
ATOM     68  C   UNL A   1      37.391  29.728  30.083  1.00  0.00     0.022 A 
BRANCH  65  69
ATOM     69  S   UNL A   1      37.893  29.265  32.786  1.00  0.00     0.124 S 
ATOM     70  O   UNL A   1      37.742  27.816  32.875  1.00  0.00    -0.237 OA
ATOM     71  O   UNL A   1      39.034  29.833  33.497  1.00  0.00    -0.237 OA
ATOM     72  O   UNL A   1      36.649  30.023  32.899  1.00  0.00    -0.744 OA
ENDBRANCH  65  69
ENDBRANCH  48  62
BRANCH  49  73
ATOM     73  C   UNL A   1      49.201  26.950  25.878  1.00  0.00     0.023 A 
ATOM     74  C   UNL A   1      50.281  26.627  26.714  1.00  0.00     0.031 A 
ATOM     75  C   UNL A   1      49.440  27.032  24.495  1.00  0.00     0.131 A 
ATOM     76  C   UNL A   1      51.561  26.447  26.169  1.00  0.00     0.055 A 
ATOM     77  C   UNL A   1      50.705  26.801  23.951  1.00  0.00     0.041 A 
ATOM     78  F   UNL A   1      48.442  27.334  23.650  1.00  0.00    -0.206 F 
ATOM     79  C   UNL A   1      51.778  26.520  24.790  1.00  0.00     0.022 A 
BRANCH  76  80
ATOM     80  S   UNL A   1      52.960  26.208  27.298  1.00  0.00     0.124 S 
ATOM     81  O   UNL A   1      52.306  26.285  28.601  1.00  0.00    -0.237 OA
ATOM     82  O   UNL A   1      53.448  24.892  26.902  1.00  0.00    -0.237 OA
ATOM     83  O   UNL A   1      53.849  27.322  26.980  1.00  0.00    -0.744 OA
ENDBRANCH  76  80
ENDBRANCH  49  73
BRANCH  61  84
ATOM     84  C   UNL A   1      46.336  32.764  28.441  1.00  0.00     0.023 A 
ATOM     85  C   UNL A   1      46.315  33.778  27.469  1.00  0.00     0.031 A 
ATOM     86  C   UNL A   1      46.893  33.060  29.700  1.00  0.00     0.131 A 
ATOM     87  C   UNL A   1      46.877  35.032  27.759  1.00  0.00     0.055 A 
ATOM     88  C   UNL A   1      47.404  34.322  29.998  1.00  0.00     0.041 A 
ATOM     89  F   UNL A   1      46.937  32.125  30.662  1.00  0.00    -0.206 F 
ATOM     90  C   UNL A   1      47.406  35.313  29.021  1.00  0.00     0.022 A 
BRANCH  87  91
ATOM     91  S   UNL A   1      46.962  36.276  26.442  1.00  0.00     0.124 S 
ATOM     92  O   UNL A   1      45.552  36.477  26.122  1.00  0.00    -0.237 OA
ATOM     93  O   UNL A   1      47.629  37.391  27.106  1.00  0.00    -0.237 OA
ATOM     94  O   UNL A   1      47.748  35.619  25.399  1.00  0.00    -0.744 OA
ENDBRANCH  87  91
ENDBRANCH  61  84
ENDBRANCH  35  36
ENDBRANCH  27  30
ENDBRANCH  25  26
ENDBRANCH  24  25
ENDBRANCH   1  24
TORSDOF 18
ENDMDL
MODEL 3
REMARK VINA RESULT:     -11.4      2.169      7.936
REMARK SMILES CN(C(=O)N1CCC(C(=O)NCCCCCCNC(=O)c2ccc(-c3c4nc(c(-c5cc(S(=O)(=O)[O-])ccc5F)c5ccc([nH]5)c(-c5cc(S(=O)(=O)[O-])ccc5F)c5nc(c(-c6cc(S(=O)(=O)[O-])ccc6F)c6ccc3[nH]6)C=C5)C=C4)cc2)CC1)[C@H]1CCSC1
REMARK SMILES IDX 15 1 14 2 13 3 12 4 11 5 9 6 10 7 8 9 3 10 4 11 5 12 6 13
REMARK SMILES IDX 85 14 7 15 84 16 2 17 1 18 86 19 87 20 90 21 88 22 89 23
REMARK SMILES IDX 16 24 17 25 18 26 19 27 20 29 21 30 22 31 83 32 23 33 82 34
REMARK SMILES IDX 24 35 25 36 26 37 76 38 27 39 81 40 75 41 77 42 28 43 80 44
REMARK SMILES IDX 74 45 73 46 29 48 61 49 41 50 60 51 42 52 45 53 59 54 78 55
REMARK SMILES IDX 43 56 44 57 58 59 79 60 46 61 30 62 31 63 39 64 32 65 38 66
REMARK SMILES IDX 40 67 37 68 33 69 34 70 35 71 36 72 62 73 63 74 71 75 64 76
REMARK SMILES IDX 70 77 72 78 69 79 65 80 66 81 67 82 68 83 47 84 48 85 56 86
REMARK SMILES IDX 49 87 55 88 57 89 54 90 50 91 51 92 52 93 53 94
REMARK H PARENT 11 8 18 28 77 47 45 58
REMARK Flexibility Score: inf
ROOT
ATOM      1  C   UNL A   1      37.065  21.889  24.324  1.00  0.00     0.002 C 
ENDROOT
BRANCH   1   2
ATOM      2  C   UNL A   1      35.554  22.049  24.531  1.00  0.00     0.002 C 
BRANCH   2   3
ATOM      3  C   UNL A   1      35.027  21.602  25.898  1.00  0.00     0.021 C 
BRANCH   3   4
ATOM      4  C   UNL A   1      33.607  21.041  25.874  1.00  0.00     0.116 C 
BRANCH   4   5
ATOM      5  N   UNL A   1      32.732  21.772  26.775  1.00  0.00    -0.356 N 
ATOM      6  C   UNL A   1      32.177  23.008  26.675  1.00  0.00     0.223 C 
ATOM      7  O   UNL A   1      31.477  23.404  27.611  1.00  0.00    -0.275 OA
ATOM      8  H   UNL A   1      32.503  21.289  27.602  1.00  0.00     0.163 HD
BRANCH   6   9
ATOM      9  C   UNL A   1      32.376  23.885  25.449  1.00  0.00     0.082 C 
ATOM     10  C   UNL A   1      30.630  27.089  24.000  1.00  0.00     0.320 C 
ATOM     11  O   UNL A   1      29.523  26.711  24.375  1.00  0.00    -0.248 OA
ATOM     12  N   UNL A   1      31.655  26.168  23.856  1.00  0.00    -0.325 N 
ATOM     13  C   UNL A   1      31.329  24.840  23.359  1.00  0.00     0.122 C 
ATOM     14  C   UNL A   1      32.874  26.253  24.650  1.00  0.00     0.122 C 
ATOM     15  C   UNL A   1      31.183  23.829  24.487  1.00  0.00     0.035 C 
ATOM     16  C   UNL A   1      32.821  25.303  25.842  1.00  0.00     0.035 C 
BRANCH  10  17
ATOM     17  N   UNL A   1      30.914  28.399  23.628  1.00  0.00    -0.324 N 
ATOM     18  C   UNL A   1      32.266  28.937  23.523  1.00  0.00     0.149 C 
BRANCH  17  19
ATOM     19  C   UNL A   1      29.840  29.365  23.317  1.00  0.00     0.097 C 
ATOM     20  C   UNL A   1      29.874  30.726  24.023  1.00  0.00     0.037 C 
ATOM     21  C   UNL A   1      29.702  29.676  21.828  1.00  0.00     0.094 C 
ATOM     22  C   UNL A   1      28.643  31.474  23.530  1.00  0.00     0.072 C 
ATOM     23  S   UNL A   1      28.517  31.053  21.765  1.00  0.00    -0.160 SA
ENDBRANCH  17  19
ENDBRANCH  10  17
ENDBRANCH   6   9
ENDBRANCH   4   5
ENDBRANCH   3   4
ENDBRANCH   2   3
ENDBRANCH   1   2
BRANCH   1  24
ATOM     24  C   UNL A   1      37.695  20.674  25.010  1.00  0.00     0.021 C 
BRANCH  24  25
ATOM     25  C   UNL A   1      38.916  20.985  25.868  1.00  0.00     0.116 C 
BRANCH  25  26
ATOM     26  N   UNL A   1      39.832  19.859  25.950  1.00  0.00    -0.352 N 
ATOM     27  C   UNL A   1      41.196  19.874  26.114  1.00  0.00     0.251 C 
ATOM     28  H   UNL A   1      39.420  18.967  25.878  1.00  0.00     0.163 HD
ATOM     29  O   UNL A   1      41.845  18.839  25.986  1.00  0.00    -0.269 OA
BRANCH  27  30
ATOM     30  C   UNL A   1      41.874  21.152  26.417  1.00  0.00     0.039 A 
ATOM     31  C   UNL A   1      42.147  22.044  25.376  1.00  0.00     0.014 A 
ATOM     32  C   UNL A   1      42.219  21.476  27.732  1.00  0.00     0.014 A 
ATOM     33  C   UNL A   1      42.707  23.292  25.663  1.00  0.00     0.010 A 
ATOM     34  C   UNL A   1      42.720  22.742  28.022  1.00  0.00     0.010 A 
ATOM     35  C   UNL A   1      42.968  23.663  26.992  1.00  0.00    -0.014 A 
BRANCH  35  36
ATOM     36  C   UNL A   1      43.518  25.000  27.340  1.00  0.00     0.031 A 
ATOM     37  C   UNL A   1      42.605  26.048  27.913  1.00  0.00     0.074 A 
ATOM     38  C   UNL A   1      44.801  25.298  27.055  1.00  0.00     0.049 A 
ATOM     39  N   UNL A   1      42.830  27.318  28.129  1.00  0.00    -0.248 NA
ATOM     40  C   UNL A   1      41.242  25.613  28.259  1.00  0.00     0.031 C 
ATOM     41  C   UNL A   1      45.778  24.370  26.481  1.00  0.00     0.029 A 
ATOM     42  N   UNL A   1      45.499  26.472  27.188  1.00  0.00    -0.354 N 
ATOM     43  C   UNL A   1      41.632  27.842  28.600  1.00  0.00     0.074 A 
ATOM     44  C   UNL A   1      40.673  26.757  28.603  1.00  0.00     0.031 C 
ATOM     45  C   UNL A   1      46.949  25.009  26.322  1.00  0.00     0.029 A 
ATOM     46  C   UNL A   1      46.795  26.401  26.730  1.00  0.00     0.049 A 
ATOM     47  H   UNL A   1      45.109  27.289  27.577  1.00  0.00     0.167 HD
ATOM     48  C   UNL A   1      41.361  29.108  29.004  1.00  0.00     0.034 A 
ATOM     49  C   UNL A   1      47.740  27.357  26.627  1.00  0.00     0.034 A 
ATOM     50  C   UNL A   1      42.339  30.168  29.025  1.00  0.00     0.049 A 
ATOM     51  C   UNL A   1      47.408  28.763  27.064  1.00  0.00     0.074 A 
ATOM     52  C   UNL A   1      42.192  31.466  29.481  1.00  0.00     0.029 A 
ATOM     53  N   UNL A   1      43.645  30.054  28.567  1.00  0.00    -0.354 N 
ATOM     54  N   UNL A   1      46.280  29.235  27.543  1.00  0.00    -0.248 NA
ATOM     55  C   UNL A   1      48.478  29.764  26.949  1.00  0.00     0.031 C 
ATOM     56  C   UNL A   1      43.388  32.153  29.244  1.00  0.00     0.029 A 
ATOM     57  C   UNL A   1      44.305  31.265  28.704  1.00  0.00     0.049 A 
ATOM     58  H   UNL A   1      44.044  29.232  28.198  1.00  0.00     0.167 HD
ATOM     59  C   UNL A   1      46.521  30.576  27.825  1.00  0.00     0.074 A 
ATOM     60  C   UNL A   1      47.898  30.839  27.463  1.00  0.00     0.031 C 
ATOM     61  C   UNL A   1      45.682  31.506  28.347  1.00  0.00     0.034 A 
BRANCH  48  62
ATOM     62  C   UNL A   1      39.945  29.420  29.421  1.00  0.00     0.023 A 
ATOM     63  C   UNL A   1      39.577  29.534  30.773  1.00  0.00     0.031 A 
ATOM     64  C   UNL A   1      38.942  29.586  28.450  1.00  0.00     0.131 A 
ATOM     65  C   UNL A   1      38.232  29.735  31.117  1.00  0.00     0.055 A 
ATOM     66  C   UNL A   1      37.619  29.864  28.797  1.00  0.00     0.041 A 
ATOM     67  F   UNL A   1      39.229  29.468  27.143  1.00  0.00    -0.206 F 
ATOM     68  C   UNL A   1      37.255  29.925  30.139  1.00  0.00     0.022 A 
BRANCH  65  69
ATOM     69  S   UNL A   1      37.758  29.612  32.863  1.00  0.00     0.124 S 
ATOM     70  O   UNL A   1      36.649  30.560  32.936  1.00  0.00    -0.237 OA
ATOM     71  O   UNL A   1      37.403  28.203  32.995  1.00  0.00    -0.237 OA
ATOM     72  O   UNL A   1      38.966  30.019  33.577  1.00  0.00    -0.744 OA
ENDBRANCH  65  69
ENDBRANCH  48  62
BRANCH  49  73
ATOM     73  C   UNL A   1      49.088  27.038  26.074  1.00  0.00     0.023 A 
ATOM     74  C   UNL A   1      49.443  27.431  24.774  1.00  0.00     0.031 A 
ATOM     75  C   UNL A   1      50.019  26.286  26.812  1.00  0.00     0.131 A 
ATOM     76  C   UNL A   1      50.674  27.030  24.231  1.00  0.00     0.055 A 
ATOM     77  C   UNL A   1      51.263  25.934  26.288  1.00  0.00     0.041 A 
ATOM     78  F   UNL A   1      49.731  25.888  28.061  1.00  0.00    -0.206 F 
ATOM     79  C   UNL A   1      51.591  26.293  24.984  1.00  0.00     0.022 A 
BRANCH  76  80
ATOM     80  S   UNL A   1      51.018  27.406  22.491  1.00  0.00     0.124 S 
ATOM     81  O   UNL A   1      50.979  28.864  22.488  1.00  0.00    -0.237 OA
ATOM     82  O   UNL A   1      52.331  26.798  22.303  1.00  0.00    -0.237 OA
ATOM     83  O   UNL A   1      49.924  26.751  21.778  1.00  0.00    -0.744 OA
ENDBRANCH  76  80
ENDBRANCH  49  73
BRANCH  61  84
ATOM     84  C   UNL A   1      46.255  32.872  28.627  1.00  0.00     0.023 A 
ATOM     85  C   UNL A   1      46.196  33.912  27.684  1.00  0.00     0.031 A 
ATOM     86  C   UNL A   1      46.862  33.134  29.869  1.00  0.00     0.131 A 
ATOM     87  C   UNL A   1      46.771  35.157  27.984  1.00  0.00     0.055 A 
ATOM     88  C   UNL A   1      47.386  34.387  30.180  1.00  0.00     0.041 A 
ATOM     89  F   UNL A   1      46.944  32.173  30.803  1.00  0.00    -0.206 F 
ATOM     90  C   UNL A   1      47.350  35.405  29.232  1.00  0.00     0.022 A 
BRANCH  87  91
ATOM     91  S   UNL A   1      46.804  36.437  26.699  1.00  0.00     0.124 S 
ATOM     92  O   UNL A   1      48.101  37.066  26.929  1.00  0.00    -0.237 OA
ATOM     93  O   UNL A   1      46.685  35.654  25.474  1.00  0.00    -0.237 OA
ATOM     94  O   UNL A   1      45.645  37.270  27.015  1.00  0.00    -0.744 OA
ENDBRANCH  87  91
ENDBRANCH  61  84
ENDBRANCH  35  36
ENDBRANCH  27  30
ENDBRANCH  25  26
ENDBRANCH  24  25
ENDBRANCH   1  24
TORSDOF 18
ENDMDL
