MODEL 1
REMARK VINA RESULT:     -10.9      0.000      0.000
REMARK SMILES CCOC(=O)c1c(NC(=O)/C=C/C(=O)NCCCCCCNC(=O)c2ccc(-c3c4nc(c(-c5cc(S(=O)(=O)[O-])ccc5F)c5ccc([nH]5)c(-c5cc(S(=O)(=O)[O-])ccc5F)c5nc(c(-c6cc(S(=O)(=O)[O-])ccc6F)c6ccc3[nH]6)C=C5)C=C4)cc2)sc(C)c1-c1ccc(C)c(C)c1
REMARK SMILES IDX 17 1 16 2 15 3 13 4 14 5 12 7 11 8 9 9 8 10 10 12 7 13 6 14
REMARK SMILES IDX 91 15 88 16 89 17 90 18 4 19 5 20 3 21 2 22 1 23 92 24 93 25
REMARK SMILES IDX 99 26 94 27 97 28 95 29 98 30 96 31 18 32 19 33 20 34 21 35
REMARK SMILES IDX 22 36 23 37 24 39 25 40 26 41 87 42 27 43 86 44 28 45 29 46
REMARK SMILES IDX 30 47 80 48 31 49 85 50 79 51 81 52 32 53 84 54 78 55 77 56
REMARK SMILES IDX 33 58 65 59 45 60 64 61 46 62 49 63 63 64 82 65 47 66 48 67
REMARK SMILES IDX 62 69 83 70 50 71 34 72 35 73 43 74 36 75 42 76 44 77 41 78
REMARK SMILES IDX 37 79 38 80 39 81 40 82 66 83 67 84 75 85 68 86 74 87 76 88
REMARK SMILES IDX 73 89 69 90 70 91 71 92 72 93 51 94 52 95 60 96 53 97 59 98
REMARK SMILES IDX 61 99 58 100 54 101 55 102 56 103 57 104
REMARK H PARENT 15 6 8 11 22 38 81 57 49 68
REMARK Flexibility Score: inf
ROOT
ATOM      1  C   UNL A   1      39.612  20.811  26.098  1.00  0.00     0.021 C 
ENDROOT
BRANCH   1   2
ATOM      2  C   UNL A   1      38.249  20.776  25.414  1.00  0.00     0.116 C 
BRANCH   2   3
ATOM      3  N   UNL A   1      37.980  22.056  24.790  1.00  0.00    -0.353 N 
ATOM      4  C   UNL A   1      36.770  22.527  24.389  1.00  0.00     0.244 C 
ATOM      5  O   UNL A   1      36.683  23.404  23.536  1.00  0.00    -0.270 OA
ATOM      6  H   UNL A   1      38.754  22.646  24.641  1.00  0.00     0.163 HD
BRANCH   4   7
ATOM      7  C   UNL A   1      35.555  21.972  25.017  1.00  0.00     0.077 C 
ATOM      8  C   UNL A   1      34.650  22.848  25.482  1.00  0.00     0.077 C 
BRANCH   8   9
ATOM      9  C   UNL A   1      33.295  22.415  25.836  1.00  0.00     0.249 C 
ATOM     10  N   UNL A   1      32.195  23.097  25.398  1.00  0.00    -0.313 N 
ATOM     11  H   UNL A   1      31.345  22.751  25.752  1.00  0.00     0.171 HD
ATOM     12  O   UNL A   1      33.163  21.425  26.555  1.00  0.00    -0.270 OA
BRANCH  10  13
ATOM     13  C   UNL A   1      32.050  24.185  24.549  1.00  0.00     0.111 A 
ATOM     14  C   UNL A   1      31.295  25.323  24.788  1.00  0.00     0.102 A 
ATOM     15  C   UNL A   1      31.159  26.114  23.579  1.00  0.00     0.012 A 
ATOM     16  S   UNL A   1      32.860  24.303  23.070  1.00  0.00    -0.122 S 
ATOM     17  C   UNL A   1      31.885  25.582  22.526  1.00  0.00     0.012 A 
ATOM     18  C   UNL A   1      31.974  25.967  21.085  1.00  0.00     0.057 C 
BRANCH  14  19
ATOM     19  C   UNL A   1      30.714  25.594  26.096  1.00  0.00     0.341 C 
ATOM     20  O   UNL A   1      29.549  25.313  26.362  1.00  0.00    -0.246 OA
BRANCH  19  21
ATOM     21  O   UNL A   1      31.570  26.206  26.959  1.00  0.00    -0.462 OA
BRANCH  21  22
ATOM     22  C   UNL A   1      31.540  27.640  26.958  1.00  0.00     0.230 C 
ATOM     23  C   UNL A   1      32.926  28.256  26.853  1.00  0.00     0.049 C 
ENDBRANCH  21  22
ENDBRANCH  19  21
ENDBRANCH  14  19
BRANCH  15  24
ATOM     24  C   UNL A   1      30.427  27.362  23.430  1.00  0.00    -0.016 A 
ATOM     25  C   UNL A   1      31.138  28.553  23.290  1.00  0.00     0.009 A 
ATOM     26  C   UNL A   1      29.029  27.379  23.417  1.00  0.00     0.012 A 
ATOM     27  C   UNL A   1      30.453  29.755  23.144  1.00  0.00     0.004 A 
ATOM     28  C   UNL A   1      28.326  28.584  23.253  1.00  0.00    -0.048 A 
ATOM     29  C   UNL A   1      29.049  29.787  23.120  1.00  0.00    -0.048 A 
ATOM     30  C   UNL A   1      26.824  28.547  23.225  1.00  0.00     0.044 C 
ATOM     31  C   UNL A   1      28.391  31.131  22.978  1.00  0.00     0.044 C 
ENDBRANCH  15  24
ENDBRANCH  10  13
ENDBRANCH   8   9
ENDBRANCH   4   7
ENDBRANCH   2   3
ENDBRANCH   1   2
BRANCH   1  32
ATOM     32  C   UNL A   1      40.403  19.505  25.958  1.00  0.00     0.002 C 
BRANCH  32  33
ATOM     33  C   UNL A   1      41.920  19.677  25.824  1.00  0.00     0.002 C 
BRANCH  33  34
ATOM     34  C   UNL A   1      42.756  18.513  26.361  1.00  0.00     0.021 C 
BRANCH  34  35
ATOM     35  C   UNL A   1      44.257  18.650  26.138  1.00  0.00     0.116 C 
BRANCH  35  36
ATOM     36  N   UNL A   1      44.598  18.668  24.726  1.00  0.00    -0.352 N 
ATOM     37  C   UNL A   1      44.756  19.749  23.895  1.00  0.00     0.251 C 
ATOM     38  H   UNL A   1      44.734  17.786  24.309  1.00  0.00     0.163 HD
ATOM     39  O   UNL A   1      44.849  19.587  22.683  1.00  0.00    -0.269 OA
BRANCH  37  40
ATOM     40  C   UNL A   1      44.780  21.108  24.475  1.00  0.00     0.039 A 
ATOM     41  C   UNL A   1      45.475  21.323  25.667  1.00  0.00     0.014 A 
ATOM     42  C   UNL A   1      44.147  22.172  23.821  1.00  0.00     0.014 A 
ATOM     43  C   UNL A   1      45.601  22.621  26.166  1.00  0.00     0.010 A 
ATOM     44  C   UNL A   1      44.325  23.472  24.289  1.00  0.00     0.010 A 
ATOM     45  C   UNL A   1      45.064  23.710  25.458  1.00  0.00    -0.014 A 
BRANCH  45  46
ATOM     46  C   UNL A   1      45.297  25.108  25.902  1.00  0.00     0.031 A 
ATOM     47  C   UNL A   1      46.678  25.698  25.851  1.00  0.00     0.074 A 
ATOM     48  C   UNL A   1      44.272  25.816  26.421  1.00  0.00     0.049 A 
ATOM     49  N   UNL A   1      47.098  26.857  26.287  1.00  0.00    -0.248 NA
ATOM     50  C   UNL A   1      47.728  24.864  25.247  1.00  0.00     0.031 C 
ATOM     51  C   UNL A   1      42.894  25.336  26.549  1.00  0.00     0.029 A 
ATOM     52  N   UNL A   1      44.232  27.080  26.953  1.00  0.00    -0.354 N 
ATOM     53  C   UNL A   1      48.460  26.893  26.016  1.00  0.00     0.074 A 
ATOM     54  C   UNL A   1      48.804  25.617  25.424  1.00  0.00     0.031 C 
ATOM     55  C   UNL A   1      42.144  26.297  27.111  1.00  0.00     0.029 A 
ATOM     56  C   UNL A   1      42.992  27.440  27.429  1.00  0.00     0.049 A 
ATOM     57  H   UNL A   1      45.016  27.675  26.989  1.00  0.00     0.167 HD
ATOM     58  C   UNL A   1      49.338  27.906  26.224  1.00  0.00     0.034 A 
ATOM     59  C   UNL A   1      42.590  28.555  28.072  1.00  0.00     0.034 A 
ATOM     60  C   UNL A   1      48.980  29.173  26.812  1.00  0.00     0.049 A 
ATOM     61  C   UNL A   1      43.601  29.641  28.344  1.00  0.00     0.074 A 
ATOM     62  C   UNL A   1      49.777  30.285  27.015  1.00  0.00     0.029 A 
ATOM     63  N   UNL A   1      47.721  29.494  27.302  1.00  0.00    -0.354 N 
ATOM     64  N   UNL A   1      44.876  29.678  28.036  1.00  0.00    -0.248 NA
ATOM     65  C   UNL A   1      43.116  30.835  29.049  1.00  0.00     0.031 C 
ATOM     66  C   UNL A   1      49.020  31.253  27.685  1.00  0.00     0.029 A 
ATOM     67  C   UNL A   1      47.730  30.772  27.841  1.00  0.00     0.049 A 
ATOM     68  H   UNL A   1      46.935  28.901  27.271  1.00  0.00     0.167 HD
ATOM     69  C   UNL A   1      45.340  30.907  28.492  1.00  0.00     0.074 A 
ATOM     70  C   UNL A   1      44.203  31.591  29.076  1.00  0.00     0.031 C 
ATOM     71  C   UNL A   1      46.592  31.429  28.437  1.00  0.00     0.034 A 
BRANCH  58  72
ATOM     72  C   UNL A   1      50.777  27.673  25.832  1.00  0.00     0.023 A 
ATOM     73  C   UNL A   1      51.216  27.848  24.508  1.00  0.00     0.031 A 
ATOM     74  C   UNL A   1      51.721  27.271  26.792  1.00  0.00     0.131 A 
ATOM     75  C   UNL A   1      52.548  27.568  24.169  1.00  0.00     0.055 A 
ATOM     76  C   UNL A   1      53.062  27.062  26.463  1.00  0.00     0.041 A 
ATOM     77  F   UNL A   1      51.355  27.069  28.068  1.00  0.00    -0.206 F 
ATOM     78  C   UNL A   1      53.480  27.199  25.142  1.00  0.00     0.022 A 
BRANCH  75  79
ATOM     79  S   UNL A   1      53.021  27.588  22.418  1.00  0.00     0.124 S 
ATOM     80  O   UNL A   1      51.745  27.885  21.772  1.00  0.00    -0.237 OA
ATOM     81  O   UNL A   1      54.022  28.648  22.374  1.00  0.00    -0.237 OA
ATOM     82  O   UNL A   1      53.531  26.239  22.185  1.00  0.00    -0.744 OA
ENDBRANCH  75  79
ENDBRANCH  58  72
BRANCH  59  83
ATOM     83  C   UNL A   1      41.182  28.697  28.542  1.00  0.00     0.023 A 
ATOM     84  C   UNL A   1      40.863  28.604  29.906  1.00  0.00     0.031 A 
ATOM     85  C   UNL A   1      40.125  28.865  27.629  1.00  0.00     0.131 A 
ATOM     86  C   UNL A   1      39.521  28.624  30.314  1.00  0.00     0.055 A 
ATOM     87  C   UNL A   1      38.794  28.939  28.045  1.00  0.00     0.041 A 
ATOM     88  F   UNL A   1      40.373  28.961  26.313  1.00  0.00    -0.206 F 
ATOM     89  C   UNL A   1      38.485  28.803  29.395  1.00  0.00     0.022 A 
BRANCH  86  90
ATOM     90  S   UNL A   1      39.140  28.308  32.060  1.00  0.00     0.124 S 
ATOM     91  O   UNL A   1      38.402  29.512  32.426  1.00  0.00    -0.237 OA
ATOM     92  O   UNL A   1      38.361  27.077  31.980  1.00  0.00    -0.237 OA
ATOM     93  O   UNL A   1      40.458  28.171  32.676  1.00  0.00    -0.744 OA
ENDBRANCH  86  90
ENDBRANCH  59  83
BRANCH  71  94
ATOM     94  C   UNL A   1      46.778  32.813  29.002  1.00  0.00     0.023 A 
ATOM     95  C   UNL A   1      46.596  33.961  28.209  1.00  0.00     0.031 A 
ATOM     96  C   UNL A   1      47.156  32.988  30.344  1.00  0.00     0.131 A 
ATOM     97  C   UNL A   1      46.843  35.229  28.752  1.00  0.00     0.055 A 
ATOM     98  C   UNL A   1      47.345  34.256  30.894  1.00  0.00     0.041 A 
ATOM     99  F   UNL A   1      47.344  31.926  31.145  1.00  0.00    -0.206 F 
ATOM    100  C   UNL A   1      47.201  35.386  30.093  1.00  0.00     0.022 A 
BRANCH  97 101
ATOM    101  S   UNL A   1      46.765  36.674  27.657  1.00  0.00     0.124 S 
ATOM    102  O   UNL A   1      48.120  36.721  27.120  1.00  0.00    -0.237 OA
ATOM    103  O   UNL A   1      45.717  36.297  26.714  1.00  0.00    -0.237 OA
ATOM    104  O   UNL A   1      46.417  37.770  28.561  1.00  0.00    -0.744 OA
ENDBRANCH  97 101
ENDBRANCH  71  94
ENDBRANCH  45  46
ENDBRANCH  37  40
ENDBRANCH  35  36
ENDBRANCH  34  35
ENDBRANCH  33  34
ENDBRANCH  32  33
ENDBRANCH   1  32
TORSDOF 22
ENDMDL
MODEL 2
REMARK VINA RESULT:     -10.8      6.456     11.982
REMARK SMILES CCOC(=O)c1c(NC(=O)/C=C/C(=O)NCCCCCCNC(=O)c2ccc(-c3c4nc(c(-c5cc(S(=O)(=O)[O-])ccc5F)c5ccc([nH]5)c(-c5cc(S(=O)(=O)[O-])ccc5F)c5nc(c(-c6cc(S(=O)(=O)[O-])ccc6F)c6ccc3[nH]6)C=C5)C=C4)cc2)sc(C)c1-c1ccc(C)c(C)c1
REMARK SMILES IDX 17 1 16 2 15 3 13 4 14 5 12 7 11 8 9 9 8 10 10 12 7 13 6 14
REMARK SMILES IDX 91 15 88 16 89 17 90 18 4 19 5 20 3 21 2 22 1 23 92 24 93 25
REMARK SMILES IDX 99 26 94 27 97 28 95 29 98 30 96 31 18 32 19 33 20 34 21 35
REMARK SMILES IDX 22 36 23 37 24 39 25 40 26 41 87 42 27 43 86 44 28 45 29 46
REMARK SMILES IDX 30 47 80 48 31 49 85 50 79 51 81 52 32 53 84 54 78 55 77 56
REMARK SMILES IDX 33 58 65 59 45 60 64 61 46 62 49 63 63 64 82 65 47 66 48 67
REMARK SMILES IDX 62 69 83 70 50 71 34 72 35 73 43 74 36 75 42 76 44 77 41 78
REMARK SMILES IDX 37 79 38 80 39 81 40 82 66 83 67 84 75 85 68 86 74 87 76 88
REMARK SMILES IDX 73 89 69 90 70 91 71 92 72 93 51 94 52 95 60 96 53 97 59 98
REMARK SMILES IDX 61 99 58 100 54 101 55 102 56 103 57 104
REMARK H PARENT 15 6 8 11 22 38 81 57 49 68
REMARK Flexibility Score: inf
ROOT
ATOM      1  C   UNL A   1      45.811  22.740  24.839  1.00  0.00     0.021 C 
ENDROOT
BRANCH   1   2
ATOM      2  C   UNL A   1      46.332  21.307  24.812  1.00  0.00     0.116 C 
BRANCH   2   3
ATOM      3  N   UNL A   1      45.660  20.559  23.769  1.00  0.00    -0.353 N 
ATOM      4  C   UNL A   1      44.957  19.405  23.919  1.00  0.00     0.244 C 
ATOM      5  O   UNL A   1      44.774  18.649  22.970  1.00  0.00    -0.270 OA
ATOM      6  H   UNL A   1      45.719  20.924  22.856  1.00  0.00     0.163 HD
BRANCH   4   7
ATOM      7  C   UNL A   1      44.400  19.088  25.248  1.00  0.00     0.077 C 
ATOM      8  C   UNL A   1      43.159  19.526  25.513  1.00  0.00     0.077 C 
BRANCH   8   9
ATOM      9  C   UNL A   1      42.407  19.010  26.662  1.00  0.00     0.249 C 
ATOM     10  N   UNL A   1      41.360  19.707  27.194  1.00  0.00    -0.313 N 
ATOM     11  H   UNL A   1      40.975  19.294  27.999  1.00  0.00     0.171 HD
ATOM     12  O   UNL A   1      42.749  17.936  27.154  1.00  0.00    -0.270 OA
BRANCH  10  13
ATOM     13  C   UNL A   1      40.736  20.887  26.814  1.00  0.00     0.111 A 
ATOM     14  C   UNL A   1      41.177  22.176  27.075  1.00  0.00     0.102 A 
ATOM     15  C   UNL A   1      40.142  23.146  26.770  1.00  0.00     0.012 A 
ATOM     16  S   UNL A   1      39.324  20.914  25.884  1.00  0.00    -0.122 S 
ATOM     17  C   UNL A   1      39.020  22.552  26.216  1.00  0.00     0.012 A 
ATOM     18  C   UNL A   1      37.683  23.105  25.843  1.00  0.00     0.057 C 
BRANCH  14  19
ATOM     19  C   UNL A   1      42.501  22.433  27.625  1.00  0.00     0.341 C 
ATOM     20  O   UNL A   1      43.447  22.765  26.918  1.00  0.00    -0.246 OA
BRANCH  19  21
ATOM     21  O   UNL A   1      42.581  22.238  28.969  1.00  0.00    -0.462 OA
BRANCH  21  22
ATOM     22  C   UNL A   1      43.258  23.263  29.711  1.00  0.00     0.230 C 
ATOM     23  C   UNL A   1      42.874  24.663  29.261  1.00  0.00     0.049 C 
ENDBRANCH  21  22
ENDBRANCH  19  21
ENDBRANCH  14  19
BRANCH  15  24
ATOM     24  C   UNL A   1      40.224  24.589  26.930  1.00  0.00    -0.016 A 
ATOM     25  C   UNL A   1      39.448  25.208  27.909  1.00  0.00     0.009 A 
ATOM     26  C   UNL A   1      41.070  25.356  26.122  1.00  0.00     0.012 A 
ATOM     27  C   UNL A   1      39.517  26.588  28.077  1.00  0.00     0.004 A 
ATOM     28  C   UNL A   1      41.160  26.747  26.293  1.00  0.00    -0.048 A 
ATOM     29  C   UNL A   1      40.369  27.370  27.280  1.00  0.00    -0.048 A 
ATOM     30  C   UNL A   1      42.101  27.524  25.415  1.00  0.00     0.044 C 
ATOM     31  C   UNL A   1      40.366  28.855  27.515  1.00  0.00     0.044 C 
ENDBRANCH  15  24
ENDBRANCH  10  13
ENDBRANCH   8   9
ENDBRANCH   4   7
ENDBRANCH   2   3
ENDBRANCH   1   2
BRANCH   1  32
ATOM     32  C   UNL A   1      46.847  23.779  24.396  1.00  0.00     0.002 C 
BRANCH  32  33
ATOM     33  C   UNL A   1      46.817  25.098  25.175  1.00  0.00     0.002 C 
BRANCH  33  34
ATOM     34  C   UNL A   1      45.443  25.506  25.710  1.00  0.00     0.021 C 
BRANCH  34  35
ATOM     35  C   UNL A   1      45.443  26.013  27.147  1.00  0.00     0.116 C 
BRANCH  35  36
ATOM     36  N   UNL A   1      46.647  25.625  27.861  1.00  0.00    -0.352 N 
ATOM     37  C   UNL A   1      47.054  25.990  29.120  1.00  0.00     0.251 C 
ATOM     38  H   UNL A   1      47.253  25.018  27.376  1.00  0.00     0.163 HD
ATOM     39  O   UNL A   1      48.192  25.734  29.499  1.00  0.00    -0.269 OA
BRANCH  37  40
ATOM     40  C   UNL A   1      46.116  26.722  29.997  1.00  0.00     0.039 A 
ATOM     41  C   UNL A   1      45.407  26.014  30.970  1.00  0.00     0.014 A 
ATOM     42  C   UNL A   1      45.969  28.108  29.881  1.00  0.00     0.014 A 
ATOM     43  C   UNL A   1      44.605  26.708  31.879  1.00  0.00     0.010 A 
ATOM     44  C   UNL A   1      45.216  28.803  30.825  1.00  0.00     0.010 A 
ATOM     45  C   UNL A   1      44.538  28.111  31.840  1.00  0.00    -0.014 A 
BRANCH  45  46
ATOM     46  C   UNL A   1      43.795  28.875  32.874  1.00  0.00     0.031 A 
ATOM     47  C   UNL A   1      42.399  29.359  32.600  1.00  0.00     0.074 A 
ATOM     48  C   UNL A   1      44.411  29.193  34.031  1.00  0.00     0.049 A 
ATOM     49  N   UNL A   1      41.630  30.123  33.332  1.00  0.00    -0.248 NA
ATOM     50  C   UNL A   1      41.797  28.944  31.324  1.00  0.00     0.031 C 
ATOM     51  C   UNL A   1      45.775  28.804  34.396  1.00  0.00     0.029 A 
ATOM     52  N   UNL A   1      43.980  29.930  35.106  1.00  0.00    -0.354 N 
ATOM     53  C   UNL A   1      40.455  30.285  32.607  1.00  0.00     0.074 A 
ATOM     54  C   UNL A   1      40.635  29.581  31.355  1.00  0.00     0.031 C 
ATOM     55  C   UNL A   1      46.064  29.295  35.611  1.00  0.00     0.029 A 
ATOM     56  C   UNL A   1      44.929  30.075  36.093  1.00  0.00     0.049 A 
ATOM     57  H   UNL A   1      43.077  30.318  35.166  1.00  0.00     0.167 HD
ATOM     58  C   UNL A   1      39.325  30.945  32.963  1.00  0.00     0.034 A 
ATOM     59  C   UNL A   1      44.896  30.777  37.243  1.00  0.00     0.034 A 
ATOM     60  C   UNL A   1      39.161  31.639  34.216  1.00  0.00     0.049 A 
ATOM     61  C   UNL A   1      43.648  31.551  37.587  1.00  0.00     0.074 A 
ATOM     62  C   UNL A   1      38.039  32.290  34.700  1.00  0.00     0.029 A 
ATOM     63  N   UNL A   1      40.149  31.783  35.181  1.00  0.00    -0.354 N 
ATOM     64  N   UNL A   1      42.527  31.653  36.911  1.00  0.00    -0.248 NA
ATOM     65  C   UNL A   1      43.660  32.301  38.849  1.00  0.00     0.031 C 
ATOM     66  C   UNL A   1      38.368  32.882  35.925  1.00  0.00     0.029 A 
ATOM     67  C   UNL A   1      39.675  32.544  36.239  1.00  0.00     0.049 A 
ATOM     68  H   UNL A   1      41.054  31.401  35.124  1.00  0.00     0.167 HD
ATOM     69  C   UNL A   1      41.696  32.463  37.677  1.00  0.00     0.074 A 
ATOM     70  C   UNL A   1      42.435  32.803  38.876  1.00  0.00     0.031 C 
ATOM     71  C   UNL A   1      40.433  32.890  37.417  1.00  0.00     0.034 A 
BRANCH  58  72
ATOM     72  C   UNL A   1      38.188  30.964  31.972  1.00  0.00     0.023 A 
ATOM     73  C   UNL A   1      38.005  32.038  31.082  1.00  0.00     0.031 A 
ATOM     74  C   UNL A   1      37.275  29.897  31.914  1.00  0.00     0.131 A 
ATOM     75  C   UNL A   1      36.904  32.046  30.213  1.00  0.00     0.055 A 
ATOM     76  C   UNL A   1      36.221  29.879  30.998  1.00  0.00     0.041 A 
ATOM     77  F   UNL A   1      37.388  28.854  32.752  1.00  0.00    -0.206 F 
ATOM     78  C   UNL A   1      36.025  30.964  30.148  1.00  0.00     0.022 A 
BRANCH  75  79
ATOM     79  S   UNL A   1      36.576  33.544  29.244  1.00  0.00     0.124 S 
ATOM     80  O   UNL A   1      37.829  34.278  29.402  1.00  0.00    -0.237 OA
ATOM     81  O   UNL A   1      36.314  33.008  27.912  1.00  0.00    -0.237 OA
ATOM     82  O   UNL A   1      35.423  34.140  29.914  1.00  0.00    -0.744 OA
ENDBRANCH  75  79
ENDBRANCH  58  72
BRANCH  59  83
ATOM     83  C   UNL A   1      46.085  30.822  38.142  1.00  0.00     0.023 A 
ATOM     84  C   UNL A   1      46.246  29.883  39.173  1.00  0.00     0.031 A 
ATOM     85  C   UNL A   1      47.046  31.842  38.024  1.00  0.00     0.131 A 
ATOM     86  C   UNL A   1      47.310  30.013  40.078  1.00  0.00     0.055 A 
ATOM     87  C   UNL A   1      48.134  31.936  38.895  1.00  0.00     0.041 A 
ATOM     88  F   UNL A   1      46.942  32.766  37.055  1.00  0.00    -0.206 F 
ATOM     89  C   UNL A   1      48.262  31.026  39.939  1.00  0.00     0.022 A 
BRANCH  86  90
ATOM     90  S   UNL A   1      47.375  28.898  41.508  1.00  0.00     0.124 S 
ATOM     91  O   UNL A   1      46.274  27.984  41.221  1.00  0.00    -0.237 OA
ATOM     92  O   UNL A   1      48.718  28.340  41.394  1.00  0.00    -0.237 OA
ATOM     93  O   UNL A   1      47.167  29.790  42.646  1.00  0.00    -0.744 OA
ENDBRANCH  86  90
ENDBRANCH  59  83
BRANCH  71  94
ATOM     94  C   UNL A   1      39.777  33.750  38.466  1.00  0.00     0.023 A 
ATOM     95  C   UNL A   1      38.971  33.191  39.475  1.00  0.00     0.031 A 
ATOM     96  C   UNL A   1      39.946  35.145  38.449  1.00  0.00     0.131 A 
ATOM     97  C   UNL A   1      38.323  34.029  40.393  1.00  0.00     0.055 A 
ATOM     98  C   UNL A   1      39.343  35.969  39.401  1.00  0.00     0.041 A 
ATOM     99  F   UNL A   1      40.703  35.730  37.508  1.00  0.00    -0.206 F 
ATOM    100  C   UNL A   1      38.517  35.412  40.373  1.00  0.00     0.022 A 
BRANCH  97 101
ATOM    101  S   UNL A   1      37.159  33.290  41.572  1.00  0.00     0.124 S 
ATOM    102  O   UNL A   1      37.958  32.220  42.158  1.00  0.00    -0.237 OA
ATOM    103  O   UNL A   1      36.851  34.413  42.453  1.00  0.00    -0.237 OA
ATOM    104  O   UNL A   1      36.050  32.847  40.728  1.00  0.00    -0.744 OA
ENDBRANCH  97 101
ENDBRANCH  71  94
ENDBRANCH  45  46
ENDBRANCH  37  40
ENDBRANCH  35  36
ENDBRANCH  34  35
ENDBRANCH  33  34
ENDBRANCH  32  33
ENDBRANCH   1  32
TORSDOF 22
ENDMDL
MODEL 3
REMARK VINA RESULT:     -10.4      6.067     10.753
REMARK SMILES CCOC(=O)c1c(NC(=O)/C=C/C(=O)NCCCCCCNC(=O)c2ccc(-c3c4nc(c(-c5cc(S(=O)(=O)[O-])ccc5F)c5ccc([nH]5)c(-c5cc(S(=O)(=O)[O-])ccc5F)c5nc(c(-c6cc(S(=O)(=O)[O-])ccc6F)c6ccc3[nH]6)C=C5)C=C4)cc2)sc(C)c1-c1ccc(C)c(C)c1
REMARK SMILES IDX 17 1 16 2 15 3 13 4 14 5 12 7 11 8 9 9 8 10 10 12 7 13 6 14
REMARK SMILES IDX 91 15 88 16 89 17 90 18 4 19 5 20 3 21 2 22 1 23 92 24 93 25
REMARK SMILES IDX 99 26 94 27 97 28 95 29 98 30 96 31 18 32 19 33 20 34 21 35
REMARK SMILES IDX 22 36 23 37 24 39 25 40 26 41 87 42 27 43 86 44 28 45 29 46
REMARK SMILES IDX 30 47 80 48 31 49 85 50 79 51 81 52 32 53 84 54 78 55 77 56
REMARK SMILES IDX 33 58 65 59 45 60 64 61 46 62 49 63 63 64 82 65 47 66 48 67
REMARK SMILES IDX 62 69 83 70 50 71 34 72 35 73 43 74 36 75 42 76 44 77 41 78
REMARK SMILES IDX 37 79 38 80 39 81 40 82 66 83 67 84 75 85 68 86 74 87 76 88
REMARK SMILES IDX 73 89 69 90 70 91 71 92 72 93 51 94 52 95 60 96 53 97 59 98
REMARK SMILES IDX 61 99 58 100 54 101 55 102 56 103 57 104
REMARK H PARENT 15 6 8 11 22 38 81 57 49 68
REMARK Flexibility Score: inf
ROOT
ATOM      1  C   UNL A   1      45.665  22.670  25.108  1.00  0.00     0.021 C 
ENDROOT
BRANCH   1   2
ATOM      2  C   UNL A   1      46.289  21.282  25.006  1.00  0.00     0.116 C 
BRANCH   2   3
ATOM      3  N   UNL A   1      45.664  20.540  23.930  1.00  0.00    -0.353 N 
ATOM      4  C   UNL A   1      44.965  19.380  24.042  1.00  0.00     0.244 C 
ATOM      5  O   UNL A   1      44.824  18.631  23.080  1.00  0.00    -0.270 OA
ATOM      6  H   UNL A   1      45.756  20.914  23.024  1.00  0.00     0.163 HD
BRANCH   4   7
ATOM      7  C   UNL A   1      44.358  19.044  25.344  1.00  0.00     0.077 C 
ATOM      8  C   UNL A   1      43.143  19.551  25.603  1.00  0.00     0.077 C 
BRANCH   8   9
ATOM      9  C   UNL A   1      42.334  19.039  26.714  1.00  0.00     0.249 C 
ATOM     10  N   UNL A   1      41.283  19.755  27.214  1.00  0.00    -0.313 N 
ATOM     11  H   UNL A   1      40.856  19.340  27.998  1.00  0.00     0.171 HD
ATOM     12  O   UNL A   1      42.629  17.951  27.204  1.00  0.00    -0.270 OA
BRANCH  10  13
ATOM     13  C   UNL A   1      40.703  20.955  26.827  1.00  0.00     0.111 A 
ATOM     14  C   UNL A   1      41.149  22.228  27.147  1.00  0.00     0.102 A 
ATOM     15  C   UNL A   1      40.151  23.224  26.804  1.00  0.00     0.012 A 
ATOM     16  S   UNL A   1      39.351  21.030  25.814  1.00  0.00    -0.122 S 
ATOM     17  C   UNL A   1      39.055  22.664  26.168  1.00  0.00     0.012 A 
ATOM     18  C   UNL A   1      37.753  23.251  25.729  1.00  0.00     0.057 C 
BRANCH  14  19
ATOM     19  C   UNL A   1      42.441  22.448  27.783  1.00  0.00     0.341 C 
ATOM     20  O   UNL A   1      43.499  22.288  27.182  1.00  0.00    -0.246 OA
BRANCH  19  21
ATOM     21  O   UNL A   1      42.351  22.808  29.093  1.00  0.00    -0.462 OA
BRANCH  21  22
ATOM     22  C   UNL A   1      43.379  23.687  29.572  1.00  0.00     0.230 C 
ATOM     23  C   UNL A   1      43.057  25.153  29.330  1.00  0.00     0.049 C 
ENDBRANCH  21  22
ENDBRANCH  19  21
ENDBRANCH  14  19
BRANCH  15  24
ATOM     24  C   UNL A   1      40.247  24.661  27.005  1.00  0.00    -0.016 A 
ATOM     25  C   UNL A   1      39.581  25.241  28.085  1.00  0.00     0.009 A 
ATOM     26  C   UNL A   1      40.999  25.461  26.139  1.00  0.00     0.012 A 
ATOM     27  C   UNL A   1      39.665  26.615  28.293  1.00  0.00     0.004 A 
ATOM     28  C   UNL A   1      41.104  26.846  26.348  1.00  0.00    -0.048 A 
ATOM     29  C   UNL A   1      40.424  27.429  27.436  1.00  0.00    -0.048 A 
ATOM     30  C   UNL A   1      41.942  27.658  25.400  1.00  0.00     0.044 C 
ATOM     31  C   UNL A   1      40.443  28.905  27.723  1.00  0.00     0.044 C 
ENDBRANCH  15  24
ENDBRANCH  10  13
ENDBRANCH   8   9
ENDBRANCH   4   7
ENDBRANCH   2   3
ENDBRANCH   1   2
BRANCH   1  32
ATOM     32  C   UNL A   1      46.388  23.731  24.270  1.00  0.00     0.002 C 
BRANCH  32  33
ATOM     33  C   UNL A   1      46.188  25.176  24.741  1.00  0.00     0.002 C 
BRANCH  33  34
ATOM     34  C   UNL A   1      45.086  25.373  25.783  1.00  0.00     0.021 C 
BRANCH  34  35
ATOM     35  C   UNL A   1      45.566  25.911  27.125  1.00  0.00     0.116 C 
BRANCH  35  36
ATOM     36  N   UNL A   1      47.011  25.830  27.258  1.00  0.00    -0.352 N 
ATOM     37  C   UNL A   1      47.827  26.472  28.156  1.00  0.00     0.251 C 
ATOM     38  H   UNL A   1      47.465  25.235  26.618  1.00  0.00     0.163 HD
ATOM     39  O   UNL A   1      49.044  26.450  28.007  1.00  0.00    -0.269 OA
BRANCH  37  40
ATOM     40  C   UNL A   1      47.220  27.214  29.280  1.00  0.00     0.039 A 
ATOM     41  C   UNL A   1      47.418  28.594  29.366  1.00  0.00     0.014 A 
ATOM     42  C   UNL A   1      46.428  26.552  30.225  1.00  0.00     0.014 A 
ATOM     43  C   UNL A   1      46.758  29.324  30.357  1.00  0.00     0.010 A 
ATOM     44  C   UNL A   1      45.725  27.289  31.174  1.00  0.00     0.010 A 
ATOM     45  C   UNL A   1      45.873  28.683  31.241  1.00  0.00    -0.014 A 
BRANCH  45  46
ATOM     46  C   UNL A   1      45.065  29.458  32.217  1.00  0.00     0.031 A 
ATOM     47  C   UNL A   1      45.498  29.550  33.653  1.00  0.00     0.074 A 
ATOM     48  C   UNL A   1      43.902  30.014  31.819  1.00  0.00     0.049 A 
ATOM     49  N   UNL A   1      44.877  30.089  34.670  1.00  0.00    -0.248 NA
ATOM     50  C   UNL A   1      46.790  28.936  33.992  1.00  0.00     0.031 C 
ATOM     51  C   UNL A   1      43.365  29.963  30.457  1.00  0.00     0.029 A 
ATOM     52  N   UNL A   1      42.954  30.714  32.521  1.00  0.00    -0.354 N 
ATOM     53  C   UNL A   1      45.699  29.879  35.771  1.00  0.00     0.074 A 
ATOM     54  C   UNL A   1      46.838  29.116  35.304  1.00  0.00     0.031 C 
ATOM     55  C   UNL A   1      42.192  30.615  30.422  1.00  0.00     0.029 A 
ATOM     56  C   UNL A   1      41.866  31.084  31.764  1.00  0.00     0.049 A 
ATOM     57  H   UNL A   1      43.043  30.932  33.477  1.00  0.00     0.167 HD
ATOM     58  C   UNL A   1      45.527  30.300  37.049  1.00  0.00     0.034 A 
ATOM     59  C   UNL A   1      40.725  31.710  32.116  1.00  0.00     0.034 A 
ATOM     60  C   UNL A   1      44.389  31.062  37.498  1.00  0.00     0.049 A 
ATOM     61  C   UNL A   1      40.533  32.114  33.556  1.00  0.00     0.074 A 
ATOM     62  C   UNL A   1      44.144  31.586  38.755  1.00  0.00     0.029 A 
ATOM     63  N   UNL A   1      43.297  31.400  36.708  1.00  0.00    -0.354 N 
ATOM     64  N   UNL A   1      41.344  31.950  34.576  1.00  0.00    -0.248 NA
ATOM     65  C   UNL A   1      39.274  32.791  33.893  1.00  0.00     0.031 C 
ATOM     66  C   UNL A   1      42.878  32.184  38.744  1.00  0.00     0.029 A 
ATOM     67  C   UNL A   1      42.360  32.092  37.461  1.00  0.00     0.049 A 
ATOM     68  H   UNL A   1      43.201  31.181  35.753  1.00  0.00     0.167 HD
ATOM     69  C   UNL A   1      40.699  32.520  35.668  1.00  0.00     0.074 A 
ATOM     70  C   UNL A   1      39.444  33.053  35.179  1.00  0.00     0.031 C 
ATOM     71  C   UNL A   1      41.105  32.599  36.962  1.00  0.00     0.034 A 
BRANCH  58  72
ATOM     72  C   UNL A   1      46.587  29.924  38.055  1.00  0.00     0.023 A 
ATOM     73  C   UNL A   1      46.497  28.742  38.811  1.00  0.00     0.031 A 
ATOM     74  C   UNL A   1      47.700  30.755  38.261  1.00  0.00     0.131 A 
ATOM     75  C   UNL A   1      47.473  28.453  39.777  1.00  0.00     0.055 A 
ATOM     76  C   UNL A   1      48.705  30.428  39.174  1.00  0.00     0.041 A 
ATOM     77  F   UNL A   1      47.830  31.906  37.582  1.00  0.00    -0.206 F 
ATOM     78  C   UNL A   1      48.588  29.275  39.947  1.00  0.00     0.022 A 
BRANCH  75  79
ATOM     79  S   UNL A   1      47.207  27.042  40.885  1.00  0.00     0.124 S 
ATOM     80  O   UNL A   1      48.015  26.008  40.243  1.00  0.00    -0.237 OA
ATOM     81  O   UNL A   1      47.706  27.543  42.161  1.00  0.00    -0.237 OA
ATOM     82  O   UNL A   1      45.764  26.824  40.822  1.00  0.00    -0.744 OA
ENDBRANCH  75  79
ENDBRANCH  58  72
BRANCH  59  83
ATOM     83  C   UNL A   1      39.653  31.962  31.111  1.00  0.00     0.023 A 
ATOM     84  C   UNL A   1      38.643  31.016  30.879  1.00  0.00     0.031 A 
ATOM     85  C   UNL A   1      39.659  33.126  30.320  1.00  0.00     0.131 A 
ATOM     86  C   UNL A   1      37.713  31.222  29.849  1.00  0.00     0.055 A 
ATOM     87  C   UNL A   1      38.699  33.352  29.332  1.00  0.00     0.041 A 
ATOM     88  F   UNL A   1      40.601  34.065  30.500  1.00  0.00    -0.206 F 
ATOM     89  C   UNL A   1      37.727  32.389  29.081  1.00  0.00     0.022 A 
BRANCH  86  90
ATOM     90  S   UNL A   1      36.545  29.891  29.455  1.00  0.00     0.124 S 
ATOM     91  O   UNL A   1      37.336  29.056  28.559  1.00  0.00    -0.237 OA
ATOM     92  O   UNL A   1      36.269  29.333  30.775  1.00  0.00    -0.237 OA
ATOM     93  O   UNL A   1      35.426  30.593  28.831  1.00  0.00    -0.744 OA
ENDBRANCH  86  90
ENDBRANCH  59  83
BRANCH  71  94
ATOM     94  C   UNL A   1      40.185  33.309  37.920  1.00  0.00     0.023 A 
ATOM     95  C   UNL A   1      39.123  32.637  38.553  1.00  0.00     0.031 A 
ATOM     96  C   UNL A   1      40.361  34.676  38.194  1.00  0.00     0.131 A 
ATOM     97  C   UNL A   1      38.247  33.347  39.386  1.00  0.00     0.055 A 
ATOM     98  C   UNL A   1      39.520  35.364  39.069  1.00  0.00     0.041 A 
ATOM     99  F   UNL A   1      41.358  35.365  37.616  1.00  0.00    -0.206 F 
ATOM    100  C   UNL A   1      38.448  34.702  39.661  1.00  0.00     0.022 A 
BRANCH  97 101
ATOM    101  S   UNL A   1      36.791  32.490  40.049  1.00  0.00     0.124 S 
ATOM    102  O   UNL A   1      36.392  33.372  41.140  1.00  0.00    -0.237 OA
ATOM    103  O   UNL A   1      35.897  32.455  38.896  1.00  0.00    -0.237 OA
ATOM    104  O   UNL A   1      37.317  31.190  40.463  1.00  0.00    -0.744 OA
ENDBRANCH  97 101
ENDBRANCH  71  94
ENDBRANCH  45  46
ENDBRANCH  37  40
ENDBRANCH  35  36
ENDBRANCH  34  35
ENDBRANCH  33  34
ENDBRANCH  32  33
ENDBRANCH   1  32
TORSDOF 22
ENDMDL
