MODEL 1
REMARK VINA RESULT:     -10.5      0.000      0.000
REMARK SMILES CC[C@]1(C(=O)NCCCCCCNC(=O)c2ccc(-c3c4nc(c(-c5cc(S(=O)(=O)[O-])ccc5F)c5ccc([nH]5)c(-c5cc(S(=O)(=O)[O-])ccc5F)c5nc(c(-c6cc(S(=O)(=O)[O-])ccc6F)c6ccc3[nH]6)C=C5)C=C4)cc2)CCN(C(=O)[C@]2(C)CCCO2)C1
REMARK SMILES IDX 10 1 9 2 8 3 7 4 6 5 4 6 5 7 3 9 79 10 90 11 80 12 81 13
REMARK SMILES IDX 2 14 1 15 82 16 83 17 84 18 86 19 89 20 85 21 87 22 88 23
REMARK SMILES IDX 11 24 12 25 13 26 14 27 15 29 16 30 17 31 78 32 18 33 77 34
REMARK SMILES IDX 19 35 20 36 21 37 71 38 22 39 76 40 70 41 72 42 23 43 75 44
REMARK SMILES IDX 69 45 68 46 24 48 56 49 36 50 55 51 37 52 40 53 54 54 73 55
REMARK SMILES IDX 38 56 39 57 53 59 74 60 41 61 25 62 26 63 34 64 27 65 33 66
REMARK SMILES IDX 35 67 32 68 28 69 29 70 30 71 31 72 57 73 58 74 66 75 59 76
REMARK SMILES IDX 65 77 67 78 64 79 60 80 61 81 62 82 63 83 42 84 43 85 51 86
REMARK SMILES IDX 44 87 50 88 52 89 49 90 45 91 46 92 47 93 48 94
REMARK H PARENT 6 8 13 28 72 47 40 58
REMARK Flexibility Score: inf
ROOT
ATOM      1  C   UNL A   1      31.723  29.532  25.179  1.00  0.00     0.002 C 
ENDROOT
BRANCH   1   2
ATOM      2  C   UNL A   1      31.390  29.179  23.728  1.00  0.00     0.002 C 
BRANCH   2   3
ATOM      3  C   UNL A   1      30.155  28.291  23.542  1.00  0.00     0.021 C 
BRANCH   3   4
ATOM      4  C   UNL A   1      30.470  26.831  23.220  1.00  0.00     0.116 C 
BRANCH   4   5
ATOM      5  N   UNL A   1      31.901  26.586  23.210  1.00  0.00    -0.356 N 
ATOM      6  C   UNL A   1      32.720  25.861  24.017  1.00  0.00     0.228 C 
ATOM      7  O   UNL A   1      33.927  25.937  23.756  1.00  0.00    -0.274 OA
ATOM      8  H   UNL A   1      32.373  27.036  22.473  1.00  0.00     0.163 HD
BRANCH   6   9
ATOM      9  C   UNL A   1      32.207  24.985  25.179  1.00  0.00     0.068 C 
ATOM     10  C   UNL A   1      31.359  23.794  24.673  1.00  0.00     0.040 C 
ATOM     11  C   UNL A   1      33.384  24.333  25.927  1.00  0.00     0.136 C 
ATOM     12  C   UNL A   1      31.764  22.632  25.568  1.00  0.00     0.121 C 
ATOM     13  N   UNL A   1      33.152  22.896  25.874  1.00  0.00    -0.339 N 
BRANCH   9  14
ATOM     14  C   UNL A   1      31.303  25.832  26.121  1.00  0.00     0.015 C 
ATOM     15  C   UNL A   1      29.850  25.383  26.227  1.00  0.00     0.005 C 
ENDBRANCH   9  14
BRANCH  13  16
ATOM     16  C   UNL A   1      34.179  22.027  26.196  1.00  0.00     0.254 C 
ATOM     17  O   UNL A   1      34.257  21.603  27.356  1.00  0.00    -0.272 OA
BRANCH  16  18
ATOM     18  C   UNL A   1      35.313  21.703  25.164  1.00  0.00     0.144 C 
ATOM     19  C   UNL A   1      36.647  22.266  25.696  1.00  0.00     0.048 C 
ATOM     20  O   UNL A   1      35.119  22.276  23.859  1.00  0.00    -0.365 OA
ATOM     21  C   UNL A   1      35.401  20.172  24.967  1.00  0.00     0.053 C 
ATOM     22  C   UNL A   1      36.998  23.379  24.740  1.00  0.00     0.032 C 
ATOM     23  C   UNL A   1      36.327  22.937  23.462  1.00  0.00     0.162 C 
ENDBRANCH  16  18
ENDBRANCH  13  16
ENDBRANCH   6   9
ENDBRANCH   4   5
ENDBRANCH   3   4
ENDBRANCH   2   3
ENDBRANCH   1   2
BRANCH   1  24
ATOM     24  C   UNL A   1      33.099  29.067  25.659  1.00  0.00     0.021 C 
BRANCH  24  25
ATOM     25  C   UNL A   1      33.422  29.428  27.105  1.00  0.00     0.116 C 
BRANCH  25  26
ATOM     26  N   UNL A   1      33.491  30.865  27.303  1.00  0.00    -0.352 N 
ATOM     27  C   UNL A   1      34.422  31.601  27.995  1.00  0.00     0.251 C 
ATOM     28  H   UNL A   1      32.770  31.386  26.881  1.00  0.00     0.163 HD
ATOM     29  O   UNL A   1      34.199  32.779  28.251  1.00  0.00    -0.269 OA
BRANCH  27  30
ATOM     30  C   UNL A   1      35.678  30.960  28.445  1.00  0.00     0.039 A 
ATOM     31  C   UNL A   1      36.899  31.506  28.044  1.00  0.00     0.014 A 
ATOM     32  C   UNL A   1      35.651  29.817  29.250  1.00  0.00     0.014 A 
ATOM     33  C   UNL A   1      38.092  30.933  28.490  1.00  0.00     0.010 A 
ATOM     34  C   UNL A   1      36.838  29.297  29.758  1.00  0.00     0.010 A 
ATOM     35  C   UNL A   1      38.074  29.841  29.373  1.00  0.00    -0.014 A 
BRANCH  35  36
ATOM     36  C   UNL A   1      39.336  29.240  29.879  1.00  0.00     0.031 A 
ATOM     37  C   UNL A   1      40.032  29.845  31.070  1.00  0.00     0.074 A 
ATOM     38  C   UNL A   1      39.875  28.180  29.245  1.00  0.00     0.049 A 
ATOM     39  N   UNL A   1      41.164  29.502  31.630  1.00  0.00    -0.248 NA
ATOM     40  C   UNL A   1      39.384  31.010  31.693  1.00  0.00     0.031 C 
ATOM     41  C   UNL A   1      39.311  27.528  28.061  1.00  0.00     0.029 A 
ATOM     42  N   UNL A   1      41.017  27.463  29.504  1.00  0.00    -0.354 N 
ATOM     43  C   UNL A   1      41.367  30.412  32.663  1.00  0.00     0.074 A 
ATOM     44  C   UNL A   1      40.277  31.362  32.604  1.00  0.00     0.031 C 
ATOM     45  C   UNL A   1      40.091  26.491  27.717  1.00  0.00     0.029 A 
ATOM     46  C   UNL A   1      41.234  26.430  28.621  1.00  0.00     0.049 A 
ATOM     47  H   UNL A   1      41.622  27.668  30.252  1.00  0.00     0.167 HD
ATOM     48  C   UNL A   1      42.355  30.435  33.591  1.00  0.00     0.034 A 
ATOM     49  C   UNL A   1      42.247  25.542  28.543  1.00  0.00     0.034 A 
ATOM     50  C   UNL A   1      43.427  29.472  33.643  1.00  0.00     0.049 A 
ATOM     51  C   UNL A   1      43.354  25.611  29.565  1.00  0.00     0.074 A 
ATOM     52  C   UNL A   1      44.451  29.371  34.569  1.00  0.00     0.029 A 
ATOM     53  N   UNL A   1      43.621  28.447  32.725  1.00  0.00    -0.354 N 
ATOM     54  N   UNL A   1      43.504  26.447  30.567  1.00  0.00    -0.248 NA
ATOM     55  C   UNL A   1      44.422  24.609  29.453  1.00  0.00     0.031 C 
ATOM     56  C   UNL A   1      45.305  28.339  34.167  1.00  0.00     0.029 A 
ATOM     57  C   UNL A   1      44.768  27.734  33.043  1.00  0.00     0.049 A 
ATOM     58  H   UNL A   1      43.032  28.254  31.961  1.00  0.00     0.167 HD
ATOM     59  C   UNL A   1      44.665  26.047  31.224  1.00  0.00     0.074 A 
ATOM     60  C   UNL A   1      45.164  24.888  30.514  1.00  0.00     0.031 C 
ATOM     61  C   UNL A   1      45.261  26.585  32.319  1.00  0.00     0.034 A 
BRANCH  48  62
ATOM     62  C   UNL A   1      42.330  31.555  34.608  1.00  0.00     0.023 A 
ATOM     63  C   UNL A   1      41.425  31.557  35.685  1.00  0.00     0.031 A 
ATOM     64  C   UNL A   1      43.206  32.647  34.486  1.00  0.00     0.131 A 
ATOM     65  C   UNL A   1      41.362  32.663  36.546  1.00  0.00     0.055 A 
ATOM     66  C   UNL A   1      43.200  33.703  35.399  1.00  0.00     0.041 A 
ATOM     67  F   UNL A   1      44.078  32.716  33.467  1.00  0.00    -0.206 F 
ATOM     68  C   UNL A   1      42.263  33.723  36.428  1.00  0.00     0.022 A 
BRANCH  65  69
ATOM     69  S   UNL A   1      39.986  32.764  37.722  1.00  0.00     0.124 S 
ATOM     70  O   UNL A   1      39.120  31.684  37.256  1.00  0.00    -0.237 OA
ATOM     71  O   UNL A   1      40.647  32.547  39.002  1.00  0.00    -0.237 OA
ATOM     72  O   UNL A   1      39.455  34.111  37.513  1.00  0.00    -0.744 OA
ENDBRANCH  65  69
ENDBRANCH  48  62
BRANCH  49  73
ATOM     73  C   UNL A   1      42.275  24.520  27.456  1.00  0.00     0.023 A 
ATOM     74  C   UNL A   1      41.649  23.274  27.618  1.00  0.00     0.031 A 
ATOM     75  C   UNL A   1      42.971  24.755  26.257  1.00  0.00     0.131 A 
ATOM     76  C   UNL A   1      41.778  22.292  26.623  1.00  0.00     0.055 A 
ATOM     77  C   UNL A   1      43.044  23.797  25.245  1.00  0.00     0.041 A 
ATOM     78  F   UNL A   1      43.587  25.930  26.048  1.00  0.00    -0.206 F 
ATOM     79  C   UNL A   1      42.457  22.550  25.431  1.00  0.00     0.022 A 
BRANCH  76  80
ATOM     80  S   UNL A   1      41.126  20.631  26.954  1.00  0.00     0.124 S 
ATOM     81  O   UNL A   1      40.784  20.723  28.369  1.00  0.00    -0.237 OA
ATOM     82  O   UNL A   1      40.002  20.557  26.025  1.00  0.00    -0.237 OA
ATOM     83  O   UNL A   1      42.252  19.755  26.639  1.00  0.00    -0.744 OA
ENDBRANCH  76  80
ENDBRANCH  49  73
BRANCH  61  84
ATOM     84  C   UNL A   1      46.497  25.891  32.842  1.00  0.00     0.023 A 
ATOM     85  C   UNL A   1      47.771  26.133  32.299  1.00  0.00     0.031 A 
ATOM     86  C   UNL A   1      46.394  24.968  33.899  1.00  0.00     0.131 A 
ATOM     87  C   UNL A   1      48.881  25.418  32.775  1.00  0.00     0.055 A 
ATOM     88  C   UNL A   1      47.512  24.312  34.414  1.00  0.00     0.041 A 
ATOM     89  F   UNL A   1      45.202  24.695  34.454  1.00  0.00    -0.206 F 
ATOM     90  C   UNL A   1      48.762  24.524  33.843  1.00  0.00     0.022 A 
BRANCH  87  91
ATOM     91  S   UNL A   1      50.468  25.602  31.917  1.00  0.00     0.124 S 
ATOM     92  O   UNL A   1      50.439  24.479  30.986  1.00  0.00    -0.237 OA
ATOM     93  O   UNL A   1      50.349  26.927  31.320  1.00  0.00    -0.237 OA
ATOM     94  O   UNL A   1      51.454  25.492  32.991  1.00  0.00    -0.744 OA
ENDBRANCH  87  91
ENDBRANCH  61  84
ENDBRANCH  35  36
ENDBRANCH  27  30
ENDBRANCH  25  26
ENDBRANCH  24  25
ENDBRANCH   1  24
TORSDOF 19
ENDMDL
MODEL 2
REMARK VINA RESULT:     -10.4      5.140      8.452
REMARK SMILES CC[C@]1(C(=O)NCCCCCCNC(=O)c2ccc(-c3c4nc(c(-c5cc(S(=O)(=O)[O-])ccc5F)c5ccc([nH]5)c(-c5cc(S(=O)(=O)[O-])ccc5F)c5nc(c(-c6cc(S(=O)(=O)[O-])ccc6F)c6ccc3[nH]6)C=C5)C=C4)cc2)CCN(C(=O)[C@]2(C)CCCO2)C1
REMARK SMILES IDX 10 1 9 2 8 3 7 4 6 5 4 6 5 7 3 9 79 10 90 11 80 12 81 13
REMARK SMILES IDX 2 14 1 15 82 16 83 17 84 18 86 19 89 20 85 21 87 22 88 23
REMARK SMILES IDX 11 24 12 25 13 26 14 27 15 29 16 30 17 31 78 32 18 33 77 34
REMARK SMILES IDX 19 35 20 36 21 37 71 38 22 39 76 40 70 41 72 42 23 43 75 44
REMARK SMILES IDX 69 45 68 46 24 48 56 49 36 50 55 51 37 52 40 53 54 54 73 55
REMARK SMILES IDX 38 56 39 57 53 59 74 60 41 61 25 62 26 63 34 64 27 65 33 66
REMARK SMILES IDX 35 67 32 68 28 69 29 70 30 71 31 72 57 73 58 74 66 75 59 76
REMARK SMILES IDX 65 77 67 78 64 79 60 80 61 81 62 82 63 83 42 84 43 85 51 86
REMARK SMILES IDX 44 87 50 88 52 89 49 90 45 91 46 92 47 93 48 94
REMARK H PARENT 6 8 13 28 72 47 40 58
REMARK Flexibility Score: inf
ROOT
ATOM      1  C   UNL A   1      37.721  21.642  25.022  1.00  0.00     0.002 C 
ENDROOT
BRANCH   1   2
ATOM      2  C   UNL A   1      36.646  21.672  23.933  1.00  0.00     0.002 C 
BRANCH   2   3
ATOM      3  C   UNL A   1      36.449  23.029  23.250  1.00  0.00     0.021 C 
BRANCH   3   4
ATOM      4  C   UNL A   1      35.076  23.660  23.481  1.00  0.00     0.116 C 
BRANCH   4   5
ATOM      5  N   UNL A   1      34.039  22.954  22.750  1.00  0.00    -0.356 N 
ATOM      6  C   UNL A   1      32.925  22.282  23.144  1.00  0.00     0.228 C 
ATOM      7  O   UNL A   1      32.294  21.724  22.240  1.00  0.00    -0.274 OA
ATOM      8  H   UNL A   1      34.168  22.965  21.774  1.00  0.00     0.163 HD
BRANCH   6   9
ATOM      9  C   UNL A   1      32.453  22.211  24.612  1.00  0.00     0.068 C 
ATOM     10  C   UNL A   1      33.529  22.737  25.590  1.00  0.00     0.040 C 
ATOM     11  C   UNL A   1      31.241  23.134  24.835  1.00  0.00     0.136 C 
ATOM     12  C   UNL A   1      32.744  23.515  26.635  1.00  0.00     0.121 C 
ATOM     13  N   UNL A   1      31.622  24.053  25.899  1.00  0.00    -0.339 N 
BRANCH   9  14
ATOM     14  C   UNL A   1      32.153  20.735  25.000  1.00  0.00     0.015 C 
ATOM     15  C   UNL A   1      33.351  19.790  24.992  1.00  0.00     0.005 C 
ENDBRANCH   9  14
BRANCH  13  16
ATOM     16  C   UNL A   1      30.864  25.188  26.123  1.00  0.00     0.254 C 
ATOM     17  O   UNL A   1      29.722  25.058  26.585  1.00  0.00    -0.272 OA
BRANCH  16  18
ATOM     18  C   UNL A   1      31.368  26.597  25.662  1.00  0.00     0.144 C 
ATOM     19  C   UNL A   1      32.814  26.463  25.139  1.00  0.00     0.048 C 
ATOM     20  O   UNL A   1      31.399  27.592  26.699  1.00  0.00    -0.365 OA
ATOM     21  C   UNL A   1      30.433  27.138  24.555  1.00  0.00     0.053 C 
ATOM     22  C   UNL A   1      33.652  27.216  26.143  1.00  0.00     0.032 C 
ATOM     23  C   UNL A   1      32.679  28.238  26.679  1.00  0.00     0.162 C 
ENDBRANCH  16  18
ENDBRANCH  13  16
ENDBRANCH   6   9
ENDBRANCH   4   5
ENDBRANCH   3   4
ENDBRANCH   2   3
ENDBRANCH   1   2
BRANCH   1  24
ATOM     24  C   UNL A   1      38.527  20.345  25.101  1.00  0.00     0.021 C 
BRANCH  24  25
ATOM     25  C   UNL A   1      39.419  20.226  26.332  1.00  0.00     0.116 C 
BRANCH  25  26
ATOM     26  N   UNL A   1      40.501  19.279  26.127  1.00  0.00    -0.352 N 
ATOM     27  C   UNL A   1      41.845  19.520  25.968  1.00  0.00     0.251 C 
ATOM     28  H   UNL A   1      40.236  18.332  26.100  1.00  0.00     0.163 HD
ATOM     29  O   UNL A   1      42.582  18.621  25.577  1.00  0.00    -0.269 OA
BRANCH  27  30
ATOM     30  C   UNL A   1      42.388  20.868  26.248  1.00  0.00     0.039 A 
ATOM     31  C   UNL A   1      42.666  21.722  25.179  1.00  0.00     0.014 A 
ATOM     32  C   UNL A   1      42.634  21.283  27.560  1.00  0.00     0.014 A 
ATOM     33  C   UNL A   1      43.144  23.009  25.429  1.00  0.00     0.010 A 
ATOM     34  C   UNL A   1      43.034  22.592  27.811  1.00  0.00     0.010 A 
ATOM     35  C   UNL A   1      43.307  23.467  26.747  1.00  0.00    -0.014 A 
BRANCH  35  36
ATOM     36  C   UNL A   1      43.788  24.846  27.028  1.00  0.00     0.031 A 
ATOM     37  C   UNL A   1      42.847  25.866  27.612  1.00  0.00     0.074 A 
ATOM     38  C   UNL A   1      45.055  25.189  26.721  1.00  0.00     0.049 A 
ATOM     39  N   UNL A   1      43.057  27.129  27.881  1.00  0.00    -0.248 NA
ATOM     40  C   UNL A   1      41.478  25.412  27.904  1.00  0.00     0.031 C 
ATOM     41  C   UNL A   1      46.049  24.298  26.119  1.00  0.00     0.029 A 
ATOM     42  N   UNL A   1      45.724  26.378  26.870  1.00  0.00    -0.354 N 
ATOM     43  C   UNL A   1      41.848  27.621  28.363  1.00  0.00     0.074 A 
ATOM     44  C   UNL A   1      40.894  26.537  28.282  1.00  0.00     0.031 C 
ATOM     45  C   UNL A   1      47.208  24.962  25.981  1.00  0.00     0.029 A 
ATOM     46  C   UNL A   1      47.030  26.337  26.435  1.00  0.00     0.049 A 
ATOM     47  H   UNL A   1      45.310  27.185  27.252  1.00  0.00     0.167 HD
ATOM     48  C   UNL A   1      41.570  28.854  28.855  1.00  0.00     0.034 A 
ATOM     49  C   UNL A   1      47.972  27.301  26.397  1.00  0.00     0.034 A 
ATOM     50  C   UNL A   1      42.538  29.919  28.940  1.00  0.00     0.049 A 
ATOM     51  C   UNL A   1      47.627  28.675  26.915  1.00  0.00     0.074 A 
ATOM     52  C   UNL A   1      42.378  31.189  29.466  1.00  0.00     0.029 A 
ATOM     53  N   UNL A   1      43.847  29.844  28.479  1.00  0.00    -0.354 N 
ATOM     54  N   UNL A   1      46.493  29.110  27.416  1.00  0.00    -0.248 NA
ATOM     55  C   UNL A   1      48.692  29.685  26.875  1.00  0.00     0.031 C 
ATOM     56  C   UNL A   1      43.560  31.905  29.252  1.00  0.00     0.029 A 
ATOM     57  C   UNL A   1      44.492  31.057  28.676  1.00  0.00     0.049 A 
ATOM     58  H   UNL A   1      44.257  29.047  28.073  1.00  0.00     0.167 HD
ATOM     59  C   UNL A   1      46.722  30.433  27.781  1.00  0.00     0.074 A 
ATOM     60  C   UNL A   1      48.105  30.719  27.458  1.00  0.00     0.031 C 
ATOM     61  C   UNL A   1      45.869  31.331  28.340  1.00  0.00     0.034 A 
BRANCH  48  62
ATOM     62  C   UNL A   1      40.152  29.118  29.311  1.00  0.00     0.023 A 
ATOM     63  C   UNL A   1      39.799  29.101  30.673  1.00  0.00     0.031 A 
ATOM     64  C   UNL A   1      39.135  29.366  28.374  1.00  0.00     0.131 A 
ATOM     65  C   UNL A   1      38.455  29.247  31.050  1.00  0.00     0.055 A 
ATOM     66  C   UNL A   1      37.815  29.599  28.762  1.00  0.00     0.041 A 
ATOM     67  F   UNL A   1      39.404  29.372  27.058  1.00  0.00    -0.206 F 
ATOM     68  C   UNL A   1      37.465  29.524  30.106  1.00  0.00     0.022 A 
BRANCH  65  69
ATOM     69  S   UNL A   1      38.001  28.913  32.774  1.00  0.00     0.124 S 
ATOM     70  O   UNL A   1      39.037  29.645  33.498  1.00  0.00    -0.237 OA
ATOM     71  O   UNL A   1      36.653  29.461  32.857  1.00  0.00    -0.237 OA
ATOM     72  O   UNL A   1      38.092  27.457  32.876  1.00  0.00    -0.744 OA
ENDBRANCH  65  69
ENDBRANCH  48  62
BRANCH  49  73
ATOM     73  C   UNL A   1      49.327  27.014  25.840  1.00  0.00     0.023 A 
ATOM     74  C   UNL A   1      49.678  27.424  24.544  1.00  0.00     0.031 A 
ATOM     75  C   UNL A   1      50.274  26.281  26.578  1.00  0.00     0.131 A 
ATOM     76  C   UNL A   1      50.921  27.053  24.006  1.00  0.00     0.055 A 
ATOM     77  C   UNL A   1      51.531  25.968  26.060  1.00  0.00     0.041 A 
ATOM     78  F   UNL A   1      49.991  25.866  27.823  1.00  0.00    -0.206 F 
ATOM     79  C   UNL A   1      51.856  26.342  24.761  1.00  0.00     0.022 A 
BRANCH  76  80
ATOM     80  S   UNL A   1      51.259  27.430  22.264  1.00  0.00     0.124 S 
ATOM     81  O   UNL A   1      51.328  28.886  22.284  1.00  0.00    -0.237 OA
ATOM     82  O   UNL A   1      52.520  26.729  22.042  1.00  0.00    -0.237 OA
ATOM     83  O   UNL A   1      50.104  26.869  21.565  1.00  0.00    -0.744 OA
ENDBRANCH  76  80
ENDBRANCH  49  73
BRANCH  61  84
ATOM     84  C   UNL A   1      46.427  32.693  28.679  1.00  0.00     0.023 A 
ATOM     85  C   UNL A   1      46.368  33.767  27.774  1.00  0.00     0.031 A 
ATOM     86  C   UNL A   1      47.032  32.916  29.929  1.00  0.00     0.131 A 
ATOM     87  C   UNL A   1      46.956  34.997  28.109  1.00  0.00     0.055 A 
ATOM     88  C   UNL A   1      47.553  34.160  30.284  1.00  0.00     0.041 A 
ATOM     89  F   UNL A   1      47.120  31.926  30.833  1.00  0.00    -0.206 F 
ATOM     90  C   UNL A   1      47.530  35.205  29.367  1.00  0.00     0.022 A 
BRANCH  87  91
ATOM     91  S   UNL A   1      47.045  36.293  26.845  1.00  0.00     0.124 S 
ATOM     92  O   UNL A   1      47.225  35.513  25.625  1.00  0.00    -0.237 OA
ATOM     93  O   UNL A   1      45.755  36.960  26.989  1.00  0.00    -0.237 OA
ATOM     94  O   UNL A   1      48.203  37.089  27.249  1.00  0.00    -0.744 OA
ENDBRANCH  87  91
ENDBRANCH  61  84
ENDBRANCH  35  36
ENDBRANCH  27  30
ENDBRANCH  25  26
ENDBRANCH  24  25
ENDBRANCH   1  24
TORSDOF 19
ENDMDL
MODEL 3
REMARK VINA RESULT:     -10.2      4.553     14.774
REMARK SMILES CC[C@]1(C(=O)NCCCCCCNC(=O)c2ccc(-c3c4nc(c(-c5cc(S(=O)(=O)[O-])ccc5F)c5ccc([nH]5)c(-c5cc(S(=O)(=O)[O-])ccc5F)c5nc(c(-c6cc(S(=O)(=O)[O-])ccc6F)c6ccc3[nH]6)C=C5)C=C4)cc2)CCN(C(=O)[C@]2(C)CCCO2)C1
REMARK SMILES IDX 10 1 9 2 8 3 7 4 6 5 4 6 5 7 3 9 79 10 90 11 80 12 81 13
REMARK SMILES IDX 2 14 1 15 82 16 83 17 84 18 86 19 89 20 85 21 87 22 88 23
REMARK SMILES IDX 11 24 12 25 13 26 14 27 15 29 16 30 17 31 78 32 18 33 77 34
REMARK SMILES IDX 19 35 20 36 21 37 71 38 22 39 76 40 70 41 72 42 23 43 75 44
REMARK SMILES IDX 69 45 68 46 24 48 56 49 36 50 55 51 37 52 40 53 54 54 73 55
REMARK SMILES IDX 38 56 39 57 53 59 74 60 41 61 25 62 26 63 34 64 27 65 33 66
REMARK SMILES IDX 35 67 32 68 28 69 29 70 30 71 31 72 57 73 58 74 66 75 59 76
REMARK SMILES IDX 65 77 67 78 64 79 60 80 61 81 62 82 63 83 42 84 43 85 51 86
REMARK SMILES IDX 44 87 50 88 52 89 49 90 45 91 46 92 47 93 48 94
REMARK H PARENT 6 8 13 28 72 47 40 58
REMARK Flexibility Score: inf
ROOT
ATOM      1  C   UNL A   1      46.225  25.358  39.800  1.00  0.00     0.002 C 
ENDROOT
BRANCH   1   2
ATOM      2  C   UNL A   1      45.260  24.225  39.444  1.00  0.00     0.002 C 
BRANCH   2   3
ATOM      3  C   UNL A   1      45.661  22.841  39.966  1.00  0.00     0.021 C 
BRANCH   3   4
ATOM      4  C   UNL A   1      46.077  21.852  38.877  1.00  0.00     0.116 C 
BRANCH   4   5
ATOM      5  N   UNL A   1      45.654  22.301  37.563  1.00  0.00    -0.356 N 
ATOM      6  C   UNL A   1      45.948  21.880  36.304  1.00  0.00     0.228 C 
ATOM      7  O   UNL A   1      45.459  22.555  35.391  1.00  0.00    -0.274 OA
ATOM      8  H   UNL A   1      45.030  23.061  37.588  1.00  0.00     0.163 HD
BRANCH   6   9
ATOM      9  C   UNL A   1      46.821  20.643  36.006  1.00  0.00     0.068 C 
ATOM     10  C   UNL A   1      46.953  20.381  34.488  1.00  0.00     0.040 C 
ATOM     11  C   UNL A   1      48.265  20.871  36.488  1.00  0.00     0.136 C 
ATOM     12  C   UNL A   1      48.401  19.953  34.301  1.00  0.00     0.121 C 
ATOM     13  N   UNL A   1      49.116  20.689  35.320  1.00  0.00    -0.339 N 
BRANCH   9  14
ATOM     14  C   UNL A   1      46.177  19.376  36.642  1.00  0.00     0.015 C 
ATOM     15  C   UNL A   1      45.305  18.539  35.713  1.00  0.00     0.005 C 
ENDBRANCH   9  14
BRANCH  13  16
ATOM     16  C   UNL A   1      50.431  21.116  35.361  1.00  0.00     0.254 C 
ATOM     17  O   UNL A   1      50.671  22.318  35.189  1.00  0.00    -0.272 OA
BRANCH  16  18
ATOM     18  C   UNL A   1      51.608  20.087  35.469  1.00  0.00     0.144 C 
ATOM     19  C   UNL A   1      52.916  20.856  35.750  1.00  0.00     0.048 C 
ATOM     20  O   UNL A   1      51.837  19.310  34.282  1.00  0.00    -0.365 OA
ATOM     21  C   UNL A   1      51.306  19.083  36.606  1.00  0.00     0.053 C 
ATOM     22  C   UNL A   1      53.740  20.672  34.499  1.00  0.00     0.032 C 
ATOM     23  C   UNL A   1      53.234  19.354  33.965  1.00  0.00     0.162 C 
ENDBRANCH  16  18
ENDBRANCH  13  16
ENDBRANCH   6   9
ENDBRANCH   4   5
ENDBRANCH   3   4
ENDBRANCH   2   3
ENDBRANCH   1   2
BRANCH   1  24
ATOM     24  C   UNL A   1      45.883  26.717  39.187  1.00  0.00     0.021 C 
BRANCH  24  25
ATOM     25  C   UNL A   1      47.017  27.359  38.396  1.00  0.00     0.116 C 
BRANCH  25  26
ATOM     26  N   UNL A   1      47.768  26.378  37.632  1.00  0.00    -0.352 N 
ATOM     27  C   UNL A   1      47.466  25.807  36.420  1.00  0.00     0.251 C 
ATOM     28  H   UNL A   1      48.613  26.081  38.041  1.00  0.00     0.163 HD
ATOM     29  O   UNL A   1      48.098  24.830  36.033  1.00  0.00    -0.269 OA
BRANCH  27  30
ATOM     30  C   UNL A   1      46.367  26.363  35.599  1.00  0.00     0.039 A 
ATOM     31  C   UNL A   1      45.113  25.751  35.644  1.00  0.00     0.014 A 
ATOM     32  C   UNL A   1      46.577  27.476  34.779  1.00  0.00     0.014 A 
ATOM     33  C   UNL A   1      44.057  26.286  34.903  1.00  0.00     0.010 A 
ATOM     34  C   UNL A   1      45.504  28.054  34.105  1.00  0.00     0.010 A 
ATOM     35  C   UNL A   1      44.234  27.457  34.149  1.00  0.00    -0.014 A 
BRANCH  35  36
ATOM     36  C   UNL A   1      43.110  28.054  33.379  1.00  0.00     0.031 A 
ATOM     37  C   UNL A   1      42.923  27.702  31.927  1.00  0.00     0.074 A 
ATOM     38  C   UNL A   1      42.287  28.940  33.975  1.00  0.00     0.049 A 
ATOM     39  N   UNL A   1      42.039  28.153  31.073  1.00  0.00    -0.248 NA
ATOM     40  C   UNL A   1      43.874  26.739  31.353  1.00  0.00     0.031 C 
ATOM     41  C   UNL A   1      42.390  29.386  35.366  1.00  0.00     0.029 A 
ATOM     42  N   UNL A   1      41.203  29.627  33.487  1.00  0.00    -0.354 N 
ATOM     43  C   UNL A   1      42.335  27.536  29.861  1.00  0.00     0.074 A 
ATOM     44  C   UNL A   1      43.520  26.736  30.077  1.00  0.00     0.031 C 
ATOM     45  C   UNL A   1      41.391  30.245  35.627  1.00  0.00     0.029 A 
ATOM     46  C   UNL A   1      40.607  30.451  34.415  1.00  0.00     0.049 A 
ATOM     47  H   UNL A   1      40.881  29.537  32.561  1.00  0.00     0.167 HD
ATOM     48  C   UNL A   1      41.661  27.608  28.687  1.00  0.00     0.034 A 
ATOM     49  C   UNL A   1      39.554  31.286  34.297  1.00  0.00     0.034 A 
ATOM     50  C   UNL A   1      40.473  28.402  28.493  1.00  0.00     0.049 A 
ATOM     51  C   UNL A   1      38.844  31.378  32.969  1.00  0.00     0.074 A 
ATOM     52  C   UNL A   1      39.682  28.509  27.361  1.00  0.00     0.029 A 
ATOM     53  N   UNL A   1      39.905  29.232  29.451  1.00  0.00    -0.354 N 
ATOM     54  N   UNL A   1      39.105  30.748  31.846  1.00  0.00    -0.248 NA
ATOM     55  C   UNL A   1      37.690  32.283  32.896  1.00  0.00     0.031 C 
ATOM     56  C   UNL A   1      38.688  29.460  27.609  1.00  0.00     0.029 A 
ATOM     57  C   UNL A   1      38.798  29.882  28.924  1.00  0.00     0.049 A 
ATOM     58  H   UNL A   1      40.239  29.344  30.371  1.00  0.00     0.167 HD
ATOM     59  C   UNL A   1      38.125  31.156  30.946  1.00  0.00     0.074 A 
ATOM     60  C   UNL A   1      37.261  32.072  31.661  1.00  0.00     0.031 C 
ATOM     61  C   UNL A   1      37.950  30.801  29.646  1.00  0.00     0.034 A 
BRANCH  48  62
ATOM     62  C   UNL A   1      42.216  26.827  27.517  1.00  0.00     0.023 A 
ATOM     63  C   UNL A   1      41.951  25.455  27.351  1.00  0.00     0.031 A 
ATOM     64  C   UNL A   1      43.039  27.454  26.566  1.00  0.00     0.131 A 
ATOM     65  C   UNL A   1      42.568  24.742  26.312  1.00  0.00     0.055 A 
ATOM     66  C   UNL A   1      43.578  26.758  25.482  1.00  0.00     0.041 A 
ATOM     67  F   UNL A   1      43.349  28.756  26.681  1.00  0.00    -0.206 F 
ATOM     68  C   UNL A   1      43.356  25.390  25.360  1.00  0.00     0.022 A 
BRANCH  65  69
ATOM     69  S   UNL A   1      42.449  22.933  26.316  1.00  0.00     0.124 S 
ATOM     70  O   UNL A   1      41.064  22.729  26.733  1.00  0.00    -0.237 OA
ATOM     71  O   UNL A   1      42.757  22.592  24.933  1.00  0.00    -0.237 OA
ATOM     72  O   UNL A   1      43.453  22.526  27.299  1.00  0.00    -0.744 OA
ENDBRANCH  65  69
ENDBRANCH  48  62
BRANCH  49  73
ATOM     73  C   UNL A   1      39.111  32.113  35.457  1.00  0.00     0.023 A 
ATOM     74  C   UNL A   1      39.566  33.431  35.623  1.00  0.00     0.031 A 
ATOM     75  C   UNL A   1      38.263  31.581  36.445  1.00  0.00     0.131 A 
ATOM     76  C   UNL A   1      39.216  34.152  36.776  1.00  0.00     0.055 A 
ATOM     77  C   UNL A   1      37.869  32.324  37.558  1.00  0.00     0.041 A 
ATOM     78  F   UNL A   1      37.796  30.327  36.336  1.00  0.00    -0.206 F 
ATOM     79  C   UNL A   1      38.357  33.614  37.737  1.00  0.00     0.022 A 
BRANCH  76  80
ATOM     80  S   UNL A   1      39.982  35.773  37.050  1.00  0.00     0.124 S 
ATOM     81  O   UNL A   1      41.383  35.412  37.234  1.00  0.00    -0.237 OA
ATOM     82  O   UNL A   1      39.657  36.475  35.812  1.00  0.00    -0.237 OA
ATOM     83  O   UNL A   1      39.303  36.272  38.244  1.00  0.00    -0.744 OA
ENDBRANCH  76  80
ENDBRANCH  49  73
BRANCH  61  84
ATOM     84  C   UNL A   1      36.749  31.372  28.931  1.00  0.00     0.023 A 
ATOM     85  C   UNL A   1      35.683  30.561  28.503  1.00  0.00     0.031 A 
ATOM     86  C   UNL A   1      36.674  32.753  28.668  1.00  0.00     0.131 A 
ATOM     87  C   UNL A   1      34.617  31.127  27.787  1.00  0.00     0.055 A 
ATOM     88  C   UNL A   1      35.579  33.320  28.017  1.00  0.00     0.041 A 
ATOM     89  F   UNL A   1      37.664  33.576  29.051  1.00  0.00    -0.206 F 
ATOM     90  C   UNL A   1      34.549  32.505  27.559  1.00  0.00     0.022 A 
BRANCH  87  91
ATOM     91  S   UNL A   1      33.366  30.026  27.073  1.00  0.00     0.124 S 
ATOM     92  O   UNL A   1      33.456  28.860  27.946  1.00  0.00    -0.237 OA
ATOM     93  O   UNL A   1      32.147  30.819  27.193  1.00  0.00    -0.237 OA
ATOM     94  O   UNL A   1      33.835  29.814  25.705  1.00  0.00    -0.744 OA
ENDBRANCH  87  91
ENDBRANCH  61  84
ENDBRANCH  35  36
ENDBRANCH  27  30
ENDBRANCH  25  26
ENDBRANCH  24  25
ENDBRANCH   1  24
TORSDOF 19
ENDMDL
