MODEL 1
REMARK VINA RESULT:     -12.0      0.000      0.000
REMARK SMILES Cc1c[nH]c(C[N@H+]2C[C@@H]3CN(S(C)(=O)=O)C[C@]3(C(=O)NCCCCCCNC(=O)c3ccc(-c4c5nc(c(-c6cc(S(=O)(=O)[O-])ccc6F)c6ccc([nH]6)c(-c6cc(S(=O)(=O)[O-])ccc6F)c6nc(c(-c7cc(S(=O)(=O)[O-])ccc7F)c7ccc4[nH]7)C=C6)C=C5)cc3)C2)n1
REMARK SMILES IDX 24 1 23 2 22 3 21 4 20 5 18 6 19 7 17 9 7 10 8 11 93 12 9 14
REMARK SMILES IDX 10 15 16 16 11 17 6 18 5 19 1 20 2 21 3 22 94 23 4 24 12 26
REMARK SMILES IDX 13 27 14 28 15 29 25 30 26 31 27 32 28 33 29 35 30 36 31 37
REMARK SMILES IDX 92 38 32 39 91 40 33 41 34 42 35 43 85 44 36 45 90 46 84 47
REMARK SMILES IDX 86 48 37 49 89 50 83 51 82 52 38 54 70 55 50 56 69 57 51 58
REMARK SMILES IDX 54 59 68 60 87 61 52 62 53 63 67 65 88 66 55 67 39 68 40 69
REMARK SMILES IDX 48 70 41 71 47 72 49 73 46 74 42 75 43 76 44 77 45 78 71 79
REMARK SMILES IDX 72 80 80 81 73 82 79 83 81 84 78 85 74 86 75 87 76 88 77 89
REMARK SMILES IDX 56 90 57 91 65 92 58 93 64 94 66 95 63 96 59 97 60 98 61 99
REMARK SMILES IDX 62 100
REMARK H PARENT 20 8 7 13 4 25 27 34 86 53 54 64
REMARK Flexibility Score: inf
ROOT
ATOM      1  C   UNL A   1      31.421  31.007  26.060  1.00  0.00     0.002 C 
ENDROOT
BRANCH   1   2
ATOM      2  C   UNL A   1      32.394  30.071  26.784  1.00  0.00     0.002 C 
BRANCH   2   3
ATOM      3  C   UNL A   1      31.751  28.789  27.303  1.00  0.00     0.021 C 
BRANCH   3   4
ATOM      4  C   UNL A   1      31.402  27.793  26.191  1.00  0.00     0.116 C 
BRANCH   4   5
ATOM      5  N   UNL A   1      30.897  26.566  26.779  1.00  0.00    -0.355 N 
ATOM      6  C   UNL A   1      30.802  25.342  26.152  1.00  0.00     0.233 C 
ATOM      7  O   UNL A   1      29.885  24.593  26.490  1.00  0.00    -0.274 OA
ATOM      8  H   UNL A   1      30.593  26.613  27.713  1.00  0.00     0.163 HD
BRANCH   6   9
ATOM      9  C   UNL A   1      31.917  24.999  25.084  1.00  0.00     0.121 C 
ATOM     10  N   UNL A   1      34.093  24.038  25.958  1.00  0.00    -0.327 N 
ATOM     11  C   UNL A   1      33.999  23.712  24.557  1.00  0.00     0.268 C 
ATOM     12  C   UNL A   1      32.725  24.441  26.354  1.00  0.00     0.281 C 
ATOM     13  H   UNL A   1      34.768  24.789  26.107  1.00  0.00     0.348 HD
ATOM     14  C   UNL A   1      32.505  23.727  24.298  1.00  0.00     0.082 C 
ATOM     15  C   UNL A   1      32.283  23.840  22.792  1.00  0.00     0.113 C 
ATOM     16  C   UNL A   1      30.711  24.957  24.069  1.00  0.00     0.125 C 
ATOM     17  N   UNL A   1      31.304  24.901  22.712  1.00  0.00    -0.200 NA
BRANCH  10  18
ATOM     18  C   UNL A   1      34.638  22.948  26.796  1.00  0.00     0.338 C 
BRANCH  18  19
ATOM     19  C   UNL A   1      35.946  22.366  26.328  1.00  0.00     0.161 A 
ATOM     20  C   UNL A   1      37.953  19.952  24.660  1.00  0.00     0.068 C 
ATOM     21  C   UNL A   1      37.440  21.141  25.375  1.00  0.00     0.056 A 
ATOM     22  C   UNL A   1      38.056  22.341  25.649  1.00  0.00     0.107 A 
ATOM     23  N   UNL A   1      36.148  21.160  25.836  1.00  0.00    -0.233 NA
ATOM     24  N   UNL A   1      37.109  23.097  26.282  1.00  0.00    -0.344 N 
ATOM     25  H   UNL A   1      37.236  24.006  26.640  1.00  0.00     0.167 HD
ENDBRANCH  18  19
ENDBRANCH  10  18
BRANCH  17  26
ATOM     26  S   UNL A   1      31.699  26.301  21.861  1.00  0.00     0.211 S 
ATOM     27  C   UNL A   1      33.413  26.620  22.274  1.00  0.00     0.176 C 
ATOM     28  O   UNL A   1      31.665  25.971  20.456  1.00  0.00    -0.213 OA
ATOM     29  O   UNL A   1      30.906  27.387  22.402  1.00  0.00    -0.213 OA
ENDBRANCH  17  26
ENDBRANCH   6   9
ENDBRANCH   4   5
ENDBRANCH   3   4
ENDBRANCH   2   3
ENDBRANCH   1   2
BRANCH   1  30
ATOM     30  C   UNL A   1      31.383  32.440  26.604  1.00  0.00     0.021 C 
BRANCH  30  31
ATOM     31  C   UNL A   1      32.666  32.876  27.307  1.00  0.00     0.116 C 
BRANCH  31  32
ATOM     32  N   UNL A   1      32.607  34.281  27.671  1.00  0.00    -0.352 N 
ATOM     33  C   UNL A   1      33.169  34.925  28.742  1.00  0.00     0.251 C 
ATOM     34  H   UNL A   1      32.088  34.854  27.062  1.00  0.00     0.163 HD
ATOM     35  O   UNL A   1      32.738  36.022  29.083  1.00  0.00    -0.269 OA
BRANCH  33  36
ATOM     36  C   UNL A   1      34.289  34.297  29.472  1.00  0.00     0.039 A 
ATOM     37  C   UNL A   1      35.593  34.505  29.019  1.00  0.00     0.014 A 
ATOM     38  C   UNL A   1      34.050  33.464  30.570  1.00  0.00     0.014 A 
ATOM     39  C   UNL A   1      36.657  33.898  29.684  1.00  0.00     0.010 A 
ATOM     40  C   UNL A   1      35.120  32.930  31.284  1.00  0.00     0.010 A 
ATOM     41  C   UNL A   1      36.433  33.121  30.833  1.00  0.00    -0.014 A 
BRANCH  41  42
ATOM     42  C   UNL A   1      37.564  32.479  31.550  1.00  0.00     0.031 A 
ATOM     43  C   UNL A   1      38.307  31.335  30.913  1.00  0.00     0.074 A 
ATOM     44  C   UNL A   1      37.902  32.914  32.779  1.00  0.00     0.049 A 
ATOM     45  N   UNL A   1      39.311  30.638  31.383  1.00  0.00    -0.248 NA
ATOM     46  C   UNL A   1      37.845  30.900  29.587  1.00  0.00     0.031 C 
ATOM     47  C   UNL A   1      37.227  33.990  33.508  1.00  0.00     0.029 A 
ATOM     48  N   UNL A   1      38.898  32.511  33.632  1.00  0.00    -0.354 N 
ATOM     49  C   UNL A   1      39.594  29.681  30.414  1.00  0.00     0.074 A 
ATOM     50  C   UNL A   1      38.611  29.843  29.365  1.00  0.00     0.031 C 
ATOM     51  C   UNL A   1      37.851  34.187  34.679  1.00  0.00     0.029 A 
ATOM     52  C   UNL A   1      38.936  33.220  34.810  1.00  0.00     0.049 A 
ATOM     53  H   UNL A   1      39.526  31.782  33.421  1.00  0.00     0.167 HD
ATOM     54  C   UNL A   1      40.598  28.770  30.390  1.00  0.00     0.034 A 
ATOM     55  C   UNL A   1      39.750  33.099  35.877  1.00  0.00     0.034 A 
ATOM     56  C   UNL A   1      41.570  28.627  31.447  1.00  0.00     0.049 A 
ATOM     57  C   UNL A   1      40.837  32.054  35.843  1.00  0.00     0.074 A 
ATOM     58  C   UNL A   1      42.655  27.770  31.509  1.00  0.00     0.029 A 
ATOM     59  N   UNL A   1      41.569  29.350  32.634  1.00  0.00    -0.354 N 
ATOM     60  N   UNL A   1      41.126  31.192  34.895  1.00  0.00    -0.248 NA
ATOM     61  C   UNL A   1      41.715  31.976  37.016  1.00  0.00     0.031 C 
ATOM     62  C   UNL A   1      43.257  27.916  32.764  1.00  0.00     0.029 A 
ATOM     63  C   UNL A   1      42.610  28.933  33.449  1.00  0.00     0.049 A 
ATOM     64  H   UNL A   1      40.920  30.055  32.864  1.00  0.00     0.167 HD
ATOM     65  C   UNL A   1      42.244  30.494  35.346  1.00  0.00     0.074 A 
ATOM     66  C   UNL A   1      42.584  31.050  36.640  1.00  0.00     0.031 C 
ATOM     67  C   UNL A   1      42.931  29.488  34.745  1.00  0.00     0.034 A 
BRANCH  54  68
ATOM     68  C   UNL A   1      40.671  27.843  29.197  1.00  0.00     0.023 A 
ATOM     69  C   UNL A   1      41.608  28.035  28.166  1.00  0.00     0.031 A 
ATOM     70  C   UNL A   1      39.776  26.765  29.076  1.00  0.00     0.131 A 
ATOM     71  C   UNL A   1      41.577  27.215  27.027  1.00  0.00     0.055 A 
ATOM     72  C   UNL A   1      39.809  25.898  27.982  1.00  0.00     0.041 A 
ATOM     73  F   UNL A   1      38.843  26.542  30.015  1.00  0.00    -0.206 F 
ATOM     74  C   UNL A   1      40.702  26.130  26.941  1.00  0.00     0.022 A 
BRANCH  71  75
ATOM     75  S   UNL A   1      42.588  27.681  25.595  1.00  0.00     0.124 S 
ATOM     76  O   UNL A   1      42.476  26.491  24.756  1.00  0.00    -0.237 OA
ATOM     77  O   UNL A   1      41.910  28.875  25.104  1.00  0.00    -0.237 OA
ATOM     78  O   UNL A   1      43.913  27.908  26.170  1.00  0.00    -0.744 OA
ENDBRANCH  71  75
ENDBRANCH  54  68
BRANCH  55  79
ATOM     79  C   UNL A   1      39.570  33.978  37.069  1.00  0.00     0.023 A 
ATOM     80  C   UNL A   1      38.977  33.494  38.246  1.00  0.00     0.031 A 
ATOM     81  C   UNL A   1      39.949  35.333  37.034  1.00  0.00     0.131 A 
ATOM     82  C   UNL A   1      38.730  34.368  39.317  1.00  0.00     0.055 A 
ATOM     83  C   UNL A   1      39.759  36.183  38.125  1.00  0.00     0.041 A 
ATOM     84  F   UNL A   1      40.523  35.850  35.936  1.00  0.00    -0.206 F 
ATOM     85  C   UNL A   1      39.131  35.704  39.269  1.00  0.00     0.022 A 
BRANCH  82  86
ATOM     86  S   UNL A   1      37.781  33.755  40.737  1.00  0.00     0.124 S 
ATOM     87  O   UNL A   1      38.753  32.887  41.390  1.00  0.00    -0.237 OA
ATOM     88  O   UNL A   1      37.451  34.993  41.436  1.00  0.00    -0.237 OA
ATOM     89  O   UNL A   1      36.648  33.071  40.118  1.00  0.00    -0.744 OA
ENDBRANCH  82  86
ENDBRANCH  55  79
BRANCH  67  90
ATOM     90  C   UNL A   1      44.151  28.964  35.465  1.00  0.00     0.023 A 
ATOM     91  C   UNL A   1      44.076  27.905  36.385  1.00  0.00     0.031 A 
ATOM     92  C   UNL A   1      45.410  29.551  35.239  1.00  0.00     0.131 A 
ATOM     93  C   UNL A   1      45.218  27.513  37.097  1.00  0.00     0.055 A 
ATOM     94  C   UNL A   1      46.558  29.106  35.894  1.00  0.00     0.041 A 
ATOM     95  F   UNL A   1      45.545  30.571  34.375  1.00  0.00    -0.206 F 
ATOM     96  C   UNL A   1      46.464  28.093  36.843  1.00  0.00     0.022 A 
BRANCH  93  97
ATOM     97  S   UNL A   1      45.033  26.320  38.451  1.00  0.00     0.124 S 
ATOM     98  O   UNL A   1      46.392  25.808  38.591  1.00  0.00    -0.237 OA
ATOM     99  O   UNL A   1      44.552  27.159  39.543  1.00  0.00    -0.237 OA
ATOM    100  O   UNL A   1      44.060  25.360  37.932  1.00  0.00    -0.744 OA
ENDBRANCH  93  97
ENDBRANCH  67  90
ENDBRANCH  41  42
ENDBRANCH  33  36
ENDBRANCH  31  32
ENDBRANCH  30  31
ENDBRANCH   1  30
TORSDOF 19
ENDMDL
MODEL 2
REMARK VINA RESULT:     -12.0      1.853      4.186
REMARK SMILES Cc1c[nH]c(C[N@H+]2C[C@@H]3CN(S(C)(=O)=O)C[C@]3(C(=O)NCCCCCCNC(=O)c3ccc(-c4c5nc(c(-c6cc(S(=O)(=O)[O-])ccc6F)c6ccc([nH]6)c(-c6cc(S(=O)(=O)[O-])ccc6F)c6nc(c(-c7cc(S(=O)(=O)[O-])ccc7F)c7ccc4[nH]7)C=C6)C=C5)cc3)C2)n1
REMARK SMILES IDX 24 1 23 2 22 3 21 4 20 5 18 6 19 7 17 9 7 10 8 11 93 12 9 14
REMARK SMILES IDX 10 15 16 16 11 17 6 18 5 19 1 20 2 21 3 22 94 23 4 24 12 26
REMARK SMILES IDX 13 27 14 28 15 29 25 30 26 31 27 32 28 33 29 35 30 36 31 37
REMARK SMILES IDX 92 38 32 39 91 40 33 41 34 42 35 43 85 44 36 45 90 46 84 47
REMARK SMILES IDX 86 48 37 49 89 50 83 51 82 52 38 54 70 55 50 56 69 57 51 58
REMARK SMILES IDX 54 59 68 60 87 61 52 62 53 63 67 65 88 66 55 67 39 68 40 69
REMARK SMILES IDX 48 70 41 71 47 72 49 73 46 74 42 75 43 76 44 77 45 78 71 79
REMARK SMILES IDX 72 80 80 81 73 82 79 83 81 84 78 85 74 86 75 87 76 88 77 89
REMARK SMILES IDX 56 90 57 91 65 92 58 93 64 94 66 95 63 96 59 97 60 98 61 99
REMARK SMILES IDX 62 100
REMARK H PARENT 20 8 7 13 4 25 27 34 86 53 54 64
REMARK Flexibility Score: inf
ROOT
ATOM      1  C   UNL A   1      31.392  31.111  26.350  1.00  0.00     0.002 C 
ENDROOT
BRANCH   1   2
ATOM      2  C   UNL A   1      32.509  30.284  26.997  1.00  0.00     0.002 C 
BRANCH   2   3
ATOM      3  C   UNL A   1      32.478  28.804  26.627  1.00  0.00     0.021 C 
BRANCH   3   4
ATOM      4  C   UNL A   1      33.569  28.406  25.628  1.00  0.00     0.116 C 
BRANCH   4   5
ATOM      5  N   UNL A   1      33.200  28.856  24.299  1.00  0.00    -0.355 N 
ATOM      6  C   UNL A   1      32.472  28.143  23.370  1.00  0.00     0.233 C 
ATOM      7  O   UNL A   1      32.715  28.336  22.178  1.00  0.00    -0.274 OA
ATOM      8  H   UNL A   1      33.498  29.756  24.035  1.00  0.00     0.163 HD
BRANCH   6   9
ATOM      9  C   UNL A   1      31.355  27.174  23.931  1.00  0.00     0.121 C 
ATOM     10  N   UNL A   1      28.951  27.957  23.750  1.00  0.00    -0.327 N 
ATOM     11  C   UNL A   1      28.937  26.525  23.927  1.00  0.00     0.268 C 
ATOM     12  C   UNL A   1      30.343  28.283  23.366  1.00  0.00     0.281 C 
ATOM     13  H   UNL A   1      28.675  28.427  24.612  1.00  0.00     0.348 HD
ATOM     14  C   UNL A   1      30.290  26.098  23.394  1.00  0.00     0.082 C 
ATOM     15  C   UNL A   1      30.587  24.695  23.919  1.00  0.00     0.113 C 
ATOM     16  C   UNL A   1      32.450  26.055  23.737  1.00  0.00     0.125 C 
ATOM     17  N   UNL A   1      31.938  24.841  24.416  1.00  0.00    -0.200 NA
BRANCH  10  18
ATOM     18  C   UNL A   1      27.953  28.455  22.780  1.00  0.00     0.338 C 
BRANCH  18  19
ATOM     19  C   UNL A   1      28.058  29.919  22.442  1.00  0.00     0.161 A 
ATOM     20  C   UNL A   1      28.974  33.291  23.094  1.00  0.00     0.068 C 
ATOM     21  C   UNL A   1      28.522  32.023  22.484  1.00  0.00     0.056 A 
ATOM     22  C   UNL A   1      28.249  31.724  21.167  1.00  0.00     0.107 A 
ATOM     23  N   UNL A   1      28.360  30.905  23.263  1.00  0.00    -0.233 NA
ATOM     24  N   UNL A   1      27.925  30.395  21.159  1.00  0.00    -0.344 N 
ATOM     25  H   UNL A   1      27.648  29.871  20.372  1.00  0.00     0.167 HD
ENDBRANCH  18  19
ENDBRANCH  10  18
BRANCH  17  26
ATOM     26  S   UNL A   1      32.232  24.552  26.050  1.00  0.00     0.211 S 
ATOM     27  C   UNL A   1      32.087  22.776  26.234  1.00  0.00     0.176 C 
ATOM     28  O   UNL A   1      33.616  24.883  26.300  1.00  0.00    -0.213 OA
ATOM     29  O   UNL A   1      31.160  25.163  26.809  1.00  0.00    -0.213 OA
ENDBRANCH  17  26
ENDBRANCH   6   9
ENDBRANCH   4   5
ENDBRANCH   3   4
ENDBRANCH   2   3
ENDBRANCH   1   2
BRANCH   1  30
ATOM     30  C   UNL A   1      31.446  32.612  26.657  1.00  0.00     0.021 C 
BRANCH  30  31
ATOM     31  C   UNL A   1      32.762  33.079  27.272  1.00  0.00     0.116 C 
BRANCH  31  32
ATOM     32  N   UNL A   1      32.650  34.439  27.771  1.00  0.00    -0.352 N 
ATOM     33  C   UNL A   1      33.176  34.992  28.908  1.00  0.00     0.251 C 
ATOM     34  H   UNL A   1      32.118  35.051  27.212  1.00  0.00     0.163 HD
ATOM     35  O   UNL A   1      32.703  36.036  29.348  1.00  0.00    -0.269 OA
BRANCH  33  36
ATOM     36  C   UNL A   1      34.308  34.333  29.591  1.00  0.00     0.039 A 
ATOM     37  C   UNL A   1      34.056  33.564  30.728  1.00  0.00     0.014 A 
ATOM     38  C   UNL A   1      35.620  34.515  29.141  1.00  0.00     0.014 A 
ATOM     39  C   UNL A   1      35.117  32.957  31.397  1.00  0.00     0.010 A 
ATOM     40  C   UNL A   1      36.667  33.837  29.759  1.00  0.00     0.010 A 
ATOM     41  C   UNL A   1      36.429  33.071  30.908  1.00  0.00    -0.014 A 
BRANCH  41  42
ATOM     42  C   UNL A   1      37.563  32.420  31.613  1.00  0.00     0.031 A 
ATOM     43  C   UNL A   1      38.316  31.296  30.951  1.00  0.00     0.074 A 
ATOM     44  C   UNL A   1      37.895  32.827  32.853  1.00  0.00     0.049 A 
ATOM     45  N   UNL A   1      39.323  30.595  31.407  1.00  0.00    -0.248 NA
ATOM     46  C   UNL A   1      37.861  30.891  29.613  1.00  0.00     0.031 C 
ATOM     47  C   UNL A   1      37.210  33.880  33.606  1.00  0.00     0.029 A 
ATOM     48  N   UNL A   1      38.891  32.410  33.699  1.00  0.00    -0.354 N 
ATOM     49  C   UNL A   1      39.615  29.664  30.416  1.00  0.00     0.074 A 
ATOM     50  C   UNL A   1      38.634  29.844  29.369  1.00  0.00     0.031 C 
ATOM     51  C   UNL A   1      37.830  34.054  34.783  1.00  0.00     0.029 A 
ATOM     52  C   UNL A   1      38.921  33.092  34.894  1.00  0.00     0.049 A 
ATOM     53  H   UNL A   1      39.524  31.691  33.473  1.00  0.00     0.167 HD
ATOM     54  C   UNL A   1      40.625  28.760  30.373  1.00  0.00     0.034 A 
ATOM     55  C   UNL A   1      39.733  32.950  35.960  1.00  0.00     0.034 A 
ATOM     56  C   UNL A   1      41.595  28.598  31.429  1.00  0.00     0.049 A 
ATOM     57  C   UNL A   1      40.827  31.914  35.904  1.00  0.00     0.074 A 
ATOM     58  C   UNL A   1      42.686  27.747  31.474  1.00  0.00     0.029 A 
ATOM     59  N   UNL A   1      41.586  29.292  32.633  1.00  0.00    -0.354 N 
ATOM     60  N   UNL A   1      41.125  31.076  34.937  1.00  0.00    -0.248 NA
ATOM     61  C   UNL A   1      41.702  31.813  37.078  1.00  0.00     0.031 C 
ATOM     62  C   UNL A   1      43.284  27.867  32.733  1.00  0.00     0.029 A 
ATOM     63  C   UNL A   1      42.628  28.862  33.441  1.00  0.00     0.049 A 
ATOM     64  H   UNL A   1      40.932  29.988  32.878  1.00  0.00     0.167 HD
ATOM     65  C   UNL A   1      42.246  30.375  35.374  1.00  0.00     0.074 A 
ATOM     66  C   UNL A   1      42.578  30.902  36.682  1.00  0.00     0.031 C 
ATOM     67  C   UNL A   1      42.941  29.389  34.751  1.00  0.00     0.034 A 
BRANCH  54  68
ATOM     68  C   UNL A   1      40.708  27.863  29.158  1.00  0.00     0.023 A 
ATOM     69  C   UNL A   1      41.642  28.090  28.131  1.00  0.00     0.031 A 
ATOM     70  C   UNL A   1      39.826  26.777  29.013  1.00  0.00     0.131 A 
ATOM     71  C   UNL A   1      41.619  27.298  26.973  1.00  0.00     0.055 A 
ATOM     72  C   UNL A   1      39.867  25.937  27.898  1.00  0.00     0.041 A 
ATOM     73  F   UNL A   1      38.896  26.521  29.947  1.00  0.00    -0.206 F 
ATOM     74  C   UNL A   1      40.757  26.204  26.862  1.00  0.00     0.022 A 
BRANCH  71  75
ATOM     75  S   UNL A   1      42.623  27.809  25.552  1.00  0.00     0.124 S 
ATOM     76  O   UNL A   1      43.785  28.402  26.211  1.00  0.00    -0.237 OA
ATOM     77  O   UNL A   1      42.856  26.548  24.859  1.00  0.00    -0.237 OA
ATOM     78  O   UNL A   1      41.764  28.760  24.848  1.00  0.00    -0.744 OA
ENDBRANCH  71  75
ENDBRANCH  54  68
BRANCH  55  79
ATOM     79  C   UNL A   1      39.543  33.798  37.173  1.00  0.00     0.023 A 
ATOM     80  C   UNL A   1      38.888  33.304  38.312  1.00  0.00     0.031 A 
ATOM     81  C   UNL A   1      39.977  35.137  37.194  1.00  0.00     0.131 A 
ATOM     82  C   UNL A   1      38.636  34.153  39.400  1.00  0.00     0.055 A 
ATOM     83  C   UNL A   1      39.780  35.960  38.305  1.00  0.00     0.041 A 
ATOM     84  F   UNL A   1      40.611  35.664  36.135  1.00  0.00    -0.206 F 
ATOM     85  C   UNL A   1      39.092  35.472  39.410  1.00  0.00     0.022 A 
BRANCH  82  86
ATOM     86  S   UNL A   1      37.612  33.537  40.765  1.00  0.00     0.124 S 
ATOM     87  O   UNL A   1      37.305  34.768  41.484  1.00  0.00    -0.237 OA
ATOM     88  O   UNL A   1      36.500  32.915  40.052  1.00  0.00    -0.237 OA
ATOM     89  O   UNL A   1      38.498  32.610  41.463  1.00  0.00    -0.744 OA
ENDBRANCH  82  86
ENDBRANCH  55  79
BRANCH  67  90
ATOM     90  C   UNL A   1      44.163  28.855  35.461  1.00  0.00     0.023 A 
ATOM     91  C   UNL A   1      44.095  27.763  36.343  1.00  0.00     0.031 A 
ATOM     92  C   UNL A   1      45.415  29.467  35.267  1.00  0.00     0.131 A 
ATOM     93  C   UNL A   1      45.237  27.361  37.050  1.00  0.00     0.055 A 
ATOM     94  C   UNL A   1      46.565  29.015  35.915  1.00  0.00     0.041 A 
ATOM     95  F   UNL A   1      45.543  30.519  34.441  1.00  0.00    -0.206 F 
ATOM     96  C   UNL A   1      46.476  27.967  36.826  1.00  0.00     0.022 A 
BRANCH  93  97
ATOM     97  S   UNL A   1      45.058  26.118  38.359  1.00  0.00     0.124 S 
ATOM     98  O   UNL A   1      44.286  26.844  39.362  1.00  0.00    -0.237 OA
ATOM     99  O   UNL A   1      44.357  25.040  37.672  1.00  0.00    -0.237 OA
ATOM    100  O   UNL A   1      46.438  25.818  38.738  1.00  0.00    -0.744 OA
ENDBRANCH  93  97
ENDBRANCH  67  90
ENDBRANCH  41  42
ENDBRANCH  33  36
ENDBRANCH  31  32
ENDBRANCH  30  31
ENDBRANCH   1  30
TORSDOF 19
ENDMDL
MODEL 3
REMARK VINA RESULT:     -11.7      1.781      7.600
REMARK SMILES Cc1c[nH]c(C[N@H+]2C[C@@H]3CN(S(C)(=O)=O)C[C@]3(C(=O)NCCCCCCNC(=O)c3ccc(-c4c5nc(c(-c6cc(S(=O)(=O)[O-])ccc6F)c6ccc([nH]6)c(-c6cc(S(=O)(=O)[O-])ccc6F)c6nc(c(-c7cc(S(=O)(=O)[O-])ccc7F)c7ccc4[nH]7)C=C6)C=C5)cc3)C2)n1
REMARK SMILES IDX 24 1 23 2 22 3 21 4 20 5 18 6 19 7 17 9 7 10 8 11 93 12 9 14
REMARK SMILES IDX 10 15 16 16 11 17 6 18 5 19 1 20 2 21 3 22 94 23 4 24 12 26
REMARK SMILES IDX 13 27 14 28 15 29 25 30 26 31 27 32 28 33 29 35 30 36 31 37
REMARK SMILES IDX 92 38 32 39 91 40 33 41 34 42 35 43 85 44 36 45 90 46 84 47
REMARK SMILES IDX 86 48 37 49 89 50 83 51 82 52 38 54 70 55 50 56 69 57 51 58
REMARK SMILES IDX 54 59 68 60 87 61 52 62 53 63 67 65 88 66 55 67 39 68 40 69
REMARK SMILES IDX 48 70 41 71 47 72 49 73 46 74 42 75 43 76 44 77 45 78 71 79
REMARK SMILES IDX 72 80 80 81 73 82 79 83 81 84 78 85 74 86 75 87 76 88 77 89
REMARK SMILES IDX 56 90 57 91 65 92 58 93 64 94 66 95 63 96 59 97 60 98 61 99
REMARK SMILES IDX 62 100
REMARK H PARENT 20 8 7 13 4 25 27 34 86 53 54 64
REMARK Flexibility Score: inf
ROOT
ATOM      1  C   UNL A   1      31.353  31.042  26.149  1.00  0.00     0.002 C 
ENDROOT
BRANCH   1   2
ATOM      2  C   UNL A   1      32.331  30.063  26.808  1.00  0.00     0.002 C 
BRANCH   2   3
ATOM      3  C   UNL A   1      31.676  28.784  27.321  1.00  0.00     0.021 C 
BRANCH   3   4
ATOM      4  C   UNL A   1      31.794  27.609  26.345  1.00  0.00     0.116 C 
BRANCH   4   5
ATOM      5  N   UNL A   1      31.180  26.430  26.928  1.00  0.00    -0.355 N 
ATOM      6  C   UNL A   1      30.930  25.238  26.281  1.00  0.00     0.233 C 
ATOM      7  O   UNL A   1      29.950  24.584  26.640  1.00  0.00    -0.274 OA
ATOM      8  H   UNL A   1      30.918  26.486  27.874  1.00  0.00     0.163 HD
BRANCH   6   9
ATOM      9  C   UNL A   1      31.961  24.802  25.164  1.00  0.00     0.121 C 
ATOM     10  N   UNL A   1      34.031  23.556  25.929  1.00  0.00    -0.327 N 
ATOM     11  C   UNL A   1      33.854  23.294  24.522  1.00  0.00     0.268 C 
ATOM     12  C   UNL A   1      32.735  24.105  26.385  1.00  0.00     0.281 C 
ATOM     13  H   UNL A   1      34.796  24.214  26.077  1.00  0.00     0.348 HD
ATOM     14  C   UNL A   1      32.365  23.498  24.317  1.00  0.00     0.082 C 
ATOM     15  C   UNL A   1      32.111  23.690  22.824  1.00  0.00     0.113 C 
ATOM     16  C   UNL A   1      30.727  24.941  24.191  1.00  0.00     0.125 C 
ATOM     17  N   UNL A   1      31.266  24.863  22.813  1.00  0.00    -0.200 NA
BRANCH  10  18
ATOM     18  C   UNL A   1      34.466  22.379  26.712  1.00  0.00     0.338 C 
BRANCH  18  19
ATOM     19  C   UNL A   1      34.303  21.050  26.023  1.00  0.00     0.161 A 
ATOM     20  C   UNL A   1      32.413  18.439  24.524  1.00  0.00     0.068 C 
ATOM     21  C   UNL A   1      33.486  19.332  25.011  1.00  0.00     0.056 A 
ATOM     22  C   UNL A   1      34.834  19.328  24.730  1.00  0.00     0.107 A 
ATOM     23  N   UNL A   1      33.182  20.380  25.843  1.00  0.00    -0.233 NA
ATOM     24  N   UNL A   1      35.346  20.403  25.403  1.00  0.00    -0.344 N 
ATOM     25  H   UNL A   1      36.294  20.668  25.437  1.00  0.00     0.167 HD
ENDBRANCH  18  19
ENDBRANCH  10  18
BRANCH  17  26
ATOM     26  S   UNL A   1      31.800  26.236  21.994  1.00  0.00     0.211 S 
ATOM     27  C   UNL A   1      33.567  26.285  22.286  1.00  0.00     0.176 C 
ATOM     28  O   UNL A   1      31.620  25.988  20.582  1.00  0.00    -0.213 OA
ATOM     29  O   UNL A   1      31.214  27.394  22.639  1.00  0.00    -0.213 OA
ENDBRANCH  17  26
ENDBRANCH   6   9
ENDBRANCH   4   5
ENDBRANCH   3   4
ENDBRANCH   2   3
ENDBRANCH   1   2
BRANCH   1  30
ATOM     30  C   UNL A   1      31.463  32.489  26.643  1.00  0.00     0.021 C 
BRANCH  30  31
ATOM     31  C   UNL A   1      32.808  32.834  27.274  1.00  0.00     0.116 C 
BRANCH  31  32
ATOM     32  N   UNL A   1      32.781  34.162  27.862  1.00  0.00    -0.352 N 
ATOM     33  C   UNL A   1      33.424  34.632  28.977  1.00  0.00     0.251 C 
ATOM     34  H   UNL A   1      32.219  34.820  27.393  1.00  0.00     0.163 HD
ATOM     35  O   UNL A   1      33.023  35.656  29.520  1.00  0.00    -0.269 OA
BRANCH  33  36
ATOM     36  C   UNL A   1      34.594  33.905  29.512  1.00  0.00     0.039 A 
ATOM     37  C   UNL A   1      35.867  34.240  29.048  1.00  0.00     0.014 A 
ATOM     38  C   UNL A   1      34.432  32.862  30.429  1.00  0.00     0.014 A 
ATOM     39  C   UNL A   1      36.978  33.546  29.525  1.00  0.00     0.010 A 
ATOM     40  C   UNL A   1      35.548  32.230  30.969  1.00  0.00     0.010 A 
ATOM     41  C   UNL A   1      36.831  32.549  30.504  1.00  0.00    -0.014 A 
BRANCH  41  42
ATOM     42  C   UNL A   1      38.012  31.812  31.021  1.00  0.00     0.031 A 
ATOM     43  C   UNL A   1      38.555  32.125  32.390  1.00  0.00     0.074 A 
ATOM     44  C   UNL A   1      38.603  30.879  30.249  1.00  0.00     0.049 A 
ATOM     45  N   UNL A   1      39.581  31.602  33.012  1.00  0.00    -0.248 NA
ATOM     46  C   UNL A   1      37.872  33.184  33.148  1.00  0.00     0.031 C 
ATOM     47  C   UNL A   1      38.184  30.521  28.892  1.00  0.00     0.029 A 
ATOM     48  N   UNL A   1      39.676  30.061  30.492  1.00  0.00    -0.354 N 
ATOM     49  C   UNL A   1      39.669  32.271  34.228  1.00  0.00     0.074 A 
ATOM     50  C   UNL A   1      38.638  33.286  34.223  1.00  0.00     0.031 C 
ATOM     51  C   UNL A   1      38.966  29.529  28.439  1.00  0.00     0.029 A 
ATOM     52  C   UNL A   1      39.973  29.216  29.447  1.00  0.00     0.049 A 
ATOM     53  H   UNL A   1      40.186  30.077  31.333  1.00  0.00     0.167 HD
ATOM     54  C   UNL A   1      40.515  32.043  35.263  1.00  0.00     0.034 A 
ATOM     55  C   UNL A   1      40.952  28.299  29.315  1.00  0.00     0.034 A 
ATOM     56  C   UNL A   1      41.537  31.024  35.246  1.00  0.00     0.049 A 
ATOM     57  C   UNL A   1      41.904  28.087  30.465  1.00  0.00     0.074 A 
ATOM     58  C   UNL A   1      42.421  30.673  36.252  1.00  0.00     0.029 A 
ATOM     59  N   UNL A   1      41.822  30.198  34.165  1.00  0.00    -0.354 N 
ATOM     60  N   UNL A   1      41.940  28.692  31.632  1.00  0.00    -0.248 NA
ATOM     61  C   UNL A   1      42.937  27.061  30.287  1.00  0.00     0.031 C 
ATOM     62  C   UNL A   1      43.290  29.697  35.752  1.00  0.00     0.029 A 
ATOM     63  C   UNL A   1      42.891  29.366  34.467  1.00  0.00     0.049 A 
ATOM     64  H   UNL A   1      41.337  30.204  33.308  1.00  0.00     0.167 HD
ATOM     65  C   UNL A   1      42.979  28.091  32.338  1.00  0.00     0.074 A 
ATOM     66  C   UNL A   1      43.528  27.066  31.472  1.00  0.00     0.031 C 
ATOM     67  C   UNL A   1      43.436  28.356  33.589  1.00  0.00     0.034 A 
BRANCH  54  68
ATOM     68  C   UNL A   1      40.387  32.932  36.479  1.00  0.00     0.023 A 
ATOM     69  C   UNL A   1      39.583  32.574  37.577  1.00  0.00     0.031 A 
ATOM     70  C   UNL A   1      41.059  34.166  36.534  1.00  0.00     0.131 A 
ATOM     71  C   UNL A   1      39.409  33.471  38.641  1.00  0.00     0.055 A 
ATOM     72  C   UNL A   1      40.951  35.016  37.637  1.00  0.00     0.041 A 
ATOM     73  F   UNL A   1      41.822  34.576  35.509  1.00  0.00    -0.206 F 
ATOM     74  C   UNL A   1      40.110  34.678  38.693  1.00  0.00     0.022 A 
BRANCH  71  75
ATOM     75  S   UNL A   1      38.136  33.108  39.881  1.00  0.00     0.124 S 
ATOM     76  O   UNL A   1      38.651  31.880  40.483  1.00  0.00    -0.237 OA
ATOM     77  O   UNL A   1      38.169  34.296  40.726  1.00  0.00    -0.237 OA
ATOM     78  O   UNL A   1      36.920  32.940  39.087  1.00  0.00    -0.744 OA
ENDBRANCH  71  75
ENDBRANCH  54  68
BRANCH  55  79
ATOM     79  C   UNL A   1      41.091  27.518  28.052  1.00  0.00     0.023 A 
ATOM     80  C   UNL A   1      40.735  26.161  27.993  1.00  0.00     0.031 A 
ATOM     81  C   UNL A   1      41.628  28.107  26.892  1.00  0.00     0.131 A 
ATOM     82  C   UNL A   1      40.969  25.425  26.821  1.00  0.00     0.055 A 
ATOM     83  C   UNL A   1      41.800  27.386  25.709  1.00  0.00     0.041 A 
ATOM     84  F   UNL A   1      41.984  29.401  26.889  1.00  0.00    -0.206 F 
ATOM     85  C   UNL A   1      41.484  26.032  25.675  1.00  0.00     0.022 A 
BRANCH  82  86
ATOM     86  S   UNL A   1      40.686  23.633  26.849  1.00  0.00     0.124 S 
ATOM     87  O   UNL A   1      41.723  23.155  25.943  1.00  0.00    -0.237 OA
ATOM     88  O   UNL A   1      40.871  23.319  28.262  1.00  0.00    -0.237 OA
ATOM     89  O   UNL A   1      39.317  23.499  26.357  1.00  0.00    -0.744 OA
ENDBRANCH  82  86
ENDBRANCH  55  79
BRANCH  67  90
ATOM     90  C   UNL A   1      44.555  27.485  34.111  1.00  0.00     0.023 A 
ATOM     91  C   UNL A   1      44.306  26.295  34.816  1.00  0.00     0.031 A 
ATOM     92  C   UNL A   1      45.896  27.866  33.914  1.00  0.00     0.131 A 
ATOM     93  C   UNL A   1      45.375  25.568  35.360  1.00  0.00     0.055 A 
ATOM     94  C   UNL A   1      46.957  27.098  34.393  1.00  0.00     0.041 A 
ATOM     95  F   UNL A   1      46.197  28.996  33.253  1.00  0.00    -0.206 F 
ATOM     96  C   UNL A   1      46.699  25.950  35.136  1.00  0.00     0.022 A 
BRANCH  93  97
ATOM     97  S   UNL A   1      45.006  24.183  36.473  1.00  0.00     0.124 S 
ATOM     98  O   UNL A   1      46.326  23.590  36.666  1.00  0.00    -0.237 OA
ATOM     99  O   UNL A   1      44.434  24.857  37.632  1.00  0.00    -0.237 OA
ATOM    100  O   UNL A   1      44.067  23.366  35.705  1.00  0.00    -0.744 OA
ENDBRANCH  93  97
ENDBRANCH  67  90
ENDBRANCH  41  42
ENDBRANCH  33  36
ENDBRANCH  31  32
ENDBRANCH  30  31
ENDBRANCH   1  30
TORSDOF 19
ENDMDL
