MODEL 1
REMARK VINA RESULT:     -10.9      0.000      0.000
REMARK SMILES O=Cc1ccc(-c2cnccc2C(=O)NCCCCCCNC(=O)c2ccc(-c3c4nc(c(-c5cc(S(=O)(=O)[O-])ccc5F)c5ccc([nH]5)c(-c5cc(S(=O)(=O)[O-])ccc5F)c5nc(c(-c6cc(S(=O)(=O)[O-])ccc6F)c6ccc3[nH]6)C=C5)C=C4)cc2)s1
REMARK SMILES IDX 19 1 18 2 17 3 16 4 15 5 13 6 14 7 12 9 7 10 8 11 9 12 11 13
REMARK SMILES IDX 10 14 6 15 3 16 4 17 88 18 5 19 2 20 1 21 20 22 21 23 22 24
REMARK SMILES IDX 23 25 24 27 25 28 26 29 87 30 27 31 86 32 28 33 29 34 30 35
REMARK SMILES IDX 80 36 31 37 85 38 79 39 81 40 32 41 84 42 78 43 77 44 33 46
REMARK SMILES IDX 65 47 45 48 64 49 46 50 49 51 63 52 82 53 47 54 48 55 62 57
REMARK SMILES IDX 83 58 50 59 34 60 35 61 43 62 36 63 42 64 44 65 41 66 37 67
REMARK SMILES IDX 38 68 39 69 40 70 66 71 67 72 75 73 68 74 74 75 76 76 73 77
REMARK SMILES IDX 69 78 70 79 71 80 72 81 51 82 52 83 60 84 53 85 59 86 61 87
REMARK SMILES IDX 58 88 54 89 55 90 56 91 57 92
REMARK H PARENT 15 8 22 26 81 45 49 56
REMARK Flexibility Score: inf
ROOT
ATOM      1  C   UNL A   1      32.467  26.594  25.108  1.00  0.00     0.002 C 
ENDROOT
BRANCH   1   2
ATOM      2  C   UNL A   1      33.713  26.007  24.434  1.00  0.00     0.002 C 
BRANCH   2   3
ATOM      3  C   UNL A   1      33.639  25.624  22.953  1.00  0.00     0.021 C 
BRANCH   3   4
ATOM      4  C   UNL A   1      32.388  24.914  22.456  1.00  0.00     0.116 C 
BRANCH   4   5
ATOM      5  N   UNL A   1      32.445  23.483  22.327  1.00  0.00    -0.352 N 
ATOM      6  C   UNL A   1      32.225  22.503  23.269  1.00  0.00     0.252 C 
ATOM      7  O   UNL A   1      32.175  21.341  22.852  1.00  0.00    -0.269 OA
ATOM      8  H   UNL A   1      32.677  23.153  21.430  1.00  0.00     0.163 HD
BRANCH   6   9
ATOM      9  C   UNL A   1      32.160  22.707  24.755  1.00  0.00     0.051 A 
ATOM     10  C   UNL A   1      33.163  22.558  25.731  1.00  0.00     0.023 A 
ATOM     11  C   UNL A   1      32.810  22.883  27.049  1.00  0.00     0.121 A 
ATOM     12  N   UNL A   1      31.602  23.335  27.458  1.00  0.00    -0.264 NA
ATOM     13  C   UNL A   1      30.900  23.195  25.173  1.00  0.00     0.034 A 
ATOM     14  C   UNL A   1      30.673  23.490  26.504  1.00  0.00     0.112 A 
BRANCH  10  15
ATOM     15  C   UNL A   1      34.550  22.147  25.502  1.00  0.00     0.037 A 
ATOM     16  C   UNL A   1      37.017  22.056  25.627  1.00  0.00     0.067 A 
ATOM     17  C   UNL A   1      36.481  20.926  25.042  1.00  0.00     0.024 A 
ATOM     18  S   UNL A   1      35.827  23.242  25.904  1.00  0.00    -0.132 S 
ATOM     19  C   UNL A   1      35.054  20.982  24.961  1.00  0.00     0.021 A 
BRANCH  16  20
ATOM     20  C   UNL A   1      38.386  22.295  26.031  1.00  0.00     0.270 C 
ATOM     21  O   UNL A   1      38.875  23.410  26.156  1.00  0.00    -0.297 OA
ENDBRANCH  16  20
ENDBRANCH  10  15
ENDBRANCH   6   9
ENDBRANCH   4   5
ENDBRANCH   3   4
ENDBRANCH   2   3
ENDBRANCH   1   2
BRANCH   1  22
ATOM     22  C   UNL A   1      32.646  27.804  26.025  1.00  0.00     0.021 C 
BRANCH  22  23
ATOM     23  C   UNL A   1      33.275  29.052  25.419  1.00  0.00     0.116 C 
BRANCH  23  24
ATOM     24  N   UNL A   1      32.667  30.284  25.886  1.00  0.00    -0.352 N 
ATOM     25  C   UNL A   1      33.076  31.123  26.898  1.00  0.00     0.251 C 
ATOM     26  H   UNL A   1      31.848  30.558  25.414  1.00  0.00     0.163 HD
ATOM     27  O   UNL A   1      32.342  32.045  27.248  1.00  0.00    -0.269 OA
BRANCH  25  28
ATOM     28  C   UNL A   1      34.377  30.910  27.581  1.00  0.00     0.039 A 
ATOM     29  C   UNL A   1      35.271  31.982  27.685  1.00  0.00     0.014 A 
ATOM     30  C   UNL A   1      34.735  29.659  28.090  1.00  0.00     0.014 A 
ATOM     31  C   UNL A   1      36.494  31.815  28.347  1.00  0.00     0.010 A 
ATOM     32  C   UNL A   1      35.926  29.511  28.804  1.00  0.00     0.010 A 
ATOM     33  C   UNL A   1      36.822  30.584  28.936  1.00  0.00    -0.014 A 
BRANCH  33  34
ATOM     34  C   UNL A   1      38.110  30.375  29.657  1.00  0.00     0.031 A 
ATOM     35  C   UNL A   1      39.161  29.479  29.057  1.00  0.00     0.074 A 
ATOM     36  C   UNL A   1      38.315  30.928  30.869  1.00  0.00     0.049 A 
ATOM     37  N   UNL A   1      40.281  29.045  29.576  1.00  0.00    -0.248 NA
ATOM     38  C   UNL A   1      38.897  28.985  27.697  1.00  0.00     0.031 C 
ATOM     39  C   UNL A   1      37.382  31.816  31.562  1.00  0.00     0.029 A 
ATOM     40  N   UNL A   1      39.372  30.813  31.740  1.00  0.00    -0.354 N 
ATOM     41  C   UNL A   1      40.848  28.215  28.615  1.00  0.00     0.074 A 
ATOM     42  C   UNL A   1      39.914  28.160  27.509  1.00  0.00     0.031 C 
ATOM     43  C   UNL A   1      37.915  32.180  32.739  1.00  0.00     0.029 A 
ATOM     44  C   UNL A   1      39.198  31.506  32.917  1.00  0.00     0.049 A 
ATOM     45  H   UNL A   1      40.177  30.284  31.542  1.00  0.00     0.167 HD
ATOM     46  C   UNL A   1      42.045  27.575  28.641  1.00  0.00     0.034 A 
ATOM     47  C   UNL A   1      39.968  31.569  34.022  1.00  0.00     0.034 A 
ATOM     48  C   UNL A   1      42.967  27.642  29.750  1.00  0.00     0.049 A 
ATOM     49  C   UNL A   1      41.259  30.785  34.067  1.00  0.00     0.074 A 
ATOM     50  C   UNL A   1      44.214  27.051  29.871  1.00  0.00     0.029 A 
ATOM     51  N   UNL A   1      42.742  28.336  30.932  1.00  0.00    -0.354 N 
ATOM     52  N   UNL A   1      41.784  30.006  33.149  1.00  0.00    -0.248 NA
ATOM     53  C   UNL A   1      42.061  30.887  35.295  1.00  0.00     0.031 C 
ATOM     54  C   UNL A   1      44.706  27.324  31.151  1.00  0.00     0.029 A 
ATOM     55  C   UNL A   1      43.812  28.162  31.797  1.00  0.00     0.049 A 
ATOM     56  H   UNL A   1      41.941  28.874  31.127  1.00  0.00     0.167 HD
ATOM     57  C   UNL A   1      43.000  29.570  33.670  1.00  0.00     0.074 A 
ATOM     58  C   UNL A   1      43.126  30.162  34.985  1.00  0.00     0.031 C 
ATOM     59  C   UNL A   1      43.934  28.765  33.104  1.00  0.00     0.034 A 
BRANCH  46  60
ATOM     60  C   UNL A   1      42.400  26.721  27.446  1.00  0.00     0.023 A 
ATOM     61  C   UNL A   1      42.173  25.333  27.440  1.00  0.00     0.031 A 
ATOM     62  C   UNL A   1      43.011  27.289  26.314  1.00  0.00     0.131 A 
ATOM     63  C   UNL A   1      42.641  24.551  26.372  1.00  0.00     0.055 A 
ATOM     64  C   UNL A   1      43.385  26.519  25.212  1.00  0.00     0.041 A 
ATOM     65  F   UNL A   1      43.274  28.606  26.266  1.00  0.00    -0.206 F 
ATOM     66  C   UNL A   1      43.220  25.137  25.246  1.00  0.00     0.022 A 
BRANCH  63  67
ATOM     67  S   UNL A   1      42.642  22.747  26.563  1.00  0.00     0.124 S 
ATOM     68  O   UNL A   1      42.162  22.312  25.253  1.00  0.00    -0.237 OA
ATOM     69  O   UNL A   1      44.040  22.462  26.859  1.00  0.00    -0.237 OA
ATOM     70  O   UNL A   1      41.709  22.520  27.665  1.00  0.00    -0.744 OA
ENDBRANCH  63  67
ENDBRANCH  46  60
BRANCH  47  71
ATOM     71  C   UNL A   1      39.546  32.392  35.194  1.00  0.00     0.023 A 
ATOM     72  C   UNL A   1      38.836  31.816  36.259  1.00  0.00     0.031 A 
ATOM     73  C   UNL A   1      39.802  33.774  35.245  1.00  0.00     0.131 A 
ATOM     74  C   UNL A   1      38.366  32.624  37.306  1.00  0.00     0.055 A 
ATOM     75  C   UNL A   1      39.384  34.563  36.318  1.00  0.00     0.041 A 
ATOM     76  F   UNL A   1      40.472  34.379  34.251  1.00  0.00    -0.206 F 
ATOM     77  C   UNL A   1      38.649  33.991  37.351  1.00  0.00     0.022 A 
BRANCH  74  78
ATOM     78  S   UNL A   1      37.293  31.878  38.564  1.00  0.00     0.124 S 
ATOM     79  O   UNL A   1      37.133  30.523  38.049  1.00  0.00    -0.237 OA
ATOM     80  O   UNL A   1      38.098  32.016  39.772  1.00  0.00    -0.237 OA
ATOM     81  O   UNL A   1      36.090  32.708  38.520  1.00  0.00    -0.744 OA
ENDBRANCH  74  78
ENDBRANCH  47  71
BRANCH  59  82
ATOM     82  C   UNL A   1      45.221  28.541  33.862  1.00  0.00     0.023 A 
ATOM     83  C   UNL A   1      45.400  27.457  34.738  1.00  0.00     0.031 A 
ATOM     84  C   UNL A   1      46.304  29.418  33.663  1.00  0.00     0.131 A 
ATOM     85  C   UNL A   1      46.624  27.295  35.406  1.00  0.00     0.055 A 
ATOM     86  C   UNL A   1      47.535  29.221  34.288  1.00  0.00     0.041 A 
ATOM     87  F   UNL A   1      46.187  30.472  32.840  1.00  0.00    -0.206 F 
ATOM     88  C   UNL A   1      47.698  28.158  35.171  1.00  0.00     0.022 A 
BRANCH  85  89
ATOM     89  S   UNL A   1      46.786  25.965  36.630  1.00  0.00     0.124 S 
ATOM     90  O   UNL A   1      45.587  25.173  36.378  1.00  0.00    -0.237 OA
ATOM     91  O   UNL A   1      48.052  25.345  36.255  1.00  0.00    -0.237 OA
ATOM     92  O   UNL A   1      46.801  26.676  37.909  1.00  0.00    -0.744 OA
ENDBRANCH  85  89
ENDBRANCH  59  82
ENDBRANCH  33  34
ENDBRANCH  25  28
ENDBRANCH  23  24
ENDBRANCH  22  23
ENDBRANCH   1  22
TORSDOF 18
ENDMDL
MODEL 2
REMARK VINA RESULT:     -10.8      1.932      8.084
REMARK SMILES O=Cc1ccc(-c2cnccc2C(=O)NCCCCCCNC(=O)c2ccc(-c3c4nc(c(-c5cc(S(=O)(=O)[O-])ccc5F)c5ccc([nH]5)c(-c5cc(S(=O)(=O)[O-])ccc5F)c5nc(c(-c6cc(S(=O)(=O)[O-])ccc6F)c6ccc3[nH]6)C=C5)C=C4)cc2)s1
REMARK SMILES IDX 19 1 18 2 17 3 16 4 15 5 13 6 14 7 12 9 7 10 8 11 9 12 11 13
REMARK SMILES IDX 10 14 6 15 3 16 4 17 88 18 5 19 2 20 1 21 20 22 21 23 22 24
REMARK SMILES IDX 23 25 24 27 25 28 26 29 87 30 27 31 86 32 28 33 29 34 30 35
REMARK SMILES IDX 80 36 31 37 85 38 79 39 81 40 32 41 84 42 78 43 77 44 33 46
REMARK SMILES IDX 65 47 45 48 64 49 46 50 49 51 63 52 82 53 47 54 48 55 62 57
REMARK SMILES IDX 83 58 50 59 34 60 35 61 43 62 36 63 42 64 44 65 41 66 37 67
REMARK SMILES IDX 38 68 39 69 40 70 66 71 67 72 75 73 68 74 74 75 76 76 73 77
REMARK SMILES IDX 69 78 70 79 71 80 72 81 51 82 52 83 60 84 53 85 59 86 61 87
REMARK SMILES IDX 58 88 54 89 55 90 56 91 57 92
REMARK H PARENT 15 8 22 26 81 45 49 56
REMARK Flexibility Score: inf
ROOT
ATOM      1  C   UNL A   1      31.276  30.901  25.998  1.00  0.00     0.002 C 
ENDROOT
BRANCH   1   2
ATOM      2  C   UNL A   1      32.510  29.992  26.064  1.00  0.00     0.002 C 
BRANCH   2   3
ATOM      3  C   UNL A   1      32.633  28.999  27.225  1.00  0.00     0.021 C 
BRANCH   3   4
ATOM      4  C   UNL A   1      32.689  27.513  26.897  1.00  0.00     0.116 C 
BRANCH   4   5
ATOM      5  N   UNL A   1      31.460  26.771  26.972  1.00  0.00    -0.352 N 
ATOM      6  C   UNL A   1      30.743  26.146  25.977  1.00  0.00     0.252 C 
ATOM      7  O   UNL A   1      29.803  25.433  26.340  1.00  0.00    -0.269 OA
ATOM      8  H   UNL A   1      31.071  26.699  27.873  1.00  0.00     0.163 HD
BRANCH   6   9
ATOM      9  C   UNL A   1      30.928  26.346  24.500  1.00  0.00     0.051 A 
ATOM     10  C   UNL A   1      31.644  25.571  23.568  1.00  0.00     0.023 A 
ATOM     11  C   UNL A   1      31.582  25.984  22.228  1.00  0.00     0.121 A 
ATOM     12  N   UNL A   1      30.888  27.047  21.758  1.00  0.00    -0.264 NA
ATOM     13  C   UNL A   1      30.188  27.447  24.013  1.00  0.00     0.034 A 
ATOM     14  C   UNL A   1      30.197  27.752  22.664  1.00  0.00     0.112 A 
BRANCH  10  15
ATOM     15  C   UNL A   1      32.405  24.352  23.847  1.00  0.00     0.037 A 
ATOM     16  C   UNL A   1      32.977  21.968  24.159  1.00  0.00     0.067 A 
ATOM     17  C   UNL A   1      34.099  22.768  24.072  1.00  0.00     0.024 A 
ATOM     18  S   UNL A   1      31.550  22.895  24.216  1.00  0.00    -0.132 S 
ATOM     19  C   UNL A   1      33.770  24.149  23.902  1.00  0.00     0.021 A 
BRANCH  16  20
ATOM     20  C   UNL A   1      32.903  20.523  24.167  1.00  0.00     0.270 C 
ATOM     21  O   UNL A   1      32.045  19.887  24.765  1.00  0.00    -0.297 OA
ENDBRANCH  16  20
ENDBRANCH  10  15
ENDBRANCH   6   9
ENDBRANCH   4   5
ENDBRANCH   3   4
ENDBRANCH   2   3
ENDBRANCH   1   2
BRANCH   1  22
ATOM     22  C   UNL A   1      31.395  32.317  26.559  1.00  0.00     0.021 C 
BRANCH  22  23
ATOM     23  C   UNL A   1      32.722  32.708  27.198  1.00  0.00     0.116 C 
BRANCH  23  24
ATOM     24  N   UNL A   1      32.737  34.068  27.701  1.00  0.00    -0.352 N 
ATOM     25  C   UNL A   1      33.525  34.619  28.686  1.00  0.00     0.251 C 
ATOM     26  H   UNL A   1      32.094  34.683  27.279  1.00  0.00     0.163 HD
ATOM     27  O   UNL A   1      33.286  35.759  29.080  1.00  0.00    -0.269 OA
BRANCH  25  28
ATOM     28  C   UNL A   1      34.639  33.844  29.290  1.00  0.00     0.039 A 
ATOM     29  C   UNL A   1      34.341  32.833  30.211  1.00  0.00     0.014 A 
ATOM     30  C   UNL A   1      35.971  34.127  28.980  1.00  0.00     0.014 A 
ATOM     31  C   UNL A   1      35.372  32.072  30.775  1.00  0.00     0.010 A 
ATOM     32  C   UNL A   1      36.993  33.326  29.494  1.00  0.00     0.010 A 
ATOM     33  C   UNL A   1      36.707  32.293  30.402  1.00  0.00    -0.014 A 
BRANCH  33  34
ATOM     34  C   UNL A   1      37.827  31.494  30.974  1.00  0.00     0.031 A 
ATOM     35  C   UNL A   1      38.325  31.798  32.362  1.00  0.00     0.074 A 
ATOM     36  C   UNL A   1      38.440  30.546  30.237  1.00  0.00     0.049 A 
ATOM     37  N   UNL A   1      39.372  31.332  32.993  1.00  0.00    -0.248 NA
ATOM     38  C   UNL A   1      37.550  32.784  33.130  1.00  0.00     0.031 C 
ATOM     39  C   UNL A   1      38.057  30.150  28.882  1.00  0.00     0.029 A 
ATOM     40  N   UNL A   1      39.525  29.751  30.520  1.00  0.00    -0.354 N 
ATOM     41  C   UNL A   1      39.393  31.977  34.225  1.00  0.00     0.074 A 
ATOM     42  C   UNL A   1      38.287  32.913  34.222  1.00  0.00     0.031 C 
ATOM     43  C   UNL A   1      38.880  29.177  28.460  1.00  0.00     0.029 A 
ATOM     44  C   UNL A   1      39.887  28.919  29.485  1.00  0.00     0.049 A 
ATOM     45  H   UNL A   1      39.999  29.776  31.382  1.00  0.00     0.167 HD
ATOM     46  C   UNL A   1      40.239  31.792  35.269  1.00  0.00     0.034 A 
ATOM     47  C   UNL A   1      40.926  28.067  29.365  1.00  0.00     0.034 A 
ATOM     48  C   UNL A   1      41.335  30.853  35.259  1.00  0.00     0.049 A 
ATOM     49  C   UNL A   1      41.907  27.934  30.506  1.00  0.00     0.074 A 
ATOM     50  C   UNL A   1      42.239  30.571  36.269  1.00  0.00     0.029 A 
ATOM     51  N   UNL A   1      41.681  30.046  34.183  1.00  0.00    -0.354 N 
ATOM     52  N   UNL A   1      41.911  28.549  31.666  1.00  0.00    -0.248 NA
ATOM     53  C   UNL A   1      43.022  26.993  30.324  1.00  0.00     0.031 C 
ATOM     54  C   UNL A   1      43.174  29.654  35.779  1.00  0.00     0.029 A 
ATOM     55  C   UNL A   1      42.802  29.291  34.495  1.00  0.00     0.049 A 
ATOM     56  H   UNL A   1      41.201  30.014  33.323  1.00  0.00     0.167 HD
ATOM     57  C   UNL A   1      42.997  28.030  32.369  1.00  0.00     0.074 A 
ATOM     58  C   UNL A   1      43.631  27.061  31.499  1.00  0.00     0.031 C 
ATOM     59  C   UNL A   1      43.421  28.319  33.624  1.00  0.00     0.034 A 
BRANCH  46  60
ATOM     60  C   UNL A   1      40.027  32.654  36.493  1.00  0.00     0.023 A 
ATOM     61  C   UNL A   1      39.193  32.244  37.548  1.00  0.00     0.031 A 
ATOM     62  C   UNL A   1      40.631  33.921  36.591  1.00  0.00     0.131 A 
ATOM     63  C   UNL A   1      38.909  33.126  38.602  1.00  0.00     0.055 A 
ATOM     64  C   UNL A   1      40.422  34.755  37.691  1.00  0.00     0.041 A 
ATOM     65  F   UNL A   1      41.423  34.380  35.608  1.00  0.00    -0.206 F 
ATOM     66  C   UNL A   1      39.540  34.367  38.695  1.00  0.00     0.022 A 
BRANCH  63  67
ATOM     67  S   UNL A   1      37.570  32.696  39.747  1.00  0.00     0.124 S 
ATOM     68  O   UNL A   1      37.484  33.903  40.566  1.00  0.00    -0.237 OA
ATOM     69  O   UNL A   1      36.450  32.453  38.845  1.00  0.00    -0.237 OA
ATOM     70  O   UNL A   1      38.080  31.516  40.442  1.00  0.00    -0.744 OA
ENDBRANCH  63  67
ENDBRANCH  46  60
BRANCH  47  71
ATOM     71  C   UNL A   1      41.115  27.275  28.113  1.00  0.00     0.023 A 
ATOM     72  C   UNL A   1      40.814  25.905  28.076  1.00  0.00     0.031 A 
ATOM     73  C   UNL A   1      41.643  27.865  26.950  1.00  0.00     0.131 A 
ATOM     74  C   UNL A   1      41.086  25.159  26.918  1.00  0.00     0.055 A 
ATOM     75  C   UNL A   1      41.855  27.131  25.782  1.00  0.00     0.041 A 
ATOM     76  F   UNL A   1      41.954  29.171  26.931  1.00  0.00    -0.206 F 
ATOM     77  C   UNL A   1      41.589  25.765  25.766  1.00  0.00     0.022 A 
BRANCH  74  78
ATOM     78  S   UNL A   1      40.861  23.360  26.973  1.00  0.00     0.124 S 
ATOM     79  O   UNL A   1      39.416  23.238  26.822  1.00  0.00    -0.237 OA
ATOM     80  O   UNL A   1      41.666  22.918  25.840  1.00  0.00    -0.237 OA
ATOM     81  O   UNL A   1      41.384  22.991  28.288  1.00  0.00    -0.744 OA
ENDBRANCH  74  78
ENDBRANCH  47  71
BRANCH  59  82
ATOM     82  C   UNL A   1      44.576  27.518  34.177  1.00  0.00     0.023 A 
ATOM     83  C   UNL A   1      44.397  26.279  34.815  1.00  0.00     0.031 A 
ATOM     84  C   UNL A   1      45.890  27.997  34.018  1.00  0.00     0.131 A 
ATOM     85  C   UNL A   1      45.511  25.575  35.297  1.00  0.00     0.055 A 
ATOM     86  C   UNL A   1      46.997  27.268  34.452  1.00  0.00     0.041 A 
ATOM     87  F   UNL A   1      46.119  29.176  33.419  1.00  0.00    -0.206 F 
ATOM     88  C   UNL A   1      46.810  26.052  35.102  1.00  0.00     0.022 A 
BRANCH  85  89
ATOM     89  S   UNL A   1      45.243  24.043  36.233  1.00  0.00     0.124 S 
ATOM     90  O   UNL A   1      44.082  23.473  35.557  1.00  0.00    -0.237 OA
ATOM     91  O   UNL A   1      46.504  23.334  36.042  1.00  0.00    -0.237 OA
ATOM     92  O   UNL A   1      44.998  24.511  37.596  1.00  0.00    -0.744 OA
ENDBRANCH  85  89
ENDBRANCH  59  82
ENDBRANCH  33  34
ENDBRANCH  25  28
ENDBRANCH  23  24
ENDBRANCH  22  23
ENDBRANCH   1  22
TORSDOF 18
ENDMDL
MODEL 3
REMARK VINA RESULT:     -10.8      1.470      2.162
REMARK SMILES O=Cc1ccc(-c2cnccc2C(=O)NCCCCCCNC(=O)c2ccc(-c3c4nc(c(-c5cc(S(=O)(=O)[O-])ccc5F)c5ccc([nH]5)c(-c5cc(S(=O)(=O)[O-])ccc5F)c5nc(c(-c6cc(S(=O)(=O)[O-])ccc6F)c6ccc3[nH]6)C=C5)C=C4)cc2)s1
REMARK SMILES IDX 19 1 18 2 17 3 16 4 15 5 13 6 14 7 12 9 7 10 8 11 9 12 11 13
REMARK SMILES IDX 10 14 6 15 3 16 4 17 88 18 5 19 2 20 1 21 20 22 21 23 22 24
REMARK SMILES IDX 23 25 24 27 25 28 26 29 87 30 27 31 86 32 28 33 29 34 30 35
REMARK SMILES IDX 80 36 31 37 85 38 79 39 81 40 32 41 84 42 78 43 77 44 33 46
REMARK SMILES IDX 65 47 45 48 64 49 46 50 49 51 63 52 82 53 47 54 48 55 62 57
REMARK SMILES IDX 83 58 50 59 34 60 35 61 43 62 36 63 42 64 44 65 41 66 37 67
REMARK SMILES IDX 38 68 39 69 40 70 66 71 67 72 75 73 68 74 74 75 76 76 73 77
REMARK SMILES IDX 69 78 70 79 71 80 72 81 51 82 52 83 60 84 53 85 59 86 61 87
REMARK SMILES IDX 58 88 54 89 55 90 56 91 57 92
REMARK H PARENT 15 8 22 26 81 45 49 56
REMARK Flexibility Score: inf
ROOT
ATOM      1  C   UNL A   1      31.471  27.439  24.391  1.00  0.00     0.002 C 
ENDROOT
BRANCH   1   2
ATOM      2  C   UNL A   1      30.394  26.374  24.632  1.00  0.00     0.002 C 
BRANCH   2   3
ATOM      3  C   UNL A   1      30.116  25.344  23.533  1.00  0.00     0.021 C 
BRANCH   3   4
ATOM      4  C   UNL A   1      30.562  23.907  23.765  1.00  0.00     0.116 C 
BRANCH   4   5
ATOM      5  N   UNL A   1      30.614  23.440  25.124  1.00  0.00    -0.352 N 
ATOM      6  C   UNL A   1      31.690  23.310  25.973  1.00  0.00     0.252 C 
ATOM      7  O   UNL A   1      31.433  23.041  27.150  1.00  0.00    -0.269 OA
ATOM      8  H   UNL A   1      29.748  23.172  25.507  1.00  0.00     0.163 HD
BRANCH   6   9
ATOM      9  C   UNL A   1      33.137  23.350  25.573  1.00  0.00     0.051 A 
ATOM     10  C   UNL A   1      33.908  22.398  24.880  1.00  0.00     0.023 A 
ATOM     11  C   UNL A   1      35.237  22.750  24.598  1.00  0.00     0.121 A 
ATOM     12  N   UNL A   1      35.832  23.921  24.922  1.00  0.00    -0.264 NA
ATOM     13  C   UNL A   1      33.748  24.582  25.900  1.00  0.00     0.034 A 
ATOM     14  C   UNL A   1      35.068  24.818  25.561  1.00  0.00     0.112 A 
BRANCH  10  15
ATOM     15  C   UNL A   1      33.450  21.100  24.380  1.00  0.00     0.037 A 
ATOM     16  C   UNL A   1      33.053  18.667  24.200  1.00  0.00     0.067 A 
ATOM     17  C   UNL A   1      32.255  19.392  23.337  1.00  0.00     0.024 A 
ATOM     18  S   UNL A   1      34.195  19.660  24.980  1.00  0.00    -0.132 S 
ATOM     19  C   UNL A   1      32.491  20.800  23.433  1.00  0.00     0.021 A 
BRANCH  16  20
ATOM     20  C   UNL A   1      32.988  17.255  24.509  1.00  0.00     0.270 C 
ATOM     21  O   UNL A   1      33.034  16.803  25.646  1.00  0.00    -0.297 OA
ENDBRANCH  16  20
ENDBRANCH  10  15
ENDBRANCH   6   9
ENDBRANCH   4   5
ENDBRANCH   3   4
ENDBRANCH   2   3
ENDBRANCH   1   2
BRANCH   1  22
ATOM     22  C   UNL A   1      32.113  28.103  25.609  1.00  0.00     0.021 C 
BRANCH  22  23
ATOM     23  C   UNL A   1      33.026  29.296  25.354  1.00  0.00     0.116 C 
BRANCH  23  24
ATOM     24  N   UNL A   1      32.478  30.551  25.833  1.00  0.00    -0.352 N 
ATOM     25  C   UNL A   1      32.912  31.348  26.867  1.00  0.00     0.251 C 
ATOM     26  H   UNL A   1      31.683  30.877  25.351  1.00  0.00     0.163 HD
ATOM     27  O   UNL A   1      32.223  32.303  27.221  1.00  0.00    -0.269 OA
BRANCH  25  28
ATOM     28  C   UNL A   1      34.187  31.053  27.569  1.00  0.00     0.039 A 
ATOM     29  C   UNL A   1      35.117  32.084  27.747  1.00  0.00     0.014 A 
ATOM     30  C   UNL A   1      34.487  29.766  28.022  1.00  0.00     0.014 A 
ATOM     31  C   UNL A   1      36.316  31.839  28.428  1.00  0.00     0.010 A 
ATOM     32  C   UNL A   1      35.653  29.538  28.755  1.00  0.00     0.010 A 
ATOM     33  C   UNL A   1      36.584  30.569  28.962  1.00  0.00    -0.014 A 
BRANCH  33  34
ATOM     34  C   UNL A   1      37.844  30.276  29.701  1.00  0.00     0.031 A 
ATOM     35  C   UNL A   1      38.856  29.333  29.104  1.00  0.00     0.074 A 
ATOM     36  C   UNL A   1      38.058  30.795  30.927  1.00  0.00     0.049 A 
ATOM     37  N   UNL A   1      39.940  28.829  29.635  1.00  0.00    -0.248 NA
ATOM     38  C   UNL A   1      38.590  28.879  27.731  1.00  0.00     0.031 C 
ATOM     39  C   UNL A   1      37.162  31.722  31.619  1.00  0.00     0.029 A 
ATOM     40  N   UNL A   1      39.090  30.607  31.815  1.00  0.00    -0.354 N 
ATOM     41  C   UNL A   1      40.478  27.985  28.668  1.00  0.00     0.074 A 
ATOM     42  C   UNL A   1      39.563  28.002  27.545  1.00  0.00     0.031 C 
ATOM     43  C   UNL A   1      37.692  32.035  32.813  1.00  0.00     0.029 A 
ATOM     44  C   UNL A   1      38.932  31.288  33.001  1.00  0.00     0.049 A 
ATOM     45  H   UNL A   1      39.869  30.037  31.620  1.00  0.00     0.167 HD
ATOM     46  C   UNL A   1      41.637  27.280  28.704  1.00  0.00     0.034 A 
ATOM     47  C   UNL A   1      39.685  31.289  34.120  1.00  0.00     0.034 A 
ATOM     48  C   UNL A   1      42.541  27.276  29.829  1.00  0.00     0.049 A 
ATOM     49  C   UNL A   1      40.929  30.433  34.173  1.00  0.00     0.074 A 
ATOM     50  C   UNL A   1      43.750  26.615  29.962  1.00  0.00     0.029 A 
ATOM     51  N   UNL A   1      42.333  27.961  31.020  1.00  0.00    -0.354 N 
ATOM     52  N   UNL A   1      41.427  29.643  33.250  1.00  0.00    -0.248 NA
ATOM     53  C   UNL A   1      41.713  30.469  35.416  1.00  0.00     0.031 C 
ATOM     54  C   UNL A   1      44.234  26.838  31.255  1.00  0.00     0.029 A 
ATOM     55  C   UNL A   1      43.375  27.712  31.900  1.00  0.00     0.049 A 
ATOM     56  H   UNL A   1      41.559  28.539  31.210  1.00  0.00     0.167 HD
ATOM     57  C   UNL A   1      42.608  29.130  33.784  1.00  0.00     0.074 A 
ATOM     58  C   UNL A   1      42.742  29.691  35.112  1.00  0.00     0.031 C 
ATOM     59  C   UNL A   1      43.506  28.285  33.220  1.00  0.00     0.034 A 
BRANCH  46  60
ATOM     60  C   UNL A   1      41.966  26.428  27.499  1.00  0.00     0.023 A 
ATOM     61  C   UNL A   1      41.581  25.078  27.425  1.00  0.00     0.031 A 
ATOM     62  C   UNL A   1      42.711  26.956  26.429  1.00  0.00     0.131 A 
ATOM     63  C   UNL A   1      42.022  24.280  26.358  1.00  0.00     0.055 A 
ATOM     64  C   UNL A   1      43.063  26.182  25.322  1.00  0.00     0.041 A 
ATOM     65  F   UNL A   1      43.128  28.233  26.449  1.00  0.00    -0.206 F 
ATOM     66  C   UNL A   1      42.736  24.830  25.292  1.00  0.00     0.022 A 
BRANCH  63  67
ATOM     67  S   UNL A   1      41.801  22.484  26.477  1.00  0.00     0.124 S 
ATOM     68  O   UNL A   1      40.364  22.348  26.243  1.00  0.00    -0.237 OA
ATOM     69  O   UNL A   1      42.671  21.987  25.419  1.00  0.00    -0.237 OA
ATOM     70  O   UNL A   1      42.233  22.177  27.839  1.00  0.00    -0.744 OA
ENDBRANCH  63  67
ENDBRANCH  46  60
BRANCH  47  71
ATOM     71  C   UNL A   1      39.287  32.113  35.299  1.00  0.00     0.023 A 
ATOM     72  C   UNL A   1      38.612  31.536  36.386  1.00  0.00     0.031 A 
ATOM     73  C   UNL A   1      39.530  33.498  35.336  1.00  0.00     0.131 A 
ATOM     74  C   UNL A   1      38.164  32.345  37.442  1.00  0.00     0.055 A 
ATOM     75  C   UNL A   1      39.135  34.288  36.416  1.00  0.00     0.041 A 
ATOM     76  F   UNL A   1      40.167  34.104  34.321  1.00  0.00    -0.206 F 
ATOM     77  C   UNL A   1      38.435  33.714  37.473  1.00  0.00     0.022 A 
BRANCH  74  78
ATOM     78  S   UNL A   1      37.133  31.594  38.733  1.00  0.00     0.124 S 
ATOM     79  O   UNL A   1      35.966  32.468  38.724  1.00  0.00    -0.237 OA
ATOM     80  O   UNL A   1      36.932  30.246  38.215  1.00  0.00    -0.237 OA
ATOM     81  O   UNL A   1      37.969  31.683  39.929  1.00  0.00    -0.744 OA
ENDBRANCH  74  78
ENDBRANCH  47  71
BRANCH  59  82
ATOM     82  C   UNL A   1      44.764  27.977  33.996  1.00  0.00     0.023 A 
ATOM     83  C   UNL A   1      44.857  26.886  34.877  1.00  0.00     0.031 A 
ATOM     84  C   UNL A   1      45.907  28.778  33.810  1.00  0.00     0.131 A 
ATOM     85  C   UNL A   1      46.059  26.643  35.562  1.00  0.00     0.055 A 
ATOM     86  C   UNL A   1      47.113  28.499  34.453  1.00  0.00     0.041 A 
ATOM     87  F   UNL A   1      45.873  29.834  32.983  1.00  0.00    -0.206 F 
ATOM     88  C   UNL A   1      47.192  27.430  35.340  1.00  0.00     0.022 A 
BRANCH  85  89
ATOM     89  S   UNL A   1      46.113  25.310  36.791  1.00  0.00     0.124 S 
ATOM     90  O   UNL A   1      44.696  25.071  37.044  1.00  0.00    -0.237 OA
ATOM     91  O   UNL A   1      46.821  24.253  36.077  1.00  0.00    -0.237 OA
ATOM     92  O   UNL A   1      46.850  25.901  37.908  1.00  0.00    -0.744 OA
ENDBRANCH  85  89
ENDBRANCH  59  82
ENDBRANCH  33  34
ENDBRANCH  25  28
ENDBRANCH  23  24
ENDBRANCH  22  23
ENDBRANCH   1  22
TORSDOF 18
ENDMDL
