MODEL 1
REMARK VINA RESULT:     -12.4      0.000      0.000
REMARK SMILES Cc1cc(C)c2c(c1)C=C(C(=O)NCCCCCCNC(=O)c1ccc(-c3c4nc(c(-c5cc(S(=O)(=O)[O-])ccc5F)c5ccc([nH]5)c(-c5cc(S(=O)(=O)[O-])ccc5F)c5nc(c(-c6cc(S(=O)(=O)[O-])ccc6F)c6ccc3[nH]6)C=C5)C=C4)cc1)[C@@H](C(F)(F)F)O2
REMARK SMILES IDX 17 1 16 2 15 3 14 4 13 5 11 6 12 7 10 9 1 10 2 11 3 12 8 13
REMARK SMILES IDX 4 14 7 15 5 16 6 17 9 18 91 19 86 20 87 21 88 22 89 23 90 24
REMARK SMILES IDX 18 25 19 26 20 27 21 28 22 30 23 31 24 32 85 33 25 34 84 35
REMARK SMILES IDX 26 36 27 37 28 38 78 39 29 40 83 41 77 42 79 43 30 44 82 45
REMARK SMILES IDX 76 46 75 47 31 49 63 50 43 51 62 52 44 53 47 54 61 55 80 56
REMARK SMILES IDX 45 57 46 58 60 60 81 61 48 62 32 63 33 64 41 65 34 66 40 67
REMARK SMILES IDX 42 68 39 69 35 70 36 71 37 72 38 73 64 74 65 75 73 76 66 77
REMARK SMILES IDX 72 78 74 79 71 80 67 81 68 82 69 83 70 84 49 85 50 86 58 87
REMARK SMILES IDX 51 88 57 89 59 90 56 91 52 92 53 93 54 94 55 95
REMARK H PARENT 13 8 20 29 79 48 47 59
REMARK Flexibility Score: inf
ROOT
ATOM      1  C   UNL A   1      34.621  21.809  24.009  1.00  0.00     0.002 C 
ENDROOT
BRANCH   1   2
ATOM      2  C   UNL A   1      34.029  20.778  24.981  1.00  0.00     0.002 C 
BRANCH   2   3
ATOM      3  C   UNL A   1      32.511  20.603  24.885  1.00  0.00     0.021 C 
BRANCH   3   4
ATOM      4  C   UNL A   1      31.759  21.919  24.726  1.00  0.00     0.116 C 
BRANCH   4   5
ATOM      5  N   UNL A   1      30.990  22.246  25.913  1.00  0.00    -0.352 N 
ATOM      6  C   UNL A   1      30.576  23.369  26.547  1.00  0.00     0.251 C 
ATOM      7  O   UNL A   1      29.890  23.182  27.558  1.00  0.00    -0.270 OA
ATOM      8  H   UNL A   1      30.685  21.436  26.381  1.00  0.00     0.163 HD
BRANCH   6   9
ATOM      9  C   UNL A   1      30.891  24.764  26.116  1.00  0.00     0.067 C 
ATOM     10  C   UNL A   1      28.882  29.184  22.281  1.00  0.00     0.044 C 
ATOM     11  C   UNL A   1      29.741  28.565  23.343  1.00  0.00    -0.050 A 
ATOM     12  C   UNL A   1      30.748  29.316  23.964  1.00  0.00     0.010 A 
ATOM     13  C   UNL A   1      29.501  27.249  23.767  1.00  0.00     0.015 A 
ATOM     14  C   UNL A   1      31.530  28.760  24.981  1.00  0.00    -0.008 A 
ATOM     15  C   UNL A   1      30.277  26.680  24.780  1.00  0.00     0.018 A 
ATOM     16  C   UNL A   1      32.615  29.561  25.645  1.00  0.00     0.048 C 
ATOM     17  C   UNL A   1      31.289  27.438  25.371  1.00  0.00     0.130 A 
ATOM     18  C   UNL A   1      30.021  25.325  25.258  1.00  0.00     0.025 C 
ATOM     19  O   UNL A   1      32.057  26.956  26.390  1.00  0.00    -0.475 OA
ATOM     20  C   UNL A   1      32.113  25.519  26.552  1.00  0.00     0.314 C 
BRANCH  20  21
ATOM     21  C   UNL A   1      33.404  24.988  25.904  1.00  0.00     0.429 C 
ATOM     22  F   UNL A   1      33.846  23.886  26.558  1.00  0.00    -0.167 F 
ATOM     23  F   UNL A   1      33.229  24.620  24.614  1.00  0.00    -0.167 F 
ATOM     24  F   UNL A   1      34.405  25.899  25.918  1.00  0.00    -0.167 F 
ENDBRANCH  20  21
ENDBRANCH   6   9
ENDBRANCH   4   5
ENDBRANCH   3   4
ENDBRANCH   2   3
ENDBRANCH   1   2
BRANCH   1  25
ATOM     25  C   UNL A   1      36.061  22.237  24.311  1.00  0.00     0.021 C 
BRANCH  25  26
ATOM     26  C   UNL A   1      36.494  22.006  25.754  1.00  0.00     0.116 C 
BRANCH  26  27
ATOM     27  N   UNL A   1      37.478  20.941  25.851  1.00  0.00    -0.352 N 
ATOM     28  C   UNL A   1      38.834  21.033  26.029  1.00  0.00     0.251 C 
ATOM     29  H   UNL A   1      37.120  20.026  25.779  1.00  0.00     0.163 HD
ATOM     30  O   UNL A   1      39.545  20.049  25.836  1.00  0.00    -0.269 OA
BRANCH  28  31
ATOM     31  C   UNL A   1      39.428  22.319  26.440  1.00  0.00     0.039 A 
ATOM     32  C   UNL A   1      40.445  22.323  27.396  1.00  0.00     0.014 A 
ATOM     33  C   UNL A   1      38.976  23.520  25.882  1.00  0.00     0.014 A 
ATOM     34  C   UNL A   1      41.043  23.530  27.759  1.00  0.00     0.010 A 
ATOM     35  C   UNL A   1      39.621  24.714  26.192  1.00  0.00     0.010 A 
ATOM     36  C   UNL A   1      40.653  24.731  27.141  1.00  0.00    -0.014 A 
BRANCH  36  37
ATOM     37  C   UNL A   1      41.297  26.018  27.504  1.00  0.00     0.031 A 
ATOM     38  C   UNL A   1      42.684  26.325  27.009  1.00  0.00     0.074 A 
ATOM     39  C   UNL A   1      40.642  26.893  28.293  1.00  0.00     0.049 A 
ATOM     40  N   UNL A   1      43.433  27.367  27.255  1.00  0.00    -0.248 NA
ATOM     41  C   UNL A   1      43.320  25.320  26.141  1.00  0.00     0.031 C 
ATOM     42  C   UNL A   1      39.300  26.693  28.844  1.00  0.00     0.029 A 
ATOM     43  N   UNL A   1      41.011  28.128  28.763  1.00  0.00    -0.354 N 
ATOM     44  C   UNL A   1      44.623  27.147  26.572  1.00  0.00     0.074 A 
ATOM     45  C   UNL A   1      44.522  25.845  25.951  1.00  0.00     0.031 C 
ATOM     46  C   UNL A   1      38.945  27.782  29.545  1.00  0.00     0.029 A 
ATOM     47  C   UNL A   1      40.047  28.738  29.533  1.00  0.00     0.049 A 
ATOM     48  H   UNL A   1      41.884  28.540  28.568  1.00  0.00     0.167 HD
ATOM     49  C   UNL A   1      45.692  27.970  26.451  1.00  0.00     0.034 A 
ATOM     50  C   UNL A   1      40.054  29.929  30.164  1.00  0.00     0.034 A 
ATOM     51  C   UNL A   1      45.771  29.275  27.054  1.00  0.00     0.049 A 
ATOM     52  C   UNL A   1      41.276  30.804  30.051  1.00  0.00     0.074 A 
ATOM     53  C   UNL A   1      46.795  30.201  26.960  1.00  0.00     0.029 A 
ATOM     54  N   UNL A   1      44.792  29.840  27.858  1.00  0.00    -0.354 N 
ATOM     55  N   UNL A   1      42.390  30.583  29.392  1.00  0.00    -0.248 NA
ATOM     56  C   UNL A   1      41.246  32.087  30.768  1.00  0.00     0.031 C 
ATOM     57  C   UNL A   1      46.462  31.299  27.757  1.00  0.00     0.029 A 
ATOM     58  C   UNL A   1      45.201  31.090  28.292  1.00  0.00     0.049 A 
ATOM     59  H   UNL A   1      43.933  29.416  28.086  1.00  0.00     0.167 HD
ATOM     60  C   UNL A   1      43.183  31.708  29.597  1.00  0.00     0.074 A 
ATOM     61  C   UNL A   1      42.417  32.610  30.431  1.00  0.00     0.031 C 
ATOM     62  C   UNL A   1      44.429  31.971  29.132  1.00  0.00     0.034 A 
BRANCH  49  63
ATOM     63  C   UNL A   1      46.864  27.488  25.639  1.00  0.00     0.023 A 
ATOM     64  C   UNL A   1      47.033  27.874  24.298  1.00  0.00     0.031 A 
ATOM     65  C   UNL A   1      47.847  26.671  26.224  1.00  0.00     0.131 A 
ATOM     66  C   UNL A   1      48.146  27.419  23.577  1.00  0.00     0.055 A 
ATOM     67  C   UNL A   1      48.983  26.271  25.519  1.00  0.00     0.041 A 
ATOM     68  F   UNL A   1      47.722  26.260  27.496  1.00  0.00    -0.206 F 
ATOM     69  C   UNL A   1      49.136  26.642  24.186  1.00  0.00     0.022 A 
BRANCH  66  70
ATOM     70  S   UNL A   1      48.256  27.808  21.810  1.00  0.00     0.124 S 
ATOM     71  O   UNL A   1      46.936  28.378  21.553  1.00  0.00    -0.237 OA
ATOM     72  O   UNL A   1      49.375  28.741  21.758  1.00  0.00    -0.237 OA
ATOM     73  O   UNL A   1      48.500  26.507  21.188  1.00  0.00    -0.744 OA
ENDBRANCH  66  70
ENDBRANCH  49  63
BRANCH  50  74
ATOM     74  C   UNL A   1      38.874  30.365  30.962  1.00  0.00     0.023 A 
ATOM     75  C   UNL A   1      37.843  31.115  30.376  1.00  0.00     0.031 A 
ATOM     76  C   UNL A   1      38.767  30.048  32.328  1.00  0.00     0.131 A 
ATOM     77  C   UNL A   1      36.763  31.551  31.160  1.00  0.00     0.055 A 
ATOM     78  C   UNL A   1      37.669  30.446  33.093  1.00  0.00     0.041 A 
ATOM     79  F   UNL A   1      39.723  29.327  32.935  1.00  0.00    -0.206 F 
ATOM     80  C   UNL A   1      36.663  31.210  32.511  1.00  0.00     0.022 A 
BRANCH  77  81
ATOM     81  S   UNL A   1      35.510  32.618  30.399  1.00  0.00     0.124 S 
ATOM     82  O   UNL A   1      36.202  33.900  30.347  1.00  0.00    -0.237 OA
ATOM     83  O   UNL A   1      35.286  31.956  29.118  1.00  0.00    -0.237 OA
ATOM     84  O   UNL A   1      34.390  32.549  31.336  1.00  0.00    -0.744 OA
ENDBRANCH  77  81
ENDBRANCH  50  74
BRANCH  62  85
ATOM     85  C   UNL A   1      45.041  33.297  29.496  1.00  0.00     0.023 A 
ATOM     86  C   UNL A   1      44.816  34.444  28.717  1.00  0.00     0.031 A 
ATOM     87  C   UNL A   1      45.810  33.426  30.665  1.00  0.00     0.131 A 
ATOM     88  C   UNL A   1      45.377  35.669  29.104  1.00  0.00     0.055 A 
ATOM     89  C   UNL A   1      46.324  34.657  31.073  1.00  0.00     0.041 A 
ATOM     90  F   UNL A   1      46.049  32.360  31.446  1.00  0.00    -0.206 F 
ATOM     91  C   UNL A   1      46.113  35.787  30.287  1.00  0.00     0.022 A 
BRANCH  88  92
ATOM     92  S   UNL A   1      45.162  37.107  28.021  1.00  0.00     0.124 S 
ATOM     93  O   UNL A   1      44.028  36.697  27.197  1.00  0.00    -0.237 OA
ATOM     94  O   UNL A   1      44.902  38.182  28.973  1.00  0.00    -0.237 OA
ATOM     95  O   UNL A   1      46.439  37.201  27.317  1.00  0.00    -0.744 OA
ENDBRANCH  88  92
ENDBRANCH  62  85
ENDBRANCH  36  37
ENDBRANCH  28  31
ENDBRANCH  26  27
ENDBRANCH  25  26
ENDBRANCH   1  25
TORSDOF 17
ENDMDL
MODEL 2
REMARK VINA RESULT:     -12.3      0.485      7.431
REMARK SMILES Cc1cc(C)c2c(c1)C=C(C(=O)NCCCCCCNC(=O)c1ccc(-c3c4nc(c(-c5cc(S(=O)(=O)[O-])ccc5F)c5ccc([nH]5)c(-c5cc(S(=O)(=O)[O-])ccc5F)c5nc(c(-c6cc(S(=O)(=O)[O-])ccc6F)c6ccc3[nH]6)C=C5)C=C4)cc1)[C@@H](C(F)(F)F)O2
REMARK SMILES IDX 17 1 16 2 15 3 14 4 13 5 11 6 12 7 10 9 1 10 2 11 3 12 8 13
REMARK SMILES IDX 4 14 7 15 5 16 6 17 9 18 91 19 86 20 87 21 88 22 89 23 90 24
REMARK SMILES IDX 18 25 19 26 20 27 21 28 22 30 23 31 24 32 85 33 25 34 84 35
REMARK SMILES IDX 26 36 27 37 28 38 78 39 29 40 83 41 77 42 79 43 30 44 82 45
REMARK SMILES IDX 76 46 75 47 31 49 63 50 43 51 62 52 44 53 47 54 61 55 80 56
REMARK SMILES IDX 45 57 46 58 60 60 81 61 48 62 32 63 33 64 41 65 34 66 40 67
REMARK SMILES IDX 42 68 39 69 35 70 36 71 37 72 38 73 64 74 65 75 73 76 66 77
REMARK SMILES IDX 72 78 74 79 71 80 67 81 68 82 69 83 70 84 49 85 50 86 58 87
REMARK SMILES IDX 51 88 57 89 59 90 56 91 52 92 53 93 54 94 55 95
REMARK H PARENT 13 8 20 29 79 48 47 59
REMARK Flexibility Score: inf
ROOT
ATOM      1  C   UNL A   1      34.957  21.004  25.165  1.00  0.00     0.002 C 
ENDROOT
BRANCH   1   2
ATOM      2  C   UNL A   1      33.764  20.289  24.515  1.00  0.00     0.002 C 
BRANCH   2   3
ATOM      3  C   UNL A   1      32.438  20.440  25.264  1.00  0.00     0.021 C 
BRANCH   3   4
ATOM      4  C   UNL A   1      31.740  21.768  24.996  1.00  0.00     0.116 C 
BRANCH   4   5
ATOM      5  N   UNL A   1      30.880  22.156  26.100  1.00  0.00    -0.352 N 
ATOM      6  C   UNL A   1      30.442  23.311  26.656  1.00  0.00     0.251 C 
ATOM      7  O   UNL A   1      29.667  23.177  27.610  1.00  0.00    -0.270 OA
ATOM      8  H   UNL A   1      30.516  21.370  26.568  1.00  0.00     0.163 HD
BRANCH   6   9
ATOM      9  C   UNL A   1      30.828  24.681  26.205  1.00  0.00     0.067 C 
ATOM     10  C   UNL A   1      29.034  29.151  22.321  1.00  0.00     0.044 C 
ATOM     11  C   UNL A   1      29.865  28.501  23.388  1.00  0.00    -0.050 A 
ATOM     12  C   UNL A   1      30.913  29.206  23.994  1.00  0.00     0.010 A 
ATOM     13  C   UNL A   1      29.558  27.205  23.830  1.00  0.00     0.015 A 
ATOM     14  C   UNL A   1      31.671  28.623  25.014  1.00  0.00    -0.008 A 
ATOM     15  C   UNL A   1      30.309  26.609  24.847  1.00  0.00     0.018 A 
ATOM     16  C   UNL A   1      32.801  29.373  25.662  1.00  0.00     0.048 C 
ATOM     17  C   UNL A   1      31.362  27.320  25.422  1.00  0.00     0.130 A 
ATOM     18  C   UNL A   1      29.984  25.277  25.344  1.00  0.00     0.025 C 
ATOM     19  O   UNL A   1      32.110  26.811  26.444  1.00  0.00    -0.475 OA
ATOM     20  C   UNL A   1      32.091  25.376  26.624  1.00  0.00     0.314 C 
BRANCH  20  21
ATOM     21  C   UNL A   1      33.348  24.769  25.978  1.00  0.00     0.429 C 
ATOM     22  F   UNL A   1      33.816  23.738  26.723  1.00  0.00    -0.167 F 
ATOM     23  F   UNL A   1      33.111  24.269  24.742  1.00  0.00    -0.167 F 
ATOM     24  F   UNL A   1      34.351  25.668  25.850  1.00  0.00    -0.167 F 
ENDBRANCH  20  21
ENDBRANCH   6   9
ENDBRANCH   4   5
ENDBRANCH   3   4
ENDBRANCH   2   3
ENDBRANCH   1   2
BRANCH   1  25
ATOM     25  C   UNL A   1      35.567  22.140  24.338  1.00  0.00     0.021 C 
BRANCH  25  26
ATOM     26  C   UNL A   1      37.083  22.071  24.200  1.00  0.00     0.116 C 
BRANCH  26  27
ATOM     27  N   UNL A   1      37.635  20.945  24.934  1.00  0.00    -0.352 N 
ATOM     28  C   UNL A   1      38.761  20.892  25.713  1.00  0.00     0.251 C 
ATOM     29  H   UNL A   1      37.130  20.103  24.861  1.00  0.00     0.163 HD
ATOM     30  O   UNL A   1      39.220  19.803  26.053  1.00  0.00    -0.269 OA
BRANCH  28  31
ATOM     31  C   UNL A   1      39.420  22.146  26.127  1.00  0.00     0.039 A 
ATOM     32  C   UNL A   1      40.767  22.117  26.491  1.00  0.00     0.014 A 
ATOM     33  C   UNL A   1      38.703  23.347  26.157  1.00  0.00     0.014 A 
ATOM     34  C   UNL A   1      41.410  23.305  26.842  1.00  0.00     0.010 A 
ATOM     35  C   UNL A   1      39.363  24.540  26.438  1.00  0.00     0.010 A 
ATOM     36  C   UNL A   1      40.720  24.528  26.793  1.00  0.00    -0.014 A 
BRANCH  36  37
ATOM     37  C   UNL A   1      41.399  25.801  27.143  1.00  0.00     0.031 A 
ATOM     38  C   UNL A   1      40.688  26.816  27.996  1.00  0.00     0.074 A 
ATOM     39  C   UNL A   1      42.638  26.047  26.674  1.00  0.00     0.049 A 
ATOM     40  N   UNL A   1      41.090  28.003  28.368  1.00  0.00    -0.248 NA
ATOM     41  C   UNL A   1      39.343  26.460  28.476  1.00  0.00     0.031 C 
ATOM     42  C   UNL A   1      43.415  25.142  25.824  1.00  0.00     0.029 A 
ATOM     43  N   UNL A   1      43.466  27.127  26.849  1.00  0.00    -0.354 N 
ATOM     44  C   UNL A   1      40.053  28.532  29.126  1.00  0.00     0.074 A 
ATOM     45  C   UNL A   1      38.979  27.564  29.112  1.00  0.00     0.031 C 
ATOM     46  C   UNL A   1      44.619  25.687  25.585  1.00  0.00     0.029 A 
ATOM     47  C   UNL A   1      44.685  26.998  26.223  1.00  0.00     0.049 A 
ATOM     48  H   UNL A   1      43.212  27.920  27.374  1.00  0.00     0.167 HD
ATOM     49  C   UNL A   1      40.012  29.707  29.798  1.00  0.00     0.034 A 
ATOM     50  C   UNL A   1      45.732  27.843  26.164  1.00  0.00     0.034 A 
ATOM     51  C   UNL A   1      41.098  30.652  29.825  1.00  0.00     0.049 A 
ATOM     52  C   UNL A   1      45.641  29.165  26.881  1.00  0.00     0.074 A 
ATOM     53  C   UNL A   1      41.170  31.854  30.507  1.00  0.00     0.029 A 
ATOM     54  N   UNL A   1      42.299  30.504  29.147  1.00  0.00    -0.354 N 
ATOM     55  N   UNL A   1      44.655  29.645  27.602  1.00  0.00    -0.248 NA
ATOM     56  C   UNL A   1      46.801  30.062  26.775  1.00  0.00     0.031 C 
ATOM     57  C   UNL A   1      42.389  32.461  30.191  1.00  0.00     0.029 A 
ATOM     58  C   UNL A   1      43.106  31.607  29.370  1.00  0.00     0.049 A 
ATOM     59  H   UNL A   1      42.542  29.729  28.591  1.00  0.00     0.167 HD
ATOM     60  C   UNL A   1      45.085  30.888  28.055  1.00  0.00     0.074 A 
ATOM     61  C   UNL A   1      46.422  31.082  27.535  1.00  0.00     0.031 C 
ATOM     62  C   UNL A   1      44.433  31.787  28.834  1.00  0.00     0.034 A 
BRANCH  49  63
ATOM     63  C   UNL A   1      38.757  30.041  30.558  1.00  0.00     0.023 A 
ATOM     64  C   UNL A   1      37.746  30.834  29.990  1.00  0.00     0.031 A 
ATOM     65  C   UNL A   1      38.548  29.523  31.848  1.00  0.00     0.131 A 
ATOM     66  C   UNL A   1      36.583  31.111  30.722  1.00  0.00     0.055 A 
ATOM     67  C   UNL A   1      37.362  29.752  32.547  1.00  0.00     0.041 A 
ATOM     68  F   UNL A   1      39.491  28.775  32.443  1.00  0.00    -0.206 F 
ATOM     69  C   UNL A   1      36.373  30.554  31.986  1.00  0.00     0.022 A 
BRANCH  66  70
ATOM     70  S   UNL A   1      35.368  32.261  30.023  1.00  0.00     0.124 S 
ATOM     71  O   UNL A   1      36.214  33.394  29.656  1.00  0.00    -0.237 OA
ATOM     72  O   UNL A   1      34.808  31.497  28.914  1.00  0.00    -0.237 OA
ATOM     73  O   UNL A   1      34.452  32.508  31.134  1.00  0.00    -0.744 OA
ENDBRANCH  66  70
ENDBRANCH  49  63
BRANCH  50  74
ATOM     74  C   UNL A   1      46.954  27.475  25.394  1.00  0.00     0.023 A 
ATOM     75  C   UNL A   1      47.092  27.831  24.044  1.00  0.00     0.031 A 
ATOM     76  C   UNL A   1      47.998  26.749  25.997  1.00  0.00     0.131 A 
ATOM     77  C   UNL A   1      48.233  27.434  23.329  1.00  0.00     0.055 A 
ATOM     78  C   UNL A   1      49.150  26.395  25.293  1.00  0.00     0.041 A 
ATOM     79  F   UNL A   1      47.917  26.389  27.287  1.00  0.00    -0.206 F 
ATOM     80  C   UNL A   1      49.269  26.730  23.949  1.00  0.00     0.022 A 
BRANCH  77  81
ATOM     81  S   UNL A   1      48.324  27.808  21.557  1.00  0.00     0.124 S 
ATOM     82  O   UNL A   1      48.639  26.502  20.993  1.00  0.00    -0.237 OA
ATOM     83  O   UNL A   1      46.985  28.320  21.286  1.00  0.00    -0.237 OA
ATOM     84  O   UNL A   1      49.395  28.800  21.474  1.00  0.00    -0.744 OA
ENDBRANCH  77  81
ENDBRANCH  50  74
BRANCH  62  85
ATOM     85  C   UNL A   1      45.161  33.055  29.192  1.00  0.00     0.023 A 
ATOM     86  C   UNL A   1      44.949  34.245  28.478  1.00  0.00     0.031 A 
ATOM     87  C   UNL A   1      46.031  33.085  30.295  1.00  0.00     0.131 A 
ATOM     88  C   UNL A   1      45.622  35.414  28.860  1.00  0.00     0.055 A 
ATOM     89  C   UNL A   1      46.659  34.262  30.702  1.00  0.00     0.041 A 
ATOM     90  F   UNL A   1      46.262  31.973  31.013  1.00  0.00    -0.206 F 
ATOM     91  C   UNL A   1      46.460  35.435  29.979  1.00  0.00     0.022 A 
BRANCH  88  92
ATOM     92  S   UNL A   1      45.415  36.908  27.853  1.00  0.00     0.124 S 
ATOM     93  O   UNL A   1      45.073  37.907  28.861  1.00  0.00    -0.237 OA
ATOM     94  O   UNL A   1      46.727  37.053  27.231  1.00  0.00    -0.237 OA
ATOM     95  O   UNL A   1      44.332  36.556  26.936  1.00  0.00    -0.744 OA
ENDBRANCH  88  92
ENDBRANCH  62  85
ENDBRANCH  36  37
ENDBRANCH  28  31
ENDBRANCH  26  27
ENDBRANCH  25  26
ENDBRANCH   1  25
TORSDOF 17
ENDMDL
MODEL 3
REMARK VINA RESULT:     -12.3      5.517      8.447
REMARK SMILES Cc1cc(C)c2c(c1)C=C(C(=O)NCCCCCCNC(=O)c1ccc(-c3c4nc(c(-c5cc(S(=O)(=O)[O-])ccc5F)c5ccc([nH]5)c(-c5cc(S(=O)(=O)[O-])ccc5F)c5nc(c(-c6cc(S(=O)(=O)[O-])ccc6F)c6ccc3[nH]6)C=C5)C=C4)cc1)[C@@H](C(F)(F)F)O2
REMARK SMILES IDX 17 1 16 2 15 3 14 4 13 5 11 6 12 7 10 9 1 10 2 11 3 12 8 13
REMARK SMILES IDX 4 14 7 15 5 16 6 17 9 18 91 19 86 20 87 21 88 22 89 23 90 24
REMARK SMILES IDX 18 25 19 26 20 27 21 28 22 30 23 31 24 32 85 33 25 34 84 35
REMARK SMILES IDX 26 36 27 37 28 38 78 39 29 40 83 41 77 42 79 43 30 44 82 45
REMARK SMILES IDX 76 46 75 47 31 49 63 50 43 51 62 52 44 53 47 54 61 55 80 56
REMARK SMILES IDX 45 57 46 58 60 60 81 61 48 62 32 63 33 64 41 65 34 66 40 67
REMARK SMILES IDX 42 68 39 69 35 70 36 71 37 72 38 73 64 74 65 75 73 76 66 77
REMARK SMILES IDX 72 78 74 79 71 80 67 81 68 82 69 83 70 84 49 85 50 86 58 87
REMARK SMILES IDX 51 88 57 89 59 90 56 91 52 92 53 93 54 94 55 95
REMARK H PARENT 13 8 20 29 79 48 47 59
REMARK Flexibility Score: inf
ROOT
ATOM      1  C   UNL A   1      31.721  30.438  26.304  1.00  0.00     0.002 C 
ENDROOT
BRANCH   1   2
ATOM      2  C   UNL A   1      32.892  29.694  26.961  1.00  0.00     0.002 C 
BRANCH   2   3
ATOM      3  C   UNL A   1      33.846  29.004  25.982  1.00  0.00     0.021 C 
BRANCH   3   4
ATOM      4  C   UNL A   1      33.789  27.483  26.053  1.00  0.00     0.116 C 
BRANCH   4   5
ATOM      5  N   UNL A   1      33.796  26.882  24.731  1.00  0.00    -0.352 N 
ATOM      6  C   UNL A   1      32.930  26.751  23.698  1.00  0.00     0.251 C 
ATOM      7  O   UNL A   1      33.376  26.160  22.708  1.00  0.00    -0.270 OA
ATOM      8  H   UNL A   1      34.662  26.458  24.532  1.00  0.00     0.163 HD
BRANCH   6   9
ATOM      9  C   UNL A   1      31.525  27.254  23.688  1.00  0.00     0.067 C 
ATOM     10  C   UNL A   1      28.276  32.437  22.756  1.00  0.00     0.044 C 
ATOM     11  C   UNL A   1      28.500  30.979  23.030  1.00  0.00    -0.050 A 
ATOM     12  C   UNL A   1      27.408  30.113  23.182  1.00  0.00     0.010 A 
ATOM     13  C   UNL A   1      29.803  30.461  23.074  1.00  0.00     0.015 A 
ATOM     14  C   UNL A   1      27.605  28.747  23.402  1.00  0.00    -0.008 A 
ATOM     15  C   UNL A   1      30.015  29.098  23.296  1.00  0.00     0.018 A 
ATOM     16  C   UNL A   1      26.438  27.816  23.571  1.00  0.00     0.048 C 
ATOM     17  C   UNL A   1      28.915  28.256  23.465  1.00  0.00     0.130 A 
ATOM     18  C   UNL A   1      31.360  28.535  23.311  1.00  0.00     0.025 C 
ATOM     19  O   UNL A   1      29.051  26.911  23.648  1.00  0.00    -0.475 OA
ATOM     20  C   UNL A   1      30.338  26.433  24.103  1.00  0.00     0.314 C 
BRANCH  20  21
ATOM     21  C   UNL A   1      30.280  26.195  25.622  1.00  0.00     0.429 C 
ATOM     22  F   UNL A   1      29.042  25.787  25.994  1.00  0.00    -0.167 F 
ATOM     23  F   UNL A   1      31.138  25.231  26.033  1.00  0.00    -0.167 F 
ATOM     24  F   UNL A   1      30.573  27.308  26.333  1.00  0.00    -0.167 F 
ENDBRANCH  20  21
ENDBRANCH   6   9
ENDBRANCH   4   5
ENDBRANCH   3   4
ENDBRANCH   2   3
ENDBRANCH   1   2
BRANCH   1  25
ATOM     25  C   UNL A   1      31.537  31.891  26.753  1.00  0.00     0.021 C 
BRANCH  25  26
ATOM     26  C   UNL A   1      32.827  32.585  27.174  1.00  0.00     0.116 C 
BRANCH  26  27
ATOM     27  N   UNL A   1      32.588  33.961  27.573  1.00  0.00    -0.352 N 
ATOM     28  C   UNL A   1      33.116  34.658  28.628  1.00  0.00     0.251 C 
ATOM     29  H   UNL A   1      31.956  34.463  27.007  1.00  0.00     0.163 HD
ATOM     30  O   UNL A   1      32.615  35.728  28.968  1.00  0.00    -0.269 OA
BRANCH  28  31
ATOM     31  C   UNL A   1      34.277  34.108  29.354  1.00  0.00     0.039 A 
ATOM     32  C   UNL A   1      34.059  33.261  30.442  1.00  0.00     0.014 A 
ATOM     33  C   UNL A   1      35.579  34.435  28.961  1.00  0.00     0.014 A 
ATOM     34  C   UNL A   1      35.150  32.703  31.108  1.00  0.00     0.010 A 
ATOM     35  C   UNL A   1      36.664  33.822  29.580  1.00  0.00     0.010 A 
ATOM     36  C   UNL A   1      36.460  32.958  30.666  1.00  0.00    -0.014 A 
BRANCH  36  37
ATOM     37  C   UNL A   1      37.628  32.352  31.353  1.00  0.00     0.031 A 
ATOM     38  C   UNL A   1      38.350  31.197  30.717  1.00  0.00     0.074 A 
ATOM     39  C   UNL A   1      38.017  32.827  32.552  1.00  0.00     0.049 A 
ATOM     40  N   UNL A   1      39.357  30.502  31.179  1.00  0.00    -0.248 NA
ATOM     41  C   UNL A   1      37.867  30.750  29.400  1.00  0.00     0.031 C 
ATOM     42  C   UNL A   1      37.379  33.934  33.271  1.00  0.00     0.029 A 
ATOM     43  N   UNL A   1      39.046  32.449  33.378  1.00  0.00    -0.354 N 
ATOM     44  C   UNL A   1      39.629  29.542  30.212  1.00  0.00     0.074 A 
ATOM     45  C   UNL A   1      38.644  29.702  29.165  1.00  0.00     0.031 C 
ATOM     46  C   UNL A   1      38.053  34.167  34.408  1.00  0.00     0.029 A 
ATOM     47  C   UNL A   1      39.141  33.202  34.526  1.00  0.00     0.049 A 
ATOM     48  H   UNL A   1      39.658  31.707  33.168  1.00  0.00     0.167 HD
ATOM     49  C   UNL A   1      40.628  28.628  30.187  1.00  0.00     0.034 A 
ATOM     50  C   UNL A   1      40.003  33.118  35.558  1.00  0.00     0.034 A 
ATOM     51  C   UNL A   1      41.617  28.493  31.224  1.00  0.00     0.049 A 
ATOM     52  C   UNL A   1      41.075  32.060  35.527  1.00  0.00     0.074 A 
ATOM     53  C   UNL A   1      42.692  27.624  31.275  1.00  0.00     0.029 A 
ATOM     54  N   UNL A   1      41.657  29.247  32.388  1.00  0.00    -0.354 N 
ATOM     55  N   UNL A   1      41.324  31.166  34.597  1.00  0.00    -0.248 NA
ATOM     56  C   UNL A   1      41.983  31.995  36.681  1.00  0.00     0.031 C 
ATOM     57  C   UNL A   1      43.345  27.809  32.496  1.00  0.00     0.029 A 
ATOM     58  C   UNL A   1      42.720  28.842  33.177  1.00  0.00     0.049 A 
ATOM     59  H   UNL A   1      41.024  29.965  32.619  1.00  0.00     0.167 HD
ATOM     60  C   UNL A   1      42.429  30.449  35.045  1.00  0.00     0.074 A 
ATOM     61  C   UNL A   1      42.806  31.020  36.322  1.00  0.00     0.031 C 
ATOM     62  C   UNL A   1      43.075  29.415  34.452  1.00  0.00     0.034 A 
BRANCH  49  63
ATOM     63  C   UNL A   1      40.704  27.700  29.005  1.00  0.00     0.023 A 
ATOM     64  C   UNL A   1      41.638  27.903  27.974  1.00  0.00     0.031 A 
ATOM     65  C   UNL A   1      39.866  26.574  28.929  1.00  0.00     0.131 A 
ATOM     66  C   UNL A   1      41.692  27.007  26.896  1.00  0.00     0.055 A 
ATOM     67  C   UNL A   1      39.966  25.654  27.885  1.00  0.00     0.041 A 
ATOM     68  F   UNL A   1      38.945  26.345  29.879  1.00  0.00    -0.206 F 
ATOM     69  C   UNL A   1      40.880  25.870  26.857  1.00  0.00     0.022 A 
BRANCH  66  70
ATOM     70  S   UNL A   1      42.799  27.381  25.510  1.00  0.00     0.124 S 
ATOM     71  O   UNL A   1      42.084  28.471  24.849  1.00  0.00    -0.237 OA
ATOM     72  O   UNL A   1      44.039  27.748  26.183  1.00  0.00    -0.237 OA
ATOM     73  O   UNL A   1      42.844  26.127  24.761  1.00  0.00    -0.744 OA
ENDBRANCH  66  70
ENDBRANCH  49  63
BRANCH  50  74
ATOM     74  C   UNL A   1      39.888  34.054  36.712  1.00  0.00     0.023 A 
ATOM     75  C   UNL A   1      39.317  33.638  37.925  1.00  0.00     0.031 A 
ATOM     76  C   UNL A   1      40.336  35.384  36.614  1.00  0.00     0.131 A 
ATOM     77  C   UNL A   1      39.180  34.551  38.983  1.00  0.00     0.055 A 
ATOM     78  C   UNL A   1      40.238  36.275  37.683  1.00  0.00     0.041 A 
ATOM     79  F   UNL A   1      40.895  35.829  35.478  1.00  0.00    -0.206 F 
ATOM     80  C   UNL A   1      39.649  35.863  38.874  1.00  0.00     0.022 A 
BRANCH  77  81
ATOM     81  S   UNL A   1      38.332  34.013  40.493  1.00  0.00     0.124 S 
ATOM     82  O   UNL A   1      37.227  33.233  39.950  1.00  0.00    -0.237 OA
ATOM     83  O   UNL A   1      39.378  33.258  41.176  1.00  0.00    -0.237 OA
ATOM     84  O   UNL A   1      37.954  35.270  41.136  1.00  0.00    -0.744 OA
ENDBRANCH  77  81
ENDBRANCH  50  74
BRANCH  62  85
ATOM     85  C   UNL A   1      44.272  28.842  35.163  1.00  0.00     0.023 A 
ATOM     86  C   UNL A   1      44.130  27.860  36.156  1.00  0.00     0.031 A 
ATOM     87  C   UNL A   1      45.569  29.243  34.801  1.00  0.00     0.131 A 
ATOM     88  C   UNL A   1      45.270  27.327  36.775  1.00  0.00     0.055 A 
ATOM     89  C   UNL A   1      46.702  28.674  35.384  1.00  0.00     0.041 A 
ATOM     90  F   UNL A   1      45.756  30.176  33.853  1.00  0.00    -0.206 F 
ATOM     91  C   UNL A   1      46.555  27.714  36.381  1.00  0.00     0.022 A 
BRANCH  88  92
ATOM     92  S   UNL A   1      45.053  26.142  38.129  1.00  0.00     0.124 S 
ATOM     93  O   UNL A   1      45.213  24.864  37.441  1.00  0.00    -0.237 OA
ATOM     94  O   UNL A   1      46.127  26.511  39.046  1.00  0.00    -0.237 OA
ATOM     95  O   UNL A   1      43.703  26.420  38.616  1.00  0.00    -0.744 OA
ENDBRANCH  88  92
ENDBRANCH  62  85
ENDBRANCH  36  37
ENDBRANCH  28  31
ENDBRANCH  26  27
ENDBRANCH  25  26
ENDBRANCH   1  25
TORSDOF 17
ENDMDL
