MODEL 1
REMARK VINA RESULT:     -12.9      0.000      0.000
REMARK SMILES O=C(NCCCCCCNC(=O)[C@H](c1c[nH]c2ccc(Cl)cc12)[NH+]1CCN(c2cccc(Cl)c2)CC1)c1ccc(-c2c3nc(c(-c4cc(S(=O)(=O)[O-])ccc4F)c4ccc([nH]4)c(-c4cc(S(=O)(=O)[O-])ccc4F)c4nc(c(-c5cc(S(=O)(=O)[O-])ccc5F)c5ccc2[nH]5)C=C4)C=C3)cc1
REMARK SMILES IDX 6 1 5 2 4 3 3 4 1 5 2 6 37 8 38 9 99 10 39 11 98 12 40 13
REMARK SMILES IDX 41 14 42 15 92 16 43 17 97 18 91 19 93 20 44 21 96 22 90 23
REMARK SMILES IDX 89 24 45 26 77 27 57 28 76 29 58 30 61 31 75 32 94 33 59 34
REMARK SMILES IDX 60 35 74 37 95 38 62 39 46 40 47 41 55 42 48 43 54 44 56 45
REMARK SMILES IDX 53 46 49 47 50 48 51 49 52 50 78 51 79 52 87 53 80 54 86 55
REMARK SMILES IDX 88 56 85 57 81 58 82 59 83 60 84 61 63 62 64 63 72 64 65 65
REMARK SMILES IDX 71 66 73 67 70 68 66 69 67 70 68 71 69 72 7 73 8 74 9 75
REMARK SMILES IDX 10 76 11 77 12 79 13 80 24 81 25 82 36 83 26 85 35 86 27 87
REMARK SMILES IDX 28 88 29 89 34 90 30 91 32 92 31 93 33 94 14 95 15 96 23 97
REMARK SMILES IDX 16 98 17 99 22 100 18 102 20 103 19 104 21 105
REMARK H PARENT 3 7 93 25 61 36 10 78 24 84 16 101
REMARK Flexibility Score: inf
ROOT
ATOM      1  C   UNL A   1      37.259  20.905  24.653  1.00  0.00     0.002 C 
ENDROOT
BRANCH   1   2
ATOM      2  C   UNL A   1      38.275  19.819  25.010  1.00  0.00     0.021 C 
BRANCH   2   3
ATOM      3  C   UNL A   1      39.343  20.262  25.998  1.00  0.00     0.116 C 
BRANCH   3   4
ATOM      4  N   UNL A   1      40.434  19.305  26.094  1.00  0.00    -0.352 N 
ATOM      5  O   UNL A   1      42.594  18.646  26.120  1.00  0.00    -0.269 OA
ATOM      6  C   UNL A   1      41.777  19.556  26.233  1.00  0.00     0.251 C 
ATOM      7  H   UNL A   1      40.176  18.355  26.053  1.00  0.00     0.163 HD
BRANCH   6   8
ATOM      8  C   UNL A   1      42.225  20.939  26.501  1.00  0.00     0.039 A 
ATOM      9  C   UNL A   1      42.423  21.832  25.445  1.00  0.00     0.014 A 
ATOM     10  C   UNL A   1      42.465  21.337  27.819  1.00  0.00     0.014 A 
ATOM     11  C   UNL A   1      42.976  23.081  25.694  1.00  0.00     0.010 A 
ATOM     12  C   UNL A   1      42.943  22.625  28.074  1.00  0.00     0.010 A 
ATOM     13  C   UNL A   1      43.222  23.500  27.011  1.00  0.00    -0.014 A 
BRANCH  13  14
ATOM     14  C   UNL A   1      43.704  24.883  27.254  1.00  0.00     0.031 A 
ATOM     15  C   UNL A   1      42.800  25.934  27.833  1.00  0.00     0.074 A 
ATOM     16  C   UNL A   1      44.987  25.173  26.960  1.00  0.00     0.049 A 
ATOM     17  N   UNL A   1      43.062  27.185  28.108  1.00  0.00    -0.248 NA
ATOM     18  C   UNL A   1      41.419  25.528  28.132  1.00  0.00     0.031 C 
ATOM     19  C   UNL A   1      45.951  24.229  26.389  1.00  0.00     0.029 A 
ATOM     20  N   UNL A   1      45.706  26.329  27.113  1.00  0.00    -0.354 N 
ATOM     21  C   UNL A   1      41.879  27.725  28.600  1.00  0.00     0.074 A 
ATOM     22  C   UNL A   1      40.888  26.669  28.550  1.00  0.00     0.031 C 
ATOM     23  C   UNL A   1      47.144  24.829  26.282  1.00  0.00     0.029 A 
ATOM     24  C   UNL A   1      47.015  26.217  26.708  1.00  0.00     0.049 A 
ATOM     25  H   UNL A   1      45.323  27.159  27.477  1.00  0.00     0.167 HD
ATOM     26  C   UNL A   1      41.647  28.983  29.058  1.00  0.00     0.034 A 
ATOM     27  C   UNL A   1      47.999  27.134  26.659  1.00  0.00     0.034 A 
ATOM     28  C   UNL A   1      42.652  30.021  29.093  1.00  0.00     0.049 A 
ATOM     29  C   UNL A   1      47.704  28.532  27.123  1.00  0.00     0.074 A 
ATOM     30  C   UNL A   1      42.537  31.318  29.565  1.00  0.00     0.029 A 
ATOM     31  N   UNL A   1      43.955  29.888  28.625  1.00  0.00    -0.354 N 
ATOM     32  N   UNL A   1      46.583  29.023  27.603  1.00  0.00    -0.248 NA
ATOM     33  C   UNL A   1      48.804  29.498  27.042  1.00  0.00     0.031 C 
ATOM     34  C   UNL A   1      43.743  31.986  29.318  1.00  0.00     0.029 A 
ATOM     35  C   UNL A   1      44.640  31.088  28.764  1.00  0.00     0.049 A 
ATOM     36  H   UNL A   1      44.337  29.062  28.250  1.00  0.00     0.167 HD
ATOM     37  C   UNL A   1      46.850  30.356  27.894  1.00  0.00     0.074 A 
ATOM     38  C   UNL A   1      48.242  30.583  27.558  1.00  0.00     0.031 C 
ATOM     39  C   UNL A   1      46.021  31.306  28.396  1.00  0.00     0.034 A 
BRANCH  26  40
ATOM     40  C   UNL A   1      40.242  29.311  29.507  1.00  0.00     0.023 A 
ATOM     41  C   UNL A   1      39.905  29.431  30.867  1.00  0.00     0.031 A 
ATOM     42  C   UNL A   1      39.213  29.476  28.562  1.00  0.00     0.131 A 
ATOM     43  C   UNL A   1      38.568  29.629  31.246  1.00  0.00     0.055 A 
ATOM     44  C   UNL A   1      37.898  29.754  28.941  1.00  0.00     0.041 A 
ATOM     45  F   UNL A   1      39.466  29.353  27.248  1.00  0.00    -0.206 F 
ATOM     46  C   UNL A   1      37.566  29.816  30.291  1.00  0.00     0.022 A 
BRANCH  43  47
ATOM     47  S   UNL A   1      38.132  29.489  33.002  1.00  0.00     0.124 S 
ATOM     48  O   UNL A   1      37.385  30.726  33.222  1.00  0.00    -0.237 OA
ATOM     49  O   UNL A   1      37.352  28.258  33.036  1.00  0.00    -0.237 OA
ATOM     50  O   UNL A   1      39.428  29.426  33.674  1.00  0.00    -0.744 OA
ENDBRANCH  43  47
ENDBRANCH  26  40
BRANCH  27  51
ATOM     51  C   UNL A   1      49.337  26.762  26.121  1.00  0.00     0.023 A 
ATOM     52  C   UNL A   1      49.746  27.177  24.845  1.00  0.00     0.031 A 
ATOM     53  C   UNL A   1      50.225  25.978  26.880  1.00  0.00     0.131 A 
ATOM     54  C   UNL A   1      50.999  26.781  24.353  1.00  0.00     0.055 A 
ATOM     55  C   UNL A   1      51.490  25.631  26.406  1.00  0.00     0.041 A 
ATOM     56  F   UNL A   1      49.883  25.562  28.110  1.00  0.00    -0.206 F 
ATOM     57  C   UNL A   1      51.879  26.024  25.130  1.00  0.00     0.022 A 
BRANCH  54  58
ATOM     58  S   UNL A   1      51.441  27.221  22.650  1.00  0.00     0.124 S 
ATOM     59  O   UNL A   1      52.592  26.358  22.409  1.00  0.00    -0.237 OA
ATOM     60  O   UNL A   1      50.222  26.881  21.923  1.00  0.00    -0.237 OA
ATOM     61  O   UNL A   1      51.736  28.649  22.734  1.00  0.00    -0.744 OA
ENDBRANCH  54  58
ENDBRANCH  27  51
BRANCH  39  62
ATOM     62  C   UNL A   1      46.622  32.670  28.634  1.00  0.00     0.023 A 
ATOM     63  C   UNL A   1      46.559  33.683  27.660  1.00  0.00     0.031 A 
ATOM     64  C   UNL A   1      47.295  32.947  29.836  1.00  0.00     0.131 A 
ATOM     65  C   UNL A   1      47.210  34.906  27.883  1.00  0.00     0.055 A 
ATOM     66  C   UNL A   1      47.889  34.186  30.076  1.00  0.00     0.041 A 
ATOM     67  F   UNL A   1      47.389  32.015  30.797  1.00  0.00    -0.206 F 
ATOM     68  C   UNL A   1      47.860  35.170  29.090  1.00  0.00     0.022 A 
BRANCH  65  69
ATOM     69  S   UNL A   1      47.279  36.114  26.531  1.00  0.00     0.124 S 
ATOM     70  O   UNL A   1      48.103  35.419  25.547  1.00  0.00    -0.237 OA
ATOM     71  O   UNL A   1      45.871  36.276  26.184  1.00  0.00    -0.237 OA
ATOM     72  O   UNL A   1      47.904  37.283  27.148  1.00  0.00    -0.744 OA
ENDBRANCH  65  69
ENDBRANCH  39  62
ENDBRANCH  13  14
ENDBRANCH   6   8
ENDBRANCH   3   4
ENDBRANCH   2   3
ENDBRANCH   1   2
BRANCH   1  73
ATOM     73  C   UNL A   1      36.844  21.803  25.823  1.00  0.00     0.002 C 
BRANCH  73  74
ATOM     74  C   UNL A   1      37.194  23.290  25.656  1.00  0.00     0.021 C 
BRANCH  74  75
ATOM     75  C   UNL A   1      35.977  24.182  25.417  1.00  0.00     0.116 C 
BRANCH  75  76
ATOM     76  N   UNL A   1      35.541  24.058  24.037  1.00  0.00    -0.351 N 
ATOM     77  C   UNL A   1      34.431  23.419  23.552  1.00  0.00     0.283 C 
ATOM     78  H   UNL A   1      36.117  24.489  23.364  1.00  0.00     0.163 HD
ATOM     79  O   UNL A   1      34.487  23.009  22.389  1.00  0.00    -0.268 OA
BRANCH  77  80
ATOM     80  C   UNL A   1      33.160  23.327  24.435  1.00  0.00     0.307 C 
BRANCH  80  81
ATOM     81  N   UNL A   1      31.899  23.664  23.715  1.00  0.00    -0.318 N 
ATOM     82  C   UNL A   1      30.726  24.026  24.540  1.00  0.00     0.284 C 
ATOM     83  C   UNL A   1      31.946  24.511  22.522  1.00  0.00     0.284 C 
ATOM     84  H   UNL A   1      31.764  22.718  23.358  1.00  0.00     0.349 HD
ATOM     85  C   UNL A   1      30.532  25.542  24.835  1.00  0.00     0.178 C 
ATOM     86  C   UNL A   1      31.864  26.023  22.794  1.00  0.00     0.178 C 
ATOM     87  N   UNL A   1      30.679  26.349  23.611  1.00  0.00    -0.360 N 
BRANCH  87  88
ATOM     88  C   UNL A   1      30.402  27.716  23.650  1.00  0.00     0.038 A 
ATOM     89  C   UNL A   1      31.182  28.536  24.479  1.00  0.00     0.026 A 
ATOM     90  C   UNL A   1      29.332  28.303  22.963  1.00  0.00     0.046 A 
ATOM     91  C   UNL A   1      30.910  29.898  24.627  1.00  0.00     0.004 A 
ATOM     92  C   UNL A   1      29.053  29.663  23.116  1.00  0.00     0.043 A 
ATOM     93  C   UNL A   1      29.836  30.463  23.946  1.00  0.00     0.020 A 
ATOM     94  Cl  UNL A   1      27.709  30.360  22.294  1.00  0.00    -0.084 Cl
ENDBRANCH  87  88
ENDBRANCH  80  81
BRANCH  80  95
ATOM     95  C   UNL A   1      33.145  22.028  25.218  1.00  0.00     0.044 A 
ATOM     96  C   UNL A   1      33.258  21.867  26.590  1.00  0.00     0.094 A 
ATOM     97  C   UNL A   1      32.922  20.707  24.687  1.00  0.00     0.011 A 
ATOM     98  N   UNL A   1      33.247  20.534  26.884  1.00  0.00    -0.361 N 
ATOM     99  C   UNL A   1      33.020  19.802  25.746  1.00  0.00     0.046 A 
ATOM    100  C   UNL A   1      32.635  20.197  23.402  1.00  0.00     0.031 A 
ATOM    101  H   UNL A   1      33.383  20.153  27.782  1.00  0.00     0.166 HD
ATOM    102  C   UNL A   1      32.878  18.417  25.588  1.00  0.00     0.028 A 
ATOM    103  C   UNL A   1      32.457  18.819  23.238  1.00  0.00     0.041 A 
ATOM    104  C   UNL A   1      32.586  17.940  24.308  1.00  0.00     0.022 A 
ATOM    105  Cl  UNL A   1      32.058  18.198  21.681  1.00  0.00    -0.084 Cl
ENDBRANCH  80  95
ENDBRANCH  77  80
ENDBRANCH  75  76
ENDBRANCH  74  75
ENDBRANCH  73  74
ENDBRANCH   1  73
TORSDOF 19
ENDMDL
MODEL 2
REMARK VINA RESULT:     -12.6      1.238      4.435
REMARK SMILES O=C(NCCCCCCNC(=O)[C@H](c1c[nH]c2ccc(Cl)cc12)[NH+]1CCN(c2cccc(Cl)c2)CC1)c1ccc(-c2c3nc(c(-c4cc(S(=O)(=O)[O-])ccc4F)c4ccc([nH]4)c(-c4cc(S(=O)(=O)[O-])ccc4F)c4nc(c(-c5cc(S(=O)(=O)[O-])ccc5F)c5ccc2[nH]5)C=C4)C=C3)cc1
REMARK SMILES IDX 6 1 5 2 4 3 3 4 1 5 2 6 37 8 38 9 99 10 39 11 98 12 40 13
REMARK SMILES IDX 41 14 42 15 92 16 43 17 97 18 91 19 93 20 44 21 96 22 90 23
REMARK SMILES IDX 89 24 45 26 77 27 57 28 76 29 58 30 61 31 75 32 94 33 59 34
REMARK SMILES IDX 60 35 74 37 95 38 62 39 46 40 47 41 55 42 48 43 54 44 56 45
REMARK SMILES IDX 53 46 49 47 50 48 51 49 52 50 78 51 79 52 87 53 80 54 86 55
REMARK SMILES IDX 88 56 85 57 81 58 82 59 83 60 84 61 63 62 64 63 72 64 65 65
REMARK SMILES IDX 71 66 73 67 70 68 66 69 67 70 68 71 69 72 7 73 8 74 9 75
REMARK SMILES IDX 10 76 11 77 12 79 13 80 24 81 25 82 36 83 26 85 35 86 27 87
REMARK SMILES IDX 28 88 29 89 34 90 30 91 32 92 31 93 33 94 14 95 15 96 23 97
REMARK SMILES IDX 16 98 17 99 22 100 18 102 20 103 19 104 21 105
REMARK H PARENT 3 7 93 25 61 36 10 78 24 84 16 101
REMARK Flexibility Score: inf
ROOT
ATOM      1  C   UNL A   1      37.142  20.846  24.621  1.00  0.00     0.002 C 
ENDROOT
BRANCH   1   2
ATOM      2  C   UNL A   1      38.183  19.795  25.007  1.00  0.00     0.021 C 
BRANCH   2   3
ATOM      3  C   UNL A   1      39.283  20.310  25.923  1.00  0.00     0.116 C 
BRANCH   3   4
ATOM      4  N   UNL A   1      40.369  19.354  26.070  1.00  0.00    -0.352 N 
ATOM      5  O   UNL A   1      42.526  18.695  26.182  1.00  0.00    -0.269 OA
ATOM      6  C   UNL A   1      41.706  19.606  26.253  1.00  0.00     0.251 C 
ATOM      7  H   UNL A   1      40.112  18.404  26.033  1.00  0.00     0.163 HD
BRANCH   6   8
ATOM      8  C   UNL A   1      42.146  20.992  26.520  1.00  0.00     0.039 A 
ATOM      9  C   UNL A   1      42.243  21.913  25.473  1.00  0.00     0.014 A 
ATOM     10  C   UNL A   1      42.478  21.366  27.824  1.00  0.00     0.014 A 
ATOM     11  C   UNL A   1      42.789  23.168  25.709  1.00  0.00     0.010 A 
ATOM     12  C   UNL A   1      42.947  22.659  28.073  1.00  0.00     0.010 A 
ATOM     13  C   UNL A   1      43.126  23.563  27.013  1.00  0.00    -0.014 A 
BRANCH  13  14
ATOM     14  C   UNL A   1      43.597  24.951  27.251  1.00  0.00     0.031 A 
ATOM     15  C   UNL A   1      42.688  25.993  27.839  1.00  0.00     0.074 A 
ATOM     16  C   UNL A   1      44.874  25.253  26.946  1.00  0.00     0.049 A 
ATOM     17  N   UNL A   1      42.941  27.247  28.112  1.00  0.00    -0.248 NA
ATOM     18  C   UNL A   1      41.315  25.573  28.151  1.00  0.00     0.031 C 
ATOM     19  C   UNL A   1      45.842  24.318  26.366  1.00  0.00     0.029 A 
ATOM     20  N   UNL A   1      45.584  26.416  27.092  1.00  0.00    -0.354 N 
ATOM     21  C   UNL A   1      41.757  27.775  28.615  1.00  0.00     0.074 A 
ATOM     22  C   UNL A   1      40.776  26.710  28.574  1.00  0.00     0.031 C 
ATOM     23  C   UNL A   1      47.028  24.929  26.248  1.00  0.00     0.029 A 
ATOM     24  C   UNL A   1      46.890  26.316  26.675  1.00  0.00     0.049 A 
ATOM     25  H   UNL A   1      45.196  27.242  27.460  1.00  0.00     0.167 HD
ATOM     26  C   UNL A   1      41.517  29.030  29.075  1.00  0.00     0.034 A 
ATOM     27  C   UNL A   1      47.864  27.243  26.617  1.00  0.00     0.034 A 
ATOM     28  C   UNL A   1      42.513  30.079  29.100  1.00  0.00     0.049 A 
ATOM     29  C   UNL A   1      47.560  28.638  27.084  1.00  0.00     0.074 A 
ATOM     30  C   UNL A   1      42.390  31.375  29.574  1.00  0.00     0.029 A 
ATOM     31  N   UNL A   1      43.812  29.958  28.621  1.00  0.00    -0.354 N 
ATOM     32  N   UNL A   1      46.440  29.118  27.574  1.00  0.00    -0.248 NA
ATOM     33  C   UNL A   1      48.650  29.615  26.993  1.00  0.00     0.031 C 
ATOM     34  C   UNL A   1      43.587  32.054  29.316  1.00  0.00     0.029 A 
ATOM     35  C   UNL A   1      44.487  31.164  28.753  1.00  0.00     0.049 A 
ATOM     36  H   UNL A   1      44.199  29.135  28.242  1.00  0.00     0.167 HD
ATOM     37  C   UNL A   1      46.696  30.454  27.863  1.00  0.00     0.074 A 
ATOM     38  C   UNL A   1      48.083  30.695  27.513  1.00  0.00     0.031 C 
ATOM     39  C   UNL A   1      45.863  31.396  28.372  1.00  0.00     0.034 A 
BRANCH  26  40
ATOM     40  C   UNL A   1      40.113  29.345  29.537  1.00  0.00     0.023 A 
ATOM     41  C   UNL A   1      39.785  29.448  30.900  1.00  0.00     0.031 A 
ATOM     42  C   UNL A   1      39.077  29.515  28.601  1.00  0.00     0.131 A 
ATOM     43  C   UNL A   1      38.450  29.634  31.290  1.00  0.00     0.055 A 
ATOM     44  C   UNL A   1      37.763  29.781  28.992  1.00  0.00     0.041 A 
ATOM     45  F   UNL A   1      39.322  29.409  27.284  1.00  0.00    -0.206 F 
ATOM     46  C   UNL A   1      37.440  29.825  30.345  1.00  0.00     0.022 A 
BRANCH  43  47
ATOM     47  S   UNL A   1      38.027  29.470  33.047  1.00  0.00     0.124 S 
ATOM     48  O   UNL A   1      37.154  30.625  33.251  1.00  0.00    -0.237 OA
ATOM     49  O   UNL A   1      37.378  28.166  33.096  1.00  0.00    -0.237 OA
ATOM     50  O   UNL A   1      39.320  29.552  33.722  1.00  0.00    -0.744 OA
ENDBRANCH  43  47
ENDBRANCH  26  40
BRANCH  27  51
ATOM     51  C   UNL A   1      49.201  26.884  26.067  1.00  0.00     0.023 A 
ATOM     52  C   UNL A   1      49.634  27.385  24.830  1.00  0.00     0.031 A 
ATOM     53  C   UNL A   1      50.063  26.026  26.773  1.00  0.00     0.131 A 
ATOM     54  C   UNL A   1      50.884  27.000  24.323  1.00  0.00     0.055 A 
ATOM     55  C   UNL A   1      51.327  25.689  26.289  1.00  0.00     0.041 A 
ATOM     56  F   UNL A   1      49.698  25.526  27.965  1.00  0.00    -0.206 F 
ATOM     57  C   UNL A   1      51.739  26.168  25.049  1.00  0.00     0.022 A 
BRANCH  54  58
ATOM     58  S   UNL A   1      51.355  27.557  22.662  1.00  0.00     0.124 S 
ATOM     59  O   UNL A   1      50.779  28.896  22.623  1.00  0.00    -0.237 OA
ATOM     60  O   UNL A   1      52.811  27.488  22.721  1.00  0.00    -0.237 OA
ATOM     61  O   UNL A   1      50.722  26.578  21.783  1.00  0.00    -0.744 OA
ENDBRANCH  54  58
ENDBRANCH  27  51
BRANCH  39  62
ATOM     62  C   UNL A   1      46.453  32.765  28.605  1.00  0.00     0.023 A 
ATOM     63  C   UNL A   1      46.350  33.785  27.641  1.00  0.00     0.031 A 
ATOM     64  C   UNL A   1      47.154  33.042  29.791  1.00  0.00     0.131 A 
ATOM     65  C   UNL A   1      46.992  35.014  27.856  1.00  0.00     0.055 A 
ATOM     66  C   UNL A   1      47.739  34.287  30.025  1.00  0.00     0.041 A 
ATOM     67  F   UNL A   1      47.286  32.104  30.741  1.00  0.00    -0.206 F 
ATOM     68  C   UNL A   1      47.671  35.278  29.048  1.00  0.00     0.022 A 
BRANCH  65  69
ATOM     69  S   UNL A   1      47.010  36.233  26.512  1.00  0.00     0.124 S 
ATOM     70  O   UNL A   1      48.412  36.637  26.489  1.00  0.00    -0.237 OA
ATOM     71  O   UNL A   1      46.553  35.447  25.371  1.00  0.00    -0.237 OA
ATOM     72  O   UNL A   1      46.076  37.261  26.970  1.00  0.00    -0.744 OA
ENDBRANCH  65  69
ENDBRANCH  39  62
ENDBRANCH  13  14
ENDBRANCH   6   8
ENDBRANCH   3   4
ENDBRANCH   2   3
ENDBRANCH   1   2
BRANCH   1  73
ATOM     73  C   UNL A   1      36.688  21.749  25.771  1.00  0.00     0.002 C 
BRANCH  73  74
ATOM     74  C   UNL A   1      37.035  23.237  25.604  1.00  0.00     0.021 C 
BRANCH  74  75
ATOM     75  C   UNL A   1      35.990  24.025  24.815  1.00  0.00     0.116 C 
BRANCH  75  76
ATOM     76  N   UNL A   1      35.008  24.587  25.727  1.00  0.00    -0.351 N 
ATOM     77  C   UNL A   1      33.844  25.242  25.422  1.00  0.00     0.283 C 
ATOM     78  H   UNL A   1      35.204  24.484  26.686  1.00  0.00     0.163 HD
ATOM     79  O   UNL A   1      33.419  26.041  26.260  1.00  0.00    -0.268 OA
BRANCH  77  80
ATOM     80  C   UNL A   1      33.092  24.887  24.114  1.00  0.00     0.307 C 
BRANCH  80  81
ATOM     81  N   UNL A   1      32.037  23.848  24.287  1.00  0.00    -0.318 N 
ATOM     82  C   UNL A   1      31.553  23.167  23.067  1.00  0.00     0.284 C 
ATOM     83  C   UNL A   1      32.138  22.885  25.385  1.00  0.00     0.284 C 
ATOM     84  H   UNL A   1      31.327  24.515  24.589  1.00  0.00     0.349 HD
ATOM     85  C   UNL A   1      32.278  21.843  22.682  1.00  0.00     0.178 C 
ATOM     86  C   UNL A   1      32.941  21.613  25.064  1.00  0.00     0.178 C 
ATOM     87  N   UNL A   1      32.426  20.955  23.848  1.00  0.00    -0.360 N 
BRANCH  87  88
ATOM     88  C   UNL A   1      32.927  19.665  23.670  1.00  0.00     0.038 A 
ATOM     89  C   UNL A   1      32.313  18.830  22.724  1.00  0.00     0.026 A 
ATOM     90  C   UNL A   1      33.965  19.131  24.443  1.00  0.00     0.046 A 
ATOM     91  C   UNL A   1      32.711  17.503  22.552  1.00  0.00     0.004 A 
ATOM     92  C   UNL A   1      34.360  17.801  24.278  1.00  0.00     0.043 A 
ATOM     93  C   UNL A   1      33.737  16.984  23.336  1.00  0.00     0.020 A 
ATOM     94  Cl  UNL A   1      35.611  17.149  25.265  1.00  0.00    -0.084 Cl
ENDBRANCH  87  88
ENDBRANCH  80  81
BRANCH  80  95
ATOM     95  C   UNL A   1      32.664  26.145  23.383  1.00  0.00     0.044 A 
ATOM     96  C   UNL A   1      33.433  26.941  22.549  1.00  0.00     0.094 A 
ATOM     97  C   UNL A   1      31.339  26.710  23.350  1.00  0.00     0.011 A 
ATOM     98  N   UNL A   1      32.684  28.004  22.134  1.00  0.00    -0.361 N 
ATOM     99  C   UNL A   1      31.395  27.879  22.587  1.00  0.00     0.046 A 
ATOM    100  C   UNL A   1      30.091  26.330  23.890  1.00  0.00     0.031 A 
ATOM    101  H   UNL A   1      33.020  28.753  21.589  1.00  0.00     0.166 HD
ATOM    102  C   UNL A   1      30.285  28.702  22.361  1.00  0.00     0.028 A 
ATOM    103  C   UNL A   1      28.967  27.125  23.641  1.00  0.00     0.041 A 
ATOM    104  C   UNL A   1      29.061  28.298  22.899  1.00  0.00     0.022 A 
ATOM    105  Cl  UNL A   1      27.434  26.638  24.258  1.00  0.00    -0.084 Cl
ENDBRANCH  80  95
ENDBRANCH  77  80
ENDBRANCH  75  76
ENDBRANCH  74  75
ENDBRANCH  73  74
ENDBRANCH   1  73
TORSDOF 19
ENDMDL
MODEL 3
REMARK VINA RESULT:     -12.5      2.259      8.850
REMARK SMILES O=C(NCCCCCCNC(=O)[C@H](c1c[nH]c2ccc(Cl)cc12)[NH+]1CCN(c2cccc(Cl)c2)CC1)c1ccc(-c2c3nc(c(-c4cc(S(=O)(=O)[O-])ccc4F)c4ccc([nH]4)c(-c4cc(S(=O)(=O)[O-])ccc4F)c4nc(c(-c5cc(S(=O)(=O)[O-])ccc5F)c5ccc2[nH]5)C=C4)C=C3)cc1
REMARK SMILES IDX 6 1 5 2 4 3 3 4 1 5 2 6 37 8 38 9 99 10 39 11 98 12 40 13
REMARK SMILES IDX 41 14 42 15 92 16 43 17 97 18 91 19 93 20 44 21 96 22 90 23
REMARK SMILES IDX 89 24 45 26 77 27 57 28 76 29 58 30 61 31 75 32 94 33 59 34
REMARK SMILES IDX 60 35 74 37 95 38 62 39 46 40 47 41 55 42 48 43 54 44 56 45
REMARK SMILES IDX 53 46 49 47 50 48 51 49 52 50 78 51 79 52 87 53 80 54 86 55
REMARK SMILES IDX 88 56 85 57 81 58 82 59 83 60 84 61 63 62 64 63 72 64 65 65
REMARK SMILES IDX 71 66 73 67 70 68 66 69 67 70 68 71 69 72 7 73 8 74 9 75
REMARK SMILES IDX 10 76 11 77 12 79 13 80 24 81 25 82 36 83 26 85 35 86 27 87
REMARK SMILES IDX 28 88 29 89 34 90 30 91 32 92 31 93 33 94 14 95 15 96 23 97
REMARK SMILES IDX 16 98 17 99 22 100 18 102 20 103 19 104 21 105
REMARK H PARENT 3 7 93 25 61 36 10 78 24 84 16 101
REMARK Flexibility Score: inf
ROOT
ATOM      1  C   UNL A   1      35.182  22.874  23.146  1.00  0.00     0.002 C 
ENDROOT
BRANCH   1   2
ATOM      2  C   UNL A   1      36.597  22.660  23.684  1.00  0.00     0.021 C 
BRANCH   2   3
ATOM      3  C   UNL A   1      36.658  22.328  25.168  1.00  0.00     0.116 C 
BRANCH   3   4
ATOM      4  N   UNL A   1      37.488  21.164  25.437  1.00  0.00    -0.352 N 
ATOM      5  O   UNL A   1      39.417  20.070  25.863  1.00  0.00    -0.269 OA
ATOM      6  C   UNL A   1      38.797  21.131  25.850  1.00  0.00     0.251 C 
ATOM      7  H   UNL A   1      37.056  20.290  25.305  1.00  0.00     0.163 HD
BRANCH   6   8
ATOM      8  C   UNL A   1      39.454  22.389  26.262  1.00  0.00     0.039 A 
ATOM      9  C   UNL A   1      38.750  23.596  26.224  1.00  0.00     0.014 A 
ATOM     10  C   UNL A   1      40.788  22.362  26.675  1.00  0.00     0.014 A 
ATOM     11  C   UNL A   1      39.413  24.788  26.479  1.00  0.00     0.010 A 
ATOM     12  C   UNL A   1      41.430  23.556  27.012  1.00  0.00     0.010 A 
ATOM     13  C   UNL A   1      40.753  24.781  26.896  1.00  0.00    -0.014 A 
BRANCH  13  14
ATOM     14  C   UNL A   1      41.402  26.062  27.275  1.00  0.00     0.031 A 
ATOM     15  C   UNL A   1      42.773  26.419  26.776  1.00  0.00     0.074 A 
ATOM     16  C   UNL A   1      40.720  26.914  28.065  1.00  0.00     0.049 A 
ATOM     17  N   UNL A   1      43.480  27.495  27.009  1.00  0.00    -0.248 NA
ATOM     18  C   UNL A   1      43.440  25.436  25.911  1.00  0.00     0.031 C 
ATOM     19  C   UNL A   1      39.382  26.666  28.610  1.00  0.00     0.029 A 
ATOM     20  N   UNL A   1      41.042  28.161  28.533  1.00  0.00    -0.354 N 
ATOM     21  C   UNL A   1      44.682  27.316  26.334  1.00  0.00     0.074 A 
ATOM     22  C   UNL A   1      44.619  26.009  25.712  1.00  0.00     0.031 C 
ATOM     23  C   UNL A   1      38.981  27.742  29.299  1.00  0.00     0.029 A 
ATOM     24  C   UNL A   1      40.056  28.726  29.306  1.00  0.00     0.049 A 
ATOM     25  H   UNL A   1      41.895  28.608  28.335  1.00  0.00     0.167 HD
ATOM     26  C   UNL A   1      45.735  28.169  26.237  1.00  0.00     0.034 A 
ATOM     27  C   UNL A   1      40.026  29.897  29.971  1.00  0.00     0.034 A 
ATOM     28  C   UNL A   1      45.776  29.467  26.872  1.00  0.00     0.049 A 
ATOM     29  C   UNL A   1      41.223  30.801  29.891  1.00  0.00     0.074 A 
ATOM     30  C   UNL A   1      46.775  30.426  26.815  1.00  0.00     0.029 A 
ATOM     31  N   UNL A   1      44.781  29.987  27.693  1.00  0.00    -0.354 N 
ATOM     32  N   UNL A   1      42.347  30.625  29.233  1.00  0.00    -0.248 NA
ATOM     33  C   UNL A   1      41.149  32.060  30.639  1.00  0.00     0.031 C 
ATOM     34  C   UNL A   1      46.416  31.488  27.654  1.00  0.00     0.029 A 
ATOM     35  C   UNL A   1      45.158  31.233  28.175  1.00  0.00     0.049 A 
ATOM     36  H   UNL A   1      43.930  29.536  27.900  1.00  0.00     0.167 HD
ATOM     37  C   UNL A   1      43.109  31.762  29.478  1.00  0.00     0.074 A 
ATOM     38  C   UNL A   1      42.307  32.624  30.325  1.00  0.00     0.031 C 
ATOM     39  C   UNL A   1      44.357  32.068  29.043  1.00  0.00     0.034 A 
BRANCH  26  40
ATOM     40  C   UNL A   1      46.942  27.699  25.458  1.00  0.00     0.023 A 
ATOM     41  C   UNL A   1      47.147  28.062  24.116  1.00  0.00     0.031 A 
ATOM     42  C   UNL A   1      47.888  26.847  26.058  1.00  0.00     0.131 A 
ATOM     43  C   UNL A   1      48.222  27.516  23.396  1.00  0.00     0.055 A 
ATOM     44  C   UNL A   1      49.001  26.372  25.361  1.00  0.00     0.041 A 
ATOM     45  F   UNL A   1      47.737  26.448  27.331  1.00  0.00    -0.206 F 
ATOM     46  C   UNL A   1      49.165  26.693  24.016  1.00  0.00     0.022 A 
BRANCH  43  47
ATOM     47  S   UNL A   1      48.288  27.775  21.601  1.00  0.00     0.124 S 
ATOM     48  O   UNL A   1      49.296  28.828  21.490  1.00  0.00    -0.237 OA
ATOM     49  O   UNL A   1      48.681  26.462  21.107  1.00  0.00    -0.237 OA
ATOM     50  O   UNL A   1      46.928  28.190  21.264  1.00  0.00    -0.744 OA
ENDBRANCH  43  47
ENDBRANCH  26  40
BRANCH  27  51
ATOM     51  C   UNL A   1      38.836  30.256  30.792  1.00  0.00     0.023 A 
ATOM     52  C   UNL A   1      37.777  30.997  30.247  1.00  0.00     0.031 A 
ATOM     53  C   UNL A   1      38.748  29.866  32.141  1.00  0.00     0.131 A 
ATOM     54  C   UNL A   1      36.686  31.349  31.056  1.00  0.00     0.055 A 
ATOM     55  C   UNL A   1      37.638  30.174  32.926  1.00  0.00     0.041 A 
ATOM     56  F   UNL A   1      39.733  29.150  32.707  1.00  0.00    -0.206 F 
ATOM     57  C   UNL A   1      36.602  30.931  32.386  1.00  0.00     0.022 A 
BRANCH  54  58
ATOM     58  S   UNL A   1      35.399  32.420  30.359  1.00  0.00     0.124 S 
ATOM     59  O   UNL A   1      34.472  32.539  31.479  1.00  0.00    -0.237 OA
ATOM     60  O   UNL A   1      36.153  33.621  30.020  1.00  0.00    -0.237 OA
ATOM     61  O   UNL A   1      34.903  31.655  29.217  1.00  0.00    -0.744 OA
ENDBRANCH  54  58
ENDBRANCH  27  51
BRANCH  39  62
ATOM     62  C   UNL A   1      44.909  33.409  29.460  1.00  0.00     0.023 A 
ATOM     63  C   UNL A   1      44.700  34.564  28.685  1.00  0.00     0.031 A 
ATOM     64  C   UNL A   1      45.680  33.526  30.629  1.00  0.00     0.131 A 
ATOM     65  C   UNL A   1      45.308  35.773  29.058  1.00  0.00     0.055 A 
ATOM     66  C   UNL A   1      46.231  34.744  31.027  1.00  0.00     0.041 A 
ATOM     67  F   UNL A   1      45.914  32.454  31.403  1.00  0.00    -0.206 F 
ATOM     68  C   UNL A   1      46.058  35.875  30.231  1.00  0.00     0.022 A 
BRANCH  65  69
ATOM     69  S   UNL A   1      45.185  37.192  27.933  1.00  0.00     0.124 S 
ATOM     70  O   UNL A   1      46.199  36.874  26.933  1.00  0.00    -0.237 OA
ATOM     71  O   UNL A   1      43.799  37.116  27.483  1.00  0.00    -0.237 OA
ATOM     72  O   UNL A   1      45.495  38.335  28.790  1.00  0.00    -0.744 OA
ENDBRANCH  65  69
ENDBRANCH  39  62
ENDBRANCH  13  14
ENDBRANCH   6   8
ENDBRANCH   3   4
ENDBRANCH   2   3
ENDBRANCH   1   2
BRANCH   1  73
ATOM     73  C   UNL A   1      34.575  24.244  23.465  1.00  0.00     0.002 C 
BRANCH  73  74
ATOM     74  C   UNL A   1      33.570  24.767  22.427  1.00  0.00     0.021 C 
BRANCH  74  75
ATOM     75  C   UNL A   1      33.283  26.263  22.553  1.00  0.00     0.116 C 
BRANCH  75  76
ATOM     76  N   UNL A   1      33.725  26.740  23.851  1.00  0.00    -0.351 N 
ATOM     77  C   UNL A   1      33.124  27.663  24.666  1.00  0.00     0.283 C 
ATOM     78  H   UNL A   1      34.564  26.350  24.189  1.00  0.00     0.163 HD
ATOM     79  O   UNL A   1      33.856  28.277  25.447  1.00  0.00    -0.268 OA
BRANCH  77  80
ATOM     80  C   UNL A   1      31.582  27.819  24.631  1.00  0.00     0.307 C 
BRANCH  80  81
ATOM     81  N   UNL A   1      30.857  26.838  25.488  1.00  0.00    -0.318 N 
ATOM     82  C   UNL A   1      30.043  25.813  24.801  1.00  0.00     0.284 C 
ATOM     83  C   UNL A   1      31.531  26.244  26.644  1.00  0.00     0.284 C 
ATOM     84  H   UNL A   1      30.229  27.538  25.884  1.00  0.00     0.349 HD
ATOM     85  C   UNL A   1      30.753  24.462  24.492  1.00  0.00     0.178 C 
ATOM     86  C   UNL A   1      32.330  24.964  26.343  1.00  0.00     0.178 C 
ATOM     87  N   UNL A   1      31.486  23.960  25.667  1.00  0.00    -0.360 N 
BRANCH  87  88
ATOM     88  C   UNL A   1      32.070  22.694  25.624  1.00  0.00     0.038 A 
ATOM     89  C   UNL A   1      32.957  22.328  26.648  1.00  0.00     0.026 A 
ATOM     90  C   UNL A   1      31.876  21.794  24.570  1.00  0.00     0.046 A 
ATOM     91  C   UNL A   1      33.637  21.108  26.627  1.00  0.00     0.004 A 
ATOM     92  C   UNL A   1      32.561  20.577  24.542  1.00  0.00     0.043 A 
ATOM     93  C   UNL A   1      33.441  20.230  25.565  1.00  0.00     0.020 A 
ATOM     94  Cl  UNL A   1      32.341  19.498  23.217  1.00  0.00    -0.084 Cl
ENDBRANCH  87  88
ENDBRANCH  80  81
BRANCH  80  95
ATOM     95  C   UNL A   1      31.186  29.271  24.811  1.00  0.00     0.044 A 
ATOM     96  C   UNL A   1      31.667  30.169  25.751  1.00  0.00     0.094 A 
ATOM     97  C   UNL A   1      30.287  30.026  23.975  1.00  0.00     0.011 A 
ATOM     98  N   UNL A   1      31.016  31.359  25.604  1.00  0.00    -0.361 N 
ATOM     99  C   UNL A   1      30.184  31.311  24.514  1.00  0.00     0.046 A 
ATOM    100  C   UNL A   1      29.558  29.740  22.800  1.00  0.00     0.031 A 
ATOM    101  H   UNL A   1      31.126  32.139  26.196  1.00  0.00     0.166 HD
ATOM    102  C   UNL A   1      29.372  32.311  23.965  1.00  0.00     0.028 A 
ATOM    103  C   UNL A   1      28.770  30.741  22.223  1.00  0.00     0.041 A 
ATOM    104  C   UNL A   1      28.668  32.003  22.799  1.00  0.00     0.022 A 
ATOM    105  Cl  UNL A   1      27.918  30.409  20.763  1.00  0.00    -0.084 Cl
ENDBRANCH  80  95
ENDBRANCH  77  80
ENDBRANCH  75  76
ENDBRANCH  74  75
ENDBRANCH  73  74
ENDBRANCH   1  73
TORSDOF 19
ENDMDL
