MODEL 1
REMARK VINA RESULT:     -11.7      0.000      0.000
REMARK SMILES Cn1c(=O)c(=O)n(C)c2cc(S(=O)(=O)N3CCC[C@H]3C(=O)NCCCCCCNC(=O)c3ccc(-c4c5nc(c(-c6cc(S(=O)(=O)[O-])ccc6F)c6ccc([nH]6)c(-c6cc(S(=O)(=O)[O-])ccc6F)c6nc(c(-c7cc(S(=O)(=O)[O-])ccc7F)c7ccc4[nH]7)C=C6)C=C5)cc3)ccc21
REMARK SMILES IDX 26 1 25 2 24 3 23 4 22 5 20 6 21 7 19 9 15 10 16 11 17 12
REMARK SMILES IDX 18 13 12 14 13 15 14 16 11 17 1 18 2 19 3 20 97 21 4 22 5 23
REMARK SMILES IDX 9 24 96 25 6 26 7 27 10 28 95 29 8 30 27 31 28 32 29 33
REMARK SMILES IDX 30 34 31 36 32 37 33 38 94 39 34 40 93 41 35 42 36 43 37 44
REMARK SMILES IDX 87 45 38 46 92 47 86 48 88 49 39 50 91 51 85 52 84 53 40 55
REMARK SMILES IDX 72 56 52 57 71 58 53 59 56 60 70 61 89 62 54 63 55 64 69 66
REMARK SMILES IDX 90 67 57 68 41 69 42 70 50 71 43 72 49 73 51 74 48 75 44 76
REMARK SMILES IDX 45 77 46 78 47 79 73 80 74 81 82 82 75 83 81 84 83 85 80 86
REMARK SMILES IDX 76 87 77 88 78 89 79 90 58 91 59 92 67 93 60 94 66 95 68 96
REMARK SMILES IDX 65 97 61 98 62 99 63 100 64 101
REMARK H PARENT 22 8 29 35 88 54 56 65
REMARK Flexibility Score: inf
ROOT
ATOM      1  C   UNL A   1      35.367  31.390  28.004  1.00  0.00     0.002 C 
ENDROOT
BRANCH   1   2
ATOM      2  C   UNL A   1      35.271  29.865  28.126  1.00  0.00     0.002 C 
BRANCH   2   3
ATOM      3  C   UNL A   1      34.604  29.166  26.938  1.00  0.00     0.021 C 
BRANCH   3   4
ATOM      4  C   UNL A   1      33.208  28.628  27.256  1.00  0.00     0.116 C 
BRANCH   4   5
ATOM      5  N   UNL A   1      32.215  29.161  26.332  1.00  0.00    -0.355 N 
ATOM      6  C   UNL A   1      31.874  28.705  25.078  1.00  0.00     0.238 C 
ATOM      7  O   UNL A   1      31.075  29.354  24.407  1.00  0.00    -0.273 OA
ATOM      8  H   UNL A   1      31.723  29.953  26.646  1.00  0.00     0.163 HD
BRANCH   6   9
ATOM      9  C   UNL A   1      32.531  27.413  24.602  1.00  0.00     0.162 C 
ATOM     10  N   UNL A   1      31.614  26.342  24.154  1.00  0.00    -0.185 NA
ATOM     11  C   UNL A   1      31.714  26.194  22.696  1.00  0.00     0.103 C 
ATOM     12  C   UNL A   1      33.149  26.569  22.397  1.00  0.00     0.019 C 
ATOM     13  C   UNL A   1      33.447  27.675  23.395  1.00  0.00     0.032 C 
BRANCH  10  14
ATOM     14  S   UNL A   1      31.374  24.994  25.130  1.00  0.00     0.243 S 
ATOM     15  O   UNL A   1      30.379  24.170  24.487  1.00  0.00    -0.207 OA
ATOM     16  O   UNL A   1      31.207  25.451  26.498  1.00  0.00    -0.207 OA
BRANCH  14  17
ATOM     17  C   UNL A   1      32.900  24.045  25.125  1.00  0.00     0.084 A 
ATOM     18  C   UNL A   1      37.708  22.318  25.527  1.00  0.00     0.154 C 
ATOM     19  N   UNL A   1      36.424  21.685  25.246  1.00  0.00    -0.305 N 
ATOM     20  C   UNL A   1      36.414  20.318  24.987  1.00  0.00     0.316 A 
ATOM     21  C   UNL A   1      35.234  22.457  25.221  1.00  0.00     0.068 A 
ATOM     22  O   UNL A   1      37.424  19.620  24.961  1.00  0.00    -0.263 OA
ATOM     23  C   UNL A   1      35.057  19.652  24.728  1.00  0.00     0.316 A 
ATOM     24  C   UNL A   1      34.002  21.872  24.875  1.00  0.00     0.069 A 
ATOM     25  C   UNL A   1      35.266  23.815  25.553  1.00  0.00     0.030 A 
ATOM     26  O   UNL A   1      35.018  18.430  24.596  1.00  0.00    -0.263 OA
ATOM     27  N   UNL A   1      33.928  20.470  24.651  1.00  0.00    -0.305 N 
ATOM     28  C   UNL A   1      32.847  22.683  24.797  1.00  0.00     0.050 A 
ATOM     29  C   UNL A   1      34.110  24.590  25.534  1.00  0.00     0.024 A 
ATOM     30  C   UNL A   1      32.646  19.829  24.405  1.00  0.00     0.154 C 
ENDBRANCH  14  17
ENDBRANCH  10  14
ENDBRANCH   6   9
ENDBRANCH   4   5
ENDBRANCH   3   4
ENDBRANCH   2   3
ENDBRANCH   1   2
BRANCH   1  31
ATOM     31  C   UNL A   1      34.028  32.127  27.928  1.00  0.00     0.021 C 
BRANCH  31  32
ATOM     32  C   UNL A   1      34.138  33.621  27.646  1.00  0.00     0.116 C 
BRANCH  32  33
ATOM     33  N   UNL A   1      33.314  34.416  28.545  1.00  0.00    -0.352 N 
ATOM     34  C   UNL A   1      33.430  34.583  29.906  1.00  0.00     0.251 C 
ATOM     35  H   UNL A   1      32.569  34.900  28.121  1.00  0.00     0.163 HD
ATOM     36  O   UNL A   1      32.538  35.140  30.536  1.00  0.00    -0.269 OA
BRANCH  34  37
ATOM     37  C   UNL A   1      34.625  34.054  30.598  1.00  0.00     0.039 A 
ATOM     38  C   UNL A   1      35.884  34.597  30.339  1.00  0.00     0.014 A 
ATOM     39  C   UNL A   1      34.487  32.976  31.477  1.00  0.00     0.014 A 
ATOM     40  C   UNL A   1      37.020  33.958  30.824  1.00  0.00     0.010 A 
ATOM     41  C   UNL A   1      35.628  32.389  32.032  1.00  0.00     0.010 A 
ATOM     42  C   UNL A   1      36.906  32.841  31.669  1.00  0.00    -0.014 A 
BRANCH  42  43
ATOM     43  C   UNL A   1      38.139  32.172  32.161  1.00  0.00     0.031 A 
ATOM     44  C   UNL A   1      38.729  32.524  33.499  1.00  0.00     0.074 A 
ATOM     45  C   UNL A   1      38.691  31.195  31.417  1.00  0.00     0.049 A 
ATOM     46  N   UNL A   1      39.767  32.003  34.101  1.00  0.00    -0.248 NA
ATOM     47  C   UNL A   1      38.075  33.600  34.258  1.00  0.00     0.031 C 
ATOM     48  C   UNL A   1      38.197  30.770  30.107  1.00  0.00     0.029 A 
ATOM     49  N   UNL A   1      39.761  30.370  31.655  1.00  0.00    -0.354 N 
ATOM     50  C   UNL A   1      39.894  32.685  35.305  1.00  0.00     0.074 A 
ATOM     51  C   UNL A   1      38.856  33.692  35.326  1.00  0.00     0.031 C 
ATOM     52  C   UNL A   1      38.923  29.728  29.683  1.00  0.00     0.029 A 
ATOM     53  C   UNL A   1      39.982  29.456  30.652  1.00  0.00     0.049 A 
ATOM     54  H   UNL A   1      40.315  30.426  32.467  1.00  0.00     0.167 HD
ATOM     55  C   UNL A   1      40.782  32.478  36.308  1.00  0.00     0.034 A 
ATOM     56  C   UNL A   1      40.935  28.511  30.514  1.00  0.00     0.034 A 
ATOM     57  C   UNL A   1      41.816  31.475  36.267  1.00  0.00     0.049 A 
ATOM     58  C   UNL A   1      41.941  28.327  31.618  1.00  0.00     0.074 A 
ATOM     59  C   UNL A   1      42.765  31.186  37.232  1.00  0.00     0.029 A 
ATOM     60  N   UNL A   1      42.040  30.599  35.214  1.00  0.00    -0.354 N 
ATOM     61  N   UNL A   1      42.027  28.961  32.765  1.00  0.00    -0.248 NA
ATOM     62  C   UNL A   1      42.975  27.304  31.420  1.00  0.00     0.031 C 
ATOM     63  C   UNL A   1      43.596  30.178  36.740  1.00  0.00     0.029 A 
ATOM     64  C   UNL A   1      43.125  29.784  35.497  1.00  0.00     0.049 A 
ATOM     65  H   UNL A   1      41.507  30.561  34.388  1.00  0.00     0.167 HD
ATOM     66  C   UNL A   1      43.120  28.411  33.427  1.00  0.00     0.074 A 
ATOM     67  C   UNL A   1      43.642  27.369  32.566  1.00  0.00     0.031 C 
ATOM     68  C   UNL A   1      43.644  28.746  34.634  1.00  0.00     0.034 A 
BRANCH  55  69
ATOM     69  C   UNL A   1      40.678  33.341  37.544  1.00  0.00     0.023 A 
ATOM     70  C   UNL A   1      39.891  32.927  38.635  1.00  0.00     0.031 A 
ATOM     71  C   UNL A   1      41.279  34.611  37.603  1.00  0.00     0.131 A 
ATOM     72  C   UNL A   1      39.710  33.785  39.729  1.00  0.00     0.055 A 
ATOM     73  C   UNL A   1      41.127  35.446  38.711  1.00  0.00     0.041 A 
ATOM     74  F   UNL A   1      42.042  35.053  36.589  1.00  0.00    -0.206 F 
ATOM     75  C   UNL A   1      40.331  35.037  39.776  1.00  0.00     0.022 A 
BRANCH  72  76
ATOM     76  S   UNL A   1      38.619  33.337  41.106  1.00  0.00     0.124 S 
ATOM     77  O   UNL A   1      39.515  32.552  41.952  1.00  0.00    -0.237 OA
ATOM     78  O   UNL A   1      38.245  34.645  41.639  1.00  0.00    -0.237 OA
ATOM     79  O   UNL A   1      37.543  32.584  40.471  1.00  0.00    -0.744 OA
ENDBRANCH  72  76
ENDBRANCH  55  69
BRANCH  56  80
ATOM     80  C   UNL A   1      40.917  27.656  29.293  1.00  0.00     0.023 A 
ATOM     81  C   UNL A   1      41.844  27.868  28.255  1.00  0.00     0.031 A 
ATOM     82  C   UNL A   1      39.880  26.735  29.075  1.00  0.00     0.131 A 
ATOM     83  C   UNL A   1      41.654  27.248  27.015  1.00  0.00     0.055 A 
ATOM     84  C   UNL A   1      39.743  26.056  27.863  1.00  0.00     0.041 A 
ATOM     85  F   UNL A   1      38.964  26.508  30.030  1.00  0.00    -0.206 F 
ATOM     86  C   UNL A   1      40.620  26.330  26.817  1.00  0.00     0.022 A 
BRANCH  83  87
ATOM     87  S   UNL A   1      42.640  27.742  25.573  1.00  0.00     0.124 S 
ATOM     88  O   UNL A   1      41.893  28.888  25.069  1.00  0.00    -0.237 OA
ATOM     89  O   UNL A   1      43.929  28.049  26.190  1.00  0.00    -0.237 OA
ATOM     90  O   UNL A   1      42.627  26.556  24.724  1.00  0.00    -0.744 OA
ENDBRANCH  83  87
ENDBRANCH  56  80
BRANCH  68  91
ATOM     91  C   UNL A   1      44.862  27.999  35.121  1.00  0.00     0.023 A 
ATOM     92  C   UNL A   1      44.713  26.797  35.838  1.00  0.00     0.031 A 
ATOM     93  C   UNL A   1      46.150  28.555  35.014  1.00  0.00     0.131 A 
ATOM     94  C   UNL A   1      45.824  26.212  36.458  1.00  0.00     0.055 A 
ATOM     95  C   UNL A   1      47.262  27.942  35.594  1.00  0.00     0.041 A 
ATOM     96  F   UNL A   1      46.343  29.704  34.350  1.00  0.00    -0.206 F 
ATOM     97  C   UNL A   1      47.098  26.773  36.333  1.00  0.00     0.022 A 
BRANCH  94  98
ATOM     98  S   UNL A   1      45.641  24.754  37.522  1.00  0.00     0.124 S 
ATOM     99  O   UNL A   1      45.276  25.358  38.801  1.00  0.00    -0.237 OA
ATOM    100  O   UNL A   1      44.574  24.017  36.852  1.00  0.00    -0.237 OA
ATOM    101  O   UNL A   1      46.958  24.124  37.485  1.00  0.00    -0.744 OA
ENDBRANCH  94  98
ENDBRANCH  68  91
ENDBRANCH  42  43
ENDBRANCH  34  37
ENDBRANCH  32  33
ENDBRANCH  31  32
ENDBRANCH   1  31
TORSDOF 18
ENDMDL
MODEL 2
REMARK VINA RESULT:     -11.7      1.513      7.348
REMARK SMILES Cn1c(=O)c(=O)n(C)c2cc(S(=O)(=O)N3CCC[C@H]3C(=O)NCCCCCCNC(=O)c3ccc(-c4c5nc(c(-c6cc(S(=O)(=O)[O-])ccc6F)c6ccc([nH]6)c(-c6cc(S(=O)(=O)[O-])ccc6F)c6nc(c(-c7cc(S(=O)(=O)[O-])ccc7F)c7ccc4[nH]7)C=C6)C=C5)cc3)ccc21
REMARK SMILES IDX 26 1 25 2 24 3 23 4 22 5 20 6 21 7 19 9 15 10 16 11 17 12
REMARK SMILES IDX 18 13 12 14 13 15 14 16 11 17 1 18 2 19 3 20 97 21 4 22 5 23
REMARK SMILES IDX 9 24 96 25 6 26 7 27 10 28 95 29 8 30 27 31 28 32 29 33
REMARK SMILES IDX 30 34 31 36 32 37 33 38 94 39 34 40 93 41 35 42 36 43 37 44
REMARK SMILES IDX 87 45 38 46 92 47 86 48 88 49 39 50 91 51 85 52 84 53 40 55
REMARK SMILES IDX 72 56 52 57 71 58 53 59 56 60 70 61 89 62 54 63 55 64 69 66
REMARK SMILES IDX 90 67 57 68 41 69 42 70 50 71 43 72 49 73 51 74 48 75 44 76
REMARK SMILES IDX 45 77 46 78 47 79 73 80 74 81 82 82 75 83 81 84 83 85 80 86
REMARK SMILES IDX 76 87 77 88 78 89 79 90 58 91 59 92 67 93 60 94 66 95 68 96
REMARK SMILES IDX 65 97 61 98 62 99 63 100 64 101
REMARK H PARENT 22 8 29 35 88 54 56 65
REMARK Flexibility Score: inf
ROOT
ATOM      1  C   UNL A   1      34.671  30.917  28.006  1.00  0.00     0.002 C 
ENDROOT
BRANCH   1   2
ATOM      2  C   UNL A   1      34.508  29.639  27.174  1.00  0.00     0.002 C 
BRANCH   2   3
ATOM      3  C   UNL A   1      33.300  29.635  26.233  1.00  0.00     0.021 C 
BRANCH   3   4
ATOM      4  C   UNL A   1      32.419  28.394  26.381  1.00  0.00     0.116 C 
BRANCH   4   5
ATOM      5  N   UNL A   1      31.256  28.466  25.506  1.00  0.00    -0.355 N 
ATOM      6  C   UNL A   1      30.886  27.610  24.494  1.00  0.00     0.238 C 
ATOM      7  O   UNL A   1      29.914  27.898  23.798  1.00  0.00    -0.273 OA
ATOM      8  H   UNL A   1      30.654  29.230  25.660  1.00  0.00     0.163 HD
BRANCH   6   9
ATOM      9  C   UNL A   1      31.728  26.353  24.299  1.00  0.00     0.162 C 
ATOM     10  N   UNL A   1      31.032  25.063  24.502  1.00  0.00    -0.185 NA
ATOM     11  C   UNL A   1      30.861  24.394  23.206  1.00  0.00     0.103 C 
ATOM     12  C   UNL A   1      32.066  24.846  22.409  1.00  0.00     0.019 C 
ATOM     13  C   UNL A   1      32.281  26.279  22.866  1.00  0.00     0.032 C 
BRANCH  10  14
ATOM     14  S   UNL A   1      31.338  24.164  25.889  1.00  0.00     0.243 S 
ATOM     15  O   UNL A   1      30.395  23.072  25.909  1.00  0.00    -0.207 OA
ATOM     16  O   UNL A   1      31.454  25.084  27.006  1.00  0.00    -0.207 OA
BRANCH  14  17
ATOM     17  C   UNL A   1      32.966  23.427  25.705  1.00  0.00     0.084 A 
ATOM     18  C   UNL A   1      37.970  22.325  25.634  1.00  0.00     0.154 C 
ATOM     19  N   UNL A   1      36.759  21.547  25.399  1.00  0.00    -0.305 N 
ATOM     20  C   UNL A   1      36.900  20.211  25.040  1.00  0.00     0.316 A 
ATOM     21  C   UNL A   1      35.482  22.156  25.516  1.00  0.00     0.068 A 
ATOM     22  O   UNL A   1      37.985  19.655  24.890  1.00  0.00    -0.263 OA
ATOM     23  C   UNL A   1      35.621  19.391  24.829  1.00  0.00     0.316 A 
ATOM     24  C   UNL A   1      34.310  21.438  25.216  1.00  0.00     0.069 A 
ATOM     25  C   UNL A   1      35.369  23.483  25.945  1.00  0.00     0.030 A 
ATOM     26  O   UNL A   1      35.727  18.185  24.609  1.00  0.00    -0.263 OA
ATOM     27  N   UNL A   1      34.396  20.056  24.894  1.00  0.00    -0.305 N 
ATOM     28  C   UNL A   1      33.060  22.094  25.280  1.00  0.00     0.050 A 
ATOM     29  C   UNL A   1      34.127  24.099  26.066  1.00  0.00     0.024 A 
ATOM     30  C   UNL A   1      33.189  19.269  24.692  1.00  0.00     0.154 C 
ENDBRANCH  14  17
ENDBRANCH  10  14
ENDBRANCH   6   9
ENDBRANCH   4   5
ENDBRANCH   3   4
ENDBRANCH   2   3
ENDBRANCH   1   2
BRANCH   1  31
ATOM     31  C   UNL A   1      33.465  31.860  28.002  1.00  0.00     0.021 C 
BRANCH  31  32
ATOM     32  C   UNL A   1      33.687  33.175  27.264  1.00  0.00     0.116 C 
BRANCH  32  33
ATOM     33  N   UNL A   1      33.061  34.302  27.940  1.00  0.00    -0.352 N 
ATOM     34  C   UNL A   1      33.286  34.782  29.210  1.00  0.00     0.251 C 
ATOM     35  H   UNL A   1      32.381  34.786  27.418  1.00  0.00     0.163 HD
ATOM     36  O   UNL A   1      32.537  35.627  29.690  1.00  0.00    -0.269 OA
BRANCH  34  37
ATOM     37  C   UNL A   1      34.417  34.244  29.995  1.00  0.00     0.039 A 
ATOM     38  C   UNL A   1      35.731  34.477  29.584  1.00  0.00     0.014 A 
ATOM     39  C   UNL A   1      34.158  33.464  31.125  1.00  0.00     0.014 A 
ATOM     40  C   UNL A   1      36.773  33.791  30.199  1.00  0.00     0.010 A 
ATOM     41  C   UNL A   1      35.217  32.845  31.794  1.00  0.00     0.010 A 
ATOM     42  C   UNL A   1      36.529  32.961  31.306  1.00  0.00    -0.014 A 
BRANCH  42  43
ATOM     43  C   UNL A   1      37.661  32.232  31.933  1.00  0.00     0.031 A 
ATOM     44  C   UNL A   1      38.352  31.107  31.212  1.00  0.00     0.074 A 
ATOM     45  C   UNL A   1      38.107  32.633  33.138  1.00  0.00     0.049 A 
ATOM     46  N   UNL A   1      39.386  30.401  31.591  1.00  0.00    -0.248 NA
ATOM     47  C   UNL A   1      37.813  30.722  29.899  1.00  0.00     0.031 C 
ATOM     48  C   UNL A   1      37.515  33.717  33.924  1.00  0.00     0.029 A 
ATOM     49  N   UNL A   1      39.163  32.205  33.902  1.00  0.00    -0.354 N 
ATOM     50  C   UNL A   1      39.621  29.487  30.570  1.00  0.00     0.074 A 
ATOM     51  C   UNL A   1      38.591  29.697  29.577  1.00  0.00     0.031 C 
ATOM     52  C   UNL A   1      38.247  33.907  35.028  1.00  0.00     0.029 A 
ATOM     53  C   UNL A   1      39.317  32.912  35.071  1.00  0.00     0.049 A 
ATOM     54  H   UNL A   1      39.754  31.463  33.639  1.00  0.00     0.167 HD
ATOM     55  C   UNL A   1      40.615  28.573  30.463  1.00  0.00     0.034 A 
ATOM     56  C   UNL A   1      40.207  32.775  36.075  1.00  0.00     0.034 A 
ATOM     57  C   UNL A   1      41.630  28.371  31.467  1.00  0.00     0.049 A 
ATOM     58  C   UNL A   1      41.277  31.723  35.959  1.00  0.00     0.074 A 
ATOM     59  C   UNL A   1      42.680  27.470  31.451  1.00  0.00     0.029 A 
ATOM     60  N   UNL A   1      41.727  29.075  32.659  1.00  0.00    -0.354 N 
ATOM     61  N   UNL A   1      41.503  30.888  34.971  1.00  0.00    -0.248 NA
ATOM     62  C   UNL A   1      42.213  31.590  37.082  1.00  0.00     0.031 C 
ATOM     63  C   UNL A   1      43.375  27.589  32.656  1.00  0.00     0.029 A 
ATOM     64  C   UNL A   1      42.805  28.613  33.397  1.00  0.00     0.049 A 
ATOM     65  H   UNL A   1      41.119  29.796  32.940  1.00  0.00     0.167 HD
ATOM     66  C   UNL A   1      42.609  30.134  35.351  1.00  0.00     0.074 A 
ATOM     67  C   UNL A   1      43.026  30.637  36.644  1.00  0.00     0.031 C 
ATOM     68  C   UNL A   1      43.216  29.116  34.689  1.00  0.00     0.034 A 
BRANCH  55  69
ATOM     69  C   UNL A   1      40.671  27.720  29.217  1.00  0.00     0.023 A 
ATOM     70  C   UNL A   1      41.577  28.028  28.184  1.00  0.00     0.031 A 
ATOM     71  C   UNL A   1      39.764  26.664  29.010  1.00  0.00     0.131 A 
ATOM     72  C   UNL A   1      41.543  27.302  26.987  1.00  0.00     0.055 A 
ATOM     73  C   UNL A   1      39.760  25.919  27.830  1.00  0.00     0.041 A 
ATOM     74  F   UNL A   1      38.880  26.329  29.964  1.00  0.00    -0.206 F 
ATOM     75  C   UNL A   1      40.645  26.244  26.808  1.00  0.00     0.022 A 
BRANCH  72  76
ATOM     76  S   UNL A   1      42.618  27.733  25.592  1.00  0.00     0.124 S 
ATOM     77  O   UNL A   1      42.552  26.521  24.779  1.00  0.00    -0.237 OA
ATOM     78  O   UNL A   1      41.940  28.899  25.031  1.00  0.00    -0.237 OA
ATOM     79  O   UNL A   1      43.911  27.995  26.215  1.00  0.00    -0.744 OA
ENDBRANCH  72  76
ENDBRANCH  55  69
BRANCH  56  80
ATOM     80  C   UNL A   1      40.123  33.709  37.234  1.00  0.00     0.023 A 
ATOM     81  C   UNL A   1      40.966  34.835  37.310  1.00  0.00     0.031 A 
ATOM     82  C   UNL A   1      39.327  33.403  38.349  1.00  0.00     0.131 A 
ATOM     83  C   UNL A   1      41.068  35.547  38.510  1.00  0.00     0.055 A 
ATOM     84  C   UNL A   1      39.372  34.168  39.516  1.00  0.00     0.041 A 
ATOM     85  F   UNL A   1      38.517  32.333  38.329  1.00  0.00    -0.206 F 
ATOM     86  C   UNL A   1      40.264  35.233  39.608  1.00  0.00     0.022 A 
BRANCH  83  87
ATOM     87  S   UNL A   1      42.367  36.796  38.737  1.00  0.00     0.124 S 
ATOM     88  O   UNL A   1      43.278  36.125  39.657  1.00  0.00    -0.237 OA
ATOM     89  O   UNL A   1      42.856  36.962  37.370  1.00  0.00    -0.237 OA
ATOM     90  O   UNL A   1      41.650  37.943  39.283  1.00  0.00    -0.744 OA
ENDBRANCH  83  87
ENDBRANCH  56  80
BRANCH  68  91
ATOM     91  C   UNL A   1      44.402  28.442  35.337  1.00  0.00     0.023 A 
ATOM     92  C   UNL A   1      44.200  27.455  36.320  1.00  0.00     0.031 A 
ATOM     93  C   UNL A   1      45.715  28.885  35.098  1.00  0.00     0.131 A 
ATOM     94  C   UNL A   1      45.289  26.975  37.059  1.00  0.00     0.055 A 
ATOM     95  C   UNL A   1      46.802  28.368  35.805  1.00  0.00     0.041 A 
ATOM     96  F   UNL A   1      45.957  29.832  34.178  1.00  0.00    -0.206 F 
ATOM     97  C   UNL A   1      46.589  27.420  36.801  1.00  0.00     0.022 A 
BRANCH  94  98
ATOM     98  S   UNL A   1      45.047  25.824  38.441  1.00  0.00     0.124 S 
ATOM     99  O   UNL A   1      44.741  24.577  37.744  1.00  0.00    -0.237 OA
ATOM    100  O   UNL A   1      46.346  25.866  39.105  1.00  0.00    -0.237 OA
ATOM    101  O   UNL A   1      43.938  26.404  39.193  1.00  0.00    -0.744 OA
ENDBRANCH  94  98
ENDBRANCH  68  91
ENDBRANCH  42  43
ENDBRANCH  34  37
ENDBRANCH  32  33
ENDBRANCH  31  32
ENDBRANCH   1  31
TORSDOF 18
ENDMDL
MODEL 3
REMARK VINA RESULT:     -11.7      2.073      4.175
REMARK SMILES Cn1c(=O)c(=O)n(C)c2cc(S(=O)(=O)N3CCC[C@H]3C(=O)NCCCCCCNC(=O)c3ccc(-c4c5nc(c(-c6cc(S(=O)(=O)[O-])ccc6F)c6ccc([nH]6)c(-c6cc(S(=O)(=O)[O-])ccc6F)c6nc(c(-c7cc(S(=O)(=O)[O-])ccc7F)c7ccc4[nH]7)C=C6)C=C5)cc3)ccc21
REMARK SMILES IDX 26 1 25 2 24 3 23 4 22 5 20 6 21 7 19 9 15 10 16 11 17 12
REMARK SMILES IDX 18 13 12 14 13 15 14 16 11 17 1 18 2 19 3 20 97 21 4 22 5 23
REMARK SMILES IDX 9 24 96 25 6 26 7 27 10 28 95 29 8 30 27 31 28 32 29 33
REMARK SMILES IDX 30 34 31 36 32 37 33 38 94 39 34 40 93 41 35 42 36 43 37 44
REMARK SMILES IDX 87 45 38 46 92 47 86 48 88 49 39 50 91 51 85 52 84 53 40 55
REMARK SMILES IDX 72 56 52 57 71 58 53 59 56 60 70 61 89 62 54 63 55 64 69 66
REMARK SMILES IDX 90 67 57 68 41 69 42 70 50 71 43 72 49 73 51 74 48 75 44 76
REMARK SMILES IDX 45 77 46 78 47 79 73 80 74 81 82 82 75 83 81 84 83 85 80 86
REMARK SMILES IDX 76 87 77 88 78 89 79 90 58 91 59 92 67 93 60 94 66 95 68 96
REMARK SMILES IDX 65 97 61 98 62 99 63 100 64 101
REMARK H PARENT 22 8 29 35 88 54 56 65
REMARK Flexibility Score: inf
ROOT
ATOM      1  C   UNL A   1      31.557  29.841  26.841  1.00  0.00     0.002 C 
ENDROOT
BRANCH   1   2
ATOM      2  C   UNL A   1      32.421  28.880  26.016  1.00  0.00     0.002 C 
BRANCH   2   3
ATOM      3  C   UNL A   1      33.054  27.738  26.815  1.00  0.00     0.021 C 
BRANCH   3   4
ATOM      4  C   UNL A   1      33.066  26.406  26.065  1.00  0.00     0.116 C 
BRANCH   4   5
ATOM      5  N   UNL A   1      34.421  25.885  25.936  1.00  0.00    -0.355 N 
ATOM      6  C   UNL A   1      34.828  24.585  25.736  1.00  0.00     0.238 C 
ATOM      7  O   UNL A   1      36.030  24.330  25.753  1.00  0.00    -0.273 OA
ATOM      8  H   UNL A   1      35.141  26.553  26.000  1.00  0.00     0.163 HD
BRANCH   6   9
ATOM      9  C   UNL A   1      33.741  23.539  25.516  1.00  0.00     0.162 C 
ATOM     10  N   UNL A   1      34.021  22.513  24.487  1.00  0.00    -0.185 NA
ATOM     11  C   UNL A   1      34.259  21.220  25.142  1.00  0.00     0.103 C 
ATOM     12  C   UNL A   1      33.394  21.283  26.382  1.00  0.00     0.019 C 
ATOM     13  C   UNL A   1      33.477  22.740  26.804  1.00  0.00     0.032 C 
BRANCH  10  14
ATOM     14  S   UNL A   1      33.226  22.582  23.007  1.00  0.00     0.243 S 
ATOM     15  O   UNL A   1      32.458  21.368  22.876  1.00  0.00    -0.207 OA
ATOM     16  O   UNL A   1      34.188  22.981  21.996  1.00  0.00    -0.207 OA
BRANCH  14  17
ATOM     17  C   UNL A   1      32.039  23.928  23.096  1.00  0.00     0.084 A 
ATOM     18  C   UNL A   1      27.995  26.977  23.876  1.00  0.00     0.154 C 
ATOM     19  N   UNL A   1      29.361  27.204  23.419  1.00  0.00    -0.305 N 
ATOM     20  C   UNL A   1      29.724  28.500  23.066  1.00  0.00     0.316 A 
ATOM     21  C   UNL A   1      30.275  26.122  23.324  1.00  0.00     0.068 A 
ATOM     22  O   UNL A   1      28.955  29.457  23.096  1.00  0.00    -0.263 OA
ATOM     23  C   UNL A   1      31.172  28.737  22.620  1.00  0.00     0.316 A 
ATOM     24  C   UNL A   1      31.571  26.315  22.811  1.00  0.00     0.069 A 
ATOM     25  C   UNL A   1      29.902  24.844  23.752  1.00  0.00     0.030 A 
ATOM     26  O   UNL A   1      31.537  29.891  22.400  1.00  0.00    -0.263 OA
ATOM     27  N   UNL A   1      32.008  27.628  22.483  1.00  0.00    -0.305 N 
ATOM     28  C   UNL A   1      32.432  25.204  22.669  1.00  0.00     0.050 A 
ATOM     29  C   UNL A   1      30.783  23.769  23.666  1.00  0.00     0.024 A 
ATOM     30  C   UNL A   1      33.379  27.864  22.060  1.00  0.00     0.154 C 
ENDBRANCH  14  17
ENDBRANCH  10  14
ENDBRANCH   6   9
ENDBRANCH   4   5
ENDBRANCH   3   4
ENDBRANCH   2   3
ENDBRANCH   1   2
BRANCH   1  31
ATOM     31  C   UNL A   1      31.674  31.319  26.460  1.00  0.00     0.021 C 
BRANCH  31  32
ATOM     32  C   UNL A   1      32.886  32.034  27.047  1.00  0.00     0.116 C 
BRANCH  32  33
ATOM     33  N   UNL A   1      32.603  33.425  27.373  1.00  0.00    -0.352 N 
ATOM     34  C   UNL A   1      33.166  34.217  28.348  1.00  0.00     0.251 C 
ATOM     35  H   UNL A   1      31.912  33.857  26.821  1.00  0.00     0.163 HD
ATOM     36  O   UNL A   1      32.678  35.312  28.607  1.00  0.00    -0.269 OA
BRANCH  34  37
ATOM     37  C   UNL A   1      34.340  33.718  29.094  1.00  0.00     0.039 A 
ATOM     38  C   UNL A   1      35.624  34.139  28.747  1.00  0.00     0.014 A 
ATOM     39  C   UNL A   1      34.154  32.787  30.120  1.00  0.00     0.014 A 
ATOM     40  C   UNL A   1      36.729  33.505  29.306  1.00  0.00     0.010 A 
ATOM     41  C   UNL A   1      35.268  32.213  30.741  1.00  0.00     0.010 A 
ATOM     42  C   UNL A   1      36.564  32.529  30.303  1.00  0.00    -0.014 A 
BRANCH  42  43
ATOM     43  C   UNL A   1      37.763  31.860  30.871  1.00  0.00     0.031 A 
ATOM     44  C   UNL A   1      38.208  32.136  32.282  1.00  0.00     0.074 A 
ATOM     45  C   UNL A   1      38.417  30.950  30.125  1.00  0.00     0.049 A 
ATOM     46  N   UNL A   1      39.197  31.602  32.950  1.00  0.00    -0.248 NA
ATOM     47  C   UNL A   1      37.447  33.142  33.039  1.00  0.00     0.031 C 
ATOM     48  C   UNL A   1      38.069  30.601  28.748  1.00  0.00     0.029 A 
ATOM     49  N   UNL A   1      39.485  30.138  30.416  1.00  0.00    -0.354 N 
ATOM     50  C   UNL A   1      39.183  32.206  34.203  1.00  0.00     0.074 A 
ATOM     51  C   UNL A   1      38.116  33.182  34.184  1.00  0.00     0.031 C 
ATOM     52  C   UNL A   1      38.867  29.609  28.332  1.00  0.00     0.029 A 
ATOM     53  C   UNL A   1      39.834  29.300  29.384  1.00  0.00     0.049 A 
ATOM     54  H   UNL A   1      39.955  30.154  31.281  1.00  0.00     0.167 HD
ATOM     55  C   UNL A   1      39.975  31.954  35.274  1.00  0.00     0.034 A 
ATOM     56  C   UNL A   1      40.825  28.392  29.281  1.00  0.00     0.034 A 
ATOM     57  C   UNL A   1      41.040  30.983  35.273  1.00  0.00     0.049 A 
ATOM     58  C   UNL A   1      41.723  28.159  30.467  1.00  0.00     0.074 A 
ATOM     59  C   UNL A   1      41.898  30.655  36.307  1.00  0.00     0.029 A 
ATOM     60  N   UNL A   1      41.394  30.186  34.193  1.00  0.00    -0.354 N 
ATOM     61  N   UNL A   1      41.675  28.717  31.655  1.00  0.00    -0.248 NA
ATOM     62  C   UNL A   1      42.804  27.179  30.308  1.00  0.00     0.031 C 
ATOM     63  C   UNL A   1      42.805  29.704  35.837  1.00  0.00     0.029 A 
ATOM     64  C   UNL A   1      42.472  29.382  34.530  1.00  0.00     0.049 A 
ATOM     65  H   UNL A   1      40.946  30.190  33.317  1.00  0.00     0.167 HD
ATOM     66  C   UNL A   1      42.715  28.152  32.386  1.00  0.00     0.074 A 
ATOM     67  C   UNL A   1      43.353  27.184  31.517  1.00  0.00     0.031 C 
ATOM     68  C   UNL A   1      43.106  28.419  33.658  1.00  0.00     0.034 A 
BRANCH  55  69
ATOM     69  C   UNL A   1      39.722  32.729  36.546  1.00  0.00     0.023 A 
ATOM     70  C   UNL A   1      38.794  32.257  37.493  1.00  0.00     0.031 A 
ATOM     71  C   UNL A   1      40.327  33.978  36.776  1.00  0.00     0.131 A 
ATOM     72  C   UNL A   1      38.483  33.038  38.614  1.00  0.00     0.055 A 
ATOM     73  C   UNL A   1      40.043  34.734  37.913  1.00  0.00     0.041 A 
ATOM     74  F   UNL A   1      41.221  34.473  35.904  1.00  0.00    -0.206 F 
ATOM     75  C   UNL A   1      39.109  34.270  38.833  1.00  0.00     0.022 A 
BRANCH  72  76
ATOM     76  S   UNL A   1      37.215  32.519  39.802  1.00  0.00     0.124 S 
ATOM     77  O   UNL A   1      36.048  32.355  38.939  1.00  0.00    -0.237 OA
ATOM     78  O   UNL A   1      37.779  31.279  40.330  1.00  0.00    -0.237 OA
ATOM     79  O   UNL A   1      37.142  33.629  40.745  1.00  0.00    -0.744 OA
ENDBRANCH  72  76
ENDBRANCH  55  69
BRANCH  56  80
ATOM     80  C   UNL A   1      40.955  27.620  28.012  1.00  0.00     0.023 A 
ATOM     81  C   UNL A   1      40.584  26.263  27.958  1.00  0.00     0.031 A 
ATOM     82  C   UNL A   1      41.600  28.174  26.895  1.00  0.00     0.131 A 
ATOM     83  C   UNL A   1      40.955  25.484  26.856  1.00  0.00     0.055 A 
ATOM     84  C   UNL A   1      41.893  27.412  25.763  1.00  0.00     0.041 A 
ATOM     85  F   UNL A   1      41.985  29.460  26.905  1.00  0.00    -0.206 F 
ATOM     86  C   UNL A   1      41.591  26.053  25.750  1.00  0.00     0.022 A 
BRANCH  83  87
ATOM     87  S   UNL A   1      40.772  23.678  26.896  1.00  0.00     0.124 S 
ATOM     88  O   UNL A   1      41.732  23.251  25.884  1.00  0.00    -0.237 OA
ATOM     89  O   UNL A   1      41.136  23.377  28.279  1.00  0.00    -0.237 OA
ATOM     90  O   UNL A   1      39.368  23.466  26.564  1.00  0.00    -0.744 OA
ENDBRANCH  83  87
ENDBRANCH  56  80
BRANCH  68  91
ATOM     91  C   UNL A   1      44.295  27.672  34.217  1.00  0.00     0.023 A 
ATOM     92  C   UNL A   1      44.100  26.502  34.974  1.00  0.00     0.031 A 
ATOM     93  C   UNL A   1      45.594  28.202  34.132  1.00  0.00     0.131 A 
ATOM     94  C   UNL A   1      45.179  25.925  35.655  1.00  0.00     0.055 A 
ATOM     95  C   UNL A   1      46.675  27.595  34.774  1.00  0.00     0.041 A 
ATOM     96  F   UNL A   1      45.830  29.321  33.429  1.00  0.00    -0.206 F 
ATOM     97  C   UNL A   1      46.467  26.460  35.551  1.00  0.00     0.022 A 
BRANCH  94  98
ATOM     98  S   UNL A   1      44.936  24.513  36.769  1.00  0.00     0.124 S 
ATOM     99  O   UNL A   1      46.254  24.386  37.386  1.00  0.00    -0.237 OA
ATOM    100  O   UNL A   1      43.877  24.998  37.650  1.00  0.00    -0.237 OA
ATOM    101  O   UNL A   1      44.560  23.421  35.877  1.00  0.00    -0.744 OA
ENDBRANCH  94  98
ENDBRANCH  68  91
ENDBRANCH  42  43
ENDBRANCH  34  37
ENDBRANCH  32  33
ENDBRANCH  31  32
ENDBRANCH   1  31
TORSDOF 18
ENDMDL
