MODEL 1
REMARK VINA RESULT:     -10.8      0.000      0.000
REMARK SMILES O=C(Cc1ccn(C(F)F)c(=O)c1)NCCCCCCNC(=O)c1ccc(-c2c3nc(c(-c4cc(S(=O)(=O)[O-])ccc4F)c4ccc([nH]4)c(-c4cc(S(=O)(=O)[O-])ccc4F)c4nc(c(-c5cc(S(=O)(=O)[O-])ccc5F)c5ccc2[nH]5)C=C4)C=C3)cc1
REMARK SMILES IDX 18 1 17 2 16 3 15 4 14 5 1 6 2 7 3 9 4 10 5 11 13 12 6 13
REMARK SMILES IDX 11 14 7 15 12 16 8 17 9 18 10 19 19 20 20 21 21 22 22 23
REMARK SMILES IDX 23 25 24 26 25 27 86 28 26 29 85 30 27 31 28 32 29 33 79 34
REMARK SMILES IDX 30 35 84 36 78 37 80 38 31 39 83 40 77 41 76 42 32 44 64 45
REMARK SMILES IDX 44 46 63 47 45 48 48 49 62 50 81 51 46 52 47 53 61 55 82 56
REMARK SMILES IDX 49 57 33 58 34 59 42 60 35 61 41 62 43 63 40 64 36 65 37 66
REMARK SMILES IDX 38 67 39 68 65 69 66 70 74 71 67 72 73 73 75 74 72 75 68 76
REMARK SMILES IDX 69 77 70 78 71 79 50 80 51 81 59 82 52 83 58 84 60 85 57 86
REMARK SMILES IDX 53 87 54 88 55 89 56 90
REMARK H PARENT 14 8 21 24 80 43 48 54
REMARK Flexibility Score: inf
ROOT
ATOM      1  C   UNL A   1      36.856  20.707  24.691  1.00  0.00     0.002 C 
ENDROOT
BRANCH   1   2
ATOM      2  C   UNL A   1      37.289  22.170  24.805  1.00  0.00     0.002 C 
BRANCH   2   3
ATOM      3  C   UNL A   1      36.579  23.156  23.866  1.00  0.00     0.021 C 
BRANCH   3   4
ATOM      4  C   UNL A   1      35.519  24.035  24.524  1.00  0.00     0.116 C 
BRANCH   4   5
ATOM      5  N   UNL A   1      34.288  23.313  24.772  1.00  0.00    -0.356 N 
ATOM      6  O   UNL A   1      33.715  23.052  22.559  1.00  0.00    -0.275 OA
ATOM      7  C   UNL A   1      33.508  22.825  23.746  1.00  0.00     0.224 C 
ATOM      8  H   UNL A   1      33.999  23.168  25.702  1.00  0.00     0.163 HD
BRANCH   7   9
ATOM      9  C   UNL A   1      32.362  21.936  24.218  1.00  0.00     0.135 C 
BRANCH   9  10
ATOM     10  C   UNL A   1      32.605  20.452  24.052  1.00  0.00    -0.032 A 
ATOM     11  C   UNL A   1      33.334  19.801  25.127  1.00  0.00     0.022 A 
ATOM     12  C   UNL A   1      32.217  19.708  23.000  1.00  0.00     0.076 A 
ATOM     13  C   UNL A   1      33.624  18.496  25.064  1.00  0.00     0.095 A 
ATOM     14  C   UNL A   1      32.569  18.263  22.894  1.00  0.00     0.255 A 
ATOM     15  N   UNL A   1      33.253  17.732  23.973  1.00  0.00    -0.258 N 
ATOM     16  O   UNL A   1      32.255  17.657  21.875  1.00  0.00    -0.269 OA
BRANCH  15  17
ATOM     17  C   UNL A   1      33.621  16.344  23.888  1.00  0.00     0.451 C 
ATOM     18  F   UNL A   1      34.866  16.124  24.375  1.00  0.00    -0.185 F 
ATOM     19  F   UNL A   1      32.753  15.572  24.586  1.00  0.00    -0.185 F 
ENDBRANCH  15  17
ENDBRANCH   9  10
ENDBRANCH   7   9
ENDBRANCH   4   5
ENDBRANCH   3   4
ENDBRANCH   2   3
ENDBRANCH   1   2
BRANCH   1  20
ATOM     20  C   UNL A   1      37.974  19.676  24.845  1.00  0.00     0.021 C 
BRANCH  20  21
ATOM     21  C   UNL A   1      38.871  19.860  26.063  1.00  0.00     0.116 C 
BRANCH  21  22
ATOM     22  N   UNL A   1      40.171  19.216  25.930  1.00  0.00    -0.352 N 
ATOM     23  C   UNL A   1      41.423  19.758  26.128  1.00  0.00     0.251 C 
ATOM     24  H   UNL A   1      40.152  18.269  25.665  1.00  0.00     0.163 HD
ATOM     25  O   UNL A   1      42.428  19.100  25.873  1.00  0.00    -0.269 OA
BRANCH  23  26
ATOM     26  C   UNL A   1      41.539  21.156  26.600  1.00  0.00     0.039 A 
ATOM     27  C   UNL A   1      41.229  22.218  25.747  1.00  0.00     0.014 A 
ATOM     28  C   UNL A   1      42.033  21.406  27.883  1.00  0.00     0.014 A 
ATOM     29  C   UNL A   1      41.591  23.512  26.104  1.00  0.00     0.010 A 
ATOM     30  C   UNL A   1      42.313  22.720  28.273  1.00  0.00     0.010 A 
ATOM     31  C   UNL A   1      42.153  23.778  27.365  1.00  0.00    -0.014 A 
BRANCH  31  32
ATOM     32  C   UNL A   1      42.579  25.165  27.700  1.00  0.00     0.031 A 
ATOM     33  C   UNL A   1      43.946  25.668  27.316  1.00  0.00     0.074 A 
ATOM     34  C   UNL A   1      41.704  25.993  28.304  1.00  0.00     0.049 A 
ATOM     35  N   UNL A   1      44.467  26.855  27.500  1.00  0.00    -0.248 NA
ATOM     36  C   UNL A   1      44.849  24.720  26.643  1.00  0.00     0.031 C 
ATOM     37  C   UNL A   1      40.350  25.619  28.714  1.00  0.00     0.029 A 
ATOM     38  N   UNL A   1      41.805  27.316  28.658  1.00  0.00    -0.354 N 
ATOM     39  C   UNL A   1      45.757  26.794  26.983  1.00  0.00     0.074 A 
ATOM     40  C   UNL A   1      45.955  25.441  26.512  1.00  0.00     0.031 C 
ATOM     41  C   UNL A   1      39.729  26.696  29.212  1.00  0.00     0.029 A 
ATOM     42  C   UNL A   1      40.660  27.822  29.228  1.00  0.00     0.049 A 
ATOM     43  H   UNL A   1      42.619  27.851  28.517  1.00  0.00     0.167 HD
ATOM     44  C   UNL A   1      46.682  27.779  26.895  1.00  0.00     0.034 A 
ATOM     45  C   UNL A   1      40.386  29.047  29.723  1.00  0.00     0.034 A 
ATOM     46  C   UNL A   1      46.461  29.130  27.348  1.00  0.00     0.049 A 
ATOM     47  C   UNL A   1      41.444  30.117  29.642  1.00  0.00     0.074 A 
ATOM     48  C   UNL A   1      47.328  30.207  27.272  1.00  0.00     0.029 A 
ATOM     49  N   UNL A   1      45.302  29.595  27.953  1.00  0.00    -0.354 N 
ATOM     50  N   UNL A   1      42.641  30.053  29.109  1.00  0.00    -0.248 NA
ATOM     51  C   UNL A   1      41.120  31.426  30.226  1.00  0.00     0.031 C 
ATOM     52  C   UNL A   1      46.721  31.301  27.888  1.00  0.00     0.029 A 
ATOM     53  C   UNL A   1      45.444  30.934  28.280  1.00  0.00     0.049 A 
ATOM     54  H   UNL A   1      44.498  29.053  28.123  1.00  0.00     0.167 HD
ATOM     55  C   UNL A   1      43.204  31.314  29.275  1.00  0.00     0.074 A 
ATOM     56  C   UNL A   1      42.207  32.131  29.934  1.00  0.00     0.031 C 
ATOM     57  C   UNL A   1      44.440  31.750  28.922  1.00  0.00     0.034 A 
BRANCH  44  58
ATOM     58  C   UNL A   1      48.024  27.467  26.275  1.00  0.00     0.023 A 
ATOM     59  C   UNL A   1      48.211  27.620  24.887  1.00  0.00     0.031 A 
ATOM     60  C   UNL A   1      49.062  26.886  27.024  1.00  0.00     0.131 A 
ATOM     61  C   UNL A   1      49.390  27.162  24.287  1.00  0.00     0.055 A 
ATOM     62  C   UNL A   1      50.255  26.471  26.427  1.00  0.00     0.041 A 
ATOM     63  F   UNL A   1      48.934  26.715  28.349  1.00  0.00    -0.206 F 
ATOM     64  C   UNL A   1      50.416  26.595  25.050  1.00  0.00     0.022 A 
BRANCH  61  65
ATOM     65  S   UNL A   1      49.611  27.214  22.488  1.00  0.00     0.124 S 
ATOM     66  O   UNL A   1      51.042  26.942  22.353  1.00  0.00    -0.237 OA
ATOM     67  O   UNL A   1      48.729  26.141  22.039  1.00  0.00    -0.237 OA
ATOM     68  O   UNL A   1      49.200  28.565  22.122  1.00  0.00    -0.744 OA
ENDBRANCH  61  65
ENDBRANCH  44  58
BRANCH  45  69
ATOM     69  C   UNL A   1      39.032  29.313  30.291  1.00  0.00     0.023 A 
ATOM     70  C   UNL A   1      38.071  30.037  29.561  1.00  0.00     0.031 A 
ATOM     71  C   UNL A   1      38.721  28.954  31.614  1.00  0.00     0.131 A 
ATOM     72  C   UNL A   1      36.887  30.451  30.183  1.00  0.00     0.055 A 
ATOM     73  C   UNL A   1      37.504  29.300  32.204  1.00  0.00     0.041 A 
ATOM     74  F   UNL A   1      39.608  28.273  32.356  1.00  0.00    -0.206 F 
ATOM     75  C   UNL A   1      36.589  30.070  31.494  1.00  0.00     0.022 A 
BRANCH  72  76
ATOM     76  S   UNL A   1      35.768  31.622  29.363  1.00  0.00     0.124 S 
ATOM     77  O   UNL A   1      35.112  30.774  28.373  1.00  0.00    -0.237 OA
ATOM     78  O   UNL A   1      34.928  32.059  30.476  1.00  0.00    -0.237 OA
ATOM     79  O   UNL A   1      36.666  32.640  28.830  1.00  0.00    -0.744 OA
ENDBRANCH  72  76
ENDBRANCH  45  69
BRANCH  57  80
ATOM     80  C   UNL A   1      44.818  33.182  29.221  1.00  0.00     0.023 A 
ATOM     81  C   UNL A   1      44.627  34.179  28.243  1.00  0.00     0.031 A 
ATOM     82  C   UNL A   1      45.510  33.525  30.394  1.00  0.00     0.131 A 
ATOM     83  C   UNL A   1      45.167  35.457  28.436  1.00  0.00     0.055 A 
ATOM     84  C   UNL A   1      46.000  34.815  30.604  1.00  0.00     0.041 A 
ATOM     85  F   UNL A   1      45.726  32.609  31.352  1.00  0.00    -0.206 F 
ATOM     86  C   UNL A   1      45.844  35.783  29.615  1.00  0.00     0.022 A 
BRANCH  83  87
ATOM     87  S   UNL A   1      45.093  36.711  27.128  1.00  0.00     0.124 S 
ATOM     88  O   UNL A   1      45.511  37.916  27.841  1.00  0.00    -0.237 OA
ATOM     89  O   UNL A   1      46.056  36.198  26.156  1.00  0.00    -0.237 OA
ATOM     90  O   UNL A   1      43.699  36.695  26.700  1.00  0.00    -0.744 OA
ENDBRANCH  83  87
ENDBRANCH  57  80
ENDBRANCH  31  32
ENDBRANCH  23  26
ENDBRANCH  21  22
ENDBRANCH  20  21
ENDBRANCH   1  20
TORSDOF 18
ENDMDL
MODEL 2
REMARK VINA RESULT:     -10.3      7.144     11.864
REMARK SMILES O=C(Cc1ccn(C(F)F)c(=O)c1)NCCCCCCNC(=O)c1ccc(-c2c3nc(c(-c4cc(S(=O)(=O)[O-])ccc4F)c4ccc([nH]4)c(-c4cc(S(=O)(=O)[O-])ccc4F)c4nc(c(-c5cc(S(=O)(=O)[O-])ccc5F)c5ccc2[nH]5)C=C4)C=C3)cc1
REMARK SMILES IDX 18 1 17 2 16 3 15 4 14 5 1 6 2 7 3 9 4 10 5 11 13 12 6 13
REMARK SMILES IDX 11 14 7 15 12 16 8 17 9 18 10 19 19 20 20 21 21 22 22 23
REMARK SMILES IDX 23 25 24 26 25 27 86 28 26 29 85 30 27 31 28 32 29 33 79 34
REMARK SMILES IDX 30 35 84 36 78 37 80 38 31 39 83 40 77 41 76 42 32 44 64 45
REMARK SMILES IDX 44 46 63 47 45 48 48 49 62 50 81 51 46 52 47 53 61 55 82 56
REMARK SMILES IDX 49 57 33 58 34 59 42 60 35 61 41 62 43 63 40 64 36 65 37 66
REMARK SMILES IDX 38 67 39 68 65 69 66 70 74 71 67 72 73 73 75 74 72 75 68 76
REMARK SMILES IDX 69 77 70 78 71 79 50 80 51 81 59 82 52 83 58 84 60 85 57 86
REMARK SMILES IDX 53 87 54 88 55 89 56 90
REMARK H PARENT 14 8 21 24 80 43 48 54
REMARK Flexibility Score: inf
ROOT
ATOM      1  C   UNL A   1      34.878  30.763  27.931  1.00  0.00     0.002 C 
ENDROOT
BRANCH   1   2
ATOM      2  C   UNL A   1      34.668  29.249  27.840  1.00  0.00     0.002 C 
BRANCH   2   3
ATOM      3  C   UNL A   1      33.351  28.792  27.196  1.00  0.00     0.021 C 
BRANCH   3   4
ATOM      4  C   UNL A   1      33.463  27.584  26.270  1.00  0.00     0.116 C 
BRANCH   4   5
ATOM      5  N   UNL A   1      32.230  27.330  25.553  1.00  0.00    -0.356 N 
ATOM      6  O   UNL A   1      33.215  26.978  23.503  1.00  0.00    -0.275 OA
ATOM      7  C   UNL A   1      32.219  26.986  24.218  1.00  0.00     0.224 C 
ATOM      8  H   UNL A   1      31.374  27.408  26.033  1.00  0.00     0.163 HD
BRANCH   7   9
ATOM      9  C   UNL A   1      30.842  26.578  23.703  1.00  0.00     0.135 C 
BRANCH   9  10
ATOM     10  C   UNL A   1      29.999  27.721  23.182  1.00  0.00    -0.032 A 
ATOM     11  C   UNL A   1      30.702  28.731  22.409  1.00  0.00     0.022 A 
ATOM     12  C   UNL A   1      28.678  27.876  23.386  1.00  0.00     0.076 A 
ATOM     13  C   UNL A   1      30.052  29.797  21.926  1.00  0.00     0.095 A 
ATOM     14  C   UNL A   1      27.948  29.078  22.893  1.00  0.00     0.255 A 
ATOM     15  N   UNL A   1      28.700  29.976  22.157  1.00  0.00    -0.258 N 
ATOM     16  O   UNL A   1      26.762  29.201  23.178  1.00  0.00    -0.269 OA
BRANCH  15  17
ATOM     17  C   UNL A   1      28.024  31.155  21.684  1.00  0.00     0.451 C 
ATOM     18  F   UNL A   1      28.799  32.260  21.802  1.00  0.00    -0.185 F 
ATOM     19  F   UNL A   1      27.678  31.020  20.381  1.00  0.00    -0.185 F 
ENDBRANCH  15  17
ENDBRANCH   9  10
ENDBRANCH   7   9
ENDBRANCH   4   5
ENDBRANCH   3   4
ENDBRANCH   2   3
ENDBRANCH   1   2
BRANCH   1  20
ATOM     20  C   UNL A   1      33.604  31.607  27.903  1.00  0.00     0.021 C 
BRANCH  20  21
ATOM     21  C   UNL A   1      33.702  32.916  27.129  1.00  0.00     0.116 C 
BRANCH  21  22
ATOM     22  N   UNL A   1      32.963  34.011  27.741  1.00  0.00    -0.352 N 
ATOM     23  C   UNL A   1      33.214  34.657  28.932  1.00  0.00     0.251 C 
ATOM     24  H   UNL A   1      32.182  34.333  27.236  1.00  0.00     0.163 HD
ATOM     25  O   UNL A   1      32.427  35.500  29.355  1.00  0.00    -0.269 OA
BRANCH  23  26
ATOM     26  C   UNL A   1      34.411  34.285  29.719  1.00  0.00     0.039 A 
ATOM     27  C   UNL A   1      35.691  34.517  29.210  1.00  0.00     0.014 A 
ATOM     28  C   UNL A   1      34.250  33.631  30.943  1.00  0.00     0.014 A 
ATOM     29  C   UNL A   1      36.791  33.930  29.827  1.00  0.00     0.010 A 
ATOM     30  C   UNL A   1      35.370  33.118  31.607  1.00  0.00     0.010 A 
ATOM     31  C   UNL A   1      36.642  33.209  31.024  1.00  0.00    -0.014 A 
BRANCH  31  32
ATOM     32  C   UNL A   1      37.829  32.549  31.634  1.00  0.00     0.031 A 
ATOM     33  C   UNL A   1      38.337  32.970  32.989  1.00  0.00     0.074 A 
ATOM     34  C   UNL A   1      38.416  31.524  30.986  1.00  0.00     0.049 A 
ATOM     35  N   UNL A   1      39.335  32.481  33.681  1.00  0.00    -0.248 NA
ATOM     36  C   UNL A   1      37.641  34.084  33.653  1.00  0.00     0.031 C 
ATOM     37  C   UNL A   1      38.006  31.024  29.673  1.00  0.00     0.029 A 
ATOM     38  N   UNL A   1      39.461  30.706  31.342  1.00  0.00    -0.354 N 
ATOM     39  C   UNL A   1      39.397  33.232  34.850  1.00  0.00     0.074 A 
ATOM     40  C   UNL A   1      38.361  34.236  34.757  1.00  0.00     0.031 C 
ATOM     41  C   UNL A   1      38.749  29.955  29.359  1.00  0.00     0.029 A 
ATOM     42  C   UNL A   1      39.742  29.735  30.408  1.00  0.00     0.049 A 
ATOM     43  H   UNL A   1      39.960  30.806  32.184  1.00  0.00     0.167 HD
ATOM     44  C   UNL A   1      40.231  33.086  35.908  1.00  0.00     0.034 A 
ATOM     45  C   UNL A   1      40.696  28.781  30.386  1.00  0.00     0.034 A 
ATOM     46  C   UNL A   1      41.244  32.064  35.996  1.00  0.00     0.049 A 
ATOM     47  C   UNL A   1      41.631  28.660  31.561  1.00  0.00     0.074 A 
ATOM     48  C   UNL A   1      42.116  31.817  37.042  1.00  0.00     0.029 A 
ATOM     49  N   UNL A   1      41.522  31.123  35.015  1.00  0.00    -0.354 N 
ATOM     50  N   UNL A   1      41.645  29.350  32.676  1.00  0.00    -0.248 NA
ATOM     51  C   UNL A   1      42.679  27.633  31.481  1.00  0.00     0.031 C 
ATOM     52  C   UNL A   1      42.962  30.773  36.669  1.00  0.00     0.029 A 
ATOM     53  C   UNL A   1      42.570  30.312  35.422  1.00  0.00     0.049 A 
ATOM     54  H   UNL A   1      41.044  31.042  34.159  1.00  0.00     0.167 HD
ATOM     55  C   UNL A   1      42.688  28.830  33.437  1.00  0.00     0.074 A 
ATOM     56  C   UNL A   1      43.264  27.748  32.667  1.00  0.00     0.031 C 
ATOM     57  C   UNL A   1      43.131  29.222  34.658  1.00  0.00     0.034 A 
BRANCH  44  58
ATOM     58  C   UNL A   1      40.095  34.031  37.080  1.00  0.00     0.023 A 
ATOM     59  C   UNL A   1      41.049  35.047  37.279  1.00  0.00     0.031 A 
ATOM     60  C   UNL A   1      39.115  33.837  38.069  1.00  0.00     0.131 A 
ATOM     61  C   UNL A   1      41.026  35.804  38.457  1.00  0.00     0.055 A 
ATOM     62  C   UNL A   1      39.070  34.624  39.222  1.00  0.00     0.041 A 
ATOM     63  F   UNL A   1      38.184  32.880  37.929  1.00  0.00    -0.206 F 
ATOM     64  C   UNL A   1      40.037  35.603  39.426  1.00  0.00     0.022 A 
BRANCH  61  65
ATOM     65  S   UNL A   1      42.318  37.026  38.815  1.00  0.00     0.124 S 
ATOM     66  O   UNL A   1      41.544  38.116  39.406  1.00  0.00    -0.237 OA
ATOM     67  O   UNL A   1      43.179  36.299  39.742  1.00  0.00    -0.237 OA
ATOM     68  O   UNL A   1      42.898  37.316  37.508  1.00  0.00    -0.744 OA
ENDBRANCH  61  65
ENDBRANCH  44  58
BRANCH  45  69
ATOM     69  C   UNL A   1      40.762  27.851  29.221  1.00  0.00     0.023 A 
ATOM     70  C   UNL A   1      41.694  28.053  28.185  1.00  0.00     0.031 A 
ATOM     71  C   UNL A   1      39.818  26.821  29.065  1.00  0.00     0.131 A 
ATOM     72  C   UNL A   1      41.607  27.298  27.010  1.00  0.00     0.055 A 
ATOM     73  C   UNL A   1      39.786  26.017  27.924  1.00  0.00     0.041 A 
ATOM     74  F   UNL A   1      38.900  26.595  30.017  1.00  0.00    -0.206 F 
ATOM     75  C   UNL A   1      40.671  26.268  26.880  1.00  0.00     0.022 A 
BRANCH  72  76
ATOM     76  S   UNL A   1      42.603  27.729  25.555  1.00  0.00     0.124 S 
ATOM     77  O   UNL A   1      43.929  27.912  26.136  1.00  0.00    -0.237 OA
ATOM     78  O   UNL A   1      42.438  26.541  24.720  1.00  0.00    -0.237 OA
ATOM     79  O   UNL A   1      41.963  28.937  25.045  1.00  0.00    -0.744 OA
ENDBRANCH  72  76
ENDBRANCH  45  69
BRANCH  57  80
ATOM     80  C   UNL A   1      44.299  28.490  35.277  1.00  0.00     0.023 A 
ATOM     81  C   UNL A   1      44.069  27.477  36.229  1.00  0.00     0.031 A 
ATOM     82  C   UNL A   1      45.623  28.902  35.051  1.00  0.00     0.131 A 
ATOM     83  C   UNL A   1      45.143  26.945  36.955  1.00  0.00     0.055 A 
ATOM     84  C   UNL A   1      46.694  28.333  35.740  1.00  0.00     0.041 A 
ATOM     85  F   UNL A   1      45.893  29.871  34.161  1.00  0.00    -0.206 F 
ATOM     86  C   UNL A   1      46.455  27.361  36.709  1.00  0.00     0.022 A 
BRANCH  83  87
ATOM     87  S   UNL A   1      44.867  25.769  38.307  1.00  0.00     0.124 S 
ATOM     88  O   UNL A   1      43.973  24.796  37.684  1.00  0.00    -0.237 OA
ATOM     89  O   UNL A   1      46.220  25.288  38.577  1.00  0.00    -0.237 OA
ATOM     90  O   UNL A   1      44.267  26.577  39.363  1.00  0.00    -0.744 OA
ENDBRANCH  83  87
ENDBRANCH  57  80
ENDBRANCH  31  32
ENDBRANCH  23  26
ENDBRANCH  21  22
ENDBRANCH  20  21
ENDBRANCH   1  20
TORSDOF 18
ENDMDL
MODEL 3
REMARK VINA RESULT:     -10.1      3.376      8.656
REMARK SMILES O=C(Cc1ccn(C(F)F)c(=O)c1)NCCCCCCNC(=O)c1ccc(-c2c3nc(c(-c4cc(S(=O)(=O)[O-])ccc4F)c4ccc([nH]4)c(-c4cc(S(=O)(=O)[O-])ccc4F)c4nc(c(-c5cc(S(=O)(=O)[O-])ccc5F)c5ccc2[nH]5)C=C4)C=C3)cc1
REMARK SMILES IDX 18 1 17 2 16 3 15 4 14 5 1 6 2 7 3 9 4 10 5 11 13 12 6 13
REMARK SMILES IDX 11 14 7 15 12 16 8 17 9 18 10 19 19 20 20 21 21 22 22 23
REMARK SMILES IDX 23 25 24 26 25 27 86 28 26 29 85 30 27 31 28 32 29 33 79 34
REMARK SMILES IDX 30 35 84 36 78 37 80 38 31 39 83 40 77 41 76 42 32 44 64 45
REMARK SMILES IDX 44 46 63 47 45 48 48 49 62 50 81 51 46 52 47 53 61 55 82 56
REMARK SMILES IDX 49 57 33 58 34 59 42 60 35 61 41 62 43 63 40 64 36 65 37 66
REMARK SMILES IDX 38 67 39 68 65 69 66 70 74 71 67 72 73 73 75 74 72 75 68 76
REMARK SMILES IDX 69 77 70 78 71 79 50 80 51 81 59 82 52 83 58 84 60 85 57 86
REMARK SMILES IDX 53 87 54 88 55 89 56 90
REMARK H PARENT 14 8 21 24 80 43 48 54
REMARK Flexibility Score: inf
ROOT
ATOM      1  C   UNL A   1      37.152  21.530  25.278  1.00  0.00     0.002 C 
ENDROOT
BRANCH   1   2
ATOM      2  C   UNL A   1      35.693  21.069  25.331  1.00  0.00     0.002 C 
BRANCH   2   3
ATOM      3  C   UNL A   1      34.793  21.804  26.335  1.00  0.00     0.021 C 
BRANCH   3   4
ATOM      4  C   UNL A   1      33.385  21.234  26.487  1.00  0.00     0.116 C 
BRANCH   4   5
ATOM      5  N   UNL A   1      32.405  21.996  25.740  1.00  0.00    -0.356 N 
ATOM      6  O   UNL A   1      31.873  23.441  27.451  1.00  0.00    -0.275 OA
ATOM      7  C   UNL A   1      31.764  23.090  26.281  1.00  0.00     0.224 C 
ATOM      8  H   UNL A   1      32.189  21.723  24.820  1.00  0.00     0.163 HD
BRANCH   7   9
ATOM      9  C   UNL A   1      30.917  23.862  25.275  1.00  0.00     0.135 C 
BRANCH   9  10
ATOM     10  C   UNL A   1      31.668  24.921  24.498  1.00  0.00    -0.032 A 
ATOM     11  C   UNL A   1      31.365  26.300  24.843  1.00  0.00     0.022 A 
ATOM     12  C   UNL A   1      32.569  24.688  23.526  1.00  0.00     0.076 A 
ATOM     13  C   UNL A   1      31.957  27.312  24.196  1.00  0.00     0.095 A 
ATOM     14  C   UNL A   1      33.204  25.802  22.766  1.00  0.00     0.255 A 
ATOM     15  N   UNL A   1      32.860  27.078  23.176  1.00  0.00    -0.258 N 
ATOM     16  O   UNL A   1      33.956  25.524  21.839  1.00  0.00    -0.269 OA
BRANCH  15  17
ATOM     17  C   UNL A   1      33.446  28.172  22.448  1.00  0.00     0.451 C 
ATOM     18  F   UNL A   1      32.600  29.227  22.361  1.00  0.00    -0.185 F 
ATOM     19  F   UNL A   1      34.585  28.594  23.047  1.00  0.00    -0.185 F 
ENDBRANCH  15  17
ENDBRANCH   9  10
ENDBRANCH   7   9
ENDBRANCH   4   5
ENDBRANCH   3   4
ENDBRANCH   2   3
ENDBRANCH   1   2
BRANCH   1  20
ATOM     20  C   UNL A   1      38.192  20.414  25.189  1.00  0.00     0.021 C 
BRANCH  20  21
ATOM     21  C   UNL A   1      39.441  20.614  26.038  1.00  0.00     0.116 C 
BRANCH  21  22
ATOM     22  N   UNL A   1      40.332  19.461  26.043  1.00  0.00    -0.352 N 
ATOM     23  C   UNL A   1      41.703  19.434  26.164  1.00  0.00     0.251 C 
ATOM     24  H   UNL A   1      39.894  18.584  25.947  1.00  0.00     0.163 HD
ATOM     25  O   UNL A   1      42.314  18.376  26.047  1.00  0.00    -0.269 OA
BRANCH  23  26
ATOM     26  C   UNL A   1      42.434  20.703  26.386  1.00  0.00     0.039 A 
ATOM     27  C   UNL A   1      42.593  21.211  27.676  1.00  0.00     0.014 A 
ATOM     28  C   UNL A   1      42.899  21.426  25.284  1.00  0.00     0.014 A 
ATOM     29  C   UNL A   1      43.039  22.517  27.849  1.00  0.00     0.010 A 
ATOM     30  C   UNL A   1      43.431  22.706  25.470  1.00  0.00     0.010 A 
ATOM     31  C   UNL A   1      43.448  23.287  26.747  1.00  0.00    -0.014 A 
BRANCH  31  32
ATOM     32  C   UNL A   1      43.872  24.699  26.956  1.00  0.00     0.031 A 
ATOM     33  C   UNL A   1      42.901  25.730  27.471  1.00  0.00     0.074 A 
ATOM     34  C   UNL A   1      45.157  25.039  26.734  1.00  0.00     0.049 A 
ATOM     35  N   UNL A   1      43.111  26.993  27.741  1.00  0.00    -0.248 NA
ATOM     36  C   UNL A   1      41.517  25.291  27.710  1.00  0.00     0.031 C 
ATOM     37  C   UNL A   1      46.188  24.123  26.244  1.00  0.00     0.029 A 
ATOM     38  N   UNL A   1      45.823  26.228  26.908  1.00  0.00    -0.354 N 
ATOM     39  C   UNL A   1      41.888  27.504  28.166  1.00  0.00     0.074 A 
ATOM     40  C   UNL A   1      40.932  26.423  28.081  1.00  0.00     0.031 C 
ATOM     41  C   UNL A   1      47.364  24.764  26.209  1.00  0.00     0.029 A 
ATOM     42  C   UNL A   1      47.162  26.157  26.601  1.00  0.00     0.049 A 
ATOM     43  H   UNL A   1      45.384  27.050  27.224  1.00  0.00     0.167 HD
ATOM     44  C   UNL A   1      41.596  28.753  28.601  1.00  0.00     0.034 A 
ATOM     45  C   UNL A   1      48.123  27.105  26.617  1.00  0.00     0.034 A 
ATOM     46  C   UNL A   1      42.567  29.814  28.703  1.00  0.00     0.049 A 
ATOM     47  C   UNL A   1      47.766  28.496  27.075  1.00  0.00     0.074 A 
ATOM     48  C   UNL A   1      42.373  31.105  29.163  1.00  0.00     0.029 A 
ATOM     49  N   UNL A   1      43.905  29.715  28.348  1.00  0.00    -0.354 N 
ATOM     50  N   UNL A   1      46.615  28.947  27.516  1.00  0.00    -0.248 NA
ATOM     51  C   UNL A   1      48.831  29.507  27.042  1.00  0.00     0.031 C 
ATOM     52  C   UNL A   1      43.572  31.804  29.025  1.00  0.00     0.029 A 
ATOM     53  C   UNL A   1      44.540  30.931  28.553  1.00  0.00     0.049 A 
ATOM     54  H   UNL A   1      44.339  28.902  28.002  1.00  0.00     0.167 HD
ATOM     55  C   UNL A   1      46.823  30.286  27.830  1.00  0.00     0.074 A 
ATOM     56  C   UNL A   1      48.216  30.566  27.555  1.00  0.00     0.031 C 
ATOM     57  C   UNL A   1      45.934  31.201  28.294  1.00  0.00     0.034 A 
BRANCH  44  58
ATOM     58  C   UNL A   1      40.180  29.066  29.024  1.00  0.00     0.023 A 
ATOM     59  C   UNL A   1      39.826  29.018  30.386  1.00  0.00     0.031 A 
ATOM     60  C   UNL A   1      39.159  29.268  28.079  1.00  0.00     0.131 A 
ATOM     61  C   UNL A   1      38.481  29.129  30.761  1.00  0.00     0.055 A 
ATOM     62  C   UNL A   1      37.825  29.423  28.462  1.00  0.00     0.041 A 
ATOM     63  F   UNL A   1      39.443  29.319  26.768  1.00  0.00    -0.206 F 
ATOM     64  C   UNL A   1      37.480  29.340  29.807  1.00  0.00     0.022 A 
BRANCH  61  65
ATOM     65  S   UNL A   1      37.968  28.934  32.490  1.00  0.00     0.124 S 
ATOM     66  O   UNL A   1      36.600  29.448  32.457  1.00  0.00    -0.237 OA
ATOM     67  O   UNL A   1      38.086  27.492  32.683  1.00  0.00    -0.237 OA
ATOM     68  O   UNL A   1      38.920  29.751  33.234  1.00  0.00    -0.744 OA
ENDBRANCH  61  65
ENDBRANCH  44  58
BRANCH  45  69
ATOM     69  C   UNL A   1      49.514  26.733  26.225  1.00  0.00     0.023 A 
ATOM     70  C   UNL A   1      50.533  26.625  27.190  1.00  0.00     0.031 A 
ATOM     71  C   UNL A   1      49.871  26.599  24.872  1.00  0.00     0.131 A 
ATOM     72  C   UNL A   1      51.865  26.476  26.786  1.00  0.00     0.055 A 
ATOM     73  C   UNL A   1      51.191  26.371  24.478  1.00  0.00     0.041 A 
ATOM     74  F   UNL A   1      48.939  26.706  23.913  1.00  0.00    -0.206 F 
ATOM     75  C   UNL A   1      52.198  26.330  25.436  1.00  0.00     0.022 A 
BRANCH  72  76
ATOM     76  S   UNL A   1      53.220  26.623  27.984  1.00  0.00     0.124 S 
ATOM     77  O   UNL A   1      53.419  28.068  28.045  1.00  0.00    -0.237 OA
ATOM     78  O   UNL A   1      52.631  26.016  29.176  1.00  0.00    -0.237 OA
ATOM     79  O   UNL A   1      54.304  25.860  27.374  1.00  0.00    -0.744 OA
ENDBRANCH  72  76
ENDBRANCH  45  69
BRANCH  57  80
ATOM     80  C   UNL A   1      46.413  32.611  28.555  1.00  0.00     0.023 A 
ATOM     81  C   UNL A   1      46.564  33.512  27.482  1.00  0.00     0.031 A 
ATOM     82  C   UNL A   1      46.870  33.004  29.823  1.00  0.00     0.131 A 
ATOM     83  C   UNL A   1      47.202  34.741  27.689  1.00  0.00     0.055 A 
ATOM     84  C   UNL A   1      47.459  34.252  30.034  1.00  0.00     0.041 A 
ATOM     85  F   UNL A   1      46.759  32.177  30.876  1.00  0.00    -0.206 F 
ATOM     86  C   UNL A   1      47.642  35.120  28.961  1.00  0.00     0.022 A 
BRANCH  83  87
ATOM     87  S   UNL A   1      47.570  35.850  26.301  1.00  0.00     0.124 S 
ATOM     88  O   UNL A   1      48.797  36.501  26.753  1.00  0.00    -0.237 OA
ATOM     89  O   UNL A   1      47.735  34.912  25.193  1.00  0.00    -0.237 OA
ATOM     90  O   UNL A   1      46.400  36.717  26.221  1.00  0.00    -0.744 OA
ENDBRANCH  83  87
ENDBRANCH  57  80
ENDBRANCH  31  32
ENDBRANCH  23  26
ENDBRANCH  21  22
ENDBRANCH  20  21
ENDBRANCH   1  20
TORSDOF 18
ENDMDL
