MODEL 1
REMARK VINA RESULT:     -10.3      0.000      0.000
REMARK SMILES CC[C@@H](C)SCc1cc(F)cc(/C=C/C(=O)NCCCCCCNC(=O)c2ccc(-c3c4nc(c(-c5cc(S(=O)(=O)[O-])ccc5F)c5ccc([nH]5)c(-c5cc(S(=O)(=O)[O-])ccc5F)c5nc(c(-c6cc(S(=O)(=O)[O-])ccc6F)c6ccc3[nH]6)C=C5)C=C4)cc2)c1
REMARK SMILES IDX 19 1 18 2 17 3 15 4 16 5 14 7 13 8 12 9 7 10 8 11 90 12 9 13
REMARK SMILES IDX 10 14 11 15 6 16 5 17 3 18 4 19 2 20 1 21 20 22 21 23 22 24
REMARK SMILES IDX 23 25 24 26 25 27 26 29 27 30 28 31 89 32 29 33 88 34 30 35
REMARK SMILES IDX 31 36 32 37 82 38 33 39 87 40 81 41 83 42 34 43 86 44 80 45
REMARK SMILES IDX 79 46 35 48 67 49 47 50 66 51 48 52 51 53 65 54 84 55 49 56
REMARK SMILES IDX 50 57 64 59 85 60 52 61 36 62 37 63 45 64 38 65 44 66 46 67
REMARK SMILES IDX 43 68 39 69 40 70 41 71 42 72 68 73 69 74 77 75 70 76 76 77
REMARK SMILES IDX 78 78 75 79 71 80 72 81 73 82 74 83 53 84 54 85 62 86 55 87
REMARK SMILES IDX 61 88 63 89 60 90 56 91 57 92 58 93 59 94
REMARK H PARENT 17 6 24 28 83 47 51 58
REMARK Flexibility Score: inf
ROOT
ATOM      1  C   UNL A   1      33.277  22.397  24.234  1.00  0.00     0.021 C 
ENDROOT
BRANCH   1   2
ATOM      2  C   UNL A   1      32.140  22.596  23.232  1.00  0.00     0.116 C 
BRANCH   2   3
ATOM      3  N   UNL A   1      32.648  23.182  22.004  1.00  0.00    -0.353 N 
ATOM      4  C   UNL A   1      32.806  24.482  21.644  1.00  0.00     0.243 C 
ATOM      5  O   UNL A   1      33.318  24.766  20.565  1.00  0.00    -0.270 OA
ATOM      6  H   UNL A   1      32.923  22.529  21.320  1.00  0.00     0.163 HD
BRANCH   4   7
ATOM      7  C   UNL A   1      32.481  25.558  22.599  1.00  0.00     0.072 C 
ATOM      8  C   UNL A   1      33.374  26.196  23.373  1.00  0.00     0.014 C 
BRANCH   8   9
ATOM      9  C   UNL A   1      32.987  27.293  24.273  1.00  0.00    -0.022 A 
ATOM     10  C   UNL A   1      31.503  29.180  24.765  1.00  0.00    -0.035 A 
ATOM     11  C   UNL A   1      32.115  29.312  26.017  1.00  0.00     0.043 A 
ATOM     12  C   UNL A   1      31.941  28.157  23.903  1.00  0.00     0.013 A 
ATOM     13  C   UNL A   1      33.187  28.497  26.356  1.00  0.00     0.124 A 
ATOM     14  F   UNL A   1      33.807  28.679  27.529  1.00  0.00    -0.207 F 
ATOM     15  C   UNL A   1      33.635  27.505  25.493  1.00  0.00     0.047 A 
BRANCH  10  16
ATOM     16  C   UNL A   1      30.400  30.121  24.353  1.00  0.00     0.105 C 
BRANCH  16  17
ATOM     17  S   UNL A   1      29.791  29.869  22.652  1.00  0.00    -0.154 SA
BRANCH  17  18
ATOM     18  C   UNL A   1      27.956  30.033  22.788  1.00  0.00     0.043 C 
ATOM     19  C   UNL A   1      27.568  31.273  23.592  1.00  0.00     0.019 C 
BRANCH  18  20
ATOM     20  C   UNL A   1      27.252  28.735  23.213  1.00  0.00     0.011 C 
ATOM     21  C   UNL A   1      28.196  27.552  23.396  1.00  0.00     0.005 C 
ENDBRANCH  18  20
ENDBRANCH  17  18
ENDBRANCH  16  17
ENDBRANCH  10  16
ENDBRANCH   8   9
ENDBRANCH   4   7
ENDBRANCH   2   3
ENDBRANCH   1   2
BRANCH   1  22
ATOM     22  C   UNL A   1      33.139  23.254  25.499  1.00  0.00     0.002 C 
BRANCH  22  23
ATOM     23  C   UNL A   1      34.462  23.771  26.077  1.00  0.00     0.002 C 
BRANCH  23  24
ATOM     24  C   UNL A   1      35.605  22.753  26.096  1.00  0.00     0.021 C 
BRANCH  24  25
ATOM     25  C   UNL A   1      36.978  23.330  25.760  1.00  0.00     0.116 C 
BRANCH  25  26
ATOM     26  N   UNL A   1      38.042  22.381  26.038  1.00  0.00    -0.352 N 
ATOM     27  C   UNL A   1      39.334  22.617  26.433  1.00  0.00     0.251 C 
ATOM     28  H   UNL A   1      37.802  21.433  25.926  1.00  0.00     0.163 HD
ATOM     29  O   UNL A   1      40.152  21.699  26.397  1.00  0.00    -0.269 OA
BRANCH  27  30
ATOM     30  C   UNL A   1      39.744  23.963  26.887  1.00  0.00     0.039 A 
ATOM     31  C   UNL A   1      39.795  24.225  28.258  1.00  0.00     0.014 A 
ATOM     32  C   UNL A   1      40.035  24.978  25.969  1.00  0.00     0.014 A 
ATOM     33  C   UNL A   1      40.171  25.493  28.709  1.00  0.00     0.010 A 
ATOM     34  C   UNL A   1      40.470  26.222  26.421  1.00  0.00     0.010 A 
ATOM     35  C   UNL A   1      40.528  26.497  27.795  1.00  0.00    -0.014 A 
BRANCH  35  36
ATOM     36  C   UNL A   1      40.926  27.847  28.266  1.00  0.00     0.031 A 
ATOM     37  C   UNL A   1      42.375  28.253  28.250  1.00  0.00     0.074 A 
ATOM     38  C   UNL A   1      39.988  28.699  28.726  1.00  0.00     0.049 A 
ATOM     39  N   UNL A   1      42.924  29.370  28.654  1.00  0.00    -0.248 NA
ATOM     40  C   UNL A   1      43.335  27.266  27.731  1.00  0.00     0.031 C 
ATOM     41  C   UNL A   1      38.555  28.409  28.812  1.00  0.00     0.029 A 
ATOM     42  N   UNL A   1      40.096  29.983  29.200  1.00  0.00    -0.354 N 
ATOM     43  C   UNL A   1      44.291  29.216  28.447  1.00  0.00     0.074 A 
ATOM     44  C   UNL A   1      44.492  27.880  27.933  1.00  0.00     0.031 C 
ATOM     45  C   UNL A   1      37.915  29.497  29.269  1.00  0.00     0.029 A 
ATOM     46  C   UNL A   1      38.891  30.546  29.548  1.00  0.00     0.049 A 
ATOM     47  H   UNL A   1      40.956  30.455  29.282  1.00  0.00     0.167 HD
ATOM     48  C   UNL A   1      45.282  30.118  28.642  1.00  0.00     0.034 A 
ATOM     49  C   UNL A   1      38.604  31.768  30.039  1.00  0.00     0.034 A 
ATOM     50  C   UNL A   1      45.067  31.459  29.121  1.00  0.00     0.049 A 
ATOM     51  C   UNL A   1      39.726  32.743  30.277  1.00  0.00     0.074 A 
ATOM     52  C   UNL A   1      45.996  32.469  29.295  1.00  0.00     0.029 A 
ATOM     53  N   UNL A   1      43.837  31.975  29.503  1.00  0.00    -0.354 N 
ATOM     54  N   UNL A   1      41.011  32.584  30.063  1.00  0.00    -0.248 NA
ATOM     55  C   UNL A   1      39.363  34.057  30.827  1.00  0.00     0.031 C 
ATOM     56  C   UNL A   1      45.337  33.579  29.832  1.00  0.00     0.029 A 
ATOM     57  C   UNL A   1      43.988  33.280  29.939  1.00  0.00     0.049 A 
ATOM     58  H   UNL A   1      42.982  31.486  29.468  1.00  0.00     0.167 HD
ATOM     59  C   UNL A   1      41.608  33.782  30.439  1.00  0.00     0.074 A 
ATOM     60  C   UNL A   1      40.545  34.656  30.891  1.00  0.00     0.031 C 
ATOM     61  C   UNL A   1      42.918  34.129  30.405  1.00  0.00     0.034 A 
BRANCH  48  62
ATOM     62  C   UNL A   1      46.692  29.681  28.344  1.00  0.00     0.023 A 
ATOM     63  C   UNL A   1      47.508  29.110  29.337  1.00  0.00     0.031 A 
ATOM     64  C   UNL A   1      47.225  29.825  27.051  1.00  0.00     0.131 A 
ATOM     65  C   UNL A   1      48.829  28.752  29.033  1.00  0.00     0.055 A 
ATOM     66  C   UNL A   1      48.518  29.406  26.739  1.00  0.00     0.041 A 
ATOM     67  F   UNL A   1      46.493  30.379  26.071  1.00  0.00    -0.206 F 
ATOM     68  C   UNL A   1      49.332  28.873  27.735  1.00  0.00     0.022 A 
BRANCH  65  69
ATOM     69  S   UNL A   1      49.910  28.201  30.379  1.00  0.00     0.124 S 
ATOM     70  O   UNL A   1      49.764  26.750  30.295  1.00  0.00    -0.237 OA
ATOM     71  O   UNL A   1      51.207  28.736  29.986  1.00  0.00    -0.237 OA
ATOM     72  O   UNL A   1      49.317  28.813  31.567  1.00  0.00    -0.744 OA
ENDBRANCH  65  69
ENDBRANCH  48  62
BRANCH  49  73
ATOM     73  C   UNL A   1      37.194  32.132  30.342  1.00  0.00     0.023 A 
ATOM     74  C   UNL A   1      36.333  32.580  29.328  1.00  0.00     0.031 A 
ATOM     75  C   UNL A   1      36.683  32.018  31.646  1.00  0.00     0.131 A 
ATOM     76  C   UNL A   1      35.005  32.914  29.640  1.00  0.00     0.055 A 
ATOM     77  C   UNL A   1      35.353  32.319  31.945  1.00  0.00     0.041 A 
ATOM     78  F   UNL A   1      37.467  31.582  32.645  1.00  0.00    -0.206 F 
ATOM     79  C   UNL A   1      34.507  32.775  30.938  1.00  0.00     0.022 A 
BRANCH  76  80
ATOM     80  S   UNL A   1      33.931  33.547  28.322  1.00  0.00     0.124 S 
ATOM     81  O   UNL A   1      32.955  34.319  29.082  1.00  0.00    -0.237 OA
ATOM     82  O   UNL A   1      34.867  34.315  27.507  1.00  0.00    -0.237 OA
ATOM     83  O   UNL A   1      33.416  32.332  27.692  1.00  0.00    -0.744 OA
ENDBRANCH  76  80
ENDBRANCH  49  73
BRANCH  61  84
ATOM     84  C   UNL A   1      43.284  35.516  30.856  1.00  0.00     0.023 A 
ATOM     85  C   UNL A   1      43.512  35.803  32.210  1.00  0.00     0.031 A 
ATOM     86  C   UNL A   1      43.482  36.536  29.910  1.00  0.00     0.131 A 
ATOM     87  C   UNL A   1      43.917  37.092  32.588  1.00  0.00     0.055 A 
ATOM     88  C   UNL A   1      43.920  37.805  30.287  1.00  0.00     0.041 A 
ATOM     89  F   UNL A   1      43.282  36.303  28.604  1.00  0.00    -0.206 F 
ATOM     90  C   UNL A   1      44.139  38.089  31.632  1.00  0.00     0.022 A 
BRANCH  87  91
ATOM     91  S   UNL A   1      44.156  37.455  34.348  1.00  0.00     0.124 S 
ATOM     92  O   UNL A   1      45.610  37.528  34.446  1.00  0.00    -0.237 OA
ATOM     93  O   UNL A   1      43.441  38.716  34.515  1.00  0.00    -0.237 OA
ATOM     94  O   UNL A   1      43.547  36.307  35.019  1.00  0.00    -0.744 OA
ENDBRANCH  87  91
ENDBRANCH  61  84
ENDBRANCH  35  36
ENDBRANCH  27  30
ENDBRANCH  25  26
ENDBRANCH  24  25
ENDBRANCH  23  24
ENDBRANCH  22  23
ENDBRANCH   1  22
TORSDOF 21
ENDMDL
MODEL 2
REMARK VINA RESULT:     -10.0      3.549      4.739
REMARK SMILES CC[C@@H](C)SCc1cc(F)cc(/C=C/C(=O)NCCCCCCNC(=O)c2ccc(-c3c4nc(c(-c5cc(S(=O)(=O)[O-])ccc5F)c5ccc([nH]5)c(-c5cc(S(=O)(=O)[O-])ccc5F)c5nc(c(-c6cc(S(=O)(=O)[O-])ccc6F)c6ccc3[nH]6)C=C5)C=C4)cc2)c1
REMARK SMILES IDX 19 1 18 2 17 3 15 4 16 5 14 7 13 8 12 9 7 10 8 11 90 12 9 13
REMARK SMILES IDX 10 14 11 15 6 16 5 17 3 18 4 19 2 20 1 21 20 22 21 23 22 24
REMARK SMILES IDX 23 25 24 26 25 27 26 29 27 30 28 31 89 32 29 33 88 34 30 35
REMARK SMILES IDX 31 36 32 37 82 38 33 39 87 40 81 41 83 42 34 43 86 44 80 45
REMARK SMILES IDX 79 46 35 48 67 49 47 50 66 51 48 52 51 53 65 54 84 55 49 56
REMARK SMILES IDX 50 57 64 59 85 60 52 61 36 62 37 63 45 64 38 65 44 66 46 67
REMARK SMILES IDX 43 68 39 69 40 70 41 71 42 72 68 73 69 74 77 75 70 76 76 77
REMARK SMILES IDX 78 78 75 79 71 80 72 81 73 82 74 83 53 84 54 85 62 86 55 87
REMARK SMILES IDX 61 88 63 89 60 90 56 91 57 92 58 93 59 94
REMARK H PARENT 17 6 24 28 83 47 51 58
REMARK Flexibility Score: inf
ROOT
ATOM      1  C   UNL A   1      33.629  23.707  23.788  1.00  0.00     0.021 C 
ENDROOT
BRANCH   1   2
ATOM      2  C   UNL A   1      32.543  23.442  22.745  1.00  0.00     0.116 C 
BRANCH   2   3
ATOM      3  N   UNL A   1      32.874  24.104  21.495  1.00  0.00    -0.353 N 
ATOM      4  C   UNL A   1      32.732  25.399  21.117  1.00  0.00     0.243 C 
ATOM      5  O   UNL A   1      33.136  25.770  20.018  1.00  0.00    -0.270 OA
ATOM      6  H   UNL A   1      33.263  23.515  20.809  1.00  0.00     0.163 HD
BRANCH   4   7
ATOM      7  C   UNL A   1      32.209  26.395  22.071  1.00  0.00     0.072 C 
ATOM      8  C   UNL A   1      32.962  27.250  22.782  1.00  0.00     0.014 C 
BRANCH   8   9
ATOM      9  C   UNL A   1      32.370  28.250  23.685  1.00  0.00    -0.022 A 
ATOM     10  C   UNL A   1      32.542  29.606  25.718  1.00  0.00    -0.035 A 
ATOM     11  C   UNL A   1      31.352  30.254  25.365  1.00  0.00     0.043 A 
ATOM     12  C   UNL A   1      33.048  28.609  24.862  1.00  0.00     0.013 A 
ATOM     13  C   UNL A   1      30.653  29.856  24.234  1.00  0.00     0.124 A 
ATOM     14  F   UNL A   1      29.482  30.438  23.945  1.00  0.00    -0.207 F 
ATOM     15  C   UNL A   1      31.140  28.855  23.404  1.00  0.00     0.047 A 
BRANCH  10  16
ATOM     16  C   UNL A   1      33.259  29.969  26.993  1.00  0.00     0.105 C 
BRANCH  16  17
ATOM     17  S   UNL A   1      34.963  29.328  27.109  1.00  0.00    -0.154 SA
BRANCH  17  18
ATOM     18  C   UNL A   1      35.774  30.396  28.379  1.00  0.00     0.043 C 
ATOM     19  C   UNL A   1      36.236  29.575  29.581  1.00  0.00     0.019 C 
BRANCH  18  20
ATOM     20  C   UNL A   1      34.972  31.661  28.723  1.00  0.00     0.011 C 
ATOM     21  C   UNL A   1      35.451  32.913  27.997  1.00  0.00     0.005 C 
ENDBRANCH  18  20
ENDBRANCH  17  18
ENDBRANCH  16  17
ENDBRANCH  10  16
ENDBRANCH   8   9
ENDBRANCH   4   7
ENDBRANCH   2   3
ENDBRANCH   1   2
BRANCH   1  22
ATOM     22  C   UNL A   1      33.077  24.128  25.157  1.00  0.00     0.002 C 
BRANCH  22  23
ATOM     23  C   UNL A   1      34.034  23.907  26.335  1.00  0.00     0.002 C 
BRANCH  23  24
ATOM     24  C   UNL A   1      35.011  22.740  26.169  1.00  0.00     0.021 C 
BRANCH  24  25
ATOM     25  C   UNL A   1      36.476  23.150  26.040  1.00  0.00     0.116 C 
BRANCH  25  26
ATOM     26  N   UNL A   1      37.365  22.005  26.150  1.00  0.00    -0.352 N 
ATOM     27  C   UNL A   1      38.730  21.976  26.275  1.00  0.00     0.251 C 
ATOM     28  H   UNL A   1      36.924  21.125  26.131  1.00  0.00     0.163 HD
ATOM     29  O   UNL A   1      39.326  20.911  26.122  1.00  0.00    -0.269 OA
BRANCH  27  30
ATOM     30  C   UNL A   1      39.481  23.214  26.576  1.00  0.00     0.039 A 
ATOM     31  C   UNL A   1      40.406  23.202  27.624  1.00  0.00     0.014 A 
ATOM     32  C   UNL A   1      39.246  24.395  25.863  1.00  0.00     0.014 A 
ATOM     33  C   UNL A   1      41.119  24.363  27.932  1.00  0.00     0.010 A 
ATOM     34  C   UNL A   1      40.004  25.533  26.131  1.00  0.00     0.010 A 
ATOM     35  C   UNL A   1      40.937  25.532  27.178  1.00  0.00    -0.014 A 
BRANCH  35  36
ATOM     36  C   UNL A   1      41.690  26.771  27.502  1.00  0.00     0.031 A 
ATOM     37  C   UNL A   1      43.072  26.978  26.946  1.00  0.00     0.074 A 
ATOM     38  C   UNL A   1      41.138  27.698  28.309  1.00  0.00     0.049 A 
ATOM     39  N   UNL A   1      43.901  27.970  27.143  1.00  0.00    -0.248 NA
ATOM     40  C   UNL A   1      43.602  25.919  26.071  1.00  0.00     0.031 C 
ATOM     41  C   UNL A   1      39.813  27.597  28.926  1.00  0.00     0.029 A 
ATOM     42  N   UNL A   1      41.616  28.909  28.744  1.00  0.00    -0.354 N 
ATOM     43  C   UNL A   1      45.050  27.653  26.426  1.00  0.00     0.074 A 
ATOM     44  C   UNL A   1      44.832  26.351  25.834  1.00  0.00     0.031 C 
ATOM     45  C   UNL A   1      39.570  28.718  29.626  1.00  0.00     0.029 A 
ATOM     46  C   UNL A   1      40.732  29.597  29.542  1.00  0.00     0.049 A 
ATOM     47  H   UNL A   1      42.508  29.252  28.507  1.00  0.00     0.167 HD
ATOM     48  C   UNL A   1      46.172  28.391  26.254  1.00  0.00     0.034 A 
ATOM     49  C   UNL A   1      40.846  30.799  30.141  1.00  0.00     0.034 A 
ATOM     50  C   UNL A   1      46.365  29.702  26.820  1.00  0.00     0.049 A 
ATOM     51  C   UNL A   1      42.114  31.589  29.963  1.00  0.00     0.074 A 
ATOM     52  C   UNL A   1      47.439  30.559  26.656  1.00  0.00     0.029 A 
ATOM     53  N   UNL A   1      45.464  30.344  27.656  1.00  0.00    -0.354 N 
ATOM     54  N   UNL A   1      43.185  31.278  29.270  1.00  0.00    -0.248 NA
ATOM     55  C   UNL A   1      42.195  32.887  30.648  1.00  0.00     0.031 C 
ATOM     56  C   UNL A   1      47.212  31.697  27.436  1.00  0.00     0.029 A 
ATOM     57  C   UNL A   1      45.971  31.574  28.041  1.00  0.00     0.049 A 
ATOM     58  H   UNL A   1      44.592  29.980  27.935  1.00  0.00     0.167 HD
ATOM     59  C   UNL A   1      44.060  32.347  29.426  1.00  0.00     0.074 A 
ATOM     60  C   UNL A   1      43.394  33.313  30.275  1.00  0.00     0.031 C 
ATOM     61  C   UNL A   1      45.300  32.515  28.905  1.00  0.00     0.034 A 
BRANCH  48  62
ATOM     62  C   UNL A   1      47.282  27.797  25.429  1.00  0.00     0.023 A 
ATOM     63  C   UNL A   1      47.419  28.094  24.061  1.00  0.00     0.031 A 
ATOM     64  C   UNL A   1      48.222  26.931  26.016  1.00  0.00     0.131 A 
ATOM     65  C   UNL A   1      48.441  27.491  23.315  1.00  0.00     0.055 A 
ATOM     66  C   UNL A   1      49.276  26.386  25.283  1.00  0.00     0.041 A 
ATOM     67  F   UNL A   1      48.127  26.602  27.314  1.00  0.00    -0.206 F 
ATOM     68  C   UNL A   1      49.385  26.658  23.921  1.00  0.00     0.022 A 
BRANCH  65  69
ATOM     69  S   UNL A   1      48.471  27.745  21.521  1.00  0.00     0.124 S 
ATOM     70  O   UNL A   1      48.806  26.406  21.043  1.00  0.00    -0.237 OA
ATOM     71  O   UNL A   1      47.117  28.203  21.241  1.00  0.00    -0.237 OA
ATOM     72  O   UNL A   1      49.519  28.747  21.334  1.00  0.00    -0.744 OA
ENDBRANCH  65  69
ENDBRANCH  48  62
BRANCH  49  73
ATOM     73  C   UNL A   1      39.726  31.322  30.970  1.00  0.00     0.023 A 
ATOM     74  C   UNL A   1      39.720  31.149  32.362  1.00  0.00     0.031 A 
ATOM     75  C   UNL A   1      38.658  32.020  30.382  1.00  0.00     0.131 A 
ATOM     76  C   UNL A   1      38.654  31.656  33.123  1.00  0.00     0.055 A 
ATOM     77  C   UNL A   1      37.617  32.551  31.145  1.00  0.00     0.041 A 
ATOM     78  F   UNL A   1      38.628  32.220  29.055  1.00  0.00    -0.206 F 
ATOM     79  C   UNL A   1      37.609  32.366  32.525  1.00  0.00     0.022 A 
BRANCH  76  80
ATOM     80  S   UNL A   1      38.642  31.366  34.913  1.00  0.00     0.124 S 
ATOM     81  O   UNL A   1      39.873  32.032  35.328  1.00  0.00    -0.237 OA
ATOM     82  O   UNL A   1      37.396  32.007  35.320  1.00  0.00    -0.237 OA
ATOM     83  O   UNL A   1      38.653  29.909  35.020  1.00  0.00    -0.744 OA
ENDBRANCH  76  80
ENDBRANCH  49  73
BRANCH  61  84
ATOM     84  C   UNL A   1      46.022  33.795  29.223  1.00  0.00     0.023 A 
ATOM     85  C   UNL A   1      45.873  34.933  28.417  1.00  0.00     0.031 A 
ATOM     86  C   UNL A   1      46.803  33.894  30.388  1.00  0.00     0.131 A 
ATOM     87  C   UNL A   1      46.508  36.130  28.781  1.00  0.00     0.055 A 
ATOM     88  C   UNL A   1      47.402  35.096  30.764  1.00  0.00     0.041 A 
ATOM     89  F   UNL A   1      46.967  32.832  31.191  1.00  0.00    -0.206 F 
ATOM     90  C   UNL A   1      47.257  36.222  29.958  1.00  0.00     0.022 A 
BRANCH  87  91
ATOM     91  S   UNL A   1      46.343  37.574  27.697  1.00  0.00     0.124 S 
ATOM     92  O   UNL A   1      46.118  38.648  28.658  1.00  0.00    -0.237 OA
ATOM     93  O   UNL A   1      47.625  37.599  27.000  1.00  0.00    -0.237 OA
ATOM     94  O   UNL A   1      45.192  37.241  26.857  1.00  0.00    -0.744 OA
ENDBRANCH  87  91
ENDBRANCH  61  84
ENDBRANCH  35  36
ENDBRANCH  27  30
ENDBRANCH  25  26
ENDBRANCH  24  25
ENDBRANCH  23  24
ENDBRANCH  22  23
ENDBRANCH   1  22
TORSDOF 21
ENDMDL
MODEL 3
REMARK VINA RESULT:      -9.9      5.076      9.977
REMARK SMILES CC[C@@H](C)SCc1cc(F)cc(/C=C/C(=O)NCCCCCCNC(=O)c2ccc(-c3c4nc(c(-c5cc(S(=O)(=O)[O-])ccc5F)c5ccc([nH]5)c(-c5cc(S(=O)(=O)[O-])ccc5F)c5nc(c(-c6cc(S(=O)(=O)[O-])ccc6F)c6ccc3[nH]6)C=C5)C=C4)cc2)c1
REMARK SMILES IDX 19 1 18 2 17 3 15 4 16 5 14 7 13 8 12 9 7 10 8 11 90 12 9 13
REMARK SMILES IDX 10 14 11 15 6 16 5 17 3 18 4 19 2 20 1 21 20 22 21 23 22 24
REMARK SMILES IDX 23 25 24 26 25 27 26 29 27 30 28 31 89 32 29 33 88 34 30 35
REMARK SMILES IDX 31 36 32 37 82 38 33 39 87 40 81 41 83 42 34 43 86 44 80 45
REMARK SMILES IDX 79 46 35 48 67 49 47 50 66 51 48 52 51 53 65 54 84 55 49 56
REMARK SMILES IDX 50 57 64 59 85 60 52 61 36 62 37 63 45 64 38 65 44 66 46 67
REMARK SMILES IDX 43 68 39 69 40 70 41 71 42 72 68 73 69 74 77 75 70 76 76 77
REMARK SMILES IDX 78 78 75 79 71 80 72 81 73 82 74 83 53 84 54 85 62 86 55 87
REMARK SMILES IDX 61 88 63 89 60 90 56 91 57 92 58 93 59 94
REMARK H PARENT 17 6 24 28 83 47 51 58
REMARK Flexibility Score: inf
ROOT
ATOM      1  C   UNL A   1      33.313  29.558  27.213  1.00  0.00     0.021 C 
ENDROOT
BRANCH   1   2
ATOM      2  C   UNL A   1      33.314  28.104  26.743  1.00  0.00     0.116 C 
BRANCH   2   3
ATOM      3  N   UNL A   1      31.951  27.628  26.578  1.00  0.00    -0.353 N 
ATOM      4  C   UNL A   1      31.472  26.376  26.359  1.00  0.00     0.243 C 
ATOM      5  O   UNL A   1      30.262  26.178  26.309  1.00  0.00    -0.270 OA
ATOM      6  H   UNL A   1      31.261  28.328  26.634  1.00  0.00     0.163 HD
BRANCH   4   7
ATOM      7  C   UNL A   1      32.398  25.229  26.308  1.00  0.00     0.072 C 
ATOM      8  C   UNL A   1      33.191  24.926  25.268  1.00  0.00     0.014 C 
BRANCH   8   9
ATOM      9  C   UNL A   1      34.125  23.789  25.302  1.00  0.00    -0.022 A 
ATOM     10  C   UNL A   1      34.575  21.427  24.835  1.00  0.00    -0.035 A 
ATOM     11  C   UNL A   1      35.908  21.624  25.212  1.00  0.00     0.043 A 
ATOM     12  C   UNL A   1      33.692  22.523  24.874  1.00  0.00     0.013 A 
ATOM     13  C   UNL A   1      36.319  22.860  25.693  1.00  0.00     0.124 A 
ATOM     14  F   UNL A   1      37.580  23.016  26.114  1.00  0.00    -0.207 F 
ATOM     15  C   UNL A   1      35.441  23.934  25.755  1.00  0.00     0.047 A 
BRANCH  10  16
ATOM     16  C   UNL A   1      34.098  20.064  24.401  1.00  0.00     0.105 C 
BRANCH  16  17
ATOM     17  S   UNL A   1      33.043  19.211  25.620  1.00  0.00    -0.154 SA
BRANCH  17  18
ATOM     18  C   UNL A   1      32.462  17.690  24.747  1.00  0.00     0.043 C 
ATOM     19  C   UNL A   1      32.718  16.438  25.584  1.00  0.00     0.019 C 
BRANCH  18  20
ATOM     20  C   UNL A   1      32.929  17.604  23.285  1.00  0.00     0.011 C 
ATOM     21  C   UNL A   1      34.146  16.711  23.077  1.00  0.00     0.005 C 
ENDBRANCH  18  20
ENDBRANCH  17  18
ENDBRANCH  16  17
ENDBRANCH  10  16
ENDBRANCH   8   9
ENDBRANCH   4   7
ENDBRANCH   2   3
ENDBRANCH   1   2
BRANCH   1  22
ATOM     22  C   UNL A   1      34.691  30.057  27.669  1.00  0.00     0.002 C 
BRANCH  22  23
ATOM     23  C   UNL A   1      34.837  31.582  27.730  1.00  0.00     0.002 C 
BRANCH  23  24
ATOM     24  C   UNL A   1      33.522  32.359  27.843  1.00  0.00     0.021 C 
BRANCH  24  25
ATOM     25  C   UNL A   1      33.632  33.846  27.519  1.00  0.00     0.116 C 
BRANCH  25  26
ATOM     26  N   UNL A   1      33.107  34.670  28.595  1.00  0.00    -0.352 N 
ATOM     27  C   UNL A   1      33.436  34.670  29.927  1.00  0.00     0.251 C 
ATOM     28  H   UNL A   1      32.416  35.319  28.332  1.00  0.00     0.163 HD
ATOM     29  O   UNL A   1      32.722  35.278  30.724  1.00  0.00    -0.269 OA
BRANCH  27  30
ATOM     30  C   UNL A   1      34.629  33.938  30.404  1.00  0.00     0.039 A 
ATOM     31  C   UNL A   1      35.891  34.348  29.965  1.00  0.00     0.014 A 
ATOM     32  C   UNL A   1      34.507  32.825  31.242  1.00  0.00     0.014 A 
ATOM     33  C   UNL A   1      37.031  33.665  30.396  1.00  0.00     0.010 A 
ATOM     34  C   UNL A   1      35.649  32.184  31.720  1.00  0.00     0.010 A 
ATOM     35  C   UNL A   1      36.921  32.589  31.290  1.00  0.00    -0.014 A 
BRANCH  35  36
ATOM     36  C   UNL A   1      38.128  31.856  31.749  1.00  0.00     0.031 A 
ATOM     37  C   UNL A   1      38.780  32.225  33.054  1.00  0.00     0.074 A 
ATOM     38  C   UNL A   1      38.646  30.874  30.986  1.00  0.00     0.049 A 
ATOM     39  N   UNL A   1      39.858  31.730  33.606  1.00  0.00    -0.248 NA
ATOM     40  C   UNL A   1      38.151  33.306  33.829  1.00  0.00     0.031 C 
ATOM     41  C   UNL A   1      38.114  30.444  29.690  1.00  0.00     0.029 A 
ATOM     42  N   UNL A   1      39.729  30.056  31.188  1.00  0.00    -0.354 N 
ATOM     43  C   UNL A   1      40.040  32.444  34.786  1.00  0.00     0.074 A 
ATOM     44  C   UNL A   1      38.994  33.441  34.842  1.00  0.00     0.031 C 
ATOM     45  C   UNL A   1      38.848  29.415  29.235  1.00  0.00     0.029 A 
ATOM     46  C   UNL A   1      39.925  29.139  30.182  1.00  0.00     0.049 A 
ATOM     47  H   UNL A   1      40.312  30.120  31.980  1.00  0.00     0.167 HD
ATOM     48  C   UNL A   1      40.978  32.266  35.747  1.00  0.00     0.034 A 
ATOM     49  C   UNL A   1      40.866  28.185  30.037  1.00  0.00     0.034 A 
ATOM     50  C   UNL A   1      41.995  31.246  35.698  1.00  0.00     0.049 A 
ATOM     51  C   UNL A   1      41.916  28.025  31.102  1.00  0.00     0.074 A 
ATOM     52  C   UNL A   1      42.953  30.943  36.648  1.00  0.00     0.029 A 
ATOM     53  N   UNL A   1      42.184  30.367  34.642  1.00  0.00    -0.354 N 
ATOM     54  N   UNL A   1      42.066  28.701  32.217  1.00  0.00    -0.248 NA
ATOM     55  C   UNL A   1      42.929  26.981  30.890  1.00  0.00     0.031 C 
ATOM     56  C   UNL A   1      43.756  29.915  36.145  1.00  0.00     0.029 A 
ATOM     57  C   UNL A   1      43.262  29.539  34.905  1.00  0.00     0.049 A 
ATOM     58  H   UNL A   1      41.633  30.335  33.827  1.00  0.00     0.167 HD
ATOM     59  C   UNL A   1      43.179  28.155  32.845  1.00  0.00     0.074 A 
ATOM     60  C   UNL A   1      43.664  27.092  31.989  1.00  0.00     0.031 C 
ATOM     61  C   UNL A   1      43.743  28.499  34.029  1.00  0.00     0.034 A 
BRANCH  48  62
ATOM     62  C   UNL A   1      40.953  33.197  36.930  1.00  0.00     0.023 A 
ATOM     63  C   UNL A   1      40.253  32.872  38.105  1.00  0.00     0.031 A 
ATOM     64  C   UNL A   1      41.648  34.419  36.889  1.00  0.00     0.131 A 
ATOM     65  C   UNL A   1      40.220  33.781  39.171  1.00  0.00     0.055 A 
ATOM     66  C   UNL A   1      41.665  35.290  37.978  1.00  0.00     0.041 A 
ATOM     67  F   UNL A   1      42.319  34.785  35.785  1.00  0.00    -0.206 F 
ATOM     68  C   UNL A   1      40.941  34.977  39.126  1.00  0.00     0.022 A 
BRANCH  65  69
ATOM     69  S   UNL A   1      39.152  33.417  40.590  1.00  0.00     0.124 S 
ATOM     70  O   UNL A   1      40.124  33.361  41.679  1.00  0.00    -0.237 OA
ATOM     71  O   UNL A   1      38.241  34.554  40.604  1.00  0.00    -0.237 OA
ATOM     72  O   UNL A   1      38.543  32.135  40.240  1.00  0.00    -0.744 OA
ENDBRANCH  65  69
ENDBRANCH  48  62
BRANCH  49  73
ATOM     73  C   UNL A   1      40.856  27.313  28.831  1.00  0.00     0.023 A 
ATOM     74  C   UNL A   1      41.790  27.501  27.800  1.00  0.00     0.031 A 
ATOM     75  C   UNL A   1      39.927  26.267  28.704  1.00  0.00     0.131 A 
ATOM     76  C   UNL A   1      41.763  26.662  26.674  1.00  0.00     0.055 A 
ATOM     77  C   UNL A   1      39.924  25.415  27.598  1.00  0.00     0.041 A 
ATOM     78  F   UNL A   1      39.023  26.042  29.671  1.00  0.00    -0.206 F 
ATOM     79  C   UNL A   1      40.845  25.613  26.573  1.00  0.00     0.022 A 
BRANCH  76  80
ATOM     80  S   UNL A   1      42.942  26.966  25.330  1.00  0.00     0.124 S 
ATOM     81  O   UNL A   1      44.165  27.257  26.071  1.00  0.00    -0.237 OA
ATOM     82  O   UNL A   1      42.915  25.700  24.606  1.00  0.00    -0.237 OA
ATOM     83  O   UNL A   1      42.358  28.100  24.617  1.00  0.00    -0.744 OA
ENDBRANCH  76  80
ENDBRANCH  49  73
BRANCH  61  84
ATOM     84  C   UNL A   1      44.943  27.714  34.483  1.00  0.00     0.023 A 
ATOM     85  C   UNL A   1      44.800  26.524  35.212  1.00  0.00     0.031 A 
ATOM     86  C   UNL A   1      46.235  28.124  34.112  1.00  0.00     0.131 A 
ATOM     87  C   UNL A   1      45.939  25.784  35.562  1.00  0.00     0.055 A 
ATOM     88  C   UNL A   1      47.360  27.365  34.430  1.00  0.00     0.041 A 
ATOM     89  F   UNL A   1      46.417  29.252  33.408  1.00  0.00    -0.206 F 
ATOM     90  C   UNL A   1      47.216  26.188  35.160  1.00  0.00     0.022 A 
BRANCH  87  91
ATOM     91  S   UNL A   1      45.734  24.277  36.549  1.00  0.00     0.124 S 
ATOM     92  O   UNL A   1      46.932  24.296  37.381  1.00  0.00    -0.237 OA
ATOM     93  O   UNL A   1      44.472  24.517  37.242  1.00  0.00    -0.237 OA
ATOM     94  O   UNL A   1      45.693  23.213  35.546  1.00  0.00    -0.744 OA
ENDBRANCH  87  91
ENDBRANCH  61  84
ENDBRANCH  35  36
ENDBRANCH  27  30
ENDBRANCH  25  26
ENDBRANCH  24  25
ENDBRANCH  23  24
ENDBRANCH  22  23
ENDBRANCH   1  22
TORSDOF 21
ENDMDL
