MODEL 1
REMARK VINA RESULT:     -12.4      0.000      0.000
REMARK SMILES CC[C@H](C)[C@H](NC(=O)CN1C(=O)/C(=C/c2ccc(C)cc2)SC1=S)C(=O)NCCCCCCNC(=O)c1ccc(-c2c3nc(c(-c4cc(S(=O)(=O)[O-])ccc4F)c4ccc([nH]4)c(-c4cc(S(=O)(=O)[O-])ccc4F)c4nc(c(-c5cc(S(=O)(=O)[O-])ccc5F)c5ccc2[nH]5)C=C4)C=C3)cc1
REMARK SMILES IDX 30 1 29 2 28 3 27 4 25 5 26 6 5 8 3 9 4 10 2 11 1 12 6 13
REMARK SMILES IDX 7 14 8 16 9 17 10 18 11 19 23 20 12 21 13 22 22 23 24 24
REMARK SMILES IDX 14 25 15 26 16 27 21 28 17 29 20 30 18 31 19 32 31 33 32 34
REMARK SMILES IDX 33 35 34 36 35 37 36 39 37 40 38 41 99 42 39 43 98 44 40 45
REMARK SMILES IDX 41 46 42 47 92 48 43 49 97 50 91 51 93 52 44 53 96 54 90 55
REMARK SMILES IDX 89 56 45 58 77 59 57 60 76 61 58 62 61 63 75 64 94 65 59 66
REMARK SMILES IDX 60 67 74 69 95 70 62 71 46 72 47 73 55 74 48 75 54 76 56 77
REMARK SMILES IDX 53 78 49 79 50 80 51 81 52 82 78 83 79 84 87 85 80 86 86 87
REMARK SMILES IDX 88 88 85 89 81 90 82 91 83 92 84 93 63 94 64 95 72 96 65 97
REMARK SMILES IDX 71 98 73 99 70 100 66 101 67 102 68 103 69 104
REMARK H PARENT 27 7 6 15 34 38 93 57 61 68
REMARK Flexibility Score: inf
ROOT
ATOM      1  C   UNL A   1      38.846  21.047  25.763  1.00  0.00     0.002 C 
ENDROOT
BRANCH   1   2
ATOM      2  C   UNL A   1      37.949  20.032  25.045  1.00  0.00     0.021 C 
BRANCH   2   3
ATOM      3  C   UNL A   1      36.547  20.519  24.691  1.00  0.00     0.116 C 
BRANCH   3   4
ATOM      4  N   UNL A   1      35.492  19.572  25.012  1.00  0.00    -0.354 N 
ATOM      5  C   UNL A   1      34.129  19.703  25.022  1.00  0.00     0.242 C 
ATOM      6  O   UNL A   1      33.453  18.669  24.979  1.00  0.00    -0.273 OA
ATOM      7  H   UNL A   1      35.814  18.677  25.266  1.00  0.00     0.163 HD
BRANCH   5   8
ATOM      8  C   UNL A   1      33.422  21.092  24.930  1.00  0.00     0.174 C 
BRANCH   8   9
ATOM      9  C   UNL A   1      32.943  21.520  26.363  1.00  0.00     0.018 C 
ATOM     10  C   UNL A   1      34.124  21.595  27.340  1.00  0.00     0.010 C 
BRANCH   9  11
ATOM     11  C   UNL A   1      32.015  22.757  26.425  1.00  0.00     0.002 C 
ATOM     12  C   UNL A   1      30.521  22.494  26.571  1.00  0.00     0.004 C 
ENDBRANCH   9  11
ENDBRANCH   8   9
BRANCH   8  13
ATOM     13  N   UNL A   1      32.416  21.036  23.869  1.00  0.00    -0.342 N 
ATOM     14  C   UNL A   1      32.363  21.568  22.625  1.00  0.00     0.240 C 
ATOM     15  H   UNL A   1      31.620  20.508  24.107  1.00  0.00     0.164 HD
ATOM     16  O   UNL A   1      31.774  20.882  21.781  1.00  0.00    -0.273 OA
BRANCH  14  17
ATOM     17  C   UNL A   1      33.058  22.850  22.186  1.00  0.00     0.227 C 
BRANCH  17  18
ATOM     18  N   UNL A   1      33.119  24.004  23.078  1.00  0.00    -0.283 N 
ATOM     19  C   UNL A   1      31.907  24.509  23.525  1.00  0.00     0.266 C 
ATOM     20  C   UNL A   1      34.209  24.373  23.835  1.00  0.00     0.148 C 
ATOM     21  O   UNL A   1      30.794  24.109  23.211  1.00  0.00    -0.268 OA
ATOM     22  C   UNL A   1      32.125  25.604  24.505  1.00  0.00     0.081 C 
ATOM     23  S   UNL A   1      33.802  25.790  24.802  1.00  0.00    -0.054 SA
ATOM     24  S   UNL A   1      35.719  23.677  23.928  1.00  0.00    -0.052 S 
ATOM     25  C   UNL A   1      31.104  26.337  24.967  1.00  0.00     0.029 C 
BRANCH  25  26
ATOM     26  C   UNL A   1      31.252  27.658  25.582  1.00  0.00    -0.024 A 
ATOM     27  C   UNL A   1      31.177  28.751  24.708  1.00  0.00     0.008 A 
ATOM     28  C   UNL A   1      31.562  27.876  26.926  1.00  0.00     0.008 A 
ATOM     29  C   UNL A   1      31.484  30.035  25.149  1.00  0.00     0.004 A 
ATOM     30  C   UNL A   1      31.872  29.167  27.368  1.00  0.00     0.004 A 
ATOM     31  C   UNL A   1      31.861  30.249  26.476  1.00  0.00    -0.051 A 
ATOM     32  C   UNL A   1      32.291  31.613  26.929  1.00  0.00     0.044 C 
ENDBRANCH  25  26
ENDBRANCH  17  18
ENDBRANCH  14  17
ENDBRANCH   8  13
ENDBRANCH   5   8
ENDBRANCH   3   4
ENDBRANCH   2   3
ENDBRANCH   1   2
BRANCH   1  33
ATOM     33  C   UNL A   1      40.145  20.513  26.392  1.00  0.00     0.002 C 
BRANCH  33  34
ATOM     34  C   UNL A   1      41.388  21.394  26.257  1.00  0.00     0.021 C 
BRANCH  34  35
ATOM     35  C   UNL A   1      42.701  20.701  26.607  1.00  0.00     0.116 C 
BRANCH  35  36
ATOM     36  N   UNL A   1      43.403  20.142  25.470  1.00  0.00    -0.352 N 
ATOM     37  C   UNL A   1      44.277  20.776  24.579  1.00  0.00     0.251 C 
ATOM     38  H   UNL A   1      43.244  19.185  25.301  1.00  0.00     0.163 HD
ATOM     39  O   UNL A   1      44.726  20.193  23.617  1.00  0.00    -0.269 OA
BRANCH  37  40
ATOM     40  C   UNL A   1      44.722  22.153  24.899  1.00  0.00     0.039 A 
ATOM     41  C   UNL A   1      45.720  22.302  25.870  1.00  0.00     0.014 A 
ATOM     42  C   UNL A   1      44.030  23.261  24.425  1.00  0.00     0.014 A 
ATOM     43  C   UNL A   1      45.856  23.525  26.528  1.00  0.00     0.010 A 
ATOM     44  C   UNL A   1      44.088  24.439  25.145  1.00  0.00     0.010 A 
ATOM     45  C   UNL A   1      44.959  24.552  26.233  1.00  0.00    -0.014 A 
BRANCH  45  46
ATOM     46  C   UNL A   1      44.742  25.699  27.107  1.00  0.00     0.031 A 
ATOM     47  C   UNL A   1      43.428  26.369  27.190  1.00  0.00     0.074 A 
ATOM     48  C   UNL A   1      45.739  26.115  27.919  1.00  0.00     0.049 A 
ATOM     49  N   UNL A   1      43.275  27.601  27.542  1.00  0.00    -0.248 NA
ATOM     50  C   UNL A   1      42.171  25.711  26.853  1.00  0.00     0.031 C 
ATOM     51  C   UNL A   1      45.632  27.024  29.056  1.00  0.00     0.029 A 
ATOM     52  N   UNL A   1      47.108  25.960  27.732  1.00  0.00    -0.354 N 
ATOM     53  C   UNL A   1      41.935  27.807  27.769  1.00  0.00     0.074 A 
ATOM     54  C   UNL A   1      41.282  26.625  27.256  1.00  0.00     0.031 C 
ATOM     55  C   UNL A   1      46.842  27.540  29.320  1.00  0.00     0.029 A 
ATOM     56  C   UNL A   1      47.742  27.089  28.275  1.00  0.00     0.049 A 
ATOM     57  H   UNL A   1      47.552  25.197  27.296  1.00  0.00     0.167 HD
ATOM     58  C   UNL A   1      41.530  28.886  28.496  1.00  0.00     0.034 A 
ATOM     59  C   UNL A   1      48.525  27.900  27.507  1.00  0.00     0.034 A 
ATOM     60  C   UNL A   1      42.655  29.704  28.938  1.00  0.00     0.049 A 
ATOM     61  C   UNL A   1      48.035  29.329  27.441  1.00  0.00     0.074 A 
ATOM     62  C   UNL A   1      43.325  29.807  30.146  1.00  0.00     0.029 A 
ATOM     63  N   UNL A   1      43.425  30.384  28.003  1.00  0.00    -0.354 N 
ATOM     64  N   UNL A   1      46.837  29.711  27.788  1.00  0.00    -0.248 NA
ATOM     65  C   UNL A   1      48.851  30.439  26.961  1.00  0.00     0.031 C 
ATOM     66  C   UNL A   1      44.515  30.546  29.928  1.00  0.00     0.029 A 
ATOM     67  C   UNL A   1      44.559  30.907  28.593  1.00  0.00     0.049 A 
ATOM     68  H   UNL A   1      43.193  30.480  27.051  1.00  0.00     0.167 HD
ATOM     69  C   UNL A   1      46.694  31.061  27.570  1.00  0.00     0.074 A 
ATOM     70  C   UNL A   1      47.995  31.471  27.072  1.00  0.00     0.031 C 
ATOM     71  C   UNL A   1      45.506  31.698  27.817  1.00  0.00     0.034 A 
BRANCH  58  72
ATOM     72  C   UNL A   1      40.138  29.035  29.060  1.00  0.00     0.023 A 
ATOM     73  C   UNL A   1      39.953  29.034  30.458  1.00  0.00     0.031 A 
ATOM     74  C   UNL A   1      38.966  29.163  28.292  1.00  0.00     0.131 A 
ATOM     75  C   UNL A   1      38.670  29.050  31.032  1.00  0.00     0.055 A 
ATOM     76  C   UNL A   1      37.683  29.125  28.858  1.00  0.00     0.041 A 
ATOM     77  F   UNL A   1      39.016  29.370  26.968  1.00  0.00    -0.206 F 
ATOM     78  C   UNL A   1      37.529  29.053  30.236  1.00  0.00     0.022 A 
BRANCH  75  79
ATOM     79  S   UNL A   1      38.517  29.070  32.839  1.00  0.00     0.124 S 
ATOM     80  O   UNL A   1      38.469  30.499  33.132  1.00  0.00    -0.237 OA
ATOM     81  O   UNL A   1      37.282  28.325  33.054  1.00  0.00    -0.237 OA
ATOM     82  O   UNL A   1      39.731  28.391  33.290  1.00  0.00    -0.744 OA
ENDBRANCH  75  79
ENDBRANCH  58  72
BRANCH  59  83
ATOM     83  C   UNL A   1      49.233  27.170  26.420  1.00  0.00     0.023 A 
ATOM     84  C   UNL A   1      48.645  27.208  25.138  1.00  0.00     0.031 A 
ATOM     85  C   UNL A   1      50.591  26.837  26.511  1.00  0.00     0.131 A 
ATOM     86  C   UNL A   1      49.442  27.090  23.991  1.00  0.00     0.055 A 
ATOM     87  C   UNL A   1      51.371  26.653  25.361  1.00  0.00     0.041 A 
ATOM     88  F   UNL A   1      51.213  26.819  27.700  1.00  0.00    -0.206 F 
ATOM     89  C   UNL A   1      50.807  26.823  24.095  1.00  0.00     0.022 A 
BRANCH  86  90
ATOM     90  S   UNL A   1      48.717  27.565  22.393  1.00  0.00     0.124 S 
ATOM     91  O   UNL A   1      49.690  28.532  21.893  1.00  0.00    -0.237 OA
ATOM     92  O   UNL A   1      48.660  26.291  21.679  1.00  0.00    -0.237 OA
ATOM     93  O   UNL A   1      47.412  28.113  22.754  1.00  0.00    -0.744 OA
ENDBRANCH  86  90
ENDBRANCH  59  83
BRANCH  71  94
ATOM     94  C   UNL A   1      45.125  33.125  27.446  1.00  0.00     0.023 A 
ATOM     95  C   UNL A   1      45.621  34.266  28.092  1.00  0.00     0.031 A 
ATOM     96  C   UNL A   1      44.255  33.389  26.353  1.00  0.00     0.131 A 
ATOM     97  C   UNL A   1      45.225  35.562  27.707  1.00  0.00     0.055 A 
ATOM     98  C   UNL A   1      43.911  34.678  25.932  1.00  0.00     0.041 A 
ATOM     99  F   UNL A   1      43.705  32.406  25.625  1.00  0.00    -0.206 F 
ATOM    100  C   UNL A   1      44.387  35.780  26.619  1.00  0.00     0.022 A 
BRANCH  97 101
ATOM    101  S   UNL A   1      45.801  36.964  28.702  1.00  0.00     0.124 S 
ATOM    102  O   UNL A   1      45.346  36.594  30.039  1.00  0.00    -0.237 OA
ATOM    103  O   UNL A   1      47.245  36.923  28.492  1.00  0.00    -0.237 OA
ATOM    104  O   UNL A   1      45.119  38.113  28.110  1.00  0.00    -0.744 OA
ENDBRANCH  97 101
ENDBRANCH  71  94
ENDBRANCH  45  46
ENDBRANCH  37  40
ENDBRANCH  35  36
ENDBRANCH  34  35
ENDBRANCH  33  34
ENDBRANCH   1  33
TORSDOF 22
ENDMDL
MODEL 2
REMARK VINA RESULT:     -12.4      1.952      3.189
REMARK SMILES CC[C@H](C)[C@H](NC(=O)CN1C(=O)/C(=C/c2ccc(C)cc2)SC1=S)C(=O)NCCCCCCNC(=O)c1ccc(-c2c3nc(c(-c4cc(S(=O)(=O)[O-])ccc4F)c4ccc([nH]4)c(-c4cc(S(=O)(=O)[O-])ccc4F)c4nc(c(-c5cc(S(=O)(=O)[O-])ccc5F)c5ccc2[nH]5)C=C4)C=C3)cc1
REMARK SMILES IDX 30 1 29 2 28 3 27 4 25 5 26 6 5 8 3 9 4 10 2 11 1 12 6 13
REMARK SMILES IDX 7 14 8 16 9 17 10 18 11 19 23 20 12 21 13 22 22 23 24 24
REMARK SMILES IDX 14 25 15 26 16 27 21 28 17 29 20 30 18 31 19 32 31 33 32 34
REMARK SMILES IDX 33 35 34 36 35 37 36 39 37 40 38 41 99 42 39 43 98 44 40 45
REMARK SMILES IDX 41 46 42 47 92 48 43 49 97 50 91 51 93 52 44 53 96 54 90 55
REMARK SMILES IDX 89 56 45 58 77 59 57 60 76 61 58 62 61 63 75 64 94 65 59 66
REMARK SMILES IDX 60 67 74 69 95 70 62 71 46 72 47 73 55 74 48 75 54 76 56 77
REMARK SMILES IDX 53 78 49 79 50 80 51 81 52 82 78 83 79 84 87 85 80 86 86 87
REMARK SMILES IDX 88 88 85 89 81 90 82 91 83 92 84 93 63 94 64 95 72 96 65 97
REMARK SMILES IDX 71 98 73 99 70 100 66 101 67 102 68 103 69 104
REMARK H PARENT 27 7 6 15 34 38 93 57 61 68
REMARK Flexibility Score: inf
ROOT
ATOM      1  C   UNL A   1      38.846  22.194  25.959  1.00  0.00     0.002 C 
ENDROOT
BRANCH   1   2
ATOM      2  C   UNL A   1      38.245  23.588  26.164  1.00  0.00     0.021 C 
BRANCH   2   3
ATOM      3  C   UNL A   1      36.733  23.692  25.979  1.00  0.00     0.116 C 
BRANCH   3   4
ATOM      4  N   UNL A   1      36.277  23.371  24.637  1.00  0.00    -0.354 N 
ATOM      5  C   UNL A   1      35.147  23.732  23.953  1.00  0.00     0.242 C 
ATOM      6  O   UNL A   1      35.164  23.628  22.721  1.00  0.00    -0.273 OA
ATOM      7  H   UNL A   1      36.889  22.790  24.129  1.00  0.00     0.163 HD
BRANCH   5   8
ATOM      8  C   UNL A   1      33.925  24.405  24.654  1.00  0.00     0.174 C 
BRANCH   8   9
ATOM      9  C   UNL A   1      32.729  23.388  24.687  1.00  0.00     0.018 C 
ATOM     10  C   UNL A   1      31.933  23.431  23.376  1.00  0.00     0.010 C 
BRANCH   9  11
ATOM     11  C   UNL A   1      33.074  21.952  25.149  1.00  0.00     0.002 C 
ATOM     12  C   UNL A   1      33.268  21.734  26.644  1.00  0.00     0.004 C 
ENDBRANCH   9  11
ENDBRANCH   8   9
BRANCH   8  13
ATOM     13  N   UNL A   1      33.688  25.709  24.033  1.00  0.00    -0.342 N 
ATOM     14  C   UNL A   1      33.604  26.963  24.534  1.00  0.00     0.240 C 
ATOM     15  H   UNL A   1      33.564  25.664  23.057  1.00  0.00     0.164 HD
ATOM     16  O   UNL A   1      34.028  27.859  23.794  1.00  0.00    -0.273 OA
BRANCH  14  17
ATOM     17  C   UNL A   1      33.149  27.319  25.944  1.00  0.00     0.227 C 
BRANCH  17  18
ATOM     18  N   UNL A   1      33.039  28.715  26.358  1.00  0.00    -0.283 N 
ATOM     19  C   UNL A   1      34.155  29.274  26.961  1.00  0.00     0.266 C 
ATOM     20  C   UNL A   1      32.137  29.629  25.857  1.00  0.00     0.148 C 
ATOM     21  O   UNL A   1      35.205  28.701  27.217  1.00  0.00    -0.268 OA
ATOM     22  C   UNL A   1      33.937  30.719  27.226  1.00  0.00     0.081 C 
ATOM     23  S   UNL A   1      32.414  31.200  26.607  1.00  0.00    -0.054 SA
ATOM     24  S   UNL A   1      30.939  29.421  24.719  1.00  0.00    -0.052 S 
ATOM     25  C   UNL A   1      34.822  31.438  27.930  1.00  0.00     0.029 C 
BRANCH  25  26
ATOM     26  C   UNL A   1      34.513  32.711  28.585  1.00  0.00    -0.024 A 
ATOM     27  C   UNL A   1      34.650  32.731  29.979  1.00  0.00     0.008 A 
ATOM     28  C   UNL A   1      34.002  33.834  27.931  1.00  0.00     0.008 A 
ATOM     29  C   UNL A   1      34.211  33.823  30.720  1.00  0.00     0.004 A 
ATOM     30  C   UNL A   1      33.559  34.932  28.678  1.00  0.00     0.004 A 
ATOM     31  C   UNL A   1      33.636  34.922  30.077  1.00  0.00    -0.051 A 
ATOM     32  C   UNL A   1      33.069  36.055  30.879  1.00  0.00     0.044 C 
ENDBRANCH  25  26
ENDBRANCH  17  18
ENDBRANCH  14  17
ENDBRANCH   8  13
ENDBRANCH   5   8
ENDBRANCH   3   4
ENDBRANCH   2   3
ENDBRANCH   1   2
BRANCH   1  33
ATOM     33  C   UNL A   1      40.072  21.827  26.814  1.00  0.00     0.002 C 
BRANCH  33  34
ATOM     34  C   UNL A   1      41.443  21.962  26.147  1.00  0.00     0.021 C 
BRANCH  34  35
ATOM     35  C   UNL A   1      42.443  20.874  26.521  1.00  0.00     0.116 C 
BRANCH  35  36
ATOM     36  N   UNL A   1      43.162  20.310  25.396  1.00  0.00    -0.352 N 
ATOM     37  C   UNL A   1      44.149  20.902  24.599  1.00  0.00     0.251 C 
ATOM     38  H   UNL A   1      42.922  19.384  25.159  1.00  0.00     0.163 HD
ATOM     39  O   UNL A   1      44.602  20.329  23.632  1.00  0.00    -0.269 OA
BRANCH  37  40
ATOM     40  C   UNL A   1      44.702  22.208  25.028  1.00  0.00     0.039 A 
ATOM     41  C   UNL A   1      45.504  22.226  26.176  1.00  0.00     0.014 A 
ATOM     42  C   UNL A   1      44.268  23.397  24.454  1.00  0.00     0.014 A 
ATOM     43  C   UNL A   1      45.672  23.422  26.874  1.00  0.00     0.010 A 
ATOM     44  C   UNL A   1      44.341  24.559  25.196  1.00  0.00     0.010 A 
ATOM     45  C   UNL A   1      44.992  24.559  26.434  1.00  0.00    -0.014 A 
BRANCH  45  46
ATOM     46  C   UNL A   1      44.765  25.729  27.274  1.00  0.00     0.031 A 
ATOM     47  C   UNL A   1      43.444  26.387  27.341  1.00  0.00     0.074 A 
ATOM     48  C   UNL A   1      45.759  26.181  28.071  1.00  0.00     0.049 A 
ATOM     49  N   UNL A   1      43.277  27.627  27.657  1.00  0.00    -0.248 NA
ATOM     50  C   UNL A   1      42.193  25.705  27.027  1.00  0.00     0.031 C 
ATOM     51  C   UNL A   1      45.644  27.121  29.181  1.00  0.00     0.029 A 
ATOM     52  N   UNL A   1      47.129  26.036  27.885  1.00  0.00    -0.354 N 
ATOM     53  C   UNL A   1      41.936  27.824  27.881  1.00  0.00     0.074 A 
ATOM     54  C   UNL A   1      41.294  26.620  27.405  1.00  0.00     0.031 C 
ATOM     55  C   UNL A   1      46.849  27.658  29.426  1.00  0.00     0.029 A 
ATOM     56  C   UNL A   1      47.751  27.186  28.393  1.00  0.00     0.049 A 
ATOM     57  H   UNL A   1      47.581  25.265  27.471  1.00  0.00     0.167 HD
ATOM     58  C   UNL A   1      41.520  28.919  28.577  1.00  0.00     0.034 A 
ATOM     59  C   UNL A   1      48.524  27.984  27.599  1.00  0.00     0.034 A 
ATOM     60  C   UNL A   1      42.637  29.762  28.992  1.00  0.00     0.049 A 
ATOM     61  C   UNL A   1      48.017  29.405  27.492  1.00  0.00     0.074 A 
ATOM     62  C   UNL A   1      43.308  29.909  30.195  1.00  0.00     0.029 A 
ATOM     63  N   UNL A   1      43.396  30.423  28.035  1.00  0.00    -0.354 N 
ATOM     64  N   UNL A   1      46.816  29.783  27.831  1.00  0.00    -0.248 NA
ATOM     65  C   UNL A   1      48.819  30.509  26.977  1.00  0.00     0.031 C 
ATOM     66  C   UNL A   1      44.489  30.654  29.951  1.00  0.00     0.029 A 
ATOM     67  C   UNL A   1      44.526  30.976  28.607  1.00  0.00     0.049 A 
ATOM     68  H   UNL A   1      43.162  30.489  27.082  1.00  0.00     0.167 HD
ATOM     69  C   UNL A   1      46.657  31.124  27.574  1.00  0.00     0.074 A 
ATOM     70  C   UNL A   1      47.952  31.534  27.060  1.00  0.00     0.031 C 
ATOM     71  C   UNL A   1      45.462  31.755  27.804  1.00  0.00     0.034 A 
BRANCH  58  72
ATOM     72  C   UNL A   1      40.128  29.070  29.141  1.00  0.00     0.023 A 
ATOM     73  C   UNL A   1      39.942  29.066  30.539  1.00  0.00     0.031 A 
ATOM     74  C   UNL A   1      38.956  29.199  28.372  1.00  0.00     0.131 A 
ATOM     75  C   UNL A   1      38.658  29.083  31.111  1.00  0.00     0.055 A 
ATOM     76  C   UNL A   1      37.673  29.162  28.937  1.00  0.00     0.041 A 
ATOM     77  F   UNL A   1      39.008  29.408  27.048  1.00  0.00    -0.206 F 
ATOM     78  C   UNL A   1      37.518  29.088  30.314  1.00  0.00     0.022 A 
BRANCH  75  79
ATOM     79  S   UNL A   1      38.504  29.101  32.919  1.00  0.00     0.124 S 
ATOM     80  O   UNL A   1      39.755  28.484  33.345  1.00  0.00    -0.237 OA
ATOM     81  O   UNL A   1      38.358  30.525  33.202  1.00  0.00    -0.237 OA
ATOM     82  O   UNL A   1      37.306  28.300  33.165  1.00  0.00    -0.744 OA
ENDBRANCH  75  79
ENDBRANCH  58  72
BRANCH  59  83
ATOM     83  C   UNL A   1      49.238  27.230  26.532  1.00  0.00     0.023 A 
ATOM     84  C   UNL A   1      48.657  27.241  25.246  1.00  0.00     0.031 A 
ATOM     85  C   UNL A   1      50.594  26.897  26.639  1.00  0.00     0.131 A 
ATOM     86  C   UNL A   1      49.461  27.098  24.107  1.00  0.00     0.055 A 
ATOM     87  C   UNL A   1      51.381  26.688  25.498  1.00  0.00     0.041 A 
ATOM     88  F   UNL A   1      51.208  26.903  27.831  1.00  0.00    -0.206 F 
ATOM     89  C   UNL A   1      50.825  26.831  24.225  1.00  0.00     0.022 A 
BRANCH  86  90
ATOM     90  S   UNL A   1      48.747  27.541  22.494  1.00  0.00     0.124 S 
ATOM     91  O   UNL A   1      47.437  28.061  22.874  1.00  0.00    -0.237 OA
ATOM     92  O   UNL A   1      49.700  28.525  21.984  1.00  0.00    -0.237 OA
ATOM     93  O   UNL A   1      48.735  26.277  21.762  1.00  0.00    -0.744 OA
ENDBRANCH  86  90
ENDBRANCH  59  83
BRANCH  71  94
ATOM     94  C   UNL A   1      45.064  33.166  27.393  1.00  0.00     0.023 A 
ATOM     95  C   UNL A   1      45.464  34.326  28.070  1.00  0.00     0.031 A 
ATOM     96  C   UNL A   1      44.281  33.394  26.229  1.00  0.00     0.131 A 
ATOM     97  C   UNL A   1      45.057  35.606  27.644  1.00  0.00     0.055 A 
ATOM     98  C   UNL A   1      43.928  34.668  25.771  1.00  0.00     0.041 A 
ATOM     99  F   UNL A   1      43.828  32.389  25.464  1.00  0.00    -0.206 F 
ATOM    100  C   UNL A   1      44.306  35.789  26.488  1.00  0.00     0.022 A 
BRANCH  97 101
ATOM    101  S   UNL A   1      45.498  37.032  28.673  1.00  0.00     0.124 S 
ATOM    102  O   UNL A   1      46.857  37.320  28.226  1.00  0.00    -0.237 OA
ATOM    103  O   UNL A   1      44.486  38.014  28.294  1.00  0.00    -0.237 OA
ATOM    104  O   UNL A   1      45.388  36.522  30.038  1.00  0.00    -0.744 OA
ENDBRANCH  97 101
ENDBRANCH  71  94
ENDBRANCH  45  46
ENDBRANCH  37  40
ENDBRANCH  35  36
ENDBRANCH  34  35
ENDBRANCH  33  34
ENDBRANCH   1  33
TORSDOF 22
ENDMDL
MODEL 3
REMARK VINA RESULT:     -10.3      5.368     11.528
REMARK SMILES CC[C@H](C)[C@H](NC(=O)CN1C(=O)/C(=C/c2ccc(C)cc2)SC1=S)C(=O)NCCCCCCNC(=O)c1ccc(-c2c3nc(c(-c4cc(S(=O)(=O)[O-])ccc4F)c4ccc([nH]4)c(-c4cc(S(=O)(=O)[O-])ccc4F)c4nc(c(-c5cc(S(=O)(=O)[O-])ccc5F)c5ccc2[nH]5)C=C4)C=C3)cc1
REMARK SMILES IDX 30 1 29 2 28 3 27 4 25 5 26 6 5 8 3 9 4 10 2 11 1 12 6 13
REMARK SMILES IDX 7 14 8 16 9 17 10 18 11 19 23 20 12 21 13 22 22 23 24 24
REMARK SMILES IDX 14 25 15 26 16 27 21 28 17 29 20 30 18 31 19 32 31 33 32 34
REMARK SMILES IDX 33 35 34 36 35 37 36 39 37 40 38 41 99 42 39 43 98 44 40 45
REMARK SMILES IDX 41 46 42 47 92 48 43 49 97 50 91 51 93 52 44 53 96 54 90 55
REMARK SMILES IDX 89 56 45 58 77 59 57 60 76 61 58 62 61 63 75 64 94 65 59 66
REMARK SMILES IDX 60 67 74 69 95 70 62 71 46 72 47 73 55 74 48 75 54 76 56 77
REMARK SMILES IDX 53 78 49 79 50 80 51 81 52 82 78 83 79 84 87 85 80 86 86 87
REMARK SMILES IDX 88 88 85 89 81 90 82 91 83 92 84 93 63 94 64 95 72 96 65 97
REMARK SMILES IDX 71 98 73 99 70 100 66 101 67 102 68 103 69 104
REMARK H PARENT 27 7 6 15 34 38 93 57 61 68
REMARK Flexibility Score: inf
ROOT
ATOM      1  C   UNL A   1      37.726  32.337  29.098  1.00  0.00     0.002 C 
ENDROOT
BRANCH   1   2
ATOM      2  C   UNL A   1      38.118  33.806  29.289  1.00  0.00     0.021 C 
BRANCH   2   3
ATOM      3  C   UNL A   1      38.868  34.130  30.578  1.00  0.00     0.116 C 
BRANCH   3   4
ATOM      4  N   UNL A   1      38.084  34.879  31.547  1.00  0.00    -0.354 N 
ATOM      5  C   UNL A   1      37.111  34.483  32.426  1.00  0.00     0.242 C 
ATOM      6  O   UNL A   1      36.859  35.230  33.378  1.00  0.00    -0.273 OA
ATOM      7  H   UNL A   1      38.288  35.842  31.577  1.00  0.00     0.163 HD
BRANCH   5   8
ATOM      8  C   UNL A   1      36.439  33.076  32.350  1.00  0.00     0.174 C 
BRANCH   8   9
ATOM      9  C   UNL A   1      34.945  33.245  31.896  1.00  0.00     0.018 C 
ATOM     10  C   UNL A   1      33.991  33.151  33.094  1.00  0.00     0.010 C 
BRANCH   9  11
ATOM     11  C   UNL A   1      34.652  34.450  30.970  1.00  0.00     0.002 C 
ATOM     12  C   UNL A   1      33.849  34.170  29.705  1.00  0.00     0.004 C 
ENDBRANCH   9  11
ENDBRANCH   8   9
BRANCH   8  13
ATOM     13  N   UNL A   1      36.688  32.369  33.607  1.00  0.00    -0.342 N 
ATOM     14  C   UNL A   1      37.680  32.448  34.524  1.00  0.00     0.240 C 
ATOM     15  H   UNL A   1      35.997  31.704  33.830  1.00  0.00     0.164 HD
ATOM     16  O   UNL A   1      37.336  32.252  35.696  1.00  0.00    -0.273 OA
BRANCH  14  17
ATOM     17  C   UNL A   1      39.116  32.867  34.233  1.00  0.00     0.227 C 
BRANCH  17  18
ATOM     18  N   UNL A   1      40.218  31.933  34.446  1.00  0.00    -0.283 N 
ATOM     19  C   UNL A   1      40.915  31.527  33.318  1.00  0.00     0.266 C 
ATOM     20  C   UNL A   1      40.889  31.745  35.635  1.00  0.00     0.148 C 
ATOM     21  O   UNL A   1      40.670  31.842  32.161  1.00  0.00    -0.268 OA
ATOM     22  C   UNL A   1      42.069  30.672  33.696  1.00  0.00     0.081 C 
ATOM     23  S   UNL A   1      42.179  30.567  35.402  1.00  0.00    -0.054 SA
ATOM     24  S   UNL A   1      40.635  32.456  37.119  1.00  0.00    -0.052 S 
ATOM     25  C   UNL A   1      42.805  30.048  32.767  1.00  0.00     0.029 C 
BRANCH  25  26
ATOM     26  C   UNL A   1      43.663  28.891  33.038  1.00  0.00    -0.024 A 
ATOM     27  C   UNL A   1      43.045  27.637  32.947  1.00  0.00     0.008 A 
ATOM     28  C   UNL A   1      44.988  28.972  33.472  1.00  0.00     0.008 A 
ATOM     29  C   UNL A   1      43.710  26.486  33.358  1.00  0.00     0.004 A 
ATOM     30  C   UNL A   1      45.655  27.814  33.887  1.00  0.00     0.004 A 
ATOM     31  C   UNL A   1      45.012  26.569  33.858  1.00  0.00    -0.051 A 
ATOM     32  C   UNL A   1      45.693  25.347  34.398  1.00  0.00     0.044 C 
ENDBRANCH  25  26
ENDBRANCH  17  18
ENDBRANCH  14  17
ENDBRANCH   8  13
ENDBRANCH   5   8
ENDBRANCH   3   4
ENDBRANCH   2   3
ENDBRANCH   1   2
BRANCH   1  33
ATOM     33  C   UNL A   1      36.315  32.053  28.553  1.00  0.00     0.002 C 
BRANCH  33  34
ATOM     34  C   UNL A   1      36.084  30.677  27.925  1.00  0.00     0.021 C 
BRANCH  34  35
ATOM     35  C   UNL A   1      37.357  29.915  27.573  1.00  0.00     0.116 C 
BRANCH  35  36
ATOM     36  N   UNL A   1      37.624  28.772  28.423  1.00  0.00    -0.352 N 
ATOM     37  C   UNL A   1      38.858  28.232  28.804  1.00  0.00     0.251 C 
ATOM     38  H   UNL A   1      36.830  28.313  28.781  1.00  0.00     0.163 HD
ATOM     39  O   UNL A   1      38.923  27.213  29.458  1.00  0.00    -0.269 OA
BRANCH  37  40
ATOM     40  C   UNL A   1      40.086  28.995  28.477  1.00  0.00     0.039 A 
ATOM     41  C   UNL A   1      40.815  28.596  27.350  1.00  0.00     0.014 A 
ATOM     42  C   UNL A   1      40.617  29.919  29.368  1.00  0.00     0.014 A 
ATOM     43  C   UNL A   1      42.161  28.946  27.247  1.00  0.00     0.010 A 
ATOM     44  C   UNL A   1      41.973  30.180  29.326  1.00  0.00     0.010 A 
ATOM     45  C   UNL A   1      42.757  29.646  28.298  1.00  0.00    -0.014 A 
BRANCH  45  46
ATOM     46  C   UNL A   1      44.200  29.716  28.494  1.00  0.00     0.031 A 
ATOM     47  C   UNL A   1      45.019  30.755  27.834  1.00  0.00     0.074 A 
ATOM     48  C   UNL A   1      44.798  28.865  29.357  1.00  0.00     0.049 A 
ATOM     49  N   UNL A   1      46.276  30.617  27.576  1.00  0.00    -0.248 NA
ATOM     50  C   UNL A   1      44.479  32.031  27.380  1.00  0.00     0.031 C 
ATOM     51  C   UNL A   1      46.145  28.969  29.910  1.00  0.00     0.029 A 
ATOM     52  N   UNL A   1      44.367  27.600  29.739  1.00  0.00    -0.354 N 
ATOM     53  C   UNL A   1      46.765  31.850  27.218  1.00  0.00     0.074 A 
ATOM     54  C   UNL A   1      45.596  32.681  27.038  1.00  0.00     0.031 C 
ATOM     55  C   UNL A   1      46.534  27.760  30.344  1.00  0.00     0.029 A 
ATOM     56  C   UNL A   1      45.507  26.811  29.958  1.00  0.00     0.049 A 
ATOM     57  H   UNL A   1      43.431  27.310  29.837  1.00  0.00     0.167 HD
ATOM     58  C   UNL A   1      48.107  32.081  27.250  1.00  0.00     0.034 A 
ATOM     59  C   UNL A   1      45.722  25.664  29.252  1.00  0.00     0.034 A 
ATOM     60  C   UNL A   1      48.856  30.904  27.682  1.00  0.00     0.049 A 
ATOM     61  C   UNL A   1      46.999  25.680  28.444  1.00  0.00     0.074 A 
ATOM     62  C   UNL A   1      49.423  30.543  28.894  1.00  0.00     0.029 A 
ATOM     63  N   UNL A   1      48.879  29.768  26.884  1.00  0.00    -0.354 N 
ATOM     64  N   UNL A   1      47.677  26.759  28.165  1.00  0.00    -0.248 NA
ATOM     65  C   UNL A   1      47.604  24.483  27.870  1.00  0.00     0.031 C 
ATOM     66  C   UNL A   1      49.776  29.172  28.823  1.00  0.00     0.029 A 
ATOM     67  C   UNL A   1      49.442  28.706  27.564  1.00  0.00     0.049 A 
ATOM     68  H   UNL A   1      48.541  29.726  25.960  1.00  0.00     0.167 HD
ATOM     69  C   UNL A   1      48.761  26.441  27.381  1.00  0.00     0.074 A 
ATOM     70  C   UNL A   1      48.679  24.997  27.246  1.00  0.00     0.031 C 
ATOM     71  C   UNL A   1      49.610  27.411  26.916  1.00  0.00     0.034 A 
BRANCH  58  72
ATOM     72  C   UNL A   1      48.719  33.459  27.182  1.00  0.00     0.023 A 
ATOM     73  C   UNL A   1      49.543  33.799  26.089  1.00  0.00     0.031 A 
ATOM     74  C   UNL A   1      48.549  34.465  28.151  1.00  0.00     0.131 A 
ATOM     75  C   UNL A   1      50.231  35.023  26.037  1.00  0.00     0.055 A 
ATOM     76  C   UNL A   1      49.275  35.665  28.130  1.00  0.00     0.041 A 
ATOM     77  F   UNL A   1      47.646  34.345  29.134  1.00  0.00    -0.206 F 
ATOM     78  C   UNL A   1      50.134  35.944  27.075  1.00  0.00     0.022 A 
BRANCH  75  79
ATOM     79  S   UNL A   1      51.254  35.394  24.585  1.00  0.00     0.124 S 
ATOM     80  O   UNL A   1      50.394  36.291  23.820  1.00  0.00    -0.237 OA
ATOM     81  O   UNL A   1      52.440  35.993  25.187  1.00  0.00    -0.237 OA
ATOM     82  O   UNL A   1      51.469  34.081  23.978  1.00  0.00    -0.744 OA
ENDBRANCH  75  79
ENDBRANCH  58  72
BRANCH  59  83
ATOM     83  C   UNL A   1      44.461  24.964  28.879  1.00  0.00     0.023 A 
ATOM     84  C   UNL A   1      44.220  24.777  27.501  1.00  0.00     0.031 A 
ATOM     85  C   UNL A   1      43.767  24.151  29.784  1.00  0.00     0.131 A 
ATOM     86  C   UNL A   1      43.446  23.695  27.058  1.00  0.00     0.055 A 
ATOM     87  C   UNL A   1      42.940  23.112  29.337  1.00  0.00     0.041 A 
ATOM     88  F   UNL A   1      43.981  24.259  31.103  1.00  0.00    -0.206 F 
ATOM     89  C   UNL A   1      42.811  22.852  27.970  1.00  0.00     0.022 A 
BRANCH  86  90
ATOM     90  S   UNL A   1      43.518  23.256  25.295  1.00  0.00     0.124 S 
ATOM     91  O   UNL A   1      44.809  22.583  25.202  1.00  0.00    -0.237 OA
ATOM     92  O   UNL A   1      42.341  22.404  25.133  1.00  0.00    -0.237 OA
ATOM     93  O   UNL A   1      43.428  24.545  24.614  1.00  0.00    -0.744 OA
ENDBRANCH  86  90
ENDBRANCH  59  83
BRANCH  71  94
ATOM     94  C   UNL A   1      50.724  27.254  25.889  1.00  0.00     0.023 A 
ATOM     95  C   UNL A   1      52.031  26.857  26.200  1.00  0.00     0.031 A 
ATOM     96  C   UNL A   1      50.475  27.458  24.504  1.00  0.00     0.131 A 
ATOM     97  C   UNL A   1      53.022  26.736  25.205  1.00  0.00     0.055 A 
ATOM     98  C   UNL A   1      51.443  27.278  23.510  1.00  0.00     0.041 A 
ATOM     99  F   UNL A   1      49.272  27.829  24.042  1.00  0.00    -0.206 F 
ATOM    100  C   UNL A   1      52.734  26.925  23.858  1.00  0.00     0.022 A 
BRANCH  97 101
ATOM    101  S   UNL A   1      54.719  26.368  25.726  1.00  0.00     0.124 S 
ATOM    102  O   UNL A   1      55.456  27.503  25.179  1.00  0.00    -0.237 OA
ATOM    103  O   UNL A   1      54.598  26.335  27.180  1.00  0.00    -0.237 OA
ATOM    104  O   UNL A   1      55.004  25.081  25.096  1.00  0.00    -0.744 OA
ENDBRANCH  97 101
ENDBRANCH  71  94
ENDBRANCH  45  46
ENDBRANCH  37  40
ENDBRANCH  35  36
ENDBRANCH  34  35
ENDBRANCH  33  34
ENDBRANCH   1  33
TORSDOF 22
ENDMDL
