MODEL 1
REMARK VINA RESULT:     -12.8      0.000      0.000
REMARK SMILES O=C(NCCCCCCNC(=O)[C@@H]1CCCC[C@H]1C(=O)Nc1ccccc1C(=O)N1CCOCC1)c1ccc(-c2c3nc(c(-c4cc(S(=O)(=O)[O-])ccc4F)c4ccc([nH]4)c(-c4cc(S(=O)(=O)[O-])ccc4F)c4nc(c(-c5cc(S(=O)(=O)[O-])ccc5F)c5ccc2[nH]5)C=C4)C=C3)cc1
REMARK SMILES IDX 6 1 5 2 4 3 3 4 1 5 2 6 36 8 37 9 98 10 38 11 97 12 39 13
REMARK SMILES IDX 40 14 41 15 91 16 42 17 96 18 90 19 92 20 43 21 95 22 89 23
REMARK SMILES IDX 88 24 44 26 76 27 56 28 75 29 57 30 60 31 74 32 93 33 58 34
REMARK SMILES IDX 59 35 73 37 94 38 61 39 45 40 46 41 54 42 47 43 53 44 55 45
REMARK SMILES IDX 52 46 48 47 49 48 50 49 51 50 77 51 78 52 86 53 79 54 85 55
REMARK SMILES IDX 87 56 84 57 80 58 81 59 82 60 83 61 62 62 63 63 71 64 64 65
REMARK SMILES IDX 70 66 72 67 69 68 65 69 66 70 67 71 68 72 7 73 8 74 9 75
REMARK SMILES IDX 10 76 11 77 12 79 13 80 14 81 18 82 15 83 17 84 16 85 19 86
REMARK SMILES IDX 20 87 21 88 22 90 23 91 27 92 24 93 26 94 25 95 28 96 29 97
REMARK SMILES IDX 30 98 31 99 35 100 32 101 34 102 33 103
REMARK H PARENT 3 7 92 25 60 36 10 78 21 89
REMARK Flexibility Score: inf
ROOT
ATOM      1  C   UNL A   1      32.397  30.081  27.222  1.00  0.00     0.002 C 
ENDROOT
BRANCH   1   2
ATOM      2  C   UNL A   1      31.860  31.499  27.060  1.00  0.00     0.021 C 
BRANCH   2   3
ATOM      3  C   UNL A   1      32.913  32.581  26.909  1.00  0.00     0.116 C 
BRANCH   3   4
ATOM      4  N   UNL A   1      32.524  33.850  27.497  1.00  0.00    -0.352 N 
ATOM      5  O   UNL A   1      32.575  35.488  29.055  1.00  0.00    -0.269 OA
ATOM      6  C   UNL A   1      33.082  34.487  28.590  1.00  0.00     0.251 C 
ATOM      7  H   UNL A   1      31.771  34.314  27.064  1.00  0.00     0.163 HD
BRANCH   6   8
ATOM      8  C   UNL A   1      34.304  33.900  29.196  1.00  0.00     0.039 A 
ATOM      9  C   UNL A   1      34.187  32.949  30.211  1.00  0.00     0.014 A 
ATOM     10  C   UNL A   1      35.564  34.346  28.789  1.00  0.00     0.014 A 
ATOM     11  C   UNL A   1      35.311  32.571  30.927  1.00  0.00     0.010 A 
ATOM     12  C   UNL A   1      36.710  33.862  29.432  1.00  0.00     0.010 A 
ATOM     13  C   UNL A   1      36.592  32.985  30.521  1.00  0.00    -0.014 A 
BRANCH  13  14
ATOM     14  C   UNL A   1      37.773  32.380  31.193  1.00  0.00     0.031 A 
ATOM     15  C   UNL A   1      38.268  32.864  32.527  1.00  0.00     0.074 A 
ATOM     16  C   UNL A   1      38.363  31.327  30.588  1.00  0.00     0.049 A 
ATOM     17  N   UNL A   1      39.264  32.410  33.246  1.00  0.00    -0.248 NA
ATOM     18  C   UNL A   1      37.568  34.007  33.130  1.00  0.00     0.031 C 
ATOM     19  C   UNL A   1      37.970  30.785  29.281  1.00  0.00     0.029 A 
ATOM     20  N   UNL A   1      39.382  30.503  30.989  1.00  0.00    -0.354 N 
ATOM     21  C   UNL A   1      39.318  33.211  34.382  1.00  0.00     0.074 A 
ATOM     22  C   UNL A   1      38.274  34.206  34.237  1.00  0.00     0.031 C 
ATOM     23  C   UNL A   1      38.683  29.683  29.027  1.00  0.00     0.029 A 
ATOM     24  C   UNL A   1      39.655  29.494  30.093  1.00  0.00     0.049 A 
ATOM     25  H   UNL A   1      39.869  30.621  31.835  1.00  0.00     0.167 HD
ATOM     26  C   UNL A   1      40.155  33.115  35.445  1.00  0.00     0.034 A 
ATOM     27  C   UNL A   1      40.604  28.540  30.106  1.00  0.00     0.034 A 
ATOM     28  C   UNL A   1      41.196  32.118  35.562  1.00  0.00     0.049 A 
ATOM     29  C   UNL A   1      41.542  28.488  31.281  1.00  0.00     0.074 A 
ATOM     30  C   UNL A   1      42.099  31.930  36.596  1.00  0.00     0.029 A 
ATOM     31  N   UNL A   1      41.478  31.140  34.615  1.00  0.00    -0.354 N 
ATOM     32  N   UNL A   1      41.571  29.253  32.348  1.00  0.00    -0.248 NA
ATOM     33  C   UNL A   1      42.569  27.443  31.255  1.00  0.00     0.031 C 
ATOM     34  C   UNL A   1      42.965  30.889  36.244  1.00  0.00     0.029 A 
ATOM     35  C   UNL A   1      42.554  30.367  35.028  1.00  0.00     0.049 A 
ATOM     36  H   UNL A   1      40.985  31.015  33.772  1.00  0.00     0.167 HD
ATOM     37  C   UNL A   1      42.617  28.771  33.127  1.00  0.00     0.074 A 
ATOM     38  C   UNL A   1      43.157  27.623  32.426  1.00  0.00     0.031 C 
ATOM     39  C   UNL A   1      43.097  29.240  34.307  1.00  0.00     0.034 A 
BRANCH  26  40
ATOM     40  C   UNL A   1      40.006  34.133  36.553  1.00  0.00     0.023 A 
ATOM     41  C   UNL A   1      39.546  33.772  37.831  1.00  0.00     0.031 A 
ATOM     42  C   UNL A   1      40.344  35.480  36.333  1.00  0.00     0.131 A 
ATOM     43  C   UNL A   1      39.390  34.753  38.824  1.00  0.00     0.055 A 
ATOM     44  C   UNL A   1      40.254  36.439  37.346  1.00  0.00     0.041 A 
ATOM     45  F   UNL A   1      40.770  35.891  35.128  1.00  0.00    -0.206 F 
ATOM     46  C   UNL A   1      39.765  36.079  38.598  1.00  0.00     0.022 A 
BRANCH  43  47
ATOM     47  S   UNL A   1      38.583  34.290  40.381  1.00  0.00     0.124 S 
ATOM     48  O   UNL A   1      38.206  35.596  40.918  1.00  0.00    -0.237 OA
ATOM     49  O   UNL A   1      37.484  33.445  39.929  1.00  0.00    -0.237 OA
ATOM     50  O   UNL A   1      39.637  33.600  41.123  1.00  0.00    -0.744 OA
ENDBRANCH  43  47
ENDBRANCH  26  40
BRANCH  27  51
ATOM     51  C   UNL A   1      40.750  27.603  28.956  1.00  0.00     0.023 A 
ATOM     52  C   UNL A   1      41.695  27.831  27.946  1.00  0.00     0.031 A 
ATOM     53  C   UNL A   1      39.906  26.484  28.826  1.00  0.00     0.131 A 
ATOM     54  C   UNL A   1      41.733  26.990  26.823  1.00  0.00     0.055 A 
ATOM     55  C   UNL A   1      39.998  25.608  27.745  1.00  0.00     0.041 A 
ATOM     56  F   UNL A   1      38.982  26.216  29.764  1.00  0.00    -0.206 F 
ATOM     57  C   UNL A   1      40.904  25.871  26.724  1.00  0.00     0.022 A 
BRANCH  54  58
ATOM     58  S   UNL A   1      42.800  27.453  25.432  1.00  0.00     0.124 S 
ATOM     59  O   UNL A   1      42.765  26.244  24.615  1.00  0.00    -0.237 OA
ATOM     60  O   UNL A   1      42.101  28.613  24.889  1.00  0.00    -0.237 OA
ATOM     61  O   UNL A   1      44.083  27.740  26.069  1.00  0.00    -0.744 OA
ENDBRANCH  54  58
ENDBRANCH  27  51
BRANCH  39  62
ATOM     62  C   UNL A   1      44.251  28.476  34.911  1.00  0.00     0.023 A 
ATOM     63  C   UNL A   1      44.041  27.464  35.866  1.00  0.00     0.031 A 
ATOM     64  C   UNL A   1      45.574  28.804  34.577  1.00  0.00     0.131 A 
ATOM     65  C   UNL A   1      45.137  26.879  36.516  1.00  0.00     0.055 A 
ATOM     66  C   UNL A   1      46.662  28.163  35.171  1.00  0.00     0.041 A 
ATOM     67  F   UNL A   1      45.835  29.764  33.675  1.00  0.00    -0.206 F 
ATOM     68  C   UNL A   1      46.447  27.209  36.161  1.00  0.00     0.022 A 
BRANCH  65  69
ATOM     69  S   UNL A   1      44.823  25.783  37.926  1.00  0.00     0.124 S 
ATOM     70  O   UNL A   1      46.039  25.949  38.715  1.00  0.00    -0.237 OA
ATOM     71  O   UNL A   1      43.608  26.351  38.498  1.00  0.00    -0.237 OA
ATOM     72  O   UNL A   1      44.660  24.468  37.307  1.00  0.00    -0.744 OA
ENDBRANCH  65  69
ENDBRANCH  39  62
ENDBRANCH  13  14
ENDBRANCH   6   8
ENDBRANCH   3   4
ENDBRANCH   2   3
ENDBRANCH   1   2
BRANCH   1  73
ATOM     73  C   UNL A   1      31.835  29.014  26.274  1.00  0.00     0.002 C 
BRANCH  73  74
ATOM     74  C   UNL A   1      31.267  27.735  26.902  1.00  0.00     0.021 C 
BRANCH  74  75
ATOM     75  C   UNL A   1      32.044  26.450  26.654  1.00  0.00     0.116 C 
BRANCH  75  76
ATOM     76  N   UNL A   1      31.238  25.254  26.795  1.00  0.00    -0.356 N 
ATOM     77  C   UNL A   1      31.657  23.964  26.681  1.00  0.00     0.223 C 
ATOM     78  H   UNL A   1      30.284  25.389  26.996  1.00  0.00     0.163 HD
ATOM     79  O   UNL A   1      31.470  23.267  27.682  1.00  0.00    -0.275 OA
BRANCH  77  80
ATOM     80  C   UNL A   1      32.326  23.340  25.441  1.00  0.00     0.091 C 
ATOM     81  C   UNL A   1      33.770  22.977  25.823  1.00  0.00     0.014 C 
ATOM     82  C   UNL A   1      32.314  24.049  24.054  1.00  0.00     0.091 C 
ATOM     83  C   UNL A   1      34.413  22.050  24.811  1.00  0.00     0.001 C 
ATOM     84  C   UNL A   1      33.072  23.161  23.022  1.00  0.00     0.014 C 
ATOM     85  C   UNL A   1      34.464  22.750  23.465  1.00  0.00     0.001 C 
BRANCH  82  86
ATOM     86  C   UNL A   1      31.099  24.517  23.209  1.00  0.00     0.228 C 
ATOM     87  O   UNL A   1      30.223  23.681  22.938  1.00  0.00    -0.274 OA
ATOM     88  N   UNL A   1      30.755  25.818  22.985  1.00  0.00    -0.325 N 
ATOM     89  H   UNL A   1      29.816  25.983  22.743  1.00  0.00     0.169 HD
BRANCH  88  90
ATOM     90  C   UNL A   1      31.572  26.940  23.059  1.00  0.00     0.054 A 
ATOM     91  C   UNL A   1      32.927  26.703  23.332  1.00  0.00     0.027 A 
ATOM     92  C   UNL A   1      31.107  28.238  22.828  1.00  0.00     0.063 A 
ATOM     93  C   UNL A   1      33.864  27.709  23.114  1.00  0.00     0.002 A 
ATOM     94  C   UNL A   1      32.069  29.227  22.556  1.00  0.00     0.016 A 
ATOM     95  C   UNL A   1      33.438  28.950  22.653  1.00  0.00     0.001 A 
BRANCH  92  96
ATOM     96  C   UNL A   1      29.675  28.685  23.037  1.00  0.00     0.256 C 
ATOM     97  O   UNL A   1      28.818  27.851  23.332  1.00  0.00    -0.269 OA
ATOM     98  N   UNL A   1      29.303  29.981  22.646  1.00  0.00    -0.334 N 
ATOM     99  C   UNL A   1      28.315  30.033  21.579  1.00  0.00     0.148 C 
ATOM    100  C   UNL A   1      29.019  30.982  23.682  1.00  0.00     0.148 C 
ATOM    101  C   UNL A   1      28.196  31.453  21.032  1.00  0.00     0.181 C 
ATOM    102  C   UNL A   1      28.727  32.382  23.120  1.00  0.00     0.181 C 
ATOM    103  O   UNL A   1      27.754  32.345  22.068  1.00  0.00    -0.378 OA
ENDBRANCH  92  96
ENDBRANCH  88  90
ENDBRANCH  82  86
ENDBRANCH  77  80
ENDBRANCH  75  76
ENDBRANCH  74  75
ENDBRANCH  73  74
ENDBRANCH   1  73
TORSDOF 19
ENDMDL
MODEL 2
REMARK VINA RESULT:     -12.7      1.283      7.316
REMARK SMILES O=C(NCCCCCCNC(=O)[C@@H]1CCCC[C@H]1C(=O)Nc1ccccc1C(=O)N1CCOCC1)c1ccc(-c2c3nc(c(-c4cc(S(=O)(=O)[O-])ccc4F)c4ccc([nH]4)c(-c4cc(S(=O)(=O)[O-])ccc4F)c4nc(c(-c5cc(S(=O)(=O)[O-])ccc5F)c5ccc2[nH]5)C=C4)C=C3)cc1
REMARK SMILES IDX 6 1 5 2 4 3 3 4 1 5 2 6 36 8 37 9 98 10 38 11 97 12 39 13
REMARK SMILES IDX 40 14 41 15 91 16 42 17 96 18 90 19 92 20 43 21 95 22 89 23
REMARK SMILES IDX 88 24 44 26 76 27 56 28 75 29 57 30 60 31 74 32 93 33 58 34
REMARK SMILES IDX 59 35 73 37 94 38 61 39 45 40 46 41 54 42 47 43 53 44 55 45
REMARK SMILES IDX 52 46 48 47 49 48 50 49 51 50 77 51 78 52 86 53 79 54 85 55
REMARK SMILES IDX 87 56 84 57 80 58 81 59 82 60 83 61 62 62 63 63 71 64 64 65
REMARK SMILES IDX 70 66 72 67 69 68 65 69 66 70 67 71 68 72 7 73 8 74 9 75
REMARK SMILES IDX 10 76 11 77 12 79 13 80 14 81 18 82 15 83 17 84 16 85 19 86
REMARK SMILES IDX 20 87 21 88 22 90 23 91 27 92 24 93 26 94 25 95 28 96 29 97
REMARK SMILES IDX 30 98 31 99 35 100 32 101 34 102 33 103
REMARK H PARENT 3 7 92 25 60 36 10 78 21 89
REMARK Flexibility Score: inf
ROOT
ATOM      1  C   UNL A   1      32.184  30.106  27.250  1.00  0.00     0.002 C 
ENDROOT
BRANCH   1   2
ATOM      2  C   UNL A   1      31.678  31.490  26.855  1.00  0.00     0.021 C 
BRANCH   2   3
ATOM      3  C   UNL A   1      32.753  32.540  26.645  1.00  0.00     0.116 C 
BRANCH   3   4
ATOM      4  N   UNL A   1      32.443  33.815  27.268  1.00  0.00    -0.352 N 
ATOM      5  O   UNL A   1      32.595  35.402  28.872  1.00  0.00    -0.269 OA
ATOM      6  C   UNL A   1      33.039  34.385  28.378  1.00  0.00     0.251 C 
ATOM      7  H   UNL A   1      31.720  34.336  26.850  1.00  0.00     0.163 HD
BRANCH   6   8
ATOM      8  C   UNL A   1      34.222  33.707  28.966  1.00  0.00     0.039 A 
ATOM      9  C   UNL A   1      34.044  32.620  29.823  1.00  0.00     0.014 A 
ATOM     10  C   UNL A   1      35.504  34.196  28.704  1.00  0.00     0.014 A 
ATOM     11  C   UNL A   1      35.123  32.133  30.544  1.00  0.00     0.010 A 
ATOM     12  C   UNL A   1      36.609  33.615  29.339  1.00  0.00     0.010 A 
ATOM     13  C   UNL A   1      36.426  32.591  30.280  1.00  0.00    -0.014 A 
BRANCH  13  14
ATOM     14  C   UNL A   1      37.564  31.885  30.928  1.00  0.00     0.031 A 
ATOM     15  C   UNL A   1      38.389  30.863  30.197  1.00  0.00     0.074 A 
ATOM     16  C   UNL A   1      37.876  32.236  32.193  1.00  0.00     0.049 A 
ATOM     17  N   UNL A   1      39.431  30.194  30.624  1.00  0.00    -0.248 NA
ATOM     18  C   UNL A   1      37.997  30.541  28.818  1.00  0.00     0.031 C 
ATOM     19  C   UNL A   1      37.129  33.208  33.001  1.00  0.00     0.029 A 
ATOM     20  N   UNL A   1      38.907  31.857  33.013  1.00  0.00    -0.354 N 
ATOM     21  C   UNL A   1      39.817  29.368  29.574  1.00  0.00     0.074 A 
ATOM     22  C   UNL A   1      38.870  29.594  28.500  1.00  0.00     0.031 C 
ATOM     23  C   UNL A   1      37.765  33.402  34.161  1.00  0.00     0.029 A 
ATOM     24  C   UNL A   1      38.902  32.498  34.231  1.00  0.00     0.049 A 
ATOM     25  H   UNL A   1      39.584  31.192  32.754  1.00  0.00     0.167 HD
ATOM     26  C   UNL A   1      40.866  28.510  29.515  1.00  0.00     0.034 A 
ATOM     27  C   UNL A   1      39.703  32.354  35.303  1.00  0.00     0.034 A 
ATOM     28  C   UNL A   1      41.792  28.294  30.605  1.00  0.00     0.049 A 
ATOM     29  C   UNL A   1      40.832  31.364  35.218  1.00  0.00     0.074 A 
ATOM     30  C   UNL A   1      42.889  27.450  30.651  1.00  0.00     0.029 A 
ATOM     31  N   UNL A   1      41.731  28.924  31.843  1.00  0.00    -0.354 N 
ATOM     32  N   UNL A   1      41.181  30.596  34.212  1.00  0.00    -0.248 NA
ATOM     33  C   UNL A   1      41.675  31.226  36.409  1.00  0.00     0.031 C 
ATOM     34  C   UNL A   1      43.447  27.518  31.932  1.00  0.00     0.029 A 
ATOM     35  C   UNL A   1      42.752  28.467  32.665  1.00  0.00     0.049 A 
ATOM     36  H   UNL A   1      41.059  29.596  32.100  1.00  0.00     0.167 HD
ATOM     37  C   UNL A   1      42.297  29.890  34.649  1.00  0.00     0.074 A 
ATOM     38  C   UNL A   1      42.584  30.361  35.989  1.00  0.00     0.031 C 
ATOM     39  C   UNL A   1      43.012  28.930  34.008  1.00  0.00     0.034 A 
BRANCH  26  40
ATOM     40  C   UNL A   1      41.053  27.712  28.244  1.00  0.00     0.023 A 
ATOM     41  C   UNL A   1      40.563  26.401  28.115  1.00  0.00     0.031 A 
ATOM     42  C   UNL A   1      41.717  28.276  27.140  1.00  0.00     0.131 A 
ATOM     43  C   UNL A   1      40.786  25.682  26.930  1.00  0.00     0.055 A 
ATOM     44  C   UNL A   1      41.874  27.581  25.938  1.00  0.00     0.041 A 
ATOM     45  F   UNL A   1      42.226  29.517  27.209  1.00  0.00    -0.206 F 
ATOM     46  C   UNL A   1      41.416  26.271  25.832  1.00  0.00     0.022 A 
BRANCH  43  47
ATOM     47  S   UNL A   1      40.340  23.924  26.886  1.00  0.00     0.124 S 
ATOM     48  O   UNL A   1      41.419  23.366  26.073  1.00  0.00    -0.237 OA
ATOM     49  O   UNL A   1      40.351  23.559  28.297  1.00  0.00    -0.237 OA
ATOM     50  O   UNL A   1      39.025  23.919  26.249  1.00  0.00    -0.744 OA
ENDBRANCH  43  47
ENDBRANCH  26  40
BRANCH  27  51
ATOM     51  C   UNL A   1      39.433  33.115  36.556  1.00  0.00     0.023 A 
ATOM     52  C   UNL A   1      38.663  32.567  37.591  1.00  0.00     0.031 A 
ATOM     53  C   UNL A   1      39.905  34.433  36.715  1.00  0.00     0.131 A 
ATOM     54  C   UNL A   1      38.338  33.350  38.709  1.00  0.00     0.055 A 
ATOM     55  C   UNL A   1      39.642  35.181  37.861  1.00  0.00     0.041 A 
ATOM     56  F   UNL A   1      40.648  35.009  35.755  1.00  0.00    -0.206 F 
ATOM     57  C   UNL A   1      38.836  34.646  38.860  1.00  0.00     0.022 A 
BRANCH  54  58
ATOM     58  S   UNL A   1      37.148  32.692  39.909  1.00  0.00     0.124 S 
ATOM     59  O   UNL A   1      35.987  32.432  39.065  1.00  0.00    -0.237 OA
ATOM     60  O   UNL A   1      37.849  31.516  40.415  1.00  0.00    -0.237 OA
ATOM     61  O   UNL A   1      36.993  33.785  40.867  1.00  0.00    -0.744 OA
ENDBRANCH  54  58
ENDBRANCH  27  51
BRANCH  39  62
ATOM     62  C   UNL A   1      44.190  28.359  34.760  1.00  0.00     0.023 A 
ATOM     63  C   UNL A   1      44.026  27.339  35.715  1.00  0.00     0.031 A 
ATOM     64  C   UNL A   1      45.479  28.881  34.566  1.00  0.00     0.131 A 
ATOM     65  C   UNL A   1      45.115  26.936  36.501  1.00  0.00     0.055 A 
ATOM     66  C   UNL A   1      46.575  28.420  35.297  1.00  0.00     0.041 A 
ATOM     67  F   UNL A   1      45.695  29.857  33.670  1.00  0.00    -0.206 F 
ATOM     68  C   UNL A   1      46.392  27.457  36.285  1.00  0.00     0.022 A 
BRANCH  65  69
ATOM     69  S   UNL A   1      44.808  25.823  37.899  1.00  0.00     0.124 S 
ATOM     70  O   UNL A   1      44.731  24.523  37.241  1.00  0.00    -0.237 OA
ATOM     71  O   UNL A   1      45.982  26.044  38.737  1.00  0.00    -0.237 OA
ATOM     72  O   UNL A   1      43.549  26.312  38.456  1.00  0.00    -0.744 OA
ENDBRANCH  65  69
ENDBRANCH  39  62
ENDBRANCH  13  14
ENDBRANCH   6   8
ENDBRANCH   3   4
ENDBRANCH   2   3
ENDBRANCH   1   2
BRANCH   1  73
ATOM     73  C   UNL A   1      31.789  28.937  26.338  1.00  0.00     0.002 C 
BRANCH  73  74
ATOM     74  C   UNL A   1      31.309  27.645  27.008  1.00  0.00     0.021 C 
BRANCH  74  75
ATOM     75  C   UNL A   1      32.114  26.386  26.720  1.00  0.00     0.116 C 
BRANCH  75  76
ATOM     76  N   UNL A   1      31.342  25.166  26.854  1.00  0.00    -0.356 N 
ATOM     77  C   UNL A   1      31.790  23.891  26.698  1.00  0.00     0.223 C 
ATOM     78  H   UNL A   1      30.391  25.272  27.084  1.00  0.00     0.163 HD
ATOM     79  O   UNL A   1      31.649  23.167  27.688  1.00  0.00    -0.275 OA
BRANCH  77  80
ATOM     80  C   UNL A   1      32.440  23.313  25.426  1.00  0.00     0.091 C 
ATOM     81  C   UNL A   1      33.897  22.957  25.767  1.00  0.00     0.014 C 
ATOM     82  C   UNL A   1      32.390  24.063  24.062  1.00  0.00     0.091 C 
ATOM     83  C   UNL A   1      34.530  22.069  24.714  1.00  0.00     0.001 C 
ATOM     84  C   UNL A   1      33.137  23.216  22.988  1.00  0.00     0.014 C 
ATOM     85  C   UNL A   1      34.544  22.810  23.389  1.00  0.00     0.001 C 
BRANCH  82  86
ATOM     86  C   UNL A   1      31.152  24.541  23.257  1.00  0.00     0.228 C 
ATOM     87  O   UNL A   1      30.272  23.706  22.995  1.00  0.00    -0.274 OA
ATOM     88  N   UNL A   1      30.798  25.844  23.065  1.00  0.00    -0.325 N 
ATOM     89  H   UNL A   1      29.852  26.009  22.849  1.00  0.00     0.169 HD
BRANCH  88  90
ATOM     90  C   UNL A   1      31.612  26.967  23.136  1.00  0.00     0.054 A 
ATOM     91  C   UNL A   1      32.963  26.736  23.435  1.00  0.00     0.027 A 
ATOM     92  C   UNL A   1      31.150  28.262  22.878  1.00  0.00     0.063 A 
ATOM     93  C   UNL A   1      33.903  27.739  23.218  1.00  0.00     0.002 A 
ATOM     94  C   UNL A   1      32.115  29.247  22.609  1.00  0.00     0.016 A 
ATOM     95  C   UNL A   1      33.484  28.974  22.733  1.00  0.00     0.001 A 
BRANCH  92  96
ATOM     96  C   UNL A   1      29.715  28.710  23.058  1.00  0.00     0.256 C 
ATOM     97  O   UNL A   1      28.849  27.875  23.324  1.00  0.00    -0.269 OA
ATOM     98  N   UNL A   1      29.355  30.010  22.671  1.00  0.00    -0.334 N 
ATOM     99  C   UNL A   1      28.393  30.075  21.580  1.00  0.00     0.148 C 
ATOM    100  C   UNL A   1      29.048  31.002  23.709  1.00  0.00     0.148 C 
ATOM    101  C   UNL A   1      28.290  31.501  21.045  1.00  0.00     0.181 C 
ATOM    102  C   UNL A   1      28.773  32.408  23.153  1.00  0.00     0.181 C 
ATOM    103  O   UNL A   1      27.825  32.383  22.078  1.00  0.00    -0.378 OA
ENDBRANCH  92  96
ENDBRANCH  88  90
ENDBRANCH  82  86
ENDBRANCH  77  80
ENDBRANCH  75  76
ENDBRANCH  74  75
ENDBRANCH  73  74
ENDBRANCH   1  73
TORSDOF 19
ENDMDL
MODEL 3
REMARK VINA RESULT:     -12.7      5.734     11.529
REMARK SMILES O=C(NCCCCCCNC(=O)[C@@H]1CCCC[C@H]1C(=O)Nc1ccccc1C(=O)N1CCOCC1)c1ccc(-c2c3nc(c(-c4cc(S(=O)(=O)[O-])ccc4F)c4ccc([nH]4)c(-c4cc(S(=O)(=O)[O-])ccc4F)c4nc(c(-c5cc(S(=O)(=O)[O-])ccc5F)c5ccc2[nH]5)C=C4)C=C3)cc1
REMARK SMILES IDX 6 1 5 2 4 3 3 4 1 5 2 6 36 8 37 9 98 10 38 11 97 12 39 13
REMARK SMILES IDX 40 14 41 15 91 16 42 17 96 18 90 19 92 20 43 21 95 22 89 23
REMARK SMILES IDX 88 24 44 26 76 27 56 28 75 29 57 30 60 31 74 32 93 33 58 34
REMARK SMILES IDX 59 35 73 37 94 38 61 39 45 40 46 41 54 42 47 43 53 44 55 45
REMARK SMILES IDX 52 46 48 47 49 48 50 49 51 50 77 51 78 52 86 53 79 54 85 55
REMARK SMILES IDX 87 56 84 57 80 58 81 59 82 60 83 61 62 62 63 63 71 64 64 65
REMARK SMILES IDX 70 66 72 67 69 68 65 69 66 70 67 71 68 72 7 73 8 74 9 75
REMARK SMILES IDX 10 76 11 77 12 79 13 80 14 81 18 82 15 83 17 84 16 85 19 86
REMARK SMILES IDX 20 87 21 88 22 90 23 91 27 92 24 93 26 94 25 95 28 96 29 97
REMARK SMILES IDX 30 98 31 99 35 100 32 101 34 102 33 103
REMARK H PARENT 3 7 92 25 60 36 10 78 21 89
REMARK Flexibility Score: inf
ROOT
ATOM      1  C   UNL A   1      38.009  21.490  25.444  1.00  0.00     0.002 C 
ENDROOT
BRANCH   1   2
ATOM      2  C   UNL A   1      38.792  20.189  25.298  1.00  0.00     0.021 C 
BRANCH   2   3
ATOM      3  C   UNL A   1      39.798  19.907  26.399  1.00  0.00     0.116 C 
BRANCH   3   4
ATOM      4  N   UNL A   1      40.911  19.082  25.966  1.00  0.00    -0.352 N 
ATOM      5  O   UNL A   1      43.036  18.694  25.298  1.00  0.00    -0.269 OA
ATOM      6  C   UNL A   1      42.229  19.458  25.788  1.00  0.00     0.251 C 
ATOM      7  H   UNL A   1      40.701  18.139  25.775  1.00  0.00     0.163 HD
BRANCH   6   8
ATOM      8  C   UNL A   1      42.628  20.830  26.190  1.00  0.00     0.039 A 
ATOM      9  C   UNL A   1      42.994  21.760  25.216  1.00  0.00     0.014 A 
ATOM     10  C   UNL A   1      42.689  21.167  27.545  1.00  0.00     0.014 A 
ATOM     11  C   UNL A   1      43.577  22.958  25.598  1.00  0.00     0.010 A 
ATOM     12  C   UNL A   1      43.160  22.431  27.923  1.00  0.00     0.010 A 
ATOM     13  C   UNL A   1      43.627  23.330  26.952  1.00  0.00    -0.014 A 
BRANCH  13  14
ATOM     14  C   UNL A   1      44.067  24.712  27.287  1.00  0.00     0.031 A 
ATOM     15  C   UNL A   1      45.484  25.169  27.086  1.00  0.00     0.074 A 
ATOM     16  C   UNL A   1      43.127  25.574  27.729  1.00  0.00     0.049 A 
ATOM     17  N   UNL A   1      46.001  26.353  27.301  1.00  0.00    -0.248 NA
ATOM     18  C   UNL A   1      46.448  24.177  26.590  1.00  0.00     0.031 C 
ATOM     19  C   UNL A   1      41.721  25.228  27.974  1.00  0.00     0.029 A 
ATOM     20  N   UNL A   1      43.187  26.913  28.017  1.00  0.00    -0.354 N 
ATOM     21  C   UNL A   1      47.349  26.251  26.976  1.00  0.00     0.074 A 
ATOM     22  C   UNL A   1      47.577  24.875  26.583  1.00  0.00     0.031 C 
ATOM     23  C   UNL A   1      41.043  26.333  28.300  1.00  0.00     0.029 A 
ATOM     24  C   UNL A   1      41.975  27.447  28.392  1.00  0.00     0.049 A 
ATOM     25  H   UNL A   1      44.016  27.440  27.961  1.00  0.00     0.167 HD
ATOM     26  C   UNL A   1      48.299  27.219  26.997  1.00  0.00     0.034 A 
ATOM     27  C   UNL A   1      41.649  28.688  28.799  1.00  0.00     0.034 A 
ATOM     28  C   UNL A   1      48.049  28.585  27.403  1.00  0.00     0.049 A 
ATOM     29  C   UNL A   1      42.736  29.726  28.850  1.00  0.00     0.074 A 
ATOM     30  C   UNL A   1      48.938  29.645  27.461  1.00  0.00     0.029 A 
ATOM     31  N   UNL A   1      46.821  29.082  27.823  1.00  0.00    -0.354 N 
ATOM     32  N   UNL A   1      44.005  29.609  28.532  1.00  0.00    -0.248 NA
ATOM     33  C   UNL A   1      42.346  31.062  29.309  1.00  0.00     0.031 C 
ATOM     34  C   UNL A   1      48.268  30.758  27.977  1.00  0.00     0.029 A 
ATOM     35  C   UNL A   1      46.937  30.422  28.165  1.00  0.00     0.049 A 
ATOM     36  H   UNL A   1      45.988  28.558  27.871  1.00  0.00     0.167 HD
ATOM     37  C   UNL A   1      44.562  30.865  28.743  1.00  0.00     0.074 A 
ATOM     38  C   UNL A   1      43.480  31.730  29.169  1.00  0.00     0.031 C 
ATOM     39  C   UNL A   1      45.853  31.266  28.611  1.00  0.00     0.034 A 
BRANCH  26  40
ATOM     40  C   UNL A   1      49.707  26.833  26.603  1.00  0.00     0.023 A 
ATOM     41  C   UNL A   1      50.252  27.193  25.358  1.00  0.00     0.031 A 
ATOM     42  C   UNL A   1      50.522  26.107  27.491  1.00  0.00     0.131 A 
ATOM     43  C   UNL A   1      51.551  26.787  25.016  1.00  0.00     0.055 A 
ATOM     44  C   UNL A   1      51.840  25.767  27.173  1.00  0.00     0.041 A 
ATOM     45  F   UNL A   1      50.053  25.716  28.686  1.00  0.00    -0.206 F 
ATOM     46  C   UNL A   1      52.358  26.098  25.925  1.00  0.00     0.022 A 
BRANCH  43  47
ATOM     47  S   UNL A   1      52.132  27.075  23.322  1.00  0.00     0.124 S 
ATOM     48  O   UNL A   1      52.713  28.411  23.432  1.00  0.00    -0.237 OA
ATOM     49  O   UNL A   1      53.077  25.983  23.122  1.00  0.00    -0.237 OA
ATOM     50  O   UNL A   1      50.911  26.998  22.522  1.00  0.00    -0.744 OA
ENDBRANCH  43  47
ENDBRANCH  26  40
BRANCH  27  51
ATOM     51  C   UNL A   1      40.260  28.998  29.241  1.00  0.00     0.023 A 
ATOM     52  C   UNL A   1      39.889  28.919  30.591  1.00  0.00     0.031 A 
ATOM     53  C   UNL A   1      39.263  29.333  28.305  1.00  0.00     0.131 A 
ATOM     54  C   UNL A   1      38.549  29.112  30.959  1.00  0.00     0.055 A 
ATOM     55  C   UNL A   1      37.948  29.598  28.685  1.00  0.00     0.041 A 
ATOM     56  F   UNL A   1      39.560  29.424  26.997  1.00  0.00    -0.206 F 
ATOM     57  C   UNL A   1      37.580  29.468  30.019  1.00  0.00     0.022 A 
BRANCH  54  58
ATOM     58  S   UNL A   1      38.066  28.769  32.673  1.00  0.00     0.124 S 
ATOM     59  O   UNL A   1      38.115  27.311  32.709  1.00  0.00    -0.237 OA
ATOM     60  O   UNL A   1      39.104  29.465  33.425  1.00  0.00    -0.237 OA
ATOM     61  O   UNL A   1      36.729  29.351  32.771  1.00  0.00    -0.744 OA
ENDBRANCH  54  58
ENDBRANCH  27  51
BRANCH  39  62
ATOM     62  C   UNL A   1      46.136  32.718  28.910  1.00  0.00     0.023 A 
ATOM     63  C   UNL A   1      46.062  33.701  27.907  1.00  0.00     0.031 A 
ATOM     64  C   UNL A   1      46.545  33.114  30.194  1.00  0.00     0.131 A 
ATOM     65  C   UNL A   1      46.475  35.013  28.182  1.00  0.00     0.055 A 
ATOM     66  C   UNL A   1      46.880  34.437  30.482  1.00  0.00     0.041 A 
ATOM     67  F   UNL A   1      46.637  32.218  31.190  1.00  0.00    -0.206 F 
ATOM     68  C   UNL A   1      46.866  35.391  29.469  1.00  0.00     0.022 A 
BRANCH  65  69
ATOM     69  S   UNL A   1      46.625  36.181  26.803  1.00  0.00     0.124 S 
ATOM     70  O   UNL A   1      45.565  37.139  27.102  1.00  0.00    -0.237 OA
ATOM     71  O   UNL A   1      47.990  36.672  26.957  1.00  0.00    -0.237 OA
ATOM     72  O   UNL A   1      46.394  35.349  25.624  1.00  0.00    -0.744 OA
ENDBRANCH  65  69
ENDBRANCH  39  62
ENDBRANCH  13  14
ENDBRANCH   6   8
ENDBRANCH   3   4
ENDBRANCH   2   3
ENDBRANCH   1   2
BRANCH   1  73
ATOM     73  C   UNL A   1      36.815  21.690  24.502  1.00  0.00     0.002 C 
BRANCH  73  74
ATOM     74  C   UNL A   1      36.815  22.938  23.610  1.00  0.00     0.021 C 
BRANCH  74  75
ATOM     75  C   UNL A   1      35.879  24.067  24.017  1.00  0.00     0.116 C 
BRANCH  75  76
ATOM     76  N   UNL A   1      35.586  24.087  25.436  1.00  0.00    -0.356 N 
ATOM     77  C   UNL A   1      34.357  24.115  26.019  1.00  0.00     0.223 C 
ATOM     78  H   UNL A   1      36.360  24.080  26.045  1.00  0.00     0.163 HD
ATOM     79  O   UNL A   1      34.120  23.169  26.777  1.00  0.00    -0.275 OA
BRANCH  77  80
ATOM     80  C   UNL A   1      33.281  25.197  25.804  1.00  0.00     0.091 C 
ATOM     81  C   UNL A   1      33.918  26.558  26.129  1.00  0.00     0.014 C 
ATOM     82  C   UNL A   1      31.876  25.105  26.467  1.00  0.00     0.091 C 
ATOM     83  C   UNL A   1      33.080  27.716  25.625  1.00  0.00     0.001 C 
ATOM     84  C   UNL A   1      31.034  26.349  26.051  1.00  0.00     0.014 C 
ATOM     85  C   UNL A   1      31.724  27.676  26.309  1.00  0.00     0.001 C 
BRANCH  82  86
ATOM     86  C   UNL A   1      30.815  23.976  26.352  1.00  0.00     0.228 C 
ATOM     87  O   UNL A   1      30.002  23.846  27.281  1.00  0.00    -0.274 OA
ATOM     88  N   UNL A   1      30.506  23.307  25.205  1.00  0.00    -0.325 N 
ATOM     89  H   UNL A   1      29.619  22.881  25.178  1.00  0.00     0.169 HD
BRANCH  88  90
ATOM     90  C   UNL A   1      31.291  23.154  24.070  1.00  0.00     0.054 A 
ATOM     91  C   UNL A   1      31.159  24.145  23.086  1.00  0.00     0.027 A 
ATOM     92  C   UNL A   1      32.209  22.111  23.912  1.00  0.00     0.063 A 
ATOM     93  C   UNL A   1      32.112  24.254  22.078  1.00  0.00     0.002 A 
ATOM     94  C   UNL A   1      33.196  22.267  22.924  1.00  0.00     0.016 A 
ATOM     95  C   UNL A   1      33.174  23.356  22.043  1.00  0.00     0.001 A 
BRANCH  92  96
ATOM     96  C   UNL A   1      32.096  20.761  24.590  1.00  0.00     0.256 C 
ATOM     97  O   UNL A   1      31.515  20.675  25.672  1.00  0.00    -0.269 OA
ATOM     98  N   UNL A   1      32.866  19.691  24.108  1.00  0.00    -0.334 N 
ATOM     99  C   UNL A   1      33.853  19.181  25.048  1.00  0.00     0.148 C 
ATOM    100  C   UNL A   1      32.195  18.596  23.396  1.00  0.00     0.148 C 
ATOM    101  C   UNL A   1      34.820  18.234  24.343  1.00  0.00     0.181 C 
ATOM    102  C   UNL A   1      33.164  17.545  22.832  1.00  0.00     0.181 C 
ATOM    103  O   UNL A   1      34.107  17.104  23.816  1.00  0.00    -0.378 OA
ENDBRANCH  92  96
ENDBRANCH  88  90
ENDBRANCH  82  86
ENDBRANCH  77  80
ENDBRANCH  75  76
ENDBRANCH  74  75
ENDBRANCH  73  74
ENDBRANCH   1  73
TORSDOF 19
ENDMDL
