MODEL 1
REMARK VINA RESULT:     -11.2      0.000      0.000
REMARK SMILES C[C@H]1OCC[C@H]1C(=O)Nc1ccsc1C(=O)NCCCCCCNC(=O)c1ccc(-c2c3nc(c(-c4cc(S(=O)(=O)[O-])ccc4F)c4ccc([nH]4)c(-c4cc(S(=O)(=O)[O-])ccc4F)c4nc(c(-c5cc(S(=O)(=O)[O-])ccc5F)c5ccc2[nH]5)C=C4)C=C3)cc1
REMARK SMILES IDX 21 1 20 2 19 3 18 4 17 5 15 6 16 7 14 9 10 10 11 11 12 12
REMARK SMILES IDX 13 13 9 14 7 15 8 16 6 18 1 19 2 20 3 21 4 22 5 23 22 24
REMARK SMILES IDX 23 25 24 26 25 27 26 29 27 30 28 31 89 32 29 33 88 34 30 35
REMARK SMILES IDX 31 36 32 37 82 38 33 39 87 40 81 41 83 42 34 43 86 44 80 45
REMARK SMILES IDX 79 46 35 48 67 49 47 50 66 51 48 52 51 53 65 54 84 55 49 56
REMARK SMILES IDX 50 57 64 59 85 60 52 61 36 62 37 63 45 64 38 65 44 66 46 67
REMARK SMILES IDX 43 68 39 69 40 70 41 71 42 72 68 73 69 74 77 75 70 76 76 77
REMARK SMILES IDX 78 78 75 79 71 80 72 81 73 82 74 83 53 84 54 85 62 86 55 87
REMARK SMILES IDX 61 88 63 89 60 90 56 91 57 92 58 93 59 94
REMARK H PARENT 17 8 9 17 24 28 83 47 51 58
REMARK Flexibility Score: inf
ROOT
ATOM      1  C   UNL A   1      36.741  20.633  25.092  1.00  0.00     0.002 C 
ENDROOT
BRANCH   1   2
ATOM      2  C   UNL A   1      36.580  22.155  25.067  1.00  0.00     0.002 C 
BRANCH   2   3
ATOM      3  C   UNL A   1      35.650  22.764  26.115  1.00  0.00     0.021 C 
BRANCH   3   4
ATOM      4  C   UNL A   1      34.243  23.096  25.645  1.00  0.00     0.116 C 
BRANCH   4   5
ATOM      5  N   UNL A   1      33.199  22.945  26.622  1.00  0.00    -0.351 N 
ATOM      6  C   UNL A   1      31.913  23.440  26.654  1.00  0.00     0.263 C 
ATOM      7  O   UNL A   1      31.281  23.102  27.663  1.00  0.00    -0.268 OA
ATOM      8  H   UNL A   1      33.445  22.394  27.400  1.00  0.00     0.163 HD
BRANCH   6   9
ATOM      9  C   UNL A   1      31.337  24.312  25.619  1.00  0.00     0.115 A 
ATOM     10  C   UNL A   1      30.790  25.596  25.571  1.00  0.00     0.065 A 
ATOM     11  C   UNL A   1      30.490  25.996  24.231  1.00  0.00     0.038 A 
ATOM     12  C   UNL A   1      30.686  25.003  23.306  1.00  0.00     0.068 A 
ATOM     13  S   UNL A   1      31.288  23.594  24.031  1.00  0.00    -0.137 S 
BRANCH  10  14
ATOM     14  N   UNL A   1      30.750  26.483  26.628  1.00  0.00    -0.324 N 
ATOM     15  C   UNL A   1      31.551  27.532  26.961  1.00  0.00     0.230 C 
ATOM     16  O   UNL A   1      31.176  28.181  27.951  1.00  0.00    -0.274 OA
ATOM     17  H   UNL A   1      30.007  26.329  27.254  1.00  0.00     0.169 HD
BRANCH  15  18
ATOM     18  C   UNL A   1      32.775  28.046  26.197  1.00  0.00     0.110 C 
ATOM     19  C   UNL A   1      31.198  29.555  24.831  1.00  0.00     0.039 C 
ATOM     20  C   UNL A   1      32.598  29.290  25.354  1.00  0.00     0.127 C 
ATOM     21  O   UNL A   1      33.104  30.378  26.138  1.00  0.00    -0.378 OA
ATOM     22  C   UNL A   1      34.123  29.862  27.008  1.00  0.00     0.161 C 
ATOM     23  C   UNL A   1      34.035  28.349  26.980  1.00  0.00     0.044 C 
ENDBRANCH  15  18
ENDBRANCH  10  14
ENDBRANCH   6   9
ENDBRANCH   4   5
ENDBRANCH   3   4
ENDBRANCH   2   3
ENDBRANCH   1   2
BRANCH   1  24
ATOM     24  C   UNL A   1      38.150  20.078  24.868  1.00  0.00     0.021 C 
BRANCH  24  25
ATOM     25  C   UNL A   1      39.162  20.320  25.983  1.00  0.00     0.116 C 
BRANCH  25  26
ATOM     26  N   UNL A   1      40.245  19.353  25.982  1.00  0.00    -0.352 N 
ATOM     27  C   UNL A   1      41.602  19.538  26.073  1.00  0.00     0.251 C 
ATOM     28  H   UNL A   1      39.960  18.414  25.906  1.00  0.00     0.163 HD
ATOM     29  O   UNL A   1      42.345  18.574  25.910  1.00  0.00    -0.269 OA
BRANCH  27  30
ATOM     30  C   UNL A   1      42.175  20.881  26.330  1.00  0.00     0.039 A 
ATOM     31  C   UNL A   1      42.383  21.730  25.240  1.00  0.00     0.014 A 
ATOM     32  C   UNL A   1      42.537  21.298  27.614  1.00  0.00     0.014 A 
ATOM     33  C   UNL A   1      42.900  23.012  25.443  1.00  0.00     0.010 A 
ATOM     34  C   UNL A   1      42.982  22.605  27.825  1.00  0.00     0.010 A 
ATOM     35  C   UNL A   1      43.172  23.476  26.741  1.00  0.00    -0.014 A 
BRANCH  35  36
ATOM     36  C   UNL A   1      43.636  24.872  26.960  1.00  0.00     0.031 A 
ATOM     37  C   UNL A   1      42.721  25.902  27.565  1.00  0.00     0.074 A 
ATOM     38  C   UNL A   1      44.884  25.218  26.586  1.00  0.00     0.049 A 
ATOM     39  N   UNL A   1      42.957  27.160  27.840  1.00  0.00    -0.248 NA
ATOM     40  C   UNL A   1      41.351  25.468  27.877  1.00  0.00     0.031 C 
ATOM     41  C   UNL A   1      45.847  24.322  25.940  1.00  0.00     0.029 A 
ATOM     42  N   UNL A   1      45.562  26.405  26.694  1.00  0.00    -0.354 N 
ATOM     43  C   UNL A   1      41.767  27.670  28.352  1.00  0.00     0.074 A 
ATOM     44  C   UNL A   1      40.795  26.599  28.285  1.00  0.00     0.031 C 
ATOM     45  C   UNL A   1      46.999  24.980  25.745  1.00  0.00     0.029 A 
ATOM     46  C   UNL A   1      46.848  26.355  26.208  1.00  0.00     0.049 A 
ATOM     47  H   UNL A   1      45.166  27.218  27.085  1.00  0.00     0.167 HD
ATOM     48  C   UNL A   1      41.517  28.908  28.850  1.00  0.00     0.034 A 
ATOM     49  C   UNL A   1      47.799  27.308  26.136  1.00  0.00     0.034 A 
ATOM     50  C   UNL A   1      42.502  29.963  28.907  1.00  0.00     0.049 A 
ATOM     51  C   UNL A   1      47.494  28.679  26.682  1.00  0.00     0.074 A 
ATOM     52  C   UNL A   1      42.375  31.232  29.446  1.00  0.00     0.029 A 
ATOM     53  N   UNL A   1      43.792  29.881  28.394  1.00  0.00    -0.354 N 
ATOM     54  N   UNL A   1      46.385  29.123  27.230  1.00  0.00    -0.248 NA
ATOM     55  C   UNL A   1      48.574  29.670  26.617  1.00  0.00     0.031 C 
ATOM     56  C   UNL A   1      43.555  31.941  29.187  1.00  0.00     0.029 A 
ATOM     57  C   UNL A   1      44.455  31.089  28.567  1.00  0.00     0.049 A 
ATOM     58  H   UNL A   1      44.180  29.083  27.970  1.00  0.00     0.167 HD
ATOM     59  C   UNL A   1      46.645  30.442  27.594  1.00  0.00     0.074 A 
ATOM     60  C   UNL A   1      48.023  30.706  27.231  1.00  0.00     0.031 C 
ATOM     61  C   UNL A   1      45.821  31.353  28.175  1.00  0.00     0.034 A 
BRANCH  48  62
ATOM     62  C   UNL A   1      40.114  29.191  29.341  1.00  0.00     0.023 A 
ATOM     63  C   UNL A   1      39.772  29.103  30.703  1.00  0.00     0.031 A 
ATOM     64  C   UNL A   1      39.095  29.530  28.432  1.00  0.00     0.131 A 
ATOM     65  C   UNL A   1      38.438  29.267  31.105  1.00  0.00     0.055 A 
ATOM     66  C   UNL A   1      37.786  29.780  28.849  1.00  0.00     0.041 A 
ATOM     67  F   UNL A   1      39.351  29.609  27.116  1.00  0.00    -0.206 F 
ATOM     68  C   UNL A   1      37.447  29.632  30.191  1.00  0.00     0.022 A 
BRANCH  65  69
ATOM     69  S   UNL A   1      37.987  28.841  32.810  1.00  0.00     0.124 S 
ATOM     70  O   UNL A   1      39.021  29.540  33.571  1.00  0.00    -0.237 OA
ATOM     71  O   UNL A   1      36.636  29.376  32.923  1.00  0.00    -0.237 OA
ATOM     72  O   UNL A   1      38.086  27.383  32.836  1.00  0.00    -0.744 OA
ENDBRANCH  65  69
ENDBRANCH  48  62
BRANCH  49  73
ATOM     73  C   UNL A   1      49.123  27.007  25.518  1.00  0.00     0.023 A 
ATOM     74  C   UNL A   1      50.195  26.531  26.289  1.00  0.00     0.031 A 
ATOM     75  C   UNL A   1      49.343  27.224  24.146  1.00  0.00     0.131 A 
ATOM     76  C   UNL A   1      51.450  26.328  25.692  1.00  0.00     0.055 A 
ATOM     77  C   UNL A   1      50.577  26.967  23.546  1.00  0.00     0.041 A 
ATOM     78  F   UNL A   1      48.350  27.676  23.362  1.00  0.00    -0.206 F 
ATOM     79  C   UNL A   1      51.643  26.529  24.324  1.00  0.00     0.022 A 
BRANCH  76  80
ATOM     80  S   UNL A   1      52.853  25.877  26.749  1.00  0.00     0.124 S 
ATOM     81  O   UNL A   1      53.154  24.528  26.283  1.00  0.00    -0.237 OA
ATOM     82  O   UNL A   1      53.830  26.906  26.413  1.00  0.00    -0.237 OA
ATOM     83  O   UNL A   1      52.301  25.962  28.100  1.00  0.00    -0.744 OA
ENDBRANCH  76  80
ENDBRANCH  49  73
BRANCH  61  84
ATOM     84  C   UNL A   1      46.411  32.713  28.473  1.00  0.00     0.023 A 
ATOM     85  C   UNL A   1      46.507  33.709  27.485  1.00  0.00     0.031 A 
ATOM     86  C   UNL A   1      46.924  33.000  29.751  1.00  0.00     0.131 A 
ATOM     87  C   UNL A   1      47.172  34.912  27.766  1.00  0.00     0.055 A 
ATOM     88  C   UNL A   1      47.515  34.229  30.047  1.00  0.00     0.041 A 
ATOM     89  F   UNL A   1      46.865  32.088  30.734  1.00  0.00    -0.206 F 
ATOM     90  C   UNL A   1      47.660  35.187  29.046  1.00  0.00     0.022 A 
BRANCH  87  91
ATOM     91  S   UNL A   1      47.509  36.058  26.401  1.00  0.00     0.124 S 
ATOM     92  O   UNL A   1      48.328  37.074  27.053  1.00  0.00    -0.237 OA
ATOM     93  O   UNL A   1      48.198  35.204  25.440  1.00  0.00    -0.237 OA
ATOM     94  O   UNL A   1      46.178  36.504  25.991  1.00  0.00    -0.744 OA
ENDBRANCH  87  91
ENDBRANCH  61  84
ENDBRANCH  35  36
ENDBRANCH  27  30
ENDBRANCH  25  26
ENDBRANCH  24  25
ENDBRANCH   1  24
TORSDOF 18
ENDMDL
MODEL 2
REMARK VINA RESULT:     -11.1      5.794     11.448
REMARK SMILES C[C@H]1OCC[C@H]1C(=O)Nc1ccsc1C(=O)NCCCCCCNC(=O)c1ccc(-c2c3nc(c(-c4cc(S(=O)(=O)[O-])ccc4F)c4ccc([nH]4)c(-c4cc(S(=O)(=O)[O-])ccc4F)c4nc(c(-c5cc(S(=O)(=O)[O-])ccc5F)c5ccc2[nH]5)C=C4)C=C3)cc1
REMARK SMILES IDX 21 1 20 2 19 3 18 4 17 5 15 6 16 7 14 9 10 10 11 11 12 12
REMARK SMILES IDX 13 13 9 14 7 15 8 16 6 18 1 19 2 20 3 21 4 22 5 23 22 24
REMARK SMILES IDX 23 25 24 26 25 27 26 29 27 30 28 31 89 32 29 33 88 34 30 35
REMARK SMILES IDX 31 36 32 37 82 38 33 39 87 40 81 41 83 42 34 43 86 44 80 45
REMARK SMILES IDX 79 46 35 48 67 49 47 50 66 51 48 52 51 53 65 54 84 55 49 56
REMARK SMILES IDX 50 57 64 59 85 60 52 61 36 62 37 63 45 64 38 65 44 66 46 67
REMARK SMILES IDX 43 68 39 69 40 70 41 71 42 72 68 73 69 74 77 75 70 76 76 77
REMARK SMILES IDX 78 78 75 79 71 80 72 81 73 82 74 83 53 84 54 85 62 86 55 87
REMARK SMILES IDX 61 88 63 89 60 90 56 91 57 92 58 93 59 94
REMARK H PARENT 17 8 9 17 24 28 83 47 51 58
REMARK Flexibility Score: inf
ROOT
ATOM      1  C   UNL A   1      31.713  30.015  25.878  1.00  0.00     0.002 C 
ENDROOT
BRANCH   1   2
ATOM      2  C   UNL A   1      33.015  29.270  26.185  1.00  0.00     0.002 C 
BRANCH   2   3
ATOM      3  C   UNL A   1      33.873  28.867  24.988  1.00  0.00     0.021 C 
BRANCH   3   4
ATOM      4  C   UNL A   1      33.200  28.949  23.628  1.00  0.00     0.116 C 
BRANCH   4   5
ATOM      5  N   UNL A   1      33.497  27.883  22.709  1.00  0.00    -0.351 N 
ATOM      6  C   UNL A   1      33.260  26.528  22.791  1.00  0.00     0.263 C 
ATOM      7  O   UNL A   1      33.654  25.900  21.800  1.00  0.00    -0.268 OA
ATOM      8  H   UNL A   1      33.948  28.171  21.882  1.00  0.00     0.163 HD
BRANCH   6   9
ATOM      9  C   UNL A   1      32.631  25.867  23.944  1.00  0.00     0.115 A 
ATOM     10  C   UNL A   1      33.069  25.145  25.056  1.00  0.00     0.065 A 
ATOM     11  C   UNL A   1      31.993  24.833  25.945  1.00  0.00     0.038 A 
ATOM     12  C   UNL A   1      30.762  25.197  25.464  1.00  0.00     0.068 A 
ATOM     13  S   UNL A   1      30.890  25.970  23.960  1.00  0.00    -0.137 S 
BRANCH  10  14
ATOM     14  N   UNL A   1      34.390  24.946  25.405  1.00  0.00    -0.324 N 
ATOM     15  C   UNL A   1      35.235  23.899  25.196  1.00  0.00     0.230 C 
ATOM     16  O   UNL A   1      36.402  24.086  25.577  1.00  0.00    -0.274 OA
ATOM     17  H   UNL A   1      34.794  25.698  25.894  1.00  0.00     0.169 HD
BRANCH  15  18
ATOM     18  C   UNL A   1      34.930  22.591  24.460  1.00  0.00     0.110 C 
ATOM     19  C   UNL A   1      34.169  21.590  26.707  1.00  0.00     0.039 C 
ATOM     20  C   UNL A   1      34.099  21.558  25.191  1.00  0.00     0.127 C 
ATOM     21  O   UNL A   1      32.761  21.705  24.702  1.00  0.00    -0.378 OA
ATOM     22  C   UNL A   1      32.832  22.201  23.358  1.00  0.00     0.161 C 
ATOM     23  C   UNL A   1      34.251  22.669  23.109  1.00  0.00     0.044 C 
ENDBRANCH  15  18
ENDBRANCH  10  14
ENDBRANCH   6   9
ENDBRANCH   4   5
ENDBRANCH   3   4
ENDBRANCH   2   3
ENDBRANCH   1   2
BRANCH   1  24
ATOM     24  C   UNL A   1      31.551  31.412  26.483  1.00  0.00     0.021 C 
BRANCH  24  25
ATOM     25  C   UNL A   1      32.834  32.131  26.888  1.00  0.00     0.116 C 
BRANCH  25  26
ATOM     26  N   UNL A   1      32.605  33.503  27.304  1.00  0.00    -0.352 N 
ATOM     27  C   UNL A   1      33.191  34.238  28.304  1.00  0.00     0.251 C 
ATOM     28  H   UNL A   1      31.920  33.983  26.785  1.00  0.00     0.163 HD
ATOM     29  O   UNL A   1      32.738  35.348  28.569  1.00  0.00    -0.269 OA
BRANCH  27  30
ATOM     30  C   UNL A   1      34.333  33.699  29.081  1.00  0.00     0.039 A 
ATOM     31  C   UNL A   1      34.079  32.693  30.017  1.00  0.00     0.014 A 
ATOM     32  C   UNL A   1      35.633  34.188  28.924  1.00  0.00     0.014 A 
ATOM     33  C   UNL A   1      35.130  32.143  30.753  1.00  0.00     0.010 A 
ATOM     34  C   UNL A   1      36.694  33.586  29.605  1.00  0.00     0.010 A 
ATOM     35  C   UNL A   1      36.453  32.558  30.529  1.00  0.00    -0.014 A 
BRANCH  35  36
ATOM     36  C   UNL A   1      37.580  31.906  31.249  1.00  0.00     0.031 A 
ATOM     37  C   UNL A   1      38.383  30.814  30.595  1.00  0.00     0.074 A 
ATOM     38  C   UNL A   1      37.863  32.284  32.512  1.00  0.00     0.049 A 
ATOM     39  N   UNL A   1      39.405  30.143  31.065  1.00  0.00    -0.248 NA
ATOM     40  C   UNL A   1      37.968  30.406  29.245  1.00  0.00     0.031 C 
ATOM     41  C   UNL A   1      37.121  33.294  33.273  1.00  0.00     0.029 A 
ATOM     42  N   UNL A   1      38.843  31.874  33.379  1.00  0.00    -0.354 N 
ATOM     43  C   UNL A   1      39.751  29.230  30.074  1.00  0.00     0.074 A 
ATOM     44  C   UNL A   1      38.786  29.392  29.006  1.00  0.00     0.031 C 
ATOM     45  C   UNL A   1      37.695  33.450  34.475  1.00  0.00     0.029 A 
ATOM     46  C   UNL A   1      38.816  32.523  34.592  1.00  0.00     0.049 A 
ATOM     47  H   UNL A   1      39.505  31.181  33.154  1.00  0.00     0.167 HD
ATOM     48  C   UNL A   1      40.788  28.354  30.048  1.00  0.00     0.034 A 
ATOM     49  C   UNL A   1      39.600  32.386  35.680  1.00  0.00     0.034 A 
ATOM     50  C   UNL A   1      41.740  28.208  31.125  1.00  0.00     0.049 A 
ATOM     51  C   UNL A   1      40.737  31.398  35.634  1.00  0.00     0.074 A 
ATOM     52  C   UNL A   1      42.862  27.398  31.180  1.00  0.00     0.029 A 
ATOM     53  N   UNL A   1      41.676  28.873  32.345  1.00  0.00    -0.354 N 
ATOM     54  N   UNL A   1      41.095  30.593  34.659  1.00  0.00    -0.248 NA
ATOM     55  C   UNL A   1      41.585  31.314  36.828  1.00  0.00     0.031 C 
ATOM     56  C   UNL A   1      43.426  27.512  32.456  1.00  0.00     0.029 A 
ATOM     57  C   UNL A   1      42.712  28.461  33.171  1.00  0.00     0.049 A 
ATOM     58  H   UNL A   1      40.994  29.539  32.587  1.00  0.00     0.167 HD
ATOM     59  C   UNL A   1      42.225  29.922  35.119  1.00  0.00     0.074 A 
ATOM     60  C   UNL A   1      42.504  30.441  36.442  1.00  0.00     0.031 C 
ATOM     61  C   UNL A   1      42.966  28.964  34.502  1.00  0.00     0.034 A 
BRANCH  48  62
ATOM     62  C   UNL A   1      40.923  27.468  28.830  1.00  0.00     0.023 A 
ATOM     63  C   UNL A   1      41.919  27.685  27.860  1.00  0.00     0.031 A 
ATOM     64  C   UNL A   1      40.027  26.405  28.618  1.00  0.00     0.131 A 
ATOM     65  C   UNL A   1      41.944  26.909  26.691  1.00  0.00     0.055 A 
ATOM     66  C   UNL A   1      40.112  25.579  27.495  1.00  0.00     0.041 A 
ATOM     67  F   UNL A   1      39.040  26.157  29.494  1.00  0.00    -0.206 F 
ATOM     68  C   UNL A   1      41.064  25.839  26.514  1.00  0.00     0.022 A 
BRANCH  65  69
ATOM     69  S   UNL A   1      43.037  27.419  25.336  1.00  0.00     0.124 S 
ATOM     70  O   UNL A   1      43.243  26.155  24.632  1.00  0.00    -0.237 OA
ATOM     71  O   UNL A   1      42.235  28.417  24.640  1.00  0.00    -0.237 OA
ATOM     72  O   UNL A   1      44.218  27.937  26.025  1.00  0.00    -0.744 OA
ENDBRANCH  65  69
ENDBRANCH  48  62
BRANCH  49  73
ATOM     73  C   UNL A   1      39.337  33.194  36.906  1.00  0.00     0.023 A 
ATOM     74  C   UNL A   1      39.972  34.429  37.115  1.00  0.00     0.031 A 
ATOM     75  C   UNL A   1      38.465  32.724  37.905  1.00  0.00     0.131 A 
ATOM     76  C   UNL A   1      39.760  35.130  38.314  1.00  0.00     0.055 A 
ATOM     77  C   UNL A   1      38.214  33.452  39.069  1.00  0.00     0.041 A 
ATOM     78  F   UNL A   1      37.829  31.551  37.754  1.00  0.00    -0.206 F 
ATOM     79  C   UNL A   1      38.875  34.657  39.284  1.00  0.00     0.022 A 
BRANCH  76  80
ATOM     80  S   UNL A   1      40.727  36.634  38.623  1.00  0.00     0.124 S 
ATOM     81  O   UNL A   1      41.458  36.780  37.369  1.00  0.00    -0.237 OA
ATOM     82  O   UNL A   1      39.682  37.619  38.876  1.00  0.00    -0.237 OA
ATOM     83  O   UNL A   1      41.542  36.280  39.784  1.00  0.00    -0.744 OA
ENDBRANCH  76  80
ENDBRANCH  49  73
BRANCH  61  84
ATOM     84  C   UNL A   1      44.167  28.441  35.259  1.00  0.00     0.023 A 
ATOM     85  C   UNL A   1      44.061  27.369  36.163  1.00  0.00     0.031 A 
ATOM     86  C   UNL A   1      45.425  29.050  35.104  1.00  0.00     0.131 A 
ATOM     87  C   UNL A   1      45.169  26.994  36.937  1.00  0.00     0.055 A 
ATOM     88  C   UNL A   1      46.543  28.621  35.820  1.00  0.00     0.041 A 
ATOM     89  F   UNL A   1      45.588  30.080  34.259  1.00  0.00    -0.206 F 
ATOM     90  C   UNL A   1      46.415  27.599  36.758  1.00  0.00     0.022 A 
BRANCH  87  91
ATOM     91  S   UNL A   1      44.927  25.793  38.276  1.00  0.00     0.124 S 
ATOM     92  O   UNL A   1      46.193  25.885  38.997  1.00  0.00    -0.237 OA
ATOM     93  O   UNL A   1      43.760  26.328  38.968  1.00  0.00    -0.237 OA
ATOM     94  O   UNL A   1      44.706  24.532  37.570  1.00  0.00    -0.744 OA
ENDBRANCH  87  91
ENDBRANCH  61  84
ENDBRANCH  35  36
ENDBRANCH  27  30
ENDBRANCH  25  26
ENDBRANCH  24  25
ENDBRANCH   1  24
TORSDOF 18
ENDMDL
MODEL 3
REMARK VINA RESULT:     -10.9      2.597      3.337
REMARK SMILES C[C@H]1OCC[C@H]1C(=O)Nc1ccsc1C(=O)NCCCCCCNC(=O)c1ccc(-c2c3nc(c(-c4cc(S(=O)(=O)[O-])ccc4F)c4ccc([nH]4)c(-c4cc(S(=O)(=O)[O-])ccc4F)c4nc(c(-c5cc(S(=O)(=O)[O-])ccc5F)c5ccc2[nH]5)C=C4)C=C3)cc1
REMARK SMILES IDX 21 1 20 2 19 3 18 4 17 5 15 6 16 7 14 9 10 10 11 11 12 12
REMARK SMILES IDX 13 13 9 14 7 15 8 16 6 18 1 19 2 20 3 21 4 22 5 23 22 24
REMARK SMILES IDX 23 25 24 26 25 27 26 29 27 30 28 31 89 32 29 33 88 34 30 35
REMARK SMILES IDX 31 36 32 37 82 38 33 39 87 40 81 41 83 42 34 43 86 44 80 45
REMARK SMILES IDX 79 46 35 48 67 49 47 50 66 51 48 52 51 53 65 54 84 55 49 56
REMARK SMILES IDX 50 57 64 59 85 60 52 61 36 62 37 63 45 64 38 65 44 66 46 67
REMARK SMILES IDX 43 68 39 69 40 70 41 71 42 72 68 73 69 74 77 75 70 76 76 77
REMARK SMILES IDX 78 78 75 79 71 80 72 81 73 82 74 83 53 84 54 85 62 86 55 87
REMARK SMILES IDX 61 88 63 89 60 90 56 91 57 92 58 93 59 94
REMARK H PARENT 17 8 9 17 24 28 83 47 51 58
REMARK Flexibility Score: inf
ROOT
ATOM      1  C   UNL A   1      34.212  22.312  25.788  1.00  0.00     0.002 C 
ENDROOT
BRANCH   1   2
ATOM      2  C   UNL A   1      33.368  21.483  24.817  1.00  0.00     0.002 C 
BRANCH   2   3
ATOM      3  C   UNL A   1      31.906  21.259  25.197  1.00  0.00     0.021 C 
BRANCH   3   4
ATOM      4  C   UNL A   1      31.187  22.449  25.811  1.00  0.00     0.116 C 
BRANCH   4   5
ATOM      5  N   UNL A   1      30.452  23.282  24.898  1.00  0.00    -0.351 N 
ATOM      6  C   UNL A   1      30.827  24.410  24.201  1.00  0.00     0.263 C 
ATOM      7  O   UNL A   1      29.924  24.875  23.495  1.00  0.00    -0.268 OA
ATOM      8  H   UNL A   1      29.520  22.999  24.747  1.00  0.00     0.163 HD
BRANCH   6   9
ATOM      9  C   UNL A   1      32.155  25.036  24.295  1.00  0.00     0.115 A 
ATOM     10  C   UNL A   1      32.796  25.915  25.169  1.00  0.00     0.065 A 
ATOM     11  C   UNL A   1      34.174  26.095  24.828  1.00  0.00     0.038 A 
ATOM     12  C   UNL A   1      34.534  25.471  23.661  1.00  0.00     0.068 A 
ATOM     13  S   UNL A   1      33.234  24.614  22.991  1.00  0.00    -0.137 S 
BRANCH  10  14
ATOM     14  N   UNL A   1      32.268  26.383  26.356  1.00  0.00    -0.324 N 
ATOM     15  C   UNL A   1      31.731  27.587  26.697  1.00  0.00     0.230 C 
ATOM     16  O   UNL A   1      31.269  27.644  27.848  1.00  0.00    -0.274 OA
ATOM     17  H   UNL A   1      32.283  25.726  27.089  1.00  0.00     0.169 HD
BRANCH  15  18
ATOM     18  C   UNL A   1      31.546  28.810  25.795  1.00  0.00     0.110 C 
ATOM     19  C   UNL A   1      33.908  29.578  26.475  1.00  0.00     0.039 C 
ATOM     20  C   UNL A   1      32.779  29.623  25.462  1.00  0.00     0.127 C 
ATOM     21  O   UNL A   1      33.196  29.197  24.159  1.00  0.00    -0.378 OA
ATOM     22  C   UNL A   1      32.033  28.754  23.444  1.00  0.00     0.161 C 
ATOM     23  C   UNL A   1      30.900  28.612  24.440  1.00  0.00     0.044 C 
ENDBRANCH  15  18
ENDBRANCH  10  14
ENDBRANCH   6   9
ENDBRANCH   4   5
ENDBRANCH   3   4
ENDBRANCH   2   3
ENDBRANCH   1   2
BRANCH   1  24
ATOM     24  C   UNL A   1      35.563  21.728  26.211  1.00  0.00     0.021 C 
BRANCH  24  25
ATOM     25  C   UNL A   1      36.626  21.615  25.123  1.00  0.00     0.116 C 
BRANCH  25  26
ATOM     26  N   UNL A   1      37.607  20.583  25.398  1.00  0.00    -0.352 N 
ATOM     27  C   UNL A   1      38.902  20.682  25.843  1.00  0.00     0.251 C 
ATOM     28  H   UNL A   1      37.294  19.662  25.240  1.00  0.00     0.163 HD
ATOM     29  O   UNL A   1      39.600  19.672  25.872  1.00  0.00    -0.269 OA
BRANCH  27  30
ATOM     30  C   UNL A   1      39.470  21.988  26.256  1.00  0.00     0.039 A 
ATOM     31  C   UNL A   1      40.576  21.986  27.111  1.00  0.00     0.014 A 
ATOM     32  C   UNL A   1      38.915  23.202  25.842  1.00  0.00     0.014 A 
ATOM     33  C   UNL A   1      41.154  23.195  27.504  1.00  0.00     0.010 A 
ATOM     34  C   UNL A   1      39.540  24.406  26.174  1.00  0.00     0.010 A 
ATOM     35  C   UNL A   1      40.665  24.416  27.012  1.00  0.00    -0.014 A 
BRANCH  35  36
ATOM     36  C   UNL A   1      41.340  25.694  27.361  1.00  0.00     0.031 A 
ATOM     37  C   UNL A   1      40.647  26.725  28.212  1.00  0.00     0.074 A 
ATOM     38  C   UNL A   1      42.577  25.938  26.884  1.00  0.00     0.049 A 
ATOM     39  N   UNL A   1      41.085  27.888  28.625  1.00  0.00    -0.248 NA
ATOM     40  C   UNL A   1      39.272  26.419  28.632  1.00  0.00     0.031 C 
ATOM     41  C   UNL A   1      43.331  25.040  26.005  1.00  0.00     0.029 A 
ATOM     42  N   UNL A   1      43.422  27.003  27.068  1.00  0.00    -0.354 N 
ATOM     43  C   UNL A   1      40.040  28.455  29.347  1.00  0.00     0.074 A 
ATOM     44  C   UNL A   1      38.926  27.534  29.257  1.00  0.00     0.031 C 
ATOM     45  C   UNL A   1      44.536  25.573  25.758  1.00  0.00     0.029 A 
ATOM     46  C   UNL A   1      44.629  26.869  26.421  1.00  0.00     0.049 A 
ATOM     47  H   UNL A   1      43.187  27.789  27.613  1.00  0.00     0.167 HD
ATOM     48  C   UNL A   1      40.019  29.624  30.038  1.00  0.00     0.034 A 
ATOM     49  C   UNL A   1      45.691  27.699  26.361  1.00  0.00     0.034 A 
ATOM     50  C   UNL A   1      41.143  30.529  30.115  1.00  0.00     0.049 A 
ATOM     51  C   UNL A   1      45.640  28.997  27.125  1.00  0.00     0.074 A 
ATOM     52  C   UNL A   1      41.253  31.707  30.835  1.00  0.00     0.029 A 
ATOM     53  N   UNL A   1      42.347  30.369  29.437  1.00  0.00    -0.354 N 
ATOM     54  N   UNL A   1      44.669  29.485  27.863  1.00  0.00    -0.248 NA
ATOM     55  C   UNL A   1      46.835  29.846  27.060  1.00  0.00     0.031 C 
ATOM     56  C   UNL A   1      42.485  32.297  30.529  1.00  0.00     0.029 A 
ATOM     57  C   UNL A   1      43.186  31.446  29.690  1.00  0.00     0.049 A 
ATOM     58  H   UNL A   1      42.571  29.603  28.862  1.00  0.00     0.167 HD
ATOM     59  C   UNL A   1      45.149  30.691  28.369  1.00  0.00     0.074 A 
ATOM     60  C   UNL A   1      46.502  30.836  27.875  1.00  0.00     0.031 C 
ATOM     61  C   UNL A   1      44.526  31.596  29.169  1.00  0.00     0.034 A 
BRANCH  48  62
ATOM     62  C   UNL A   1      38.731  29.999  30.736  1.00  0.00     0.023 A 
ATOM     63  C   UNL A   1      37.746  30.782  30.105  1.00  0.00     0.031 A 
ATOM     64  C   UNL A   1      38.492  29.592  32.061  1.00  0.00     0.131 A 
ATOM     65  C   UNL A   1      36.614  31.199  30.821  1.00  0.00     0.055 A 
ATOM     66  C   UNL A   1      37.321  29.937  32.739  1.00  0.00     0.041 A 
ATOM     67  F   UNL A   1      39.401  28.863  32.727  1.00  0.00    -0.206 F 
ATOM     68  C   UNL A   1      36.381  30.759  32.126  1.00  0.00     0.022 A 
BRANCH  65  69
ATOM     69  S   UNL A   1      35.532  32.452  30.079  1.00  0.00     0.124 S 
ATOM     70  O   UNL A   1      36.427  33.604  29.999  1.00  0.00    -0.237 OA
ATOM     71  O   UNL A   1      35.162  31.839  28.810  1.00  0.00    -0.237 OA
ATOM     72  O   UNL A   1      34.446  32.585  31.049  1.00  0.00    -0.744 OA
ENDBRANCH  65  69
ENDBRANCH  48  62
BRANCH  49  73
ATOM     73  C   UNL A   1      46.886  27.335  25.546  1.00  0.00     0.023 A 
ATOM     74  C   UNL A   1      47.035  27.792  24.227  1.00  0.00     0.031 A 
ATOM     75  C   UNL A   1      47.884  26.494  26.069  1.00  0.00     0.131 A 
ATOM     76  C   UNL A   1      48.133  27.371  23.460  1.00  0.00     0.055 A 
ATOM     77  C   UNL A   1      49.004  26.124  25.321  1.00  0.00     0.041 A 
ATOM     78  F   UNL A   1      47.793  26.030  27.326  1.00  0.00    -0.206 F 
ATOM     79  C   UNL A   1      49.126  26.553  24.004  1.00  0.00     0.022 A 
BRANCH  76  80
ATOM     80  S   UNL A   1      48.205  27.843  21.710  1.00  0.00     0.124 S 
ATOM     81  O   UNL A   1      48.434  26.555  21.065  1.00  0.00    -0.237 OA
ATOM     82  O   UNL A   1      46.891  28.440  21.504  1.00  0.00    -0.237 OA
ATOM     83  O   UNL A   1      49.327  28.778  21.657  1.00  0.00    -0.744 OA
ENDBRANCH  76  80
ENDBRANCH  49  73
BRANCH  61  84
ATOM     84  C   UNL A   1      45.329  32.812  29.574  1.00  0.00     0.023 A 
ATOM     85  C   UNL A   1      45.313  33.995  28.814  1.00  0.00     0.031 A 
ATOM     86  C   UNL A   1      46.155  32.772  30.712  1.00  0.00     0.131 A 
ATOM     87  C   UNL A   1      46.165  35.057  29.153  1.00  0.00     0.055 A 
ATOM     88  C   UNL A   1      46.943  33.861  31.088  1.00  0.00     0.041 A 
ATOM     89  F   UNL A   1      46.216  31.669  31.475  1.00  0.00    -0.206 F 
ATOM     90  C   UNL A   1      46.965  35.005  30.296  1.00  0.00     0.022 A 
BRANCH  87  91
ATOM     91  S   UNL A   1      46.312  36.453  28.004  1.00  0.00     0.124 S 
ATOM     92  O   UNL A   1      45.150  36.260  27.143  1.00  0.00    -0.237 OA
ATOM     93  O   UNL A   1      46.257  37.602  28.901  1.00  0.00    -0.237 OA
ATOM     94  O   UNL A   1      47.605  36.232  27.358  1.00  0.00    -0.744 OA
ENDBRANCH  87  91
ENDBRANCH  61  84
ENDBRANCH  35  36
ENDBRANCH  27  30
ENDBRANCH  25  26
ENDBRANCH  24  25
ENDBRANCH   1  24
TORSDOF 18
ENDMDL
