MODEL 1
REMARK VINA RESULT:     -13.1      0.000      0.000
REMARK SMILES Cc1c(C(=O)Nc2ccc(C(=O)Nc3ccccc3C(=O)NCCCCCCNC(=O)c3ccc(-c4c5nc(c(-c6cc(S(=O)(=O)[O-])ccc6F)c6ccc([nH]6)c(-c6cc(S(=O)(=O)[O-])ccc6F)c6nc(c(-c7cc(S(=O)(=O)[O-])ccc7F)c7ccc4[nH]7)C=C6)C=C5)cc3)cc2)cccc1[N+](=O)[O-]
REMARK SMILES IDX 24 1 23 2 22 3 20 4 21 5 19 7 14 8 15 9 16 10 18 11 17 12
REMARK SMILES IDX 13 13 11 14 12 15 10 17 7 18 8 19 96 20 9 21 95 22 6 23 4 24
REMARK SMILES IDX 5 25 3 27 1 28 2 29 100 30 97 31 99 32 98 33 101 34 102 35
REMARK SMILES IDX 103 36 25 37 26 38 27 39 28 40 29 41 30 42 31 44 32 45 33 46
REMARK SMILES IDX 94 47 34 48 93 49 35 50 36 51 37 52 87 53 38 54 92 55 86 56
REMARK SMILES IDX 88 57 39 58 91 59 85 60 84 61 40 63 72 64 52 65 71 66 53 67
REMARK SMILES IDX 56 68 70 69 89 70 54 71 55 72 69 74 90 75 57 76 41 77 42 78
REMARK SMILES IDX 50 79 43 80 49 81 51 82 48 83 44 84 45 85 46 86 47 87 73 88
REMARK SMILES IDX 74 89 82 90 75 91 81 92 83 93 80 94 76 95 77 96 78 97 79 98
REMARK SMILES IDX 58 99 59 100 67 101 60 102 66 103 68 104 65 105 61 106
REMARK SMILES IDX 62 107 63 108 64 109
REMARK H PARENT 22 6 13 16 6 26 29 43 88 62 56 73
REMARK Flexibility Score: inf
ROOT
ATOM      1  C   UNL A   1      34.413  31.142  27.505  1.00  0.00     0.021 C 
ENDROOT
BRANCH   1   2
ATOM      2  C   UNL A   1      33.323  30.197  26.994  1.00  0.00     0.116 C 
BRANCH   2   3
ATOM      3  N   UNL A   1      33.660  28.785  26.983  1.00  0.00    -0.352 N 
ATOM      4  C   UNL A   1      33.510  27.824  26.008  1.00  0.00     0.253 C 
ATOM      5  O   UNL A   1      34.023  26.720  26.176  1.00  0.00    -0.269 OA
ATOM      6  H   UNL A   1      34.068  28.458  27.817  1.00  0.00     0.163 HD
BRANCH   4   7
ATOM      7  C   UNL A   1      32.728  28.072  24.766  1.00  0.00     0.063 A 
ATOM      8  C   UNL A   1      31.419  27.562  24.606  1.00  0.00     0.054 A 
ATOM      9  C   UNL A   1      30.759  27.727  23.375  1.00  0.00     0.027 A 
ATOM     10  C   UNL A   1      31.347  28.456  22.343  1.00  0.00     0.002 A 
ATOM     11  C   UNL A   1      33.335  28.734  23.685  1.00  0.00     0.016 A 
ATOM     12  C   UNL A   1      32.634  28.960  22.497  1.00  0.00     0.001 A 
BRANCH   8  13
ATOM     13  N   UNL A   1      30.639  26.945  25.605  1.00  0.00    -0.321 N 
ATOM     14  C   UNL A   1      30.514  25.624  25.985  1.00  0.00     0.255 C 
ATOM     15  O   UNL A   1      29.600  25.320  26.756  1.00  0.00    -0.269 OA
ATOM     16  H   UNL A   1      30.084  27.569  26.127  1.00  0.00     0.170 HD
BRANCH  14  17
ATOM     17  C   UNL A   1      31.558  24.603  25.673  1.00  0.00     0.040 A 
ATOM     18  C   UNL A   1      33.808  22.980  25.181  1.00  0.00     0.041 A 
ATOM     19  C   UNL A   1      33.081  23.516  24.131  1.00  0.00     0.027 A 
ATOM     20  C   UNL A   1      33.306  23.110  26.479  1.00  0.00     0.027 A 
ATOM     21  C   UNL A   1      32.039  24.399  24.380  1.00  0.00     0.016 A 
ATOM     22  C   UNL A   1      32.183  23.917  26.723  1.00  0.00     0.016 A 
BRANCH  18  23
ATOM     23  N   UNL A   1      35.082  22.412  25.003  1.00  0.00    -0.322 N 
ATOM     24  C   UNL A   1      35.475  21.098  24.808  1.00  0.00     0.256 C 
ATOM     25  O   UNL A   1      36.670  20.824  24.724  1.00  0.00    -0.269 OA
ATOM     26  H   UNL A   1      35.822  23.061  25.018  1.00  0.00     0.170 HD
BRANCH  24  27
ATOM     27  C   UNL A   1      34.500  19.976  24.684  1.00  0.00     0.049 A 
ATOM     28  C   UNL A   1      36.243  18.149  25.000  1.00  0.00     0.053 C 
ATOM     29  C   UNL A   1      34.859  18.609  24.624  1.00  0.00     0.039 A 
ATOM     30  C   UNL A   1      33.862  17.706  24.188  1.00  0.00     0.273 A 
ATOM     31  C   UNL A   1      33.151  20.362  24.571  1.00  0.00     0.014 A 
ATOM     32  C   UNL A   1      32.521  18.101  24.043  1.00  0.00     0.086 A 
ATOM     33  C   UNL A   1      32.162  19.423  24.287  1.00  0.00     0.008 A 
BRANCH  30  34
ATOM     34  N   UNL A   1      34.200  16.348  23.745  1.00  0.00     0.063 N 
ATOM     35  O   UNL A   1      34.226  15.453  24.602  1.00  0.00    -0.258 OA
ATOM     36  O   UNL A   1      34.362  16.159  22.530  1.00  0.00    -0.258 OA
ENDBRANCH  30  34
ENDBRANCH  24  27
ENDBRANCH  18  23
ENDBRANCH  14  17
ENDBRANCH   8  13
ENDBRANCH   4   7
ENDBRANCH   2   3
ENDBRANCH   1   2
BRANCH   1  37
ATOM     37  C   UNL A   1      34.028  32.247  28.492  1.00  0.00     0.002 C 
BRANCH  37  38
ATOM     38  C   UNL A   1      33.224  33.438  27.959  1.00  0.00     0.002 C 
BRANCH  38  39
ATOM     39  C   UNL A   1      33.769  34.830  28.267  1.00  0.00     0.021 C 
BRANCH  39  40
ATOM     40  C   UNL A   1      34.434  34.980  29.629  1.00  0.00     0.116 C 
BRANCH  40  41
ATOM     41  N   UNL A   1      33.509  35.085  30.742  1.00  0.00    -0.352 N 
ATOM     42  C   UNL A   1      33.588  34.528  32.006  1.00  0.00     0.251 C 
ATOM     43  H   UNL A   1      32.708  35.632  30.572  1.00  0.00     0.163 HD
ATOM     44  O   UNL A   1      32.625  34.558  32.762  1.00  0.00    -0.269 OA
BRANCH  42  45
ATOM     45  C   UNL A   1      34.897  34.033  32.513  1.00  0.00     0.039 A 
ATOM     46  C   UNL A   1      36.004  34.874  32.328  1.00  0.00     0.014 A 
ATOM     47  C   UNL A   1      35.091  32.726  32.951  1.00  0.00     0.014 A 
ATOM     48  C   UNL A   1      37.291  34.342  32.353  1.00  0.00     0.010 A 
ATOM     49  C   UNL A   1      36.356  32.174  32.893  1.00  0.00     0.010 A 
ATOM     50  C   UNL A   1      37.445  32.968  32.533  1.00  0.00    -0.014 A 
BRANCH  50  51
ATOM     51  C   UNL A   1      38.680  32.258  32.240  1.00  0.00     0.031 A 
ATOM     52  C   UNL A   1      38.665  30.975  31.520  1.00  0.00     0.074 A 
ATOM     53  C   UNL A   1      39.862  32.802  32.602  1.00  0.00     0.049 A 
ATOM     54  N   UNL A   1      39.556  30.056  31.668  1.00  0.00    -0.248 NA
ATOM     55  C   UNL A   1      37.609  30.611  30.583  1.00  0.00     0.031 C 
ATOM     56  C   UNL A   1      41.200  32.365  32.217  1.00  0.00     0.029 A 
ATOM     57  N   UNL A   1      40.075  33.730  33.616  1.00  0.00    -0.354 N 
ATOM     58  C   UNL A   1      39.374  29.134  30.667  1.00  0.00     0.074 A 
ATOM     59  C   UNL A   1      38.105  29.483  30.065  1.00  0.00     0.031 C 
ATOM     60  C   UNL A   1      42.075  32.799  33.137  1.00  0.00     0.029 A 
ATOM     61  C   UNL A   1      41.312  33.415  34.207  1.00  0.00     0.049 A 
ATOM     62  H   UNL A   1      39.475  34.467  33.872  1.00  0.00     0.167 HD
ATOM     63  C   UNL A   1      40.380  28.270  30.357  1.00  0.00     0.034 A 
ATOM     64  C   UNL A   1      41.389  33.090  35.529  1.00  0.00     0.034 A 
ATOM     65  C   UNL A   1      41.552  28.474  31.206  1.00  0.00     0.049 A 
ATOM     66  C   UNL A   1      41.941  31.703  35.777  1.00  0.00     0.074 A 
ATOM     67  C   UNL A   1      42.761  29.122  31.004  1.00  0.00     0.029 A 
ATOM     68  N   UNL A   1      41.470  28.218  32.570  1.00  0.00    -0.354 N 
ATOM     69  N   UNL A   1      42.045  30.776  34.863  1.00  0.00    -0.248 NA
ATOM     70  C   UNL A   1      42.404  31.245  37.081  1.00  0.00     0.031 C 
ATOM     71  C   UNL A   1      43.397  29.273  32.264  1.00  0.00     0.029 A 
ATOM     72  C   UNL A   1      42.589  28.696  33.227  1.00  0.00     0.049 A 
ATOM     73  H   UNL A   1      40.718  27.759  33.008  1.00  0.00     0.167 HD
ATOM     74  C   UNL A   1      42.561  29.626  35.415  1.00  0.00     0.074 A 
ATOM     75  C   UNL A   1      42.782  29.984  36.807  1.00  0.00     0.031 C 
ATOM     76  C   UNL A   1      42.746  28.494  34.664  1.00  0.00     0.034 A 
BRANCH  63  77
ATOM     77  C   UNL A   1      40.413  27.453  29.086  1.00  0.00     0.023 A 
ATOM     78  C   UNL A   1      41.352  27.766  28.082  1.00  0.00     0.031 A 
ATOM     79  C   UNL A   1      39.542  26.387  28.788  1.00  0.00     0.131 A 
ATOM     80  C   UNL A   1      41.329  27.129  26.828  1.00  0.00     0.055 A 
ATOM     81  C   UNL A   1      39.477  25.793  27.521  1.00  0.00     0.041 A 
ATOM     82  F   UNL A   1      38.749  25.849  29.726  1.00  0.00    -0.206 F 
ATOM     83  C   UNL A   1      40.364  26.174  26.525  1.00  0.00     0.022 A 
BRANCH  80  84
ATOM     84  S   UNL A   1      42.587  27.565  25.594  1.00  0.00     0.124 S 
ATOM     85  O   UNL A   1      43.735  27.903  26.429  1.00  0.00    -0.237 OA
ATOM     86  O   UNL A   1      42.692  26.337  24.815  1.00  0.00    -0.237 OA
ATOM     87  O   UNL A   1      41.988  28.694  24.885  1.00  0.00    -0.744 OA
ENDBRANCH  80  84
ENDBRANCH  63  77
BRANCH  64  88
ATOM     88  C   UNL A   1      40.371  33.801  36.360  1.00  0.00     0.023 A 
ATOM     89  C   UNL A   1      39.220  33.064  36.727  1.00  0.00     0.031 A 
ATOM     90  C   UNL A   1      40.685  34.939  37.112  1.00  0.00     0.131 A 
ATOM     91  C   UNL A   1      38.542  33.354  37.919  1.00  0.00     0.055 A 
ATOM     92  C   UNL A   1      39.949  35.277  38.257  1.00  0.00     0.041 A 
ATOM     93  F   UNL A   1      41.778  35.665  36.834  1.00  0.00    -0.206 F 
ATOM     94  C   UNL A   1      38.906  34.456  38.693  1.00  0.00     0.022 A 
BRANCH  91  95
ATOM     95  S   UNL A   1      37.394  32.113  38.599  1.00  0.00     0.124 S 
ATOM     96  O   UNL A   1      37.511  31.028  37.631  1.00  0.00    -0.237 OA
ATOM     97  O   UNL A   1      37.948  31.844  39.925  1.00  0.00    -0.237 OA
ATOM     98  O   UNL A   1      36.109  32.809  38.619  1.00  0.00    -0.744 OA
ENDBRANCH  91  95
ENDBRANCH  64  88
BRANCH  76  99
ATOM     99  C   UNL A   1      43.154  27.105  35.148  1.00  0.00     0.023 A 
ATOM    100  C   UNL A   1      44.247  26.382  34.651  1.00  0.00     0.031 A 
ATOM    101  C   UNL A   1      42.447  26.462  36.202  1.00  0.00     0.131 A 
ATOM    102  C   UNL A   1      44.574  25.101  35.145  1.00  0.00     0.055 A 
ATOM    103  C   UNL A   1      42.803  25.214  36.728  1.00  0.00     0.041 A 
ATOM    104  F   UNL A   1      41.376  27.017  36.787  1.00  0.00    -0.206 F 
ATOM    105  C   UNL A   1      43.871  24.520  36.194  1.00  0.00     0.022 A 
BRANCH 102 106
ATOM    106  S   UNL A   1      45.929  24.195  34.351  1.00  0.00     0.124 S 
ATOM    107  O   UNL A   1      46.914  25.252  34.137  1.00  0.00    -0.237 OA
ATOM    108  O   UNL A   1      46.276  23.203  35.364  1.00  0.00    -0.237 OA
ATOM    109  O   UNL A   1      45.322  23.657  33.137  1.00  0.00    -0.744 OA
ENDBRANCH 102 106
ENDBRANCH  76  99
ENDBRANCH  50  51
ENDBRANCH  42  45
ENDBRANCH  40  41
ENDBRANCH  39  40
ENDBRANCH  38  39
ENDBRANCH  37  38
ENDBRANCH   1  37
TORSDOF 21
ENDMDL
MODEL 2
REMARK VINA RESULT:     -12.8      3.284      4.763
REMARK SMILES Cc1c(C(=O)Nc2ccc(C(=O)Nc3ccccc3C(=O)NCCCCCCNC(=O)c3ccc(-c4c5nc(c(-c6cc(S(=O)(=O)[O-])ccc6F)c6ccc([nH]6)c(-c6cc(S(=O)(=O)[O-])ccc6F)c6nc(c(-c7cc(S(=O)(=O)[O-])ccc7F)c7ccc4[nH]7)C=C6)C=C5)cc3)cc2)cccc1[N+](=O)[O-]
REMARK SMILES IDX 24 1 23 2 22 3 20 4 21 5 19 7 14 8 15 9 16 10 18 11 17 12
REMARK SMILES IDX 13 13 11 14 12 15 10 17 7 18 8 19 96 20 9 21 95 22 6 23 4 24
REMARK SMILES IDX 5 25 3 27 1 28 2 29 100 30 97 31 99 32 98 33 101 34 102 35
REMARK SMILES IDX 103 36 25 37 26 38 27 39 28 40 29 41 30 42 31 44 32 45 33 46
REMARK SMILES IDX 94 47 34 48 93 49 35 50 36 51 37 52 87 53 38 54 92 55 86 56
REMARK SMILES IDX 88 57 39 58 91 59 85 60 84 61 40 63 72 64 52 65 71 66 53 67
REMARK SMILES IDX 56 68 70 69 89 70 54 71 55 72 69 74 90 75 57 76 41 77 42 78
REMARK SMILES IDX 50 79 43 80 49 81 51 82 48 83 44 84 45 85 46 86 47 87 73 88
REMARK SMILES IDX 74 89 82 90 75 91 81 92 83 93 80 94 76 95 77 96 78 97 79 98
REMARK SMILES IDX 58 99 59 100 67 101 60 102 66 103 68 104 65 105 61 106
REMARK SMILES IDX 62 107 63 108 64 109
REMARK H PARENT 22 6 13 16 6 26 29 43 88 62 56 73
REMARK Flexibility Score: inf
ROOT
ATOM      1  C   UNL A   1      32.369  30.259  26.003  1.00  0.00     0.021 C 
ENDROOT
BRANCH   1   2
ATOM      2  C   UNL A   1      31.636  29.065  25.386  1.00  0.00     0.116 C 
BRANCH   2   3
ATOM      3  N   UNL A   1      30.580  29.387  24.444  1.00  0.00    -0.352 N 
ATOM      4  C   UNL A   1      30.035  28.660  23.410  1.00  0.00     0.253 C 
ATOM      5  O   UNL A   1      29.029  29.088  22.846  1.00  0.00    -0.269 OA
ATOM      6  H   UNL A   1      30.185  30.281  24.565  1.00  0.00     0.163 HD
BRANCH   4   7
ATOM      7  C   UNL A   1      30.633  27.381  22.938  1.00  0.00     0.063 A 
ATOM      8  C   UNL A   1      30.568  26.205  23.721  1.00  0.00     0.054 A 
ATOM      9  C   UNL A   1      31.240  25.049  23.288  1.00  0.00     0.027 A 
ATOM     10  C   UNL A   1      31.900  25.025  22.060  1.00  0.00     0.002 A 
ATOM     11  C   UNL A   1      31.371  27.359  21.743  1.00  0.00     0.016 A 
ATOM     12  C   UNL A   1      31.965  26.179  21.287  1.00  0.00     0.001 A 
BRANCH   8  13
ATOM     13  N   UNL A   1      29.813  26.032  24.899  1.00  0.00    -0.321 N 
ATOM     14  C   UNL A   1      30.013  25.233  26.007  1.00  0.00     0.255 C 
ATOM     15  O   UNL A   1      29.088  25.109  26.815  1.00  0.00    -0.269 OA
ATOM     16  H   UNL A   1      28.995  26.579  24.939  1.00  0.00     0.170 HD
BRANCH  14  17
ATOM     17  C   UNL A   1      31.358  24.696  26.369  1.00  0.00     0.040 A 
ATOM     18  C   UNL A   1      33.933  23.584  26.642  1.00  0.00     0.041 A 
ATOM     19  C   UNL A   1      32.813  22.882  27.057  1.00  0.00     0.027 A 
ATOM     20  C   UNL A   1      33.781  24.917  26.252  1.00  0.00     0.027 A 
ATOM     21  C   UNL A   1      31.542  23.390  26.824  1.00  0.00     0.016 A 
ATOM     22  C   UNL A   1      32.498  25.471  26.118  1.00  0.00     0.016 A 
BRANCH  18  23
ATOM     23  N   UNL A   1      35.191  22.974  26.492  1.00  0.00    -0.322 N 
ATOM     24  C   UNL A   1      35.571  21.827  25.814  1.00  0.00     0.256 C 
ATOM     25  O   UNL A   1      36.740  21.450  25.862  1.00  0.00    -0.269 OA
ATOM     26  H   UNL A   1      35.927  23.443  26.947  1.00  0.00     0.170 HD
BRANCH  24  27
ATOM     27  C   UNL A   1      34.617  21.015  25.005  1.00  0.00     0.049 A 
ATOM     28  C   UNL A   1      34.347  22.767  23.179  1.00  0.00     0.053 C 
ATOM     29  C   UNL A   1      33.930  21.493  23.864  1.00  0.00     0.039 A 
ATOM     30  C   UNL A   1      32.836  20.721  23.409  1.00  0.00     0.273 A 
ATOM     31  C   UNL A   1      34.380  19.713  25.484  1.00  0.00     0.014 A 
ATOM     32  C   UNL A   1      32.580  19.434  23.912  1.00  0.00     0.086 A 
ATOM     33  C   UNL A   1      33.390  18.913  24.916  1.00  0.00     0.008 A 
BRANCH  30  34
ATOM     34  N   UNL A   1      31.841  21.276  22.482  1.00  0.00     0.063 N 
ATOM     35  O   UNL A   1      31.020  22.085  22.938  1.00  0.00    -0.258 OA
ATOM     36  O   UNL A   1      31.928  20.964  21.286  1.00  0.00    -0.258 OA
ENDBRANCH  30  34
ENDBRANCH  24  27
ENDBRANCH  18  23
ENDBRANCH  14  17
ENDBRANCH   8  13
ENDBRANCH   4   7
ENDBRANCH   2   3
ENDBRANCH   1   2
BRANCH   1  37
ATOM     37  C   UNL A   1      33.116  30.062  27.326  1.00  0.00     0.002 C 
BRANCH  37  38
ATOM     38  C   UNL A   1      33.825  31.275  27.938  1.00  0.00     0.002 C 
BRANCH  38  39
ATOM     39  C   UNL A   1      35.282  31.493  27.542  1.00  0.00     0.021 C 
BRANCH  39  40
ATOM     40  C   UNL A   1      35.985  32.638  28.260  1.00  0.00     0.116 C 
BRANCH  40  41
ATOM     41  N   UNL A   1      36.025  32.506  29.705  1.00  0.00    -0.352 N 
ATOM     42  C   UNL A   1      36.439  31.436  30.479  1.00  0.00     0.251 C 
ATOM     43  H   UNL A   1      35.713  33.293  30.208  1.00  0.00     0.163 HD
ATOM     44  O   UNL A   1      36.225  31.418  31.684  1.00  0.00    -0.269 OA
BRANCH  42  45
ATOM     45  C   UNL A   1      37.289  30.373  29.873  1.00  0.00     0.039 A 
ATOM     46  C   UNL A   1      37.314  29.135  30.531  1.00  0.00     0.014 A 
ATOM     47  C   UNL A   1      38.188  30.624  28.841  1.00  0.00     0.014 A 
ATOM     48  C   UNL A   1      38.377  28.259  30.318  1.00  0.00     0.010 A 
ATOM     49  C   UNL A   1      39.287  29.801  28.688  1.00  0.00     0.010 A 
ATOM     50  C   UNL A   1      39.410  28.653  29.470  1.00  0.00    -0.014 A 
BRANCH  50  51
ATOM     51  C   UNL A   1      40.708  27.996  29.435  1.00  0.00     0.031 A 
ATOM     52  C   UNL A   1      40.838  26.599  28.992  1.00  0.00     0.074 A 
ATOM     53  C   UNL A   1      41.814  28.689  29.779  1.00  0.00     0.049 A 
ATOM     54  N   UNL A   1      41.762  25.798  29.400  1.00  0.00    -0.248 NA
ATOM     55  C   UNL A   1      39.904  25.977  28.061  1.00  0.00     0.031 C 
ATOM     56  C   UNL A   1      43.207  28.288  29.608  1.00  0.00     0.029 A 
ATOM     57  N   UNL A   1      41.871  29.812  30.598  1.00  0.00    -0.354 N 
ATOM     58  C   UNL A   1      41.734  24.685  28.595  1.00  0.00     0.074 A 
ATOM     59  C   UNL A   1      40.513  24.810  27.828  1.00  0.00     0.031 C 
ATOM     60  C   UNL A   1      43.960  28.961  30.492  1.00  0.00     0.029 A 
ATOM     61  C   UNL A   1      43.059  29.715  31.344  1.00  0.00     0.049 A 
ATOM     62  H   UNL A   1      41.207  30.537  30.646  1.00  0.00     0.167 HD
ATOM     63  C   UNL A   1      42.814  23.856  28.555  1.00  0.00     0.034 A 
ATOM     64  C   UNL A   1      43.022  29.664  32.707  1.00  0.00     0.034 A 
ATOM     65  C   UNL A   1      43.882  24.312  29.443  1.00  0.00     0.049 A 
ATOM     66  C   UNL A   1      43.626  28.399  33.278  1.00  0.00     0.074 A 
ATOM     67  C   UNL A   1      45.065  24.999  29.218  1.00  0.00     0.029 A 
ATOM     68  N   UNL A   1      43.679  24.325  30.818  1.00  0.00    -0.354 N 
ATOM     69  N   UNL A   1      43.874  27.321  32.584  1.00  0.00    -0.248 NA
ATOM     70  C   UNL A   1      43.982  28.243  34.683  1.00  0.00     0.031 C 
ATOM     71  C   UNL A   1      45.563  25.443  30.471  1.00  0.00     0.029 A 
ATOM     72  C   UNL A   1      44.697  25.007  31.458  1.00  0.00     0.049 A 
ATOM     73  H   UNL A   1      42.915  23.905  31.274  1.00  0.00     0.167 HD
ATOM     74  C   UNL A   1      44.398  26.345  33.401  1.00  0.00     0.074 A 
ATOM     75  C   UNL A   1      44.458  26.985  34.704  1.00  0.00     0.031 C 
ATOM     76  C   UNL A   1      44.722  25.105  32.915  1.00  0.00     0.034 A 
BRANCH  63  77
ATOM     77  C   UNL A   1      43.020  22.810  27.485  1.00  0.00     0.023 A 
ATOM     78  C   UNL A   1      43.930  23.058  26.436  1.00  0.00     0.031 A 
ATOM     79  C   UNL A   1      42.343  21.577  27.419  1.00  0.00     0.131 A 
ATOM     80  C   UNL A   1      44.051  22.180  25.344  1.00  0.00     0.055 A 
ATOM     81  C   UNL A   1      42.417  20.730  26.305  1.00  0.00     0.041 A 
ATOM     82  F   UNL A   1      41.617  21.123  28.450  1.00  0.00    -0.206 F 
ATOM     83  C   UNL A   1      43.264  21.037  25.250  1.00  0.00     0.022 A 
BRANCH  80  84
ATOM     84  S   UNL A   1      45.263  22.550  24.044  1.00  0.00     0.124 S 
ATOM     85  O   UNL A   1      44.530  22.205  22.831  1.00  0.00    -0.237 OA
ATOM     86  O   UNL A   1      45.525  23.968  24.262  1.00  0.00    -0.237 OA
ATOM     87  O   UNL A   1      46.380  21.662  24.361  1.00  0.00    -0.744 OA
ENDBRANCH  80  84
ENDBRANCH  63  77
BRANCH  64  88
ATOM     88  C   UNL A   1      41.887  30.444  33.285  1.00  0.00     0.023 A 
ATOM     89  C   UNL A   1      41.991  31.854  33.234  1.00  0.00     0.031 A 
ATOM     90  C   UNL A   1      40.613  29.888  33.460  1.00  0.00     0.131 A 
ATOM     91  C   UNL A   1      40.837  32.647  33.161  1.00  0.00     0.055 A 
ATOM     92  C   UNL A   1      39.466  30.695  33.475  1.00  0.00     0.041 A 
ATOM     93  F   UNL A   1      40.444  28.558  33.488  1.00  0.00    -0.206 F 
ATOM     94  C   UNL A   1      39.571  32.073  33.275  1.00  0.00     0.022 A 
BRANCH  91  95
ATOM     95  S   UNL A   1      40.998  34.379  32.614  1.00  0.00     0.124 S 
ATOM     96  O   UNL A   1      42.157  34.312  31.731  1.00  0.00    -0.237 OA
ATOM     97  O   UNL A   1      39.715  34.638  31.962  1.00  0.00    -0.237 OA
ATOM     98  O   UNL A   1      41.192  35.116  33.862  1.00  0.00    -0.744 OA
ENDBRANCH  91  95
ENDBRANCH  64  88
BRANCH  76  99
ATOM     99  C   UNL A   1      45.159  23.874  33.704  1.00  0.00     0.023 A 
ATOM    100  C   UNL A   1      46.484  23.591  34.063  1.00  0.00     0.031 A 
ATOM    101  C   UNL A   1      44.203  22.931  34.175  1.00  0.00     0.131 A 
ATOM    102  C   UNL A   1      46.822  22.436  34.798  1.00  0.00     0.055 A 
ATOM    103  C   UNL A   1      44.532  21.812  34.949  1.00  0.00     0.041 A 
ATOM    104  F   UNL A   1      42.893  23.052  33.918  1.00  0.00    -0.206 F 
ATOM    105  C   UNL A   1      45.853  21.553  35.261  1.00  0.00     0.022 A 
BRANCH 102 106
ATOM    106  S   UNL A   1      48.576  22.097  35.105  1.00  0.00     0.124 S 
ATOM    107  O   UNL A   1      48.669  20.674  34.790  1.00  0.00    -0.237 OA
ATOM    108  O   UNL A   1      49.237  22.997  34.165  1.00  0.00    -0.237 OA
ATOM    109  O   UNL A   1      48.753  22.433  36.516  1.00  0.00    -0.744 OA
ENDBRANCH 102 106
ENDBRANCH  76  99
ENDBRANCH  50  51
ENDBRANCH  42  45
ENDBRANCH  40  41
ENDBRANCH  39  40
ENDBRANCH  38  39
ENDBRANCH  37  38
ENDBRANCH   1  37
TORSDOF 21
ENDMDL
MODEL 3
REMARK VINA RESULT:     -12.8      2.730      3.681
REMARK SMILES Cc1c(C(=O)Nc2ccc(C(=O)Nc3ccccc3C(=O)NCCCCCCNC(=O)c3ccc(-c4c5nc(c(-c6cc(S(=O)(=O)[O-])ccc6F)c6ccc([nH]6)c(-c6cc(S(=O)(=O)[O-])ccc6F)c6nc(c(-c7cc(S(=O)(=O)[O-])ccc7F)c7ccc4[nH]7)C=C6)C=C5)cc3)cc2)cccc1[N+](=O)[O-]
REMARK SMILES IDX 24 1 23 2 22 3 20 4 21 5 19 7 14 8 15 9 16 10 18 11 17 12
REMARK SMILES IDX 13 13 11 14 12 15 10 17 7 18 8 19 96 20 9 21 95 22 6 23 4 24
REMARK SMILES IDX 5 25 3 27 1 28 2 29 100 30 97 31 99 32 98 33 101 34 102 35
REMARK SMILES IDX 103 36 25 37 26 38 27 39 28 40 29 41 30 42 31 44 32 45 33 46
REMARK SMILES IDX 94 47 34 48 93 49 35 50 36 51 37 52 87 53 38 54 92 55 86 56
REMARK SMILES IDX 88 57 39 58 91 59 85 60 84 61 40 63 72 64 52 65 71 66 53 67
REMARK SMILES IDX 56 68 70 69 89 70 54 71 55 72 69 74 90 75 57 76 41 77 42 78
REMARK SMILES IDX 50 79 43 80 49 81 51 82 48 83 44 84 45 85 46 86 47 87 73 88
REMARK SMILES IDX 74 89 82 90 75 91 81 92 83 93 80 94 76 95 77 96 78 97 79 98
REMARK SMILES IDX 58 99 59 100 67 101 60 102 66 103 68 104 65 105 61 106
REMARK SMILES IDX 62 107 63 108 64 109
REMARK H PARENT 22 6 13 16 6 26 29 43 88 62 56 73
REMARK Flexibility Score: inf
ROOT
ATOM      1  C   UNL A   1      32.934  34.451  28.182  1.00  0.00     0.021 C 
ENDROOT
BRANCH   1   2
ATOM      2  C   UNL A   1      32.874  33.017  27.648  1.00  0.00     0.116 C 
BRANCH   2   3
ATOM      3  N   UNL A   1      31.738  32.703  26.801  1.00  0.00    -0.352 N 
ATOM      4  C   UNL A   1      31.376  31.536  26.166  1.00  0.00     0.253 C 
ATOM      5  O   UNL A   1      30.273  31.469  25.627  1.00  0.00    -0.269 OA
ATOM      6  H   UNL A   1      31.119  33.455  26.655  1.00  0.00     0.163 HD
BRANCH   4   7
ATOM      7  C   UNL A   1      32.284  30.359  26.093  1.00  0.00     0.063 A 
ATOM      8  C   UNL A   1      32.308  29.517  24.957  1.00  0.00     0.054 A 
ATOM      9  C   UNL A   1      33.100  28.356  24.974  1.00  0.00     0.027 A 
ATOM     10  C   UNL A   1      33.923  28.070  26.063  1.00  0.00     0.002 A 
ATOM     11  C   UNL A   1      33.059  30.010  27.211  1.00  0.00     0.016 A 
ATOM     12  C   UNL A   1      33.903  28.897  27.181  1.00  0.00     0.001 A 
BRANCH   8  13
ATOM     13  N   UNL A   1      31.656  29.758  23.730  1.00  0.00    -0.321 N 
ATOM     14  C   UNL A   1      31.159  28.897  22.772  1.00  0.00     0.255 C 
ATOM     15  O   UNL A   1      30.819  29.367  21.683  1.00  0.00    -0.269 OA
ATOM     16  H   UNL A   1      31.534  30.712  23.518  1.00  0.00     0.170 HD
BRANCH  14  17
ATOM     17  C   UNL A   1      30.820  27.475  23.077  1.00  0.00     0.040 A 
ATOM     18  C   UNL A   1      30.477  24.820  23.954  1.00  0.00     0.041 A 
ATOM     19  C   UNL A   1      31.164  25.094  22.783  1.00  0.00     0.027 A 
ATOM     20  C   UNL A   1      29.807  25.864  24.597  1.00  0.00     0.027 A 
ATOM     21  C   UNL A   1      31.420  26.407  22.412  1.00  0.00     0.016 A 
ATOM     22  C   UNL A   1      29.976  27.187  24.158  1.00  0.00     0.016 A 
BRANCH  18  23
ATOM     23  N   UNL A   1      30.523  23.561  24.577  1.00  0.00    -0.322 N 
ATOM     24  C   UNL A   1      31.591  22.824  25.065  1.00  0.00     0.256 C 
ATOM     25  O   UNL A   1      31.396  21.704  25.533  1.00  0.00    -0.269 OA
ATOM     26  H   UNL A   1      29.646  23.128  24.686  1.00  0.00     0.170 HD
BRANCH  24  27
ATOM     27  C   UNL A   1      32.992  23.336  25.057  1.00  0.00     0.049 A 
ATOM     28  C   UNL A   1      33.544  22.399  22.756  1.00  0.00     0.053 C 
ATOM     29  C   UNL A   1      33.950  23.023  24.065  1.00  0.00     0.039 A 
ATOM     30  C   UNL A   1      35.300  23.317  24.367  1.00  0.00     0.273 A 
ATOM     31  C   UNL A   1      33.346  24.134  26.160  1.00  0.00     0.014 A 
ATOM     32  C   UNL A   1      35.655  24.087  25.488  1.00  0.00     0.086 A 
ATOM     33  C   UNL A   1      34.665  24.538  26.355  1.00  0.00     0.008 A 
BRANCH  30  34
ATOM     34  N   UNL A   1      36.403  22.727  23.597  1.00  0.00     0.063 N 
ATOM     35  O   UNL A   1      37.185  21.975  24.197  1.00  0.00    -0.258 OA
ATOM     36  O   UNL A   1      36.443  22.951  22.379  1.00  0.00    -0.258 OA
ENDBRANCH  30  34
ENDBRANCH  24  27
ENDBRANCH  18  23
ENDBRANCH  14  17
ENDBRANCH   8  13
ENDBRANCH   4   7
ENDBRANCH   2   3
ENDBRANCH   1   2
BRANCH   1  37
ATOM     37  C   UNL A   1      34.172  34.894  28.967  1.00  0.00     0.002 C 
BRANCH  37  38
ATOM     38  C   UNL A   1      34.368  34.330  30.378  1.00  0.00     0.002 C 
BRANCH  38  39
ATOM     39  C   UNL A   1      33.955  35.226  31.542  1.00  0.00     0.021 C 
BRANCH  39  40
ATOM     40  C   UNL A   1      33.551  34.491  32.814  1.00  0.00     0.116 C 
BRANCH  40  41
ATOM     41  N   UNL A   1      34.398  34.763  33.960  1.00  0.00    -0.352 N 
ATOM     42  C   UNL A   1      35.575  34.148  34.349  1.00  0.00     0.251 C 
ATOM     43  H   UNL A   1      34.090  35.492  34.547  1.00  0.00     0.163 HD
ATOM     44  O   UNL A   1      36.061  34.371  35.451  1.00  0.00    -0.269 OA
BRANCH  42  45
ATOM     45  C   UNL A   1      36.341  33.335  33.365  1.00  0.00     0.039 A 
ATOM     46  C   UNL A   1      36.324  31.944  33.547  1.00  0.00     0.014 A 
ATOM     47  C   UNL A   1      37.212  33.897  32.437  1.00  0.00     0.014 A 
ATOM     48  C   UNL A   1      37.328  31.158  32.984  1.00  0.00     0.010 A 
ATOM     49  C   UNL A   1      38.258  33.139  31.946  1.00  0.00     0.010 A 
ATOM     50  C   UNL A   1      38.348  31.786  32.271  1.00  0.00    -0.014 A 
BRANCH  50  51
ATOM     51  C   UNL A   1      39.605  31.134  31.938  1.00  0.00     0.031 A 
ATOM     52  C   UNL A   1      39.634  29.928  31.095  1.00  0.00     0.074 A 
ATOM     53  C   UNL A   1      40.767  31.664  32.377  1.00  0.00     0.049 A 
ATOM     54  N   UNL A   1      40.543  29.018  31.172  1.00  0.00    -0.248 NA
ATOM     55  C   UNL A   1      38.606  29.636  30.103  1.00  0.00     0.031 C 
ATOM     56  C   UNL A   1      42.122  31.295  31.981  1.00  0.00     0.029 A 
ATOM     57  N   UNL A   1      40.938  32.492  33.482  1.00  0.00    -0.354 N 
ATOM     58  C   UNL A   1      40.402  28.195  30.081  1.00  0.00     0.074 A 
ATOM     59  C   UNL A   1      39.137  28.574  29.489  1.00  0.00     0.031 C 
ATOM     60  C   UNL A   1      42.968  31.654  32.959  1.00  0.00     0.029 A 
ATOM     61  C   UNL A   1      42.169  32.147  34.066  1.00  0.00     0.049 A 
ATOM     62  H   UNL A   1      40.316  33.188  33.795  1.00  0.00     0.167 HD
ATOM     63  C   UNL A   1      41.433  27.387  29.711  1.00  0.00     0.034 A 
ATOM     64  C   UNL A   1      42.227  31.694  35.352  1.00  0.00     0.034 A 
ATOM     65  C   UNL A   1      42.584  27.530  30.602  1.00  0.00     0.049 A 
ATOM     66  C   UNL A   1      42.806  30.302  35.475  1.00  0.00     0.074 A 
ATOM     67  C   UNL A   1      43.780  28.220  30.492  1.00  0.00     0.029 A 
ATOM     68  N   UNL A   1      42.480  27.140  31.933  1.00  0.00    -0.354 N 
ATOM     69  N   UNL A   1      42.950  29.472  34.477  1.00  0.00    -0.248 NA
ATOM     70  C   UNL A   1      43.253  29.727  36.738  1.00  0.00     0.031 C 
ATOM     71  C   UNL A   1      44.388  28.260  31.774  1.00  0.00     0.029 A 
ATOM     72  C   UNL A   1      43.574  27.574  32.658  1.00  0.00     0.049 A 
ATOM     73  H   UNL A   1      41.730  26.624  32.307  1.00  0.00     0.167 HD
ATOM     74  C   UNL A   1      43.481  28.284  34.925  1.00  0.00     0.074 A 
ATOM     75  C   UNL A   1      43.665  28.507  36.350  1.00  0.00     0.031 C 
ATOM     76  C   UNL A   1      43.707  27.235  34.072  1.00  0.00     0.034 A 
BRANCH  63  77
ATOM     77  C   UNL A   1      41.511  26.699  28.367  1.00  0.00     0.023 A 
ATOM     78  C   UNL A   1      41.794  25.318  28.308  1.00  0.00     0.031 A 
ATOM     79  C   UNL A   1      41.349  27.337  27.123  1.00  0.00     0.131 A 
ATOM     80  C   UNL A   1      42.017  24.665  27.083  1.00  0.00     0.055 A 
ATOM     81  C   UNL A   1      41.629  26.704  25.905  1.00  0.00     0.041 A 
ATOM     82  F   UNL A   1      40.872  28.587  27.035  1.00  0.00    -0.206 F 
ATOM     83  C   UNL A   1      41.981  25.362  25.880  1.00  0.00     0.022 A 
BRANCH  80  84
ATOM     84  S   UNL A   1      42.349  22.881  27.082  1.00  0.00     0.124 S 
ATOM     85  O   UNL A   1      41.434  22.396  26.054  1.00  0.00    -0.237 OA
ATOM     86  O   UNL A   1      43.770  22.832  26.760  1.00  0.00    -0.237 OA
ATOM     87  O   UNL A   1      42.012  22.474  28.446  1.00  0.00    -0.744 OA
ENDBRANCH  80  84
ENDBRANCH  63  77
BRANCH  64  88
ATOM     88  C   UNL A   1      41.176  32.298  36.225  1.00  0.00     0.023 A 
ATOM     89  C   UNL A   1      41.457  33.572  36.773  1.00  0.00     0.031 A 
ATOM     90  C   UNL A   1      39.837  31.891  36.171  1.00  0.00     0.131 A 
ATOM     91  C   UNL A   1      40.415  34.465  37.062  1.00  0.00     0.055 A 
ATOM     92  C   UNL A   1      38.800  32.757  36.546  1.00  0.00     0.041 A 
ATOM     93  F   UNL A   1      39.502  30.707  35.638  1.00  0.00    -0.206 F 
ATOM     94  C   UNL A   1      39.084  34.065  36.945  1.00  0.00     0.022 A 
BRANCH  91  95
ATOM     95  S   UNL A   1      40.812  36.228  37.295  1.00  0.00     0.124 S 
ATOM     96  O   UNL A   1      41.780  36.180  38.385  1.00  0.00    -0.237 OA
ATOM     97  O   UNL A   1      41.341  36.621  35.990  1.00  0.00    -0.237 OA
ATOM     98  O   UNL A   1      39.520  36.830  37.621  1.00  0.00    -0.744 OA
ENDBRANCH  91  95
ENDBRANCH  64  88
BRANCH  76  99
ATOM     99  C   UNL A   1      44.137  25.814  34.426  1.00  0.00     0.023 A 
ATOM    100  C   UNL A   1      45.469  25.386  34.509  1.00  0.00     0.031 A 
ATOM    101  C   UNL A   1      43.173  24.818  34.747  1.00  0.00     0.131 A 
ATOM    102  C   UNL A   1      45.801  24.057  34.846  1.00  0.00     0.055 A 
ATOM    103  C   UNL A   1      43.503  23.513  35.133  1.00  0.00     0.041 A 
ATOM    104  F   UNL A   1      41.855  25.062  34.715  1.00  0.00    -0.206 F 
ATOM    105  C   UNL A   1      44.827  23.122  35.178  1.00  0.00     0.022 A 
BRANCH 102 106
ATOM    106  S   UNL A   1      47.547  23.571  34.806  1.00  0.00     0.124 S 
ATOM    107  O   UNL A   1      48.007  23.987  36.128  1.00  0.00    -0.237 OA
ATOM    108  O   UNL A   1      47.464  22.130  34.590  1.00  0.00    -0.237 OA
ATOM    109  O   UNL A   1      48.094  24.337  33.689  1.00  0.00    -0.744 OA
ENDBRANCH 102 106
ENDBRANCH  76  99
ENDBRANCH  50  51
ENDBRANCH  42  45
ENDBRANCH  40  41
ENDBRANCH  39  40
ENDBRANCH  38  39
ENDBRANCH  37  38
ENDBRANCH   1  37
TORSDOF 21
ENDMDL
