MODEL 1
REMARK VINA RESULT:     -11.7      0.000      0.000
REMARK SMILES C[C@@H](C(=O)NCCCCCCNC(=O)c1ccc(-c2c3nc(c(-c4cc(S(=O)(=O)[O-])ccc4F)c4ccc([nH]4)c(-c4cc(S(=O)(=O)[O-])ccc4F)c4nc(c(-c5cc(S(=O)(=O)[O-])ccc5F)c5ccc2[nH]5)C=C4)C=C3)cc1)c1ccc(C[C@H]2CCC[C@H]2O)cc1
REMARK SMILES IDX 8 1 7 2 6 3 5 4 3 5 4 6 2 8 1 9 78 10 79 11 90 12 80 13
REMARK SMILES IDX 89 14 81 15 82 16 83 17 84 18 87 19 85 20 86 21 88 22 9 24
REMARK SMILES IDX 10 25 11 26 12 27 13 28 14 30 15 31 16 32 77 33 17 34 76 35
REMARK SMILES IDX 18 36 19 37 20 38 70 39 21 40 75 41 69 42 71 43 22 44 74 45
REMARK SMILES IDX 68 46 67 47 23 49 55 50 35 51 54 52 36 53 39 54 53 55 72 56
REMARK SMILES IDX 37 57 38 58 52 60 73 61 40 62 24 63 25 64 33 65 26 66 32 67
REMARK SMILES IDX 34 68 31 69 27 70 28 71 29 72 30 73 56 74 57 75 65 76 58 77
REMARK SMILES IDX 64 78 66 79 63 80 59 81 60 82 61 83 62 84 41 85 42 86 50 87
REMARK SMILES IDX 43 88 49 89 51 90 48 91 44 92 45 93 46 94 47 95
REMARK H PARENT 5 7 88 23 12 29 71 48 39 59
REMARK Flexibility Score: inf
ROOT
ATOM      1  C   UNL A   1      34.675  24.665  25.411  1.00  0.00     0.002 C 
ENDROOT
BRANCH   1   2
ATOM      2  C   UNL A   1      34.197  26.123  25.364  1.00  0.00     0.021 C 
BRANCH   2   3
ATOM      3  C   UNL A   1      32.683  26.298  25.521  1.00  0.00     0.116 C 
BRANCH   3   4
ATOM      4  N   UNL A   1      32.104  26.772  24.279  1.00  0.00    -0.356 N 
ATOM      5  C   UNL A   1      31.216  26.150  23.449  1.00  0.00     0.227 C 
ATOM      6  O   UNL A   1      31.178  26.558  22.285  1.00  0.00    -0.274 OA
ATOM      7  H   UNL A   1      32.391  27.669  23.995  1.00  0.00     0.163 HD
BRANCH   5   8
ATOM      8  C   UNL A   1      30.334  25.007  23.993  1.00  0.00     0.105 C 
ATOM      9  C   UNL A   1      29.791  25.456  25.361  1.00  0.00     0.023 C 
BRANCH   8  10
ATOM     10  C   UNL A   1      31.038  23.646  24.091  1.00  0.00    -0.036 A 
ATOM     11  C   UNL A   1      31.058  22.936  25.301  1.00  0.00     0.005 A 
ATOM     12  C   UNL A   1      31.695  23.064  22.998  1.00  0.00     0.005 A 
ATOM     13  C   UNL A   1      31.871  21.814  25.466  1.00  0.00     0.004 A 
ATOM     14  C   UNL A   1      32.532  21.958  23.167  1.00  0.00     0.004 A 
ATOM     15  C   UNL A   1      32.695  21.381  24.428  1.00  0.00    -0.048 A 
BRANCH  15  16
ATOM     16  C   UNL A   1      33.791  20.380  24.685  1.00  0.00     0.041 C 
BRANCH  16  17
ATOM     17  C   UNL A   1      33.445  18.897  24.430  1.00  0.00     0.022 C 
ATOM     18  C   UNL A   1      34.633  17.925  24.320  1.00  0.00     0.007 C 
ATOM     19  C   UNL A   1      32.473  18.196  25.394  1.00  0.00     0.117 C 
ATOM     20  C   UNL A   1      34.099  16.551  24.738  1.00  0.00     0.003 C 
ATOM     21  C   UNL A   1      32.605  16.732  24.987  1.00  0.00     0.032 C 
BRANCH  19  22
ATOM     22  O   UNL A   1      32.801  18.307  26.767  1.00  0.00    -0.393 OA
ATOM     23  H   UNL A   1      32.089  17.922  27.301  1.00  0.00     0.210 HD
ENDBRANCH  19  22
ENDBRANCH  16  17
ENDBRANCH  15  16
ENDBRANCH   8  10
ENDBRANCH   5   8
ENDBRANCH   3   4
ENDBRANCH   2   3
ENDBRANCH   1   2
BRANCH   1  24
ATOM     24  C   UNL A   1      35.324  24.151  24.123  1.00  0.00     0.002 C 
BRANCH  24  25
ATOM     25  C   UNL A   1      36.129  22.860  24.282  1.00  0.00     0.021 C 
BRANCH  25  26
ATOM     26  C   UNL A   1      36.592  22.575  25.705  1.00  0.00     0.116 C 
BRANCH  26  27
ATOM     27  N   UNL A   1      37.433  21.392  25.778  1.00  0.00    -0.352 N 
ATOM     28  C   UNL A   1      38.776  21.316  26.070  1.00  0.00     0.251 C 
ATOM     29  H   UNL A   1      36.985  20.535  25.595  1.00  0.00     0.163 HD
ATOM     30  O   UNL A   1      39.388  20.270  25.904  1.00  0.00    -0.269 OA
BRANCH  28  31
ATOM     31  C   UNL A   1      39.467  22.527  26.563  1.00  0.00     0.039 A 
ATOM     32  C   UNL A   1      40.452  22.401  27.546  1.00  0.00     0.014 A 
ATOM     33  C   UNL A   1      39.159  23.778  26.022  1.00  0.00     0.014 A 
ATOM     34  C   UNL A   1      41.175  23.529  27.945  1.00  0.00     0.010 A 
ATOM     35  C   UNL A   1      39.922  24.885  26.374  1.00  0.00     0.010 A 
ATOM     36  C   UNL A   1      40.936  24.772  27.340  1.00  0.00    -0.014 A 
BRANCH  36  37
ATOM     37  C   UNL A   1      41.699  25.991  27.712  1.00  0.00     0.031 A 
ATOM     38  C   UNL A   1      41.011  27.077  28.490  1.00  0.00     0.074 A 
ATOM     39  C   UNL A   1      42.951  26.175  27.251  1.00  0.00     0.049 A 
ATOM     40  N   UNL A   1      41.403  28.299  28.741  1.00  0.00    -0.248 NA
ATOM     41  C   UNL A   1      39.678  26.749  29.016  1.00  0.00     0.031 C 
ATOM     42  C   UNL A   1      43.710  25.207  26.459  1.00  0.00     0.029 A 
ATOM     43  N   UNL A   1      43.790  27.255  27.354  1.00  0.00    -0.354 N 
ATOM     44  C   UNL A   1      40.349  28.899  29.423  1.00  0.00     0.074 A 
ATOM     45  C   UNL A   1      39.286  27.919  29.493  1.00  0.00     0.031 C 
ATOM     46  C   UNL A   1      44.901  25.741  26.139  1.00  0.00     0.029 A 
ATOM     47  C   UNL A   1      44.969  27.103  26.661  1.00  0.00     0.049 A 
ATOM     48  H   UNL A   1      43.571  28.062  27.875  1.00  0.00     0.167 HD
ATOM     49  C   UNL A   1      40.283  30.147  29.953  1.00  0.00     0.034 A 
ATOM     50  C   UNL A   1      45.975  27.974  26.440  1.00  0.00     0.034 A 
ATOM     51  C   UNL A   1      41.366  31.098  29.885  1.00  0.00     0.049 A 
ATOM     52  C   UNL A   1      45.887  29.357  27.031  1.00  0.00     0.074 A 
ATOM     53  C   UNL A   1      41.440  32.364  30.440  1.00  0.00     0.029 A 
ATOM     54  N   UNL A   1      42.564  30.891  29.213  1.00  0.00    -0.354 N 
ATOM     55  N   UNL A   1      44.903  29.904  27.706  1.00  0.00    -0.248 NA
ATOM     56  C   UNL A   1      47.048  30.238  26.837  1.00  0.00     0.031 C 
ATOM     57  C   UNL A   1      42.653  32.943  30.052  1.00  0.00     0.029 A 
ATOM     58  C   UNL A   1      43.371  32.013  29.316  1.00  0.00     0.049 A 
ATOM     59  H   UNL A   1      42.806  30.066  28.732  1.00  0.00     0.167 HD
ATOM     60  C   UNL A   1      45.339  31.182  28.046  1.00  0.00     0.074 A 
ATOM     61  C   UNL A   1      46.672  31.325  27.498  1.00  0.00     0.031 C 
ATOM     62  C   UNL A   1      44.698  32.142  28.760  1.00  0.00     0.034 A 
BRANCH  49  63
ATOM     63  C   UNL A   1      38.983  30.548  30.610  1.00  0.00     0.023 A 
ATOM     64  C   UNL A   1      37.951  31.170  29.886  1.00  0.00     0.031 A 
ATOM     65  C   UNL A   1      38.800  30.377  31.994  1.00  0.00     0.131 A 
ATOM     66  C   UNL A   1      36.841  31.698  30.561  1.00  0.00     0.055 A 
ATOM     67  C   UNL A   1      37.646  30.816  32.644  1.00  0.00     0.041 A 
ATOM     68  F   UNL A   1      39.756  29.806  32.745  1.00  0.00    -0.206 F 
ATOM     69  C   UNL A   1      36.668  31.504  31.932  1.00  0.00     0.022 A 
BRANCH  66  70
ATOM     70  S   UNL A   1      35.733  32.813  29.653  1.00  0.00     0.124 S 
ATOM     71  O   UNL A   1      34.428  32.435  30.195  1.00  0.00    -0.237 OA
ATOM     72  O   UNL A   1      36.227  34.130  30.037  1.00  0.00    -0.237 OA
ATOM     73  O   UNL A   1      35.947  32.445  28.256  1.00  0.00    -0.744 OA
ENDBRANCH  66  70
ENDBRANCH  49  63
BRANCH  50  74
ATOM     74  C   UNL A   1      47.134  27.566  25.601  1.00  0.00     0.023 A 
ATOM     75  C   UNL A   1      47.184  27.875  24.233  1.00  0.00     0.031 A 
ATOM     76  C   UNL A   1      48.220  26.872  26.165  1.00  0.00     0.131 A 
ATOM     77  C   UNL A   1      48.287  27.467  23.467  1.00  0.00     0.055 A 
ATOM     78  C   UNL A   1      49.331  26.504  25.406  1.00  0.00     0.041 A 
ATOM     79  F   UNL A   1      48.224  26.566  27.471  1.00  0.00    -0.206 F 
ATOM     80  C   UNL A   1      49.367  26.796  24.046  1.00  0.00     0.022 A 
BRANCH  77  81
ATOM     81  S   UNL A   1      48.280  27.801  21.684  1.00  0.00     0.124 S 
ATOM     82  O   UNL A   1      49.370  28.761  21.558  1.00  0.00    -0.237 OA
ATOM     83  O   UNL A   1      48.524  26.475  21.125  1.00  0.00    -0.237 OA
ATOM     84  O   UNL A   1      46.943  28.338  21.443  1.00  0.00    -0.744 OA
ENDBRANCH  77  81
ENDBRANCH  50  74
BRANCH  62  85
ATOM     85  C   UNL A   1      45.457  33.413  29.047  1.00  0.00     0.023 A 
ATOM     86  C   UNL A   1      45.357  34.542  28.218  1.00  0.00     0.031 A 
ATOM     87  C   UNL A   1      46.264  33.497  30.195  1.00  0.00     0.131 A 
ATOM     88  C   UNL A   1      46.079  35.704  28.537  1.00  0.00     0.055 A 
ATOM     89  C   UNL A   1      46.943  34.668  30.531  1.00  0.00     0.041 A 
ATOM     90  F   UNL A   1      46.391  32.444  31.019  1.00  0.00    -0.206 F 
ATOM     91  C   UNL A   1      46.856  35.779  29.697  1.00  0.00     0.022 A 
BRANCH  88  92
ATOM     92  S   UNL A   1      46.023  37.112  27.395  1.00  0.00     0.124 S 
ATOM     93  O   UNL A   1      44.592  37.387  27.324  1.00  0.00    -0.237 OA
ATOM     94  O   UNL A   1      46.831  38.111  28.085  1.00  0.00    -0.237 OA
ATOM     95  O   UNL A   1      46.613  36.582  26.166  1.00  0.00    -0.744 OA
ENDBRANCH  88  92
ENDBRANCH  62  85
ENDBRANCH  36  37
ENDBRANCH  28  31
ENDBRANCH  26  27
ENDBRANCH  25  26
ENDBRANCH  24  25
ENDBRANCH   1  24
TORSDOF 20
ENDMDL
MODEL 2
REMARK VINA RESULT:     -11.5      1.210      7.526
REMARK SMILES C[C@@H](C(=O)NCCCCCCNC(=O)c1ccc(-c2c3nc(c(-c4cc(S(=O)(=O)[O-])ccc4F)c4ccc([nH]4)c(-c4cc(S(=O)(=O)[O-])ccc4F)c4nc(c(-c5cc(S(=O)(=O)[O-])ccc5F)c5ccc2[nH]5)C=C4)C=C3)cc1)c1ccc(C[C@H]2CCC[C@H]2O)cc1
REMARK SMILES IDX 8 1 7 2 6 3 5 4 3 5 4 6 2 8 1 9 78 10 79 11 90 12 80 13
REMARK SMILES IDX 89 14 81 15 82 16 83 17 84 18 87 19 85 20 86 21 88 22 9 24
REMARK SMILES IDX 10 25 11 26 12 27 13 28 14 30 15 31 16 32 77 33 17 34 76 35
REMARK SMILES IDX 18 36 19 37 20 38 70 39 21 40 75 41 69 42 71 43 22 44 74 45
REMARK SMILES IDX 68 46 67 47 23 49 55 50 35 51 54 52 36 53 39 54 53 55 72 56
REMARK SMILES IDX 37 57 38 58 52 60 73 61 40 62 24 63 25 64 33 65 26 66 32 67
REMARK SMILES IDX 34 68 31 69 27 70 28 71 29 72 30 73 56 74 57 75 65 76 58 77
REMARK SMILES IDX 64 78 66 79 63 80 59 81 60 82 61 83 62 84 41 85 42 86 50 87
REMARK SMILES IDX 43 88 49 89 51 90 48 91 44 92 45 93 46 94 47 95
REMARK H PARENT 5 7 88 23 12 29 71 48 39 59
REMARK Flexibility Score: inf
ROOT
ATOM      1  C   UNL A   1      34.664  24.147  25.236  1.00  0.00     0.002 C 
ENDROOT
BRANCH   1   2
ATOM      2  C   UNL A   1      34.447  25.667  25.207  1.00  0.00     0.021 C 
BRANCH   2   3
ATOM      3  C   UNL A   1      32.982  26.098  25.324  1.00  0.00     0.116 C 
BRANCH   3   4
ATOM      4  N   UNL A   1      32.509  26.607  24.051  1.00  0.00    -0.356 N 
ATOM      5  C   UNL A   1      31.555  26.096  23.218  1.00  0.00     0.227 C 
ATOM      6  O   UNL A   1      31.605  26.461  22.041  1.00  0.00    -0.274 OA
ATOM      7  H   UNL A   1      32.935  27.439  23.744  1.00  0.00     0.163 HD
BRANCH   5   8
ATOM      8  C   UNL A   1      30.498  25.121  23.776  1.00  0.00     0.105 C 
ATOM      9  C   UNL A   1      29.889  25.771  25.031  1.00  0.00     0.023 C 
BRANCH   8  10
ATOM     10  C   UNL A   1      31.024  23.709  24.078  1.00  0.00    -0.036 A 
ATOM     11  C   UNL A   1      30.855  23.139  25.349  1.00  0.00     0.005 A 
ATOM     12  C   UNL A   1      31.698  22.942  23.117  1.00  0.00     0.005 A 
ATOM     13  C   UNL A   1      31.512  21.960  25.703  1.00  0.00     0.004 A 
ATOM     14  C   UNL A   1      32.380  21.777  23.477  1.00  0.00     0.004 A 
ATOM     15  C   UNL A   1      32.364  21.328  24.799  1.00  0.00    -0.048 A 
BRANCH  15  16
ATOM     16  C   UNL A   1      33.307  20.248  25.261  1.00  0.00     0.041 C 
BRANCH  16  17
ATOM     17  C   UNL A   1      33.648  19.145  24.236  1.00  0.00     0.022 C 
ATOM     18  C   UNL A   1      34.796  18.191  24.611  1.00  0.00     0.007 C 
ATOM     19  C   UNL A   1      32.522  18.210  23.764  1.00  0.00     0.117 C 
ATOM     20  C   UNL A   1      34.523  16.880  23.866  1.00  0.00     0.003 C 
ATOM     21  C   UNL A   1      33.286  17.128  23.007  1.00  0.00     0.032 C 
BRANCH  19  22
ATOM     22  O   UNL A   1      31.781  17.588  24.799  1.00  0.00    -0.393 OA
ATOM     23  H   UNL A   1      32.334  17.516  25.593  1.00  0.00     0.210 HD
ENDBRANCH  19  22
ENDBRANCH  16  17
ENDBRANCH  15  16
ENDBRANCH   8  10
ENDBRANCH   5   8
ENDBRANCH   3   4
ENDBRANCH   2   3
ENDBRANCH   1   2
BRANCH   1  24
ATOM     24  C   UNL A   1      35.376  23.569  24.010  1.00  0.00     0.002 C 
BRANCH  24  25
ATOM     25  C   UNL A   1      36.440  22.517  24.323  1.00  0.00     0.021 C 
BRANCH  25  26
ATOM     26  C   UNL A   1      36.950  22.542  25.759  1.00  0.00     0.116 C 
BRANCH  26  27
ATOM     27  N   UNL A   1      37.995  21.557  25.985  1.00  0.00    -0.352 N 
ATOM     28  C   UNL A   1      39.304  21.770  26.353  1.00  0.00     0.251 C 
ATOM     29  H   UNL A   1      37.733  20.617  25.857  1.00  0.00     0.163 HD
ATOM     30  O   UNL A   1      40.115  20.855  26.315  1.00  0.00    -0.269 OA
BRANCH  28  31
ATOM     31  C   UNL A   1      39.714  23.128  26.768  1.00  0.00     0.039 A 
ATOM     32  C   UNL A   1      40.543  23.282  27.882  1.00  0.00     0.014 A 
ATOM     33  C   UNL A   1      39.303  24.241  26.029  1.00  0.00     0.014 A 
ATOM     34  C   UNL A   1      41.013  24.554  28.221  1.00  0.00     0.010 A 
ATOM     35  C   UNL A   1      39.822  25.495  26.329  1.00  0.00     0.010 A 
ATOM     36  C   UNL A   1      40.681  25.665  27.430  1.00  0.00    -0.014 A 
BRANCH  36  37
ATOM     37  C   UNL A   1      41.178  27.030  27.735  1.00  0.00     0.031 A 
ATOM     38  C   UNL A   1      42.616  27.366  27.458  1.00  0.00     0.074 A 
ATOM     39  C   UNL A   1      40.384  27.916  28.366  1.00  0.00     0.049 A 
ATOM     40  N   UNL A   1      43.317  28.404  27.831  1.00  0.00    -0.248 NA
ATOM     41  C   UNL A   1      43.376  26.365  26.695  1.00  0.00     0.031 C 
ATOM     42  C   UNL A   1      38.981  27.693  28.717  1.00  0.00     0.029 A 
ATOM     43  N   UNL A   1      40.656  29.169  28.856  1.00  0.00    -0.354 N 
ATOM     44  C   UNL A   1      44.611  28.168  27.379  1.00  0.00     0.074 A 
ATOM     45  C   UNL A   1      44.602  26.860  26.757  1.00  0.00     0.031 C 
ATOM     46  C   UNL A   1      38.518  28.770  29.374  1.00  0.00     0.029 A 
ATOM     47  C   UNL A   1      39.602  29.735  29.533  1.00  0.00     0.049 A 
ATOM     48  H   UNL A   1      41.523  29.620  28.734  1.00  0.00     0.167 HD
ATOM     49  C   UNL A   1      45.700  28.972  27.465  1.00  0.00     0.034 A 
ATOM     50  C   UNL A   1      39.525  30.884  30.234  1.00  0.00     0.034 A 
ATOM     51  C   UNL A   1      45.677  30.280  28.075  1.00  0.00     0.049 A 
ATOM     52  C   UNL A   1      40.742  31.768  30.325  1.00  0.00     0.074 A 
ATOM     53  C   UNL A   1      46.698  31.211  28.162  1.00  0.00     0.029 A 
ATOM     54  N   UNL A   1      44.576  30.840  28.711  1.00  0.00    -0.354 N 
ATOM     55  N   UNL A   1      41.953  31.553  29.863  1.00  0.00    -0.248 NA
ATOM     56  C   UNL A   1      40.583  33.051  31.022  1.00  0.00     0.031 C 
ATOM     57  C   UNL A   1      46.232  32.304  28.903  1.00  0.00     0.029 A 
ATOM     58  C   UNL A   1      44.899  32.090  29.216  1.00  0.00     0.049 A 
ATOM     59  H   UNL A   1      43.693  30.411  28.792  1.00  0.00     0.167 HD
ATOM     60  C   UNL A   1      42.691  32.688  30.186  1.00  0.00     0.074 A 
ATOM     61  C   UNL A   1      41.791  33.582  30.886  1.00  0.00     0.031 C 
ATOM     62  C   UNL A   1      43.990  32.968  29.915  1.00  0.00     0.034 A 
BRANCH  49  63
ATOM     63  C   UNL A   1      47.001  28.432  26.918  1.00  0.00     0.023 A 
ATOM     64  C   UNL A   1      47.254  28.374  25.536  1.00  0.00     0.031 A 
ATOM     65  C   UNL A   1      47.971  27.896  27.783  1.00  0.00     0.131 A 
ATOM     66  C   UNL A   1      48.385  27.696  25.058  1.00  0.00     0.055 A 
ATOM     67  C   UNL A   1      49.144  27.311  27.303  1.00  0.00     0.041 A 
ATOM     68  F   UNL A   1      47.781  27.903  29.113  1.00  0.00    -0.206 F 
ATOM     69  C   UNL A   1      49.345  27.186  25.932  1.00  0.00     0.022 A 
BRANCH  66  70
ATOM     70  S   UNL A   1      48.475  27.318  23.285  1.00  0.00     0.124 S 
ATOM     71  O   UNL A   1      49.815  27.797  22.950  1.00  0.00    -0.237 OA
ATOM     72  O   UNL A   1      48.288  25.873  23.261  1.00  0.00    -0.237 OA
ATOM     73  O   UNL A   1      47.383  28.101  22.712  1.00  0.00    -0.744 OA
ENDBRANCH  66  70
ENDBRANCH  49  63
BRANCH  50  74
ATOM     74  C   UNL A   1      38.257  31.247  30.923  1.00  0.00     0.023 A 
ATOM     75  C   UNL A   1      37.237  31.937  30.251  1.00  0.00     0.031 A 
ATOM     76  C   UNL A   1      38.044  30.892  32.268  1.00  0.00     0.131 A 
ATOM     77  C   UNL A   1      36.057  32.274  30.933  1.00  0.00     0.055 A 
ATOM     78  C   UNL A   1      36.853  31.195  32.929  1.00  0.00     0.041 A 
ATOM     79  F   UNL A   1      38.984  30.220  32.949  1.00  0.00    -0.206 F 
ATOM     80  C   UNL A   1      35.852  31.895  32.262  1.00  0.00     0.022 A 
BRANCH  77  81
ATOM     81  S   UNL A   1      34.796  33.244  30.063  1.00  0.00     0.124 S 
ATOM     82  O   UNL A   1      34.191  32.238  29.198  1.00  0.00    -0.237 OA
ATOM     83  O   UNL A   1      33.969  33.726  31.165  1.00  0.00    -0.237 OA
ATOM     84  O   UNL A   1      35.572  34.274  29.376  1.00  0.00    -0.744 OA
ENDBRANCH  77  81
ENDBRANCH  50  74
BRANCH  62  85
ATOM     85  C   UNL A   1      44.504  34.327  30.318  1.00  0.00     0.023 A 
ATOM     86  C   UNL A   1      44.386  35.448  29.480  1.00  0.00     0.031 A 
ATOM     87  C   UNL A   1      45.087  34.502  31.586  1.00  0.00     0.131 A 
ATOM     88  C   UNL A   1      44.873  36.692  29.910  1.00  0.00     0.055 A 
ATOM     89  C   UNL A   1      45.529  35.750  32.026  1.00  0.00     0.041 A 
ATOM     90  F   UNL A   1      45.222  33.462  32.425  1.00  0.00    -0.206 F 
ATOM     91  C   UNL A   1      45.428  36.853  31.183  1.00  0.00     0.022 A 
BRANCH  88  92
ATOM     92  S   UNL A   1      44.812  38.100  28.767  1.00  0.00     0.124 S 
ATOM     93  O   UNL A   1      43.576  37.842  28.036  1.00  0.00    -0.237 OA
ATOM     94  O   UNL A   1      44.790  39.242  29.675  1.00  0.00    -0.237 OA
ATOM     95  O   UNL A   1      46.037  37.959  27.982  1.00  0.00    -0.744 OA
ENDBRANCH  88  92
ENDBRANCH  62  85
ENDBRANCH  36  37
ENDBRANCH  28  31
ENDBRANCH  26  27
ENDBRANCH  25  26
ENDBRANCH  24  25
ENDBRANCH   1  24
TORSDOF 20
ENDMDL
MODEL 3
REMARK VINA RESULT:     -11.5      1.887      2.594
REMARK SMILES C[C@@H](C(=O)NCCCCCCNC(=O)c1ccc(-c2c3nc(c(-c4cc(S(=O)(=O)[O-])ccc4F)c4ccc([nH]4)c(-c4cc(S(=O)(=O)[O-])ccc4F)c4nc(c(-c5cc(S(=O)(=O)[O-])ccc5F)c5ccc2[nH]5)C=C4)C=C3)cc1)c1ccc(C[C@H]2CCC[C@H]2O)cc1
REMARK SMILES IDX 8 1 7 2 6 3 5 4 3 5 4 6 2 8 1 9 78 10 79 11 90 12 80 13
REMARK SMILES IDX 89 14 81 15 82 16 83 17 84 18 87 19 85 20 86 21 88 22 9 24
REMARK SMILES IDX 10 25 11 26 12 27 13 28 14 30 15 31 16 32 77 33 17 34 76 35
REMARK SMILES IDX 18 36 19 37 20 38 70 39 21 40 75 41 69 42 71 43 22 44 74 45
REMARK SMILES IDX 68 46 67 47 23 49 55 50 35 51 54 52 36 53 39 54 53 55 72 56
REMARK SMILES IDX 37 57 38 58 52 60 73 61 40 62 24 63 25 64 33 65 26 66 32 67
REMARK SMILES IDX 34 68 31 69 27 70 28 71 29 72 30 73 56 74 57 75 65 76 58 77
REMARK SMILES IDX 64 78 66 79 63 80 59 81 60 82 61 83 62 84 41 85 42 86 50 87
REMARK SMILES IDX 43 88 49 89 51 90 48 91 44 92 45 93 46 94 47 95
REMARK H PARENT 5 7 88 23 12 29 71 48 39 59
REMARK Flexibility Score: inf
ROOT
ATOM      1  C   UNL A   1      33.619  23.613  22.412  1.00  0.00     0.002 C 
ENDROOT
BRANCH   1   2
ATOM      2  C   UNL A   1      32.574  24.736  22.377  1.00  0.00     0.021 C 
BRANCH   2   3
ATOM      3  C   UNL A   1      33.114  26.087  21.895  1.00  0.00     0.116 C 
BRANCH   3   4
ATOM      4  N   UNL A   1      32.015  26.980  21.579  1.00  0.00    -0.356 N 
ATOM      5  C   UNL A   1      31.338  27.838  22.397  1.00  0.00     0.227 C 
ATOM      6  O   UNL A   1      30.216  28.183  22.019  1.00  0.00    -0.274 OA
ATOM      7  H   UNL A   1      31.716  26.965  20.642  1.00  0.00     0.163 HD
BRANCH   5   8
ATOM      8  C   UNL A   1      31.992  28.315  23.710  1.00  0.00     0.105 C 
ATOM      9  C   UNL A   1      33.350  28.940  23.347  1.00  0.00     0.023 C 
BRANCH   8  10
ATOM     10  C   UNL A   1      32.146  27.227  24.783  1.00  0.00    -0.036 A 
ATOM     11  C   UNL A   1      33.413  26.888  25.282  1.00  0.00     0.005 A 
ATOM     12  C   UNL A   1      31.048  26.522  25.295  1.00  0.00     0.005 A 
ATOM     13  C   UNL A   1      33.594  25.763  26.086  1.00  0.00     0.004 A 
ATOM     14  C   UNL A   1      31.229  25.378  26.077  1.00  0.00     0.004 A 
ATOM     15  C   UNL A   1      32.514  24.940  26.401  1.00  0.00    -0.048 A 
BRANCH  15  16
ATOM     16  C   UNL A   1      32.738  23.574  26.997  1.00  0.00     0.041 C 
BRANCH  16  17
ATOM     17  C   UNL A   1      32.995  22.421  26.003  1.00  0.00     0.022 C 
ATOM     18  C   UNL A   1      33.641  21.149  26.581  1.00  0.00     0.007 C 
ATOM     19  C   UNL A   1      31.815  21.898  25.169  1.00  0.00     0.117 C 
ATOM     20  C   UNL A   1      33.196  19.996  25.675  1.00  0.00     0.003 C 
ATOM     21  C   UNL A   1      32.388  20.629  24.546  1.00  0.00     0.032 C 
BRANCH  19  22
ATOM     22  O   UNL A   1      30.661  21.546  25.911  1.00  0.00    -0.393 OA
ATOM     23  H   UNL A   1      29.867  21.789  25.408  1.00  0.00     0.210 HD
ENDBRANCH  19  22
ENDBRANCH  16  17
ENDBRANCH  15  16
ENDBRANCH   8  10
ENDBRANCH   5   8
ENDBRANCH   3   4
ENDBRANCH   2   3
ENDBRANCH   1   2
BRANCH   1  24
ATOM     24  C   UNL A   1      34.791  23.845  23.369  1.00  0.00     0.002 C 
BRANCH  24  25
ATOM     25  C   UNL A   1      35.691  22.628  23.588  1.00  0.00     0.021 C 
BRANCH  25  26
ATOM     26  C   UNL A   1      36.522  22.679  24.865  1.00  0.00     0.116 C 
BRANCH  26  27
ATOM     27  N   UNL A   1      37.192  21.417  25.130  1.00  0.00    -0.352 N 
ATOM     28  C   UNL A   1      38.427  21.209  25.701  1.00  0.00     0.251 C 
ATOM     29  H   UNL A   1      36.699  20.606  24.867  1.00  0.00     0.163 HD
ATOM     30  O   UNL A   1      38.940  20.099  25.682  1.00  0.00    -0.269 OA
BRANCH  28  31
ATOM     31  C   UNL A   1      39.130  22.357  26.312  1.00  0.00     0.039 A 
ATOM     32  C   UNL A   1      40.164  22.121  27.223  1.00  0.00     0.014 A 
ATOM     33  C   UNL A   1      38.784  23.662  25.954  1.00  0.00     0.014 A 
ATOM     34  C   UNL A   1      40.896  23.199  27.729  1.00  0.00     0.010 A 
ATOM     35  C   UNL A   1      39.553  24.727  26.409  1.00  0.00     0.010 A 
ATOM     36  C   UNL A   1      40.615  24.506  27.303  1.00  0.00    -0.014 A 
BRANCH  36  37
ATOM     37  C   UNL A   1      41.384  25.679  27.793  1.00  0.00     0.031 A 
ATOM     38  C   UNL A   1      40.665  26.767  28.539  1.00  0.00     0.074 A 
ATOM     39  C   UNL A   1      42.682  25.824  27.465  1.00  0.00     0.049 A 
ATOM     40  N   UNL A   1      41.077  27.962  28.872  1.00  0.00    -0.248 NA
ATOM     41  C   UNL A   1      39.274  26.478  28.919  1.00  0.00     0.031 C 
ATOM     42  C   UNL A   1      43.478  24.852  26.716  1.00  0.00     0.029 A 
ATOM     43  N   UNL A   1      43.548  26.864  27.690  1.00  0.00    -0.354 N 
ATOM     44  C   UNL A   1      39.985  28.584  29.469  1.00  0.00     0.074 A 
ATOM     45  C   UNL A   1      38.882  27.648  29.397  1.00  0.00     0.031 C 
ATOM     46  C   UNL A   1      44.715  25.345  26.535  1.00  0.00     0.029 A 
ATOM     47  C   UNL A   1      44.783  26.685  27.111  1.00  0.00     0.049 A 
ATOM     48  H   UNL A   1      43.310  27.662  28.216  1.00  0.00     0.167 HD
ATOM     49  C   UNL A   1      39.915  29.815  30.035  1.00  0.00     0.034 A 
ATOM     50  C   UNL A   1      45.839  27.519  27.022  1.00  0.00     0.034 A 
ATOM     51  C   UNL A   1      41.036  30.722  30.110  1.00  0.00     0.049 A 
ATOM     52  C   UNL A   1      45.748  28.884  27.652  1.00  0.00     0.074 A 
ATOM     53  C   UNL A   1      41.102  31.965  30.716  1.00  0.00     0.029 A 
ATOM     54  N   UNL A   1      42.285  30.486  29.551  1.00  0.00    -0.354 N 
ATOM     55  N   UNL A   1      44.723  29.451  28.247  1.00  0.00    -0.248 NA
ATOM     56  C   UNL A   1      46.955  29.721  27.606  1.00  0.00     0.031 C 
ATOM     57  C   UNL A   1      42.370  32.504  30.470  1.00  0.00     0.029 A 
ATOM     58  C   UNL A   1      43.121  31.568  29.775  1.00  0.00     0.049 A 
ATOM     59  H   UNL A   1      42.541  29.667  29.067  1.00  0.00     0.167 HD
ATOM     60  C   UNL A   1      45.172  30.696  28.675  1.00  0.00     0.074 A 
ATOM     61  C   UNL A   1      46.558  30.801  28.266  1.00  0.00     0.031 C 
ATOM     62  C   UNL A   1      44.501  31.659  29.357  1.00  0.00     0.034 A 
BRANCH  49  63
ATOM     63  C   UNL A   1      38.572  30.249  30.576  1.00  0.00     0.023 A 
ATOM     64  C   UNL A   1      37.653  30.962  29.785  1.00  0.00     0.031 A 
ATOM     65  C   UNL A   1      38.235  30.016  31.921  1.00  0.00     0.131 A 
ATOM     66  C   UNL A   1      36.504  31.512  30.371  1.00  0.00     0.055 A 
ATOM     67  C   UNL A   1      37.039  30.481  32.472  1.00  0.00     0.041 A 
ATOM     68  F   UNL A   1      39.077  29.357  32.733  1.00  0.00    -0.206 F 
ATOM     69  C   UNL A   1      36.176  31.255  31.703  1.00  0.00     0.022 A 
BRANCH  66  70
ATOM     70  S   UNL A   1      35.553  32.730  29.418  1.00  0.00     0.124 S 
ATOM     71  O   UNL A   1      36.216  33.979  29.793  1.00  0.00    -0.237 OA
ATOM     72  O   UNL A   1      35.757  32.286  28.045  1.00  0.00    -0.237 OA
ATOM     73  O   UNL A   1      34.193  32.580  29.930  1.00  0.00    -0.744 OA
ENDBRANCH  66  70
ENDBRANCH  49  63
BRANCH  50  74
ATOM     74  C   UNL A   1      47.060  27.090  26.287  1.00  0.00     0.023 A 
ATOM     75  C   UNL A   1      48.120  26.452  26.948  1.00  0.00     0.031 A 
ATOM     76  C   UNL A   1      47.174  27.300  24.900  1.00  0.00     0.131 A 
ATOM     77  C   UNL A   1      49.262  26.070  26.228  1.00  0.00     0.055 A 
ATOM     78  C   UNL A   1      48.295  26.883  24.182  1.00  0.00     0.041 A 
ATOM     79  F   UNL A   1      46.181  27.894  24.221  1.00  0.00    -0.206 F 
ATOM     80  C   UNL A   1      49.351  26.268  24.848  1.00  0.00     0.022 A 
BRANCH  77  81
ATOM     81  S   UNL A   1      50.653  25.330  27.128  1.00  0.00     0.124 S 
ATOM     82  O   UNL A   1      51.095  26.446  27.957  1.00  0.00    -0.237 OA
ATOM     83  O   UNL A   1      50.008  24.224  27.829  1.00  0.00    -0.237 OA
ATOM     84  O   UNL A   1      51.576  24.937  26.066  1.00  0.00    -0.744 OA
ENDBRANCH  77  81
ENDBRANCH  50  74
BRANCH  62  85
ATOM     85  C   UNL A   1      45.276  32.886  29.764  1.00  0.00     0.023 A 
ATOM     86  C   UNL A   1      45.283  34.055  28.985  1.00  0.00     0.031 A 
ATOM     87  C   UNL A   1      45.989  32.889  30.976  1.00  0.00     0.131 A 
ATOM     88  C   UNL A   1      46.015  35.173  29.416  1.00  0.00     0.055 A 
ATOM     89  C   UNL A   1      46.678  34.018  31.421  1.00  0.00     0.041 A 
ATOM     90  F   UNL A   1      46.013  31.797  31.757  1.00  0.00    -0.206 F 
ATOM     91  C   UNL A   1      46.698  35.167  30.636  1.00  0.00     0.022 A 
BRANCH  88  92
ATOM     92  S   UNL A   1      46.101  36.631  28.340  1.00  0.00     0.124 S 
ATOM     93  O   UNL A   1      44.956  37.412  28.797  1.00  0.00    -0.237 OA
ATOM     94  O   UNL A   1      47.415  37.181  28.658  1.00  0.00    -0.237 OA
ATOM     95  O   UNL A   1      45.974  36.074  26.994  1.00  0.00    -0.744 OA
ENDBRANCH  88  92
ENDBRANCH  62  85
ENDBRANCH  36  37
ENDBRANCH  28  31
ENDBRANCH  26  27
ENDBRANCH  25  26
ENDBRANCH  24  25
ENDBRANCH   1  24
TORSDOF 20
ENDMDL
