MODEL 1
REMARK VINA RESULT:     -12.8      0.000      0.000
REMARK SMILES COc1ccc(-c2cnc(N)c(C(=O)NCCCCCCNC(=O)c3ccc(-c4c5nc(c(-c6cc(S(=O)(=O)[O-])ccc6F)c6ccc([nH]6)c(-c6cc(S(=O)(=O)[O-])ccc6F)c6nc(c(-c7cc(S(=O)(=O)[O-])ccc7F)c7ccc4[nH]7)C=C6)C=C5)cc3)c2)c(C)c1
REMARK SMILES IDX 19 1 18 2 17 3 16 4 15 5 13 6 14 7 12 9 7 10 8 11 88 12 9 13
REMARK SMILES IDX 10 14 6 15 3 16 4 17 91 18 5 19 89 20 90 21 2 22 1 23 11 24
REMARK SMILES IDX 20 27 21 28 22 29 23 30 24 32 25 33 26 34 87 35 27 36 86 37
REMARK SMILES IDX 28 38 29 39 30 40 80 41 31 42 85 43 79 44 81 45 32 46 84 47
REMARK SMILES IDX 78 48 77 49 33 51 65 52 45 53 64 54 46 55 49 56 63 57 82 58
REMARK SMILES IDX 47 59 48 60 62 62 83 63 50 64 34 65 35 66 43 67 36 68 42 69
REMARK SMILES IDX 44 70 41 71 37 72 38 73 39 74 40 75 66 76 67 77 75 78 68 79
REMARK SMILES IDX 74 80 76 81 73 82 69 83 70 84 71 85 72 86 51 87 52 88 60 89
REMARK SMILES IDX 53 90 59 91 61 92 58 93 54 94 55 95 56 96 57 97
REMARK H PARENT 15 8 11 25 11 26 22 31 81 50 49 61
REMARK Flexibility Score: inf
ROOT
ATOM      1  C   UNL A   1      37.357  23.755  25.732  1.00  0.00     0.002 C 
ENDROOT
BRANCH   1   2
ATOM      2  C   UNL A   1      36.218  23.717  24.704  1.00  0.00     0.002 C 
BRANCH   2   3
ATOM      3  C   UNL A   1      35.791  22.361  24.131  1.00  0.00     0.021 C 
BRANCH   3   4
ATOM      4  C   UNL A   1      34.377  22.254  23.570  1.00  0.00     0.116 C 
BRANCH   4   5
ATOM      5  N   UNL A   1      33.578  21.162  24.098  1.00  0.00    -0.352 N 
ATOM      6  C   UNL A   1      32.446  21.202  24.876  1.00  0.00     0.255 C 
ATOM      7  O   UNL A   1      31.870  20.149  25.154  1.00  0.00    -0.269 OA
ATOM      8  H   UNL A   1      33.896  20.260  23.865  1.00  0.00     0.163 HD
BRANCH   6   9
ATOM      9  C   UNL A   1      31.920  22.459  25.466  1.00  0.00     0.082 A 
ATOM     10  C   UNL A   1      30.989  24.670  25.014  1.00  0.00     0.001 A 
ATOM     11  C   UNL A   1      30.898  24.806  26.397  1.00  0.00     0.122 A 
ATOM     12  C   UNL A   1      31.480  23.443  24.558  1.00  0.00     0.028 A 
ATOM     13  N   UNL A   1      31.375  23.917  27.295  1.00  0.00    -0.238 NA
ATOM     14  C   UNL A   1      31.948  22.792  26.821  1.00  0.00     0.136 A 
BRANCH  10  15
ATOM     15  C   UNL A   1      30.716  25.818  24.130  1.00  0.00    -0.014 A 
ATOM     16  C   UNL A   1      29.960  28.054  22.553  1.00  0.00     0.119 A 
ATOM     17  C   UNL A   1      29.035  27.464  23.402  1.00  0.00     0.047 A 
ATOM     18  C   UNL A   1      31.246  27.517  22.469  1.00  0.00     0.050 A 
ATOM     19  C   UNL A   1      29.415  26.372  24.182  1.00  0.00     0.013 A 
ATOM     20  C   UNL A   1      31.643  26.406  23.247  1.00  0.00    -0.040 A 
ATOM     21  C   UNL A   1      33.067  25.941  23.099  1.00  0.00     0.045 C 
BRANCH  16  22
ATOM     22  O   UNL A   1      29.702  29.127  21.744  1.00  0.00    -0.497 OA
ATOM     23  C   UNL A   1      28.586  29.920  22.135  1.00  0.00     0.278 C 
ENDBRANCH  16  22
ENDBRANCH  10  15
BRANCH  14  24
ATOM     24  N   UNL A   1      32.573  22.055  27.800  1.00  0.00    -0.383 N 
ATOM     25  H   UNL A   1      32.829  21.120  27.625  1.00  0.00     0.158 HD
ATOM     26  H   UNL A   1      32.767  22.463  28.675  1.00  0.00     0.158 HD
ENDBRANCH  14  24
ENDBRANCH   6   9
ENDBRANCH   4   5
ENDBRANCH   3   4
ENDBRANCH   2   3
ENDBRANCH   1   2
BRANCH   1  27
ATOM     27  C   UNL A   1      38.426  22.672  25.628  1.00  0.00     0.021 C 
BRANCH  27  28
ATOM     28  C   UNL A   1      39.415  22.601  26.784  1.00  0.00     0.116 C 
BRANCH  28  29
ATOM     29  N   UNL A   1      40.784  22.975  26.448  1.00  0.00    -0.352 N 
ATOM     30  C   UNL A   1      41.334  24.250  26.397  1.00  0.00     0.251 C 
ATOM     31  H   UNL A   1      41.393  22.234  26.229  1.00  0.00     0.163 HD
ATOM     32  O   UNL A   1      42.497  24.446  26.095  1.00  0.00    -0.269 OA
BRANCH  30  33
ATOM     33  C   UNL A   1      40.489  25.385  26.852  1.00  0.00     0.039 A 
ATOM     34  C   UNL A   1      40.727  26.631  26.267  1.00  0.00     0.014 A 
ATOM     35  C   UNL A   1      39.704  25.275  27.997  1.00  0.00     0.014 A 
ATOM     36  C   UNL A   1      40.394  27.785  26.974  1.00  0.00     0.010 A 
ATOM     37  C   UNL A   1      39.454  26.415  28.741  1.00  0.00     0.010 A 
ATOM     38  C   UNL A   1      39.872  27.661  28.266  1.00  0.00    -0.014 A 
BRANCH  38  39
ATOM     39  C   UNL A   1      39.913  28.767  29.220  1.00  0.00     0.031 A 
ATOM     40  C   UNL A   1      38.840  29.788  29.244  1.00  0.00     0.074 A 
ATOM     41  C   UNL A   1      40.968  28.907  30.059  1.00  0.00     0.049 A 
ATOM     42  N   UNL A   1      39.044  31.041  29.485  1.00  0.00    -0.248 NA
ATOM     43  C   UNL A   1      37.440  29.475  28.971  1.00  0.00     0.031 C 
ATOM     44  C   UNL A   1      41.101  29.894  31.132  1.00  0.00     0.029 A 
ATOM     45  N   UNL A   1      42.224  28.309  30.042  1.00  0.00    -0.354 N 
ATOM     46  C   UNL A   1      37.819  31.637  29.669  1.00  0.00     0.074 A 
ATOM     47  C   UNL A   1      36.850  30.639  29.268  1.00  0.00     0.031 C 
ATOM     48  C   UNL A   1      42.407  30.059  31.401  1.00  0.00     0.029 A 
ATOM     49  C   UNL A   1      43.146  29.289  30.417  1.00  0.00     0.049 A 
ATOM     50  H   UNL A   1      42.426  27.373  29.811  1.00  0.00     0.167 HD
ATOM     51  C   UNL A   1      37.728  32.856  30.274  1.00  0.00     0.034 A 
ATOM     52  C   UNL A   1      44.147  29.783  29.629  1.00  0.00     0.034 A 
ATOM     53  C   UNL A   1      39.033  33.357  30.698  1.00  0.00     0.049 A 
ATOM     54  C   UNL A   1      44.111  31.297  29.483  1.00  0.00     0.074 A 
ATOM     55  C   UNL A   1      39.676  33.350  31.924  1.00  0.00     0.029 A 
ATOM     56  N   UNL A   1      39.981  33.728  29.755  1.00  0.00    -0.354 N 
ATOM     57  N   UNL A   1      43.076  32.036  29.772  1.00  0.00    -0.248 NA
ATOM     58  C   UNL A   1      45.219  32.085  28.950  1.00  0.00     0.031 C 
ATOM     59  C   UNL A   1      41.036  33.682  31.708  1.00  0.00     0.029 A 
ATOM     60  C   UNL A   1      41.213  33.915  30.356  1.00  0.00     0.049 A 
ATOM     61  H   UNL A   1      39.803  33.842  28.793  1.00  0.00     0.167 HD
ATOM     62  C   UNL A   1      43.331  33.346  29.444  1.00  0.00     0.074 A 
ATOM     63  C   UNL A   1      44.702  33.328  28.966  1.00  0.00     0.031 C 
ATOM     64  C   UNL A   1      42.375  34.318  29.575  1.00  0.00     0.034 A 
BRANCH  51  65
ATOM     65  C   UNL A   1      36.425  33.440  30.765  1.00  0.00     0.023 A 
ATOM     66  C   UNL A   1      35.570  34.102  29.859  1.00  0.00     0.031 A 
ATOM     67  C   UNL A   1      35.983  33.399  32.100  1.00  0.00     0.131 A 
ATOM     68  C   UNL A   1      34.416  34.775  30.297  1.00  0.00     0.055 A 
ATOM     69  C   UNL A   1      34.864  34.115  32.549  1.00  0.00     0.041 A 
ATOM     70  F   UNL A   1      36.602  32.640  33.017  1.00  0.00    -0.206 F 
ATOM     71  C   UNL A   1      34.082  34.824  31.647  1.00  0.00     0.022 A 
BRANCH  68  72
ATOM     72  S   UNL A   1      33.357  35.592  29.070  1.00  0.00     0.124 S 
ATOM     73  O   UNL A   1      32.641  34.467  28.478  1.00  0.00    -0.237 OA
ATOM     74  O   UNL A   1      32.568  36.497  29.898  1.00  0.00    -0.237 OA
ATOM     75  O   UNL A   1      34.315  36.248  28.180  1.00  0.00    -0.744 OA
ENDBRANCH  68  72
ENDBRANCH  51  65
BRANCH  52  76
ATOM     76  C   UNL A   1      44.636  28.862  28.569  1.00  0.00     0.023 A 
ATOM     77  C   UNL A   1      45.458  27.782  28.945  1.00  0.00     0.031 A 
ATOM     78  C   UNL A   1      44.055  28.838  27.292  1.00  0.00     0.131 A 
ATOM     79  C   UNL A   1      45.575  26.664  28.108  1.00  0.00     0.055 A 
ATOM     80  C   UNL A   1      44.200  27.733  26.447  1.00  0.00     0.041 A 
ATOM     81  F   UNL A   1      43.243  29.826  26.891  1.00  0.00    -0.206 F 
ATOM     82  C   UNL A   1      44.931  26.624  26.869  1.00  0.00     0.022 A 
BRANCH  79  83
ATOM     83  S   UNL A   1      46.405  25.160  28.696  1.00  0.00     0.124 S 
ATOM     84  O   UNL A   1      47.527  25.703  29.451  1.00  0.00    -0.237 OA
ATOM     85  O   UNL A   1      45.379  24.491  29.489  1.00  0.00    -0.237 OA
ATOM     86  O   UNL A   1      46.748  24.488  27.445  1.00  0.00    -0.744 OA
ENDBRANCH  79  83
ENDBRANCH  52  76
BRANCH  64  87
ATOM     87  C   UNL A   1      42.462  35.751  29.072  1.00  0.00     0.023 A 
ATOM     88  C   UNL A   1      43.244  36.746  29.676  1.00  0.00     0.031 A 
ATOM     89  C   UNL A   1      41.784  36.152  27.891  1.00  0.00     0.131 A 
ATOM     90  C   UNL A   1      43.269  38.064  29.180  1.00  0.00     0.055 A 
ATOM     91  C   UNL A   1      41.872  37.442  27.355  1.00  0.00     0.041 A 
ATOM     92  F   UNL A   1      41.011  35.306  27.196  1.00  0.00    -0.206 F 
ATOM     93  C   UNL A   1      42.606  38.415  28.009  1.00  0.00     0.022 A 
BRANCH  90  94
ATOM     94  S   UNL A   1      44.146  39.327  30.142  1.00  0.00     0.124 S 
ATOM     95  O   UNL A   1      43.543  40.558  29.638  1.00  0.00    -0.237 OA
ATOM     96  O   UNL A   1      43.803  38.968  31.514  1.00  0.00    -0.237 OA
ATOM     97  O   UNL A   1      45.547  39.129  29.778  1.00  0.00    -0.744 OA
ENDBRANCH  90  94
ENDBRANCH  64  87
ENDBRANCH  38  39
ENDBRANCH  30  33
ENDBRANCH  28  29
ENDBRANCH  27  28
ENDBRANCH   1  27
TORSDOF 19
ENDMDL
MODEL 2
REMARK VINA RESULT:     -12.8      4.170     10.673
REMARK SMILES COc1ccc(-c2cnc(N)c(C(=O)NCCCCCCNC(=O)c3ccc(-c4c5nc(c(-c6cc(S(=O)(=O)[O-])ccc6F)c6ccc([nH]6)c(-c6cc(S(=O)(=O)[O-])ccc6F)c6nc(c(-c7cc(S(=O)(=O)[O-])ccc7F)c7ccc4[nH]7)C=C6)C=C5)cc3)c2)c(C)c1
REMARK SMILES IDX 19 1 18 2 17 3 16 4 15 5 13 6 14 7 12 9 7 10 8 11 88 12 9 13
REMARK SMILES IDX 10 14 6 15 3 16 4 17 91 18 5 19 89 20 90 21 2 22 1 23 11 24
REMARK SMILES IDX 20 27 21 28 22 29 23 30 24 32 25 33 26 34 87 35 27 36 86 37
REMARK SMILES IDX 28 38 29 39 30 40 80 41 31 42 85 43 79 44 81 45 32 46 84 47
REMARK SMILES IDX 78 48 77 49 33 51 65 52 45 53 64 54 46 55 49 56 63 57 82 58
REMARK SMILES IDX 47 59 48 60 62 62 83 63 50 64 34 65 35 66 43 67 36 68 42 69
REMARK SMILES IDX 44 70 41 71 37 72 38 73 39 74 40 75 66 76 67 77 75 78 68 79
REMARK SMILES IDX 74 80 76 81 73 82 69 83 70 84 71 85 72 86 51 87 52 88 60 89
REMARK SMILES IDX 53 90 59 91 61 92 58 93 54 94 55 95 56 96 57 97
REMARK H PARENT 15 8 11 25 11 26 22 31 81 50 49 61
REMARK Flexibility Score: inf
ROOT
ATOM      1  C   UNL A   1      32.017  30.276  26.910  1.00  0.00     0.002 C 
ENDROOT
BRANCH   1   2
ATOM      2  C   UNL A   1      32.328  28.880  26.353  1.00  0.00     0.002 C 
BRANCH   2   3
ATOM      3  C   UNL A   1      31.772  27.655  27.088  1.00  0.00     0.021 C 
BRANCH   3   4
ATOM      4  C   UNL A   1      31.507  26.403  26.258  1.00  0.00     0.116 C 
BRANCH   4   5
ATOM      5  N   UNL A   1      30.390  26.493  25.335  1.00  0.00    -0.352 N 
ATOM      6  C   UNL A   1      30.232  25.923  24.094  1.00  0.00     0.255 C 
ATOM      7  O   UNL A   1      29.160  26.062  23.502  1.00  0.00    -0.269 OA
ATOM      8  H   UNL A   1      29.634  27.043  25.644  1.00  0.00     0.163 HD
BRANCH   6   9
ATOM      9  C   UNL A   1      31.327  25.206  23.393  1.00  0.00     0.082 A 
ATOM     10  C   UNL A   1      32.505  23.086  23.122  1.00  0.00     0.001 A 
ATOM     11  C   UNL A   1      33.271  23.747  22.164  1.00  0.00     0.122 A 
ATOM     12  C   UNL A   1      31.488  23.842  23.711  1.00  0.00     0.028 A 
ATOM     13  N   UNL A   1      33.192  25.067  21.887  1.00  0.00    -0.238 NA
ATOM     14  C   UNL A   1      32.275  25.795  22.557  1.00  0.00     0.136 A 
BRANCH  10  15
ATOM     15  C   UNL A   1      32.869  21.726  23.561  1.00  0.00    -0.014 A 
ATOM     16  C   UNL A   1      33.411  19.018  24.217  1.00  0.00     0.119 A 
ATOM     17  C   UNL A   1      32.408  19.320  23.307  1.00  0.00     0.047 A 
ATOM     18  C   UNL A   1      34.122  20.060  24.817  1.00  0.00     0.050 A 
ATOM     19  C   UNL A   1      32.153  20.652  22.981  1.00  0.00     0.013 A 
ATOM     20  C   UNL A   1      33.869  21.414  24.502  1.00  0.00    -0.040 A 
ATOM     21  C   UNL A   1      34.726  22.447  25.185  1.00  0.00     0.045 C 
BRANCH  16  22
ATOM     22  O   UNL A   1      33.751  17.753  24.611  1.00  0.00    -0.497 OA
ATOM     23  C   UNL A   1      33.679  16.765  23.587  1.00  0.00     0.278 C 
ENDBRANCH  16  22
ENDBRANCH  10  15
BRANCH  14  24
ATOM     24  N   UNL A   1      32.411  27.148  22.349  1.00  0.00    -0.383 N 
ATOM     25  H   UNL A   1      31.669  27.662  21.953  1.00  0.00     0.158 HD
ATOM     26  H   UNL A   1      33.247  27.604  22.597  1.00  0.00     0.158 HD
ENDBRANCH  14  24
ENDBRANCH   6   9
ENDBRANCH   4   5
ENDBRANCH   3   4
ENDBRANCH   2   3
ENDBRANCH   1   2
BRANCH   1  27
ATOM     27  C   UNL A   1      33.203  31.183  27.220  1.00  0.00     0.021 C 
BRANCH  27  28
ATOM     28  C   UNL A   1      34.385  30.517  27.913  1.00  0.00     0.116 C 
BRANCH  28  29
ATOM     29  N   UNL A   1      35.083  31.355  28.882  1.00  0.00    -0.352 N 
ATOM     30  C   UNL A   1      36.285  31.095  29.528  1.00  0.00     0.251 C 
ATOM     31  H   UNL A   1      34.648  32.208  29.107  1.00  0.00     0.163 HD
ATOM     32  O   UNL A   1      36.774  31.870  30.330  1.00  0.00    -0.269 OA
BRANCH  30  33
ATOM     33  C   UNL A   1      37.042  29.885  29.116  1.00  0.00     0.039 A 
ATOM     34  C   UNL A   1      37.344  28.952  30.112  1.00  0.00     0.014 A 
ATOM     35  C   UNL A   1      37.664  29.821  27.871  1.00  0.00     0.014 A 
ATOM     36  C   UNL A   1      38.449  28.120  29.947  1.00  0.00     0.010 A 
ATOM     37  C   UNL A   1      38.813  29.062  27.742  1.00  0.00     0.010 A 
ATOM     38  C   UNL A   1      39.250  28.274  28.811  1.00  0.00    -0.014 A 
BRANCH  38  39
ATOM     39  C   UNL A   1      40.625  27.782  28.767  1.00  0.00     0.031 A 
ATOM     40  C   UNL A   1      40.926  26.411  28.293  1.00  0.00     0.074 A 
ATOM     41  C   UNL A   1      41.642  28.555  29.219  1.00  0.00     0.049 A 
ATOM     42  N   UNL A   1      41.856  25.665  28.792  1.00  0.00    -0.248 NA
ATOM     43  C   UNL A   1      40.177  25.759  27.223  1.00  0.00     0.031 C 
ATOM     44  C   UNL A   1      43.071  28.245  29.145  1.00  0.00     0.029 A 
ATOM     45  N   UNL A   1      41.625  29.715  29.988  1.00  0.00    -0.354 N 
ATOM     46  C   UNL A   1      42.012  24.580  27.962  1.00  0.00     0.074 A 
ATOM     47  C   UNL A   1      40.898  24.646  27.041  1.00  0.00     0.031 C 
ATOM     48  C   UNL A   1      43.712  28.953  30.089  1.00  0.00     0.029 A 
ATOM     49  C   UNL A   1      42.698  29.626  30.880  1.00  0.00     0.049 A 
ATOM     50  H   UNL A   1      40.982  30.457  29.918  1.00  0.00     0.167 HD
ATOM     51  C   UNL A   1      43.137  23.812  28.034  1.00  0.00     0.034 A 
ATOM     52  C   UNL A   1      42.597  29.563  32.241  1.00  0.00     0.034 A 
ATOM     53  C   UNL A   1      44.084  24.319  29.023  1.00  0.00     0.049 A 
ATOM     54  C   UNL A   1      43.299  28.355  32.844  1.00  0.00     0.074 A 
ATOM     55  C   UNL A   1      45.224  25.097  28.904  1.00  0.00     0.029 A 
ATOM     56  N   UNL A   1      43.781  24.267  30.376  1.00  0.00    -0.354 N 
ATOM     57  N   UNL A   1      43.667  27.306  32.162  1.00  0.00    -0.248 NA
ATOM     58  C   UNL A   1      43.591  28.216  34.268  1.00  0.00     0.031 C 
ATOM     59  C   UNL A   1      45.583  25.550  30.197  1.00  0.00     0.029 A 
ATOM     60  C   UNL A   1      44.679  25.026  31.103  1.00  0.00     0.049 A 
ATOM     61  H   UNL A   1      43.031  23.760  30.765  1.00  0.00     0.167 HD
ATOM     62  C   UNL A   1      44.187  26.356  33.009  1.00  0.00     0.074 A 
ATOM     63  C   UNL A   1      44.150  26.992  34.314  1.00  0.00     0.031 C 
ATOM     64  C   UNL A   1      44.577  25.125  32.554  1.00  0.00     0.034 A 
BRANCH  51  65
ATOM     65  C   UNL A   1      43.511  22.794  26.983  1.00  0.00     0.023 A 
ATOM     66  C   UNL A   1      42.913  21.517  27.002  1.00  0.00     0.031 A 
ATOM     67  C   UNL A   1      44.456  23.009  25.963  1.00  0.00     0.131 A 
ATOM     68  C   UNL A   1      43.330  20.497  26.129  1.00  0.00     0.055 A 
ATOM     69  C   UNL A   1      44.913  21.980  25.127  1.00  0.00     0.041 A 
ATOM     70  F   UNL A   1      44.951  24.231  25.717  1.00  0.00    -0.206 F 
ATOM     71  C   UNL A   1      44.362  20.709  25.219  1.00  0.00     0.022 A 
BRANCH  68  72
ATOM     72  S   UNL A   1      42.503  18.884  26.203  1.00  0.00     0.124 S 
ATOM     73  O   UNL A   1      42.643  18.526  27.610  1.00  0.00    -0.237 OA
ATOM     74  O   UNL A   1      41.154  19.208  25.749  1.00  0.00    -0.237 OA
ATOM     75  O   UNL A   1      43.283  18.061  25.278  1.00  0.00    -0.744 OA
ENDBRANCH  68  72
ENDBRANCH  51  65
BRANCH  52  76
ATOM     76  C   UNL A   1      41.375  30.182  32.819  1.00  0.00     0.023 A 
ATOM     77  C   UNL A   1      41.310  31.586  32.905  1.00  0.00     0.031 A 
ATOM     78  C   UNL A   1      40.186  29.454  32.972  1.00  0.00     0.131 A 
ATOM     79  C   UNL A   1      40.069  32.227  33.007  1.00  0.00     0.055 A 
ATOM     80  C   UNL A   1      38.951  30.098  33.106  1.00  0.00     0.041 A 
ATOM     81  F   UNL A   1      40.184  28.118  32.874  1.00  0.00    -0.206 F 
ATOM     82  C   UNL A   1      38.884  31.489  33.085  1.00  0.00     0.022 A 
BRANCH  79  83
ATOM     83  S   UNL A   1      39.950  34.032  32.844  1.00  0.00     0.124 S 
ATOM     84  O   UNL A   1      38.645  34.198  32.215  1.00  0.00    -0.237 OA
ATOM     85  O   UNL A   1      40.048  34.506  34.220  1.00  0.00    -0.237 OA
ATOM     86  O   UNL A   1      41.104  34.342  32.003  1.00  0.00    -0.744 OA
ENDBRANCH  79  83
ENDBRANCH  52  76
BRANCH  64  87
ATOM     87  C   UNL A   1      44.981  23.930  33.402  1.00  0.00     0.023 A 
ATOM     88  C   UNL A   1      46.275  23.732  33.908  1.00  0.00     0.031 A 
ATOM     89  C   UNL A   1      44.027  22.955  33.791  1.00  0.00     0.131 A 
ATOM     90  C   UNL A   1      46.599  22.593  34.671  1.00  0.00     0.055 A 
ATOM     91  C   UNL A   1      44.332  21.864  34.615  1.00  0.00     0.041 A 
ATOM     92  F   UNL A   1      42.746  23.020  33.398  1.00  0.00    -0.206 F 
ATOM     93  C   UNL A   1      45.632  21.667  35.048  1.00  0.00     0.022 A 
BRANCH  90  94
ATOM     94  S   UNL A   1      48.338  22.320  35.109  1.00  0.00     0.124 S 
ATOM     95  O   UNL A   1      48.567  20.973  34.595  1.00  0.00    -0.237 OA
ATOM     96  O   UNL A   1      49.013  23.396  34.391  1.00  0.00    -0.237 OA
ATOM     97  O   UNL A   1      48.350  22.438  36.566  1.00  0.00    -0.744 OA
ENDBRANCH  90  94
ENDBRANCH  64  87
ENDBRANCH  38  39
ENDBRANCH  30  33
ENDBRANCH  28  29
ENDBRANCH  27  28
ENDBRANCH   1  27
TORSDOF 19
ENDMDL
MODEL 3
REMARK VINA RESULT:     -12.2      4.041     10.577
REMARK SMILES COc1ccc(-c2cnc(N)c(C(=O)NCCCCCCNC(=O)c3ccc(-c4c5nc(c(-c6cc(S(=O)(=O)[O-])ccc6F)c6ccc([nH]6)c(-c6cc(S(=O)(=O)[O-])ccc6F)c6nc(c(-c7cc(S(=O)(=O)[O-])ccc7F)c7ccc4[nH]7)C=C6)C=C5)cc3)c2)c(C)c1
REMARK SMILES IDX 19 1 18 2 17 3 16 4 15 5 13 6 14 7 12 9 7 10 8 11 88 12 9 13
REMARK SMILES IDX 10 14 6 15 3 16 4 17 91 18 5 19 89 20 90 21 2 22 1 23 11 24
REMARK SMILES IDX 20 27 21 28 22 29 23 30 24 32 25 33 26 34 87 35 27 36 86 37
REMARK SMILES IDX 28 38 29 39 30 40 80 41 31 42 85 43 79 44 81 45 32 46 84 47
REMARK SMILES IDX 78 48 77 49 33 51 65 52 45 53 64 54 46 55 49 56 63 57 82 58
REMARK SMILES IDX 47 59 48 60 62 62 83 63 50 64 34 65 35 66 43 67 36 68 42 69
REMARK SMILES IDX 44 70 41 71 37 72 38 73 39 74 40 75 66 76 67 77 75 78 68 79
REMARK SMILES IDX 74 80 76 81 73 82 69 83 70 84 71 85 72 86 51 87 52 88 60 89
REMARK SMILES IDX 53 90 59 91 61 92 58 93 54 94 55 95 56 96 57 97
REMARK H PARENT 15 8 11 25 11 26 22 31 81 50 49 61
REMARK Flexibility Score: inf
ROOT
ATOM      1  C   UNL A   1      32.511  30.559  27.011  1.00  0.00     0.002 C 
ENDROOT
BRANCH   1   2
ATOM      2  C   UNL A   1      32.046  29.464  26.041  1.00  0.00     0.002 C 
BRANCH   2   3
ATOM      3  C   UNL A   1      32.958  28.254  25.809  1.00  0.00     0.021 C 
BRANCH   3   4
ATOM      4  C   UNL A   1      32.829  27.087  26.783  1.00  0.00     0.116 C 
BRANCH   4   5
ATOM      5  N   UNL A   1      31.516  26.471  26.847  1.00  0.00    -0.352 N 
ATOM      6  C   UNL A   1      31.006  25.418  26.126  1.00  0.00     0.255 C 
ATOM      7  O   UNL A   1      29.881  24.995  26.395  1.00  0.00    -0.269 OA
ATOM      8  H   UNL A   1      30.900  26.868  27.505  1.00  0.00     0.163 HD
BRANCH   6   9
ATOM      9  C   UNL A   1      31.724  24.808  24.979  1.00  0.00     0.082 A 
ATOM     10  C   UNL A   1      33.573  23.373  24.282  1.00  0.00     0.001 A 
ATOM     11  C   UNL A   1      33.120  23.589  22.982  1.00  0.00     0.122 A 
ATOM     12  C   UNL A   1      32.818  23.976  25.293  1.00  0.00     0.028 A 
ATOM     13  N   UNL A   1      32.123  24.434  22.640  1.00  0.00    -0.238 NA
ATOM     14  C   UNL A   1      31.488  25.090  23.633  1.00  0.00     0.136 A 
BRANCH  10  15
ATOM     15  C   UNL A   1      34.848  22.674  24.523  1.00  0.00    -0.014 A 
ATOM     16  C   UNL A   1      37.415  21.564  25.009  1.00  0.00     0.119 A 
ATOM     17  C   UNL A   1      37.282  22.928  24.794  1.00  0.00     0.047 A 
ATOM     18  C   UNL A   1      36.279  20.753  24.956  1.00  0.00     0.050 A 
ATOM     19  C   UNL A   1      36.017  23.469  24.565  1.00  0.00     0.013 A 
ATOM     20  C   UNL A   1      34.992  21.286  24.718  1.00  0.00    -0.040 A 
ATOM     21  C   UNL A   1      33.839  20.318  24.720  1.00  0.00     0.045 C 
BRANCH  16  22
ATOM     22  O   UNL A   1      38.601  20.923  25.243  1.00  0.00    -0.497 OA
ATOM     23  C   UNL A   1      38.505  19.507  25.361  1.00  0.00     0.278 C 
ENDBRANCH  16  22
ENDBRANCH  10  15
BRANCH  14  24
ATOM     24  N   UNL A   1      30.634  26.064  23.170  1.00  0.00    -0.383 N 
ATOM     25  H   UNL A   1      30.973  26.973  22.994  1.00  0.00     0.158 HD
ATOM     26  H   UNL A   1      29.685  25.854  23.013  1.00  0.00     0.158 HD
ENDBRANCH  14  24
ENDBRANCH   6   9
ENDBRANCH   4   5
ENDBRANCH   3   4
ENDBRANCH   2   3
ENDBRANCH   1   2
BRANCH   1  27
ATOM     27  C   UNL A   1      33.765  30.276  27.832  1.00  0.00     0.021 C 
BRANCH  27  28
ATOM     28  C   UNL A   1      34.929  31.235  27.618  1.00  0.00     0.116 C 
BRANCH  28  29
ATOM     29  N   UNL A   1      35.488  31.808  28.838  1.00  0.00    -0.352 N 
ATOM     30  C   UNL A   1      36.421  31.243  29.698  1.00  0.00     0.251 C 
ATOM     31  H   UNL A   1      35.162  32.704  29.081  1.00  0.00     0.163 HD
ATOM     32  O   UNL A   1      36.812  31.815  30.699  1.00  0.00    -0.269 OA
BRANCH  30  33
ATOM     33  C   UNL A   1      37.038  29.953  29.296  1.00  0.00     0.039 A 
ATOM     34  C   UNL A   1      37.359  29.054  30.316  1.00  0.00     0.014 A 
ATOM     35  C   UNL A   1      37.532  29.770  28.007  1.00  0.00     0.014 A 
ATOM     36  C   UNL A   1      38.375  28.125  30.105  1.00  0.00     0.010 A 
ATOM     37  C   UNL A   1      38.602  28.912  27.822  1.00  0.00     0.010 A 
ATOM     38  C   UNL A   1      39.074  28.150  28.894  1.00  0.00    -0.014 A 
BRANCH  38  39
ATOM     39  C   UNL A   1      40.397  27.543  28.757  1.00  0.00     0.031 A 
ATOM     40  C   UNL A   1      40.542  26.099  28.459  1.00  0.00     0.074 A 
ATOM     41  C   UNL A   1      41.512  28.284  28.964  1.00  0.00     0.049 A 
ATOM     42  N   UNL A   1      41.479  25.354  28.946  1.00  0.00    -0.248 NA
ATOM     43  C   UNL A   1      39.618  25.370  27.596  1.00  0.00     0.031 C 
ATOM     44  C   UNL A   1      42.896  27.847  28.764  1.00  0.00     0.029 A 
ATOM     45  N   UNL A   1      41.674  29.535  29.549  1.00  0.00    -0.354 N 
ATOM     46  C   UNL A   1      41.453  24.156  28.273  1.00  0.00     0.074 A 
ATOM     47  C   UNL A   1      40.234  24.187  27.494  1.00  0.00     0.031 C 
ATOM     48  C   UNL A   1      43.701  28.623  29.508  1.00  0.00     0.029 A 
ATOM     49  C   UNL A   1      42.846  29.482  30.308  1.00  0.00     0.049 A 
ATOM     50  H   UNL A   1      41.077  30.312  29.448  1.00  0.00     0.167 HD
ATOM     51  C   UNL A   1      42.525  23.314  28.322  1.00  0.00     0.034 A 
ATOM     52  C   UNL A   1      42.922  29.616  31.665  1.00  0.00     0.034 A 
ATOM     53  C   UNL A   1      43.625  23.871  29.103  1.00  0.00     0.049 A 
ATOM     54  C   UNL A   1      43.617  28.449  32.351  1.00  0.00     0.074 A 
ATOM     55  C   UNL A   1      44.787  24.527  28.733  1.00  0.00     0.029 A 
ATOM     56  N   UNL A   1      43.500  24.032  30.476  1.00  0.00    -0.354 N 
ATOM     57  N   UNL A   1      43.822  27.289  31.792  1.00  0.00    -0.248 NA
ATOM     58  C   UNL A   1      44.084  28.485  33.734  1.00  0.00     0.031 C 
ATOM     59  C   UNL A   1      45.343  25.123  29.891  1.00  0.00     0.029 A 
ATOM     60  C   UNL A   1      44.534  24.807  30.968  1.00  0.00     0.049 A 
ATOM     61  H   UNL A   1      42.776  23.649  31.023  1.00  0.00     0.167 HD
ATOM     62  C   UNL A   1      44.386  26.425  32.701  1.00  0.00     0.074 A 
ATOM     63  C   UNL A   1      44.562  27.237  33.892  1.00  0.00     0.031 C 
ATOM     64  C   UNL A   1      44.631  25.114  32.390  1.00  0.00     0.034 A 
BRANCH  51  65
ATOM     65  C   UNL A   1      42.690  22.132  27.396  1.00  0.00     0.023 A 
ATOM     66  C   UNL A   1      43.718  22.140  26.430  1.00  0.00     0.031 A 
ATOM     67  C   UNL A   1      41.864  20.993  27.397  1.00  0.00     0.131 A 
ATOM     68  C   UNL A   1      43.824  21.125  25.462  1.00  0.00     0.055 A 
ATOM     69  C   UNL A   1      41.932  20.008  26.401  1.00  0.00     0.041 A 
ATOM     70  F   UNL A   1      40.979  20.775  28.382  1.00  0.00    -0.206 F 
ATOM     71  C   UNL A   1      42.906  20.081  25.414  1.00  0.00     0.022 A 
BRANCH  68  72
ATOM     72  S   UNL A   1      45.182  21.196  24.260  1.00  0.00     0.124 S 
ATOM     73  O   UNL A   1      44.823  20.138  23.322  1.00  0.00    -0.237 OA
ATOM     74  O   UNL A   1      45.082  22.563  23.762  1.00  0.00    -0.237 OA
ATOM     75  O   UNL A   1      46.367  20.921  25.073  1.00  0.00    -0.744 OA
ENDBRANCH  68  72
ENDBRANCH  51  65
BRANCH  52  76
ATOM     76  C   UNL A   1      41.830  30.410  32.288  1.00  0.00     0.023 A 
ATOM     77  C   UNL A   1      41.902  31.815  32.228  1.00  0.00     0.031 A 
ATOM     78  C   UNL A   1      40.603  29.824  32.634  1.00  0.00     0.131 A 
ATOM     79  C   UNL A   1      40.741  32.585  32.380  1.00  0.00     0.055 A 
ATOM     80  C   UNL A   1      39.453  30.600  32.817  1.00  0.00     0.041 A 
ATOM     81  F   UNL A   1      40.470  28.492  32.682  1.00  0.00    -0.206 F 
ATOM     82  C   UNL A   1      39.511  31.982  32.652  1.00  0.00     0.022 A 
BRANCH  79  83
ATOM     83  S   UNL A   1      40.770  34.368  32.035  1.00  0.00     0.124 S 
ATOM     84  O   UNL A   1      39.366  34.649  31.759  1.00  0.00    -0.237 OA
ATOM     85  O   UNL A   1      41.296  34.946  33.267  1.00  0.00    -0.237 OA
ATOM     86  O   UNL A   1      41.670  34.445  30.887  1.00  0.00    -0.744 OA
ENDBRANCH  79  83
ENDBRANCH  52  76
BRANCH  64  87
ATOM     87  C   UNL A   1      45.064  24.018  33.350  1.00  0.00     0.023 A 
ATOM     88  C   UNL A   1      46.376  23.868  33.824  1.00  0.00     0.031 A 
ATOM     89  C   UNL A   1      44.122  23.101  33.884  1.00  0.00     0.131 A 
ATOM     90  C   UNL A   1      46.727  22.820  34.697  1.00  0.00     0.055 A 
ATOM     91  C   UNL A   1      44.457  22.107  34.812  1.00  0.00     0.041 A 
ATOM     92  F   UNL A   1      42.828  23.132  33.536  1.00  0.00    -0.206 F 
ATOM     93  C   UNL A   1      45.772  21.950  35.213  1.00  0.00     0.022 A 
BRANCH  90  94
ATOM     94  S   UNL A   1      48.480  22.583  35.094  1.00  0.00     0.124 S 
ATOM     95  O   UNL A   1      48.445  22.475  36.550  1.00  0.00    -0.237 OA
ATOM     96  O   UNL A   1      48.801  21.355  34.374  1.00  0.00    -0.237 OA
ATOM     97  O   UNL A   1      49.118  23.793  34.578  1.00  0.00    -0.744 OA
ENDBRANCH  90  94
ENDBRANCH  64  87
ENDBRANCH  38  39
ENDBRANCH  30  33
ENDBRANCH  28  29
ENDBRANCH  27  28
ENDBRANCH   1  27
TORSDOF 19
ENDMDL
