MODEL 1
REMARK VINA RESULT:     -11.5      0.000      0.000
REMARK SMILES Cc1ccc(NC(=O)C[C@@H](C(=O)NCCCCCCNC(=O)c2ccc(-c3c4nc(c(-c5cc(S(=O)(=O)[O-])ccc5F)c5ccc([nH]5)c(-c5cc(S(=O)(=O)[O-])ccc5F)c5nc(c(-c6cc(S(=O)(=O)[O-])ccc6F)c6ccc3[nH]6)C=C5)C=C4)cc2)[C@@H](C)c2ccccc2)cc1Br
REMARK SMILES IDX 16 1 15 2 14 3 13 4 11 5 12 6 10 8 9 9 7 10 6 11 8 13 5 14
REMARK SMILES IDX 1 15 2 16 3 17 95 18 4 19 94 20 96 21 86 22 87 23 88 24
REMARK SMILES IDX 89 25 93 26 90 27 92 28 91 29 17 30 18 31 19 32 20 33 21 34
REMARK SMILES IDX 22 36 23 37 24 38 85 39 25 40 84 41 26 42 27 43 28 44 78 45
REMARK SMILES IDX 29 46 83 47 77 48 79 49 30 50 82 51 76 52 75 53 31 55 63 56
REMARK SMILES IDX 43 57 62 58 44 59 47 60 61 61 80 62 45 63 46 64 60 66 81 67
REMARK SMILES IDX 48 68 32 69 33 70 41 71 34 72 40 73 42 74 39 75 35 76 36 77
REMARK SMILES IDX 37 78 38 79 64 80 65 81 73 82 66 83 72 84 74 85 71 86 67 87
REMARK SMILES IDX 68 88 69 89 70 90 49 91 50 92 58 93 51 94 57 95 59 96 56 97
REMARK SMILES IDX 52 98 53 99 54 100 55 101
REMARK H PARENT 13 7 6 12 20 35 79 54 47 65
REMARK Flexibility Score: inf
ROOT
ATOM      1  C   UNL A   1      37.026  21.764  24.484  1.00  0.00     0.002 C 
ENDROOT
BRANCH   1   2
ATOM      2  C   UNL A   1      37.346  22.827  25.547  1.00  0.00     0.021 C 
BRANCH   2   3
ATOM      3  C   UNL A   1      36.146  23.579  26.135  1.00  0.00     0.116 C 
BRANCH   3   4
ATOM      4  N   UNL A   1      35.227  22.665  26.779  1.00  0.00    -0.356 N 
ATOM      5  C   UNL A   1      33.882  22.523  26.782  1.00  0.00     0.224 C 
ATOM      6  O   UNL A   1      33.468  21.724  27.624  1.00  0.00    -0.275 OA
ATOM      7  H   UNL A   1      35.683  21.997  27.340  1.00  0.00     0.163 HD
BRANCH   5   8
ATOM      8  C   UNL A   1      32.957  23.261  25.809  1.00  0.00     0.095 C 
BRANCH   8   9
ATOM      9  C   UNL A   1      31.474  22.800  25.808  1.00  0.00     0.114 C 
BRANCH   9  10
ATOM     10  C   UNL A   1      30.409  23.361  26.716  1.00  0.00     0.225 C 
ATOM     11  N   UNL A   1      30.166  24.691  26.877  1.00  0.00    -0.326 N 
ATOM     12  H   UNL A   1      29.562  24.907  27.623  1.00  0.00     0.169 HD
ATOM     13  O   UNL A   1      29.710  22.578  27.371  1.00  0.00    -0.275 OA
BRANCH  11  14
ATOM     14  C   UNL A   1      30.625  25.803  26.165  1.00  0.00     0.042 A 
ATOM     15  C   UNL A   1      31.703  29.694  24.673  1.00  0.00     0.045 C 
ATOM     16  C   UNL A   1      31.405  28.287  25.102  1.00  0.00    -0.037 A 
ATOM     17  C   UNL A   1      32.003  27.792  26.269  1.00  0.00     0.007 A 
ATOM     18  C   UNL A   1      30.499  27.462  24.416  1.00  0.00     0.022 A 
ATOM     19  C   UNL A   1      31.644  26.543  26.772  1.00  0.00     0.026 A 
ATOM     20  C   UNL A   1      30.100  26.231  24.952  1.00  0.00     0.042 A 
ATOM     21  Br  UNL A   1      29.741  27.979  22.751  1.00  0.00    -0.050 Br
ENDBRANCH  11  14
ENDBRANCH   9  10
ENDBRANCH   8   9
BRANCH   8  22
ATOM     22  C   UNL A   1      33.451  23.225  24.296  1.00  0.00     0.029 C 
ATOM     23  C   UNL A   1      32.832  22.013  23.550  1.00  0.00     0.013 C 
BRANCH  22  24
ATOM     24  C   UNL A   1      33.310  24.488  23.437  1.00  0.00    -0.044 A 
ATOM     25  C   UNL A   1      32.717  24.499  22.167  1.00  0.00     0.004 A 
ATOM     26  C   UNL A   1      33.903  25.685  23.879  1.00  0.00     0.004 A 
ATOM     27  C   UNL A   1      32.719  25.661  21.382  1.00  0.00     0.000 A 
ATOM     28  C   UNL A   1      33.864  26.856  23.121  1.00  0.00     0.000 A 
ATOM     29  C   UNL A   1      33.277  26.842  21.864  1.00  0.00     0.000 A 
ENDBRANCH  22  24
ENDBRANCH   8  22
ENDBRANCH   5   8
ENDBRANCH   3   4
ENDBRANCH   2   3
ENDBRANCH   1   2
BRANCH   1  30
ATOM     30  C   UNL A   1      36.960  20.330  25.000  1.00  0.00     0.002 C 
BRANCH  30  31
ATOM     31  C   UNL A   1      38.293  19.584  24.964  1.00  0.00     0.021 C 
BRANCH  31  32
ATOM     32  C   UNL A   1      39.177  19.803  26.187  1.00  0.00     0.116 C 
BRANCH  32  33
ATOM     33  N   UNL A   1      40.414  19.042  26.114  1.00  0.00    -0.352 N 
ATOM     34  C   UNL A   1      41.702  19.520  26.126  1.00  0.00     0.251 C 
ATOM     35  H   UNL A   1      40.316  18.065  26.047  1.00  0.00     0.163 HD
ATOM     36  O   UNL A   1      42.644  18.784  25.849  1.00  0.00    -0.269 OA
BRANCH  34  37
ATOM     37  C   UNL A   1      41.922  20.944  26.449  1.00  0.00     0.039 A 
ATOM     38  C   UNL A   1      42.274  21.302  27.749  1.00  0.00     0.014 A 
ATOM     39  C   UNL A   1      41.854  21.908  25.436  1.00  0.00     0.014 A 
ATOM     40  C   UNL A   1      42.616  22.627  28.025  1.00  0.00     0.010 A 
ATOM     41  C   UNL A   1      42.279  23.207  25.696  1.00  0.00     0.010 A 
ATOM     42  C   UNL A   1      42.656  23.583  26.995  1.00  0.00    -0.014 A 
BRANCH  42  43
ATOM     43  C   UNL A   1      43.071  24.984  27.263  1.00  0.00     0.031 A 
ATOM     44  C   UNL A   1      42.107  25.935  27.922  1.00  0.00     0.074 A 
ATOM     45  C   UNL A   1      44.290  25.411  26.875  1.00  0.00     0.049 A 
ATOM     46  N   UNL A   1      42.256  27.204  28.200  1.00  0.00    -0.248 NA
ATOM     47  C   UNL A   1      40.792  25.390  28.290  1.00  0.00     0.031 C 
ATOM     48  C   UNL A   1      45.293  24.591  26.191  1.00  0.00     0.029 A 
ATOM     49  N   UNL A   1      44.893  26.637  26.997  1.00  0.00    -0.354 N 
ATOM     50  C   UNL A   1      41.053  27.612  28.764  1.00  0.00     0.074 A 
ATOM     51  C   UNL A   1      40.162  26.472  28.721  1.00  0.00     0.031 C 
ATOM     52  C   UNL A   1      46.396  25.328  25.985  1.00  0.00     0.029 A 
ATOM     53  C   UNL A   1      46.166  26.684  26.475  1.00  0.00     0.049 A 
ATOM     54  H   UNL A   1      44.456  27.412  27.419  1.00  0.00     0.167 HD
ATOM     55  C   UNL A   1      40.729  28.816  29.297  1.00  0.00     0.034 A 
ATOM     56  C   UNL A   1      47.042  27.705  26.391  1.00  0.00     0.034 A 
ATOM     57  C   UNL A   1      41.633  29.939  29.337  1.00  0.00     0.049 A 
ATOM     58  C   UNL A   1      46.646  29.047  26.956  1.00  0.00     0.074 A 
ATOM     59  C   UNL A   1      41.431  31.189  29.896  1.00  0.00     0.029 A 
ATOM     60  N   UNL A   1      42.909  29.953  28.786  1.00  0.00    -0.354 N 
ATOM     61  N   UNL A   1      45.523  29.401  27.539  1.00  0.00    -0.248 NA
ATOM     62  C   UNL A   1      47.640  30.124  26.860  1.00  0.00     0.031 C 
ATOM     63  C   UNL A   1      42.549  31.981  29.615  1.00  0.00     0.029 A 
ATOM     64  C   UNL A   1      43.489  31.202  28.959  1.00  0.00     0.049 A 
ATOM     65  H   UNL A   1      43.339  29.189  28.338  1.00  0.00     0.167 HD
ATOM     66  C   UNL A   1      45.690  30.733  27.907  1.00  0.00     0.074 A 
ATOM     67  C   UNL A   1      47.027  31.112  27.496  1.00  0.00     0.031 C 
ATOM     68  C   UNL A   1      44.820  31.568  28.532  1.00  0.00     0.034 A 
BRANCH  55  69
ATOM     69  C   UNL A   1      39.331  28.980  29.849  1.00  0.00     0.023 A 
ATOM     70  C   UNL A   1      38.278  29.475  29.061  1.00  0.00     0.031 A 
ATOM     71  C   UNL A   1      39.054  28.666  31.192  1.00  0.00     0.131 A 
ATOM     72  C   UNL A   1      37.023  29.720  29.640  1.00  0.00     0.055 A 
ATOM     73  C   UNL A   1      37.780  28.827  31.738  1.00  0.00     0.041 A 
ATOM     74  F   UNL A   1      40.023  28.211  32.002  1.00  0.00    -0.206 F 
ATOM     75  C   UNL A   1      36.759  29.373  30.965  1.00  0.00     0.022 A 
BRANCH  72  76
ATOM     76  S   UNL A   1      35.793  30.644  28.678  1.00  0.00     0.124 S 
ATOM     77  O   UNL A   1      35.255  31.555  29.686  1.00  0.00    -0.237 OA
ATOM     78  O   UNL A   1      36.603  31.254  27.632  1.00  0.00    -0.237 OA
ATOM     79  O   UNL A   1      34.864  29.608  28.226  1.00  0.00    -0.744 OA
ENDBRANCH  72  76
ENDBRANCH  55  69
BRANCH  56  80
ATOM     80  C   UNL A   1      48.372  27.513  25.742  1.00  0.00     0.023 A 
ATOM     81  C   UNL A   1      48.527  27.641  24.352  1.00  0.00     0.031 A 
ATOM     82  C   UNL A   1      49.501  27.150  26.498  1.00  0.00     0.131 A 
ATOM     83  C   UNL A   1      49.767  27.362  23.757  1.00  0.00     0.055 A 
ATOM     84  C   UNL A   1      50.747  26.930  25.908  1.00  0.00     0.041 A 
ATOM     85  F   UNL A   1      49.411  27.014  27.832  1.00  0.00    -0.206 F 
ATOM     86  C   UNL A   1      50.882  27.021  24.526  1.00  0.00     0.022 A 
BRANCH  83  87
ATOM     87  S   UNL A   1      49.880  27.354  21.946  1.00  0.00     0.124 S 
ATOM     88  O   UNL A   1      49.814  28.777  21.639  1.00  0.00    -0.237 OA
ATOM     89  O   UNL A   1      51.169  26.707  21.727  1.00  0.00    -0.237 OA
ATOM     90  O   UNL A   1      48.716  26.571  21.536  1.00  0.00    -0.744 OA
ENDBRANCH  83  87
ENDBRANCH  56  80
BRANCH  68  91
ATOM     91  C   UNL A   1      45.310  32.962  28.848  1.00  0.00     0.023 A 
ATOM     92  C   UNL A   1      45.077  34.044  27.982  1.00  0.00     0.031 A 
ATOM     93  C   UNL A   1      46.029  33.206  30.032  1.00  0.00     0.131 A 
ATOM     94  C   UNL A   1      45.610  35.307  28.281  1.00  0.00     0.055 A 
ATOM     95  C   UNL A   1      46.497  34.479  30.359  1.00  0.00     0.041 A 
ATOM     96  F   UNL A   1      46.286  32.211  30.895  1.00  0.00    -0.206 F 
ATOM     97  C   UNL A   1      46.300  35.536  29.474  1.00  0.00     0.022 A 
BRANCH  94  98
ATOM     98  S   UNL A   1      45.477  36.624  27.043  1.00  0.00     0.124 S 
ATOM     99  O   UNL A   1      46.318  36.113  25.965  1.00  0.00    -0.237 OA
ATOM    100  O   UNL A   1      44.043  36.656  26.772  1.00  0.00    -0.237 OA
ATOM    101  O   UNL A   1      46.002  37.800  27.735  1.00  0.00    -0.744 OA
ENDBRANCH  94  98
ENDBRANCH  68  91
ENDBRANCH  42  43
ENDBRANCH  34  37
ENDBRANCH  32  33
ENDBRANCH  31  32
ENDBRANCH  30  31
ENDBRANCH   1  30
TORSDOF 21
ENDMDL
MODEL 2
REMARK VINA RESULT:     -11.3      1.480      2.651
REMARK SMILES Cc1ccc(NC(=O)C[C@@H](C(=O)NCCCCCCNC(=O)c2ccc(-c3c4nc(c(-c5cc(S(=O)(=O)[O-])ccc5F)c5ccc([nH]5)c(-c5cc(S(=O)(=O)[O-])ccc5F)c5nc(c(-c6cc(S(=O)(=O)[O-])ccc6F)c6ccc3[nH]6)C=C5)C=C4)cc2)[C@@H](C)c2ccccc2)cc1Br
REMARK SMILES IDX 16 1 15 2 14 3 13 4 11 5 12 6 10 8 9 9 7 10 6 11 8 13 5 14
REMARK SMILES IDX 1 15 2 16 3 17 95 18 4 19 94 20 96 21 86 22 87 23 88 24
REMARK SMILES IDX 89 25 93 26 90 27 92 28 91 29 17 30 18 31 19 32 20 33 21 34
REMARK SMILES IDX 22 36 23 37 24 38 85 39 25 40 84 41 26 42 27 43 28 44 78 45
REMARK SMILES IDX 29 46 83 47 77 48 79 49 30 50 82 51 76 52 75 53 31 55 63 56
REMARK SMILES IDX 43 57 62 58 44 59 47 60 61 61 80 62 45 63 46 64 60 66 81 67
REMARK SMILES IDX 48 68 32 69 33 70 41 71 34 72 40 73 42 74 39 75 35 76 36 77
REMARK SMILES IDX 37 78 38 79 64 80 65 81 73 82 66 83 72 84 74 85 71 86 67 87
REMARK SMILES IDX 68 88 69 89 70 90 49 91 50 92 58 93 51 94 57 95 59 96 56 97
REMARK SMILES IDX 52 98 53 99 54 100 55 101
REMARK H PARENT 13 7 6 12 20 35 79 54 47 65
REMARK Flexibility Score: inf
ROOT
ATOM      1  C   UNL A   1      36.603  21.791  24.326  1.00  0.00     0.002 C 
ENDROOT
BRANCH   1   2
ATOM      2  C   UNL A   1      36.615  22.953  25.332  1.00  0.00     0.021 C 
BRANCH   2   3
ATOM      3  C   UNL A   1      35.506  24.000  25.170  1.00  0.00     0.116 C 
BRANCH   3   4
ATOM      4  N   UNL A   1      35.086  24.101  23.789  1.00  0.00    -0.356 N 
ATOM      5  C   UNL A   1      34.041  24.684  23.158  1.00  0.00     0.224 C 
ATOM      6  O   UNL A   1      33.941  24.376  21.970  1.00  0.00    -0.275 OA
ATOM      7  H   UNL A   1      35.698  23.642  23.169  1.00  0.00     0.163 HD
BRANCH   5   8
ATOM      8  C   UNL A   1      33.086  25.665  23.846  1.00  0.00     0.095 C 
BRANCH   8   9
ATOM      9  C   UNL A   1      31.722  25.886  23.139  1.00  0.00     0.114 C 
BRANCH   9  10
ATOM     10  C   UNL A   1      30.383  25.782  23.824  1.00  0.00     0.225 C 
ATOM     11  N   UNL A   1      30.046  24.792  24.694  1.00  0.00    -0.326 N 
ATOM     12  H   UNL A   1      29.090  24.761  24.926  1.00  0.00     0.169 HD
ATOM     13  O   UNL A   1      29.521  26.636  23.583  1.00  0.00    -0.275 OA
BRANCH  11  14
ATOM     14  C   UNL A   1      30.822  23.810  25.317  1.00  0.00     0.042 A 
ATOM     15  C   UNL A   1      33.855  21.420  27.220  1.00  0.00     0.045 C 
ATOM     16  C   UNL A   1      32.712  22.163  26.593  1.00  0.00    -0.037 A 
ATOM     17  C   UNL A   1      32.201  23.296  27.240  1.00  0.00     0.007 A 
ATOM     18  C   UNL A   1      32.170  21.807  25.347  1.00  0.00     0.022 A 
ATOM     19  C   UNL A   1      31.235  24.088  26.622  1.00  0.00     0.026 A 
ATOM     20  C   UNL A   1      31.239  22.633  24.705  1.00  0.00     0.042 A 
ATOM     21  Br  UNL A   1      32.690  20.212  24.451  1.00  0.00    -0.050 Br
ENDBRANCH  11  14
ENDBRANCH   9  10
ENDBRANCH   8   9
BRANCH   8  22
ATOM     22  C   UNL A   1      33.713  27.106  24.099  1.00  0.00     0.029 C 
ATOM     23  C   UNL A   1      33.748  27.923  22.779  1.00  0.00     0.013 C 
BRANCH  22  24
ATOM     24  C   UNL A   1      33.150  27.975  25.230  1.00  0.00    -0.044 A 
ATOM     25  C   UNL A   1      32.787  27.472  26.486  1.00  0.00     0.004 A 
ATOM     26  C   UNL A   1      32.869  29.330  24.976  1.00  0.00     0.004 A 
ATOM     27  C   UNL A   1      32.172  28.294  27.441  1.00  0.00     0.000 A 
ATOM     28  C   UNL A   1      32.303  30.164  25.941  1.00  0.00     0.000 A 
ATOM     29  C   UNL A   1      31.945  29.642  27.175  1.00  0.00     0.000 A 
ENDBRANCH  22  24
ENDBRANCH   8  22
ENDBRANCH   5   8
ENDBRANCH   3   4
ENDBRANCH   2   3
ENDBRANCH   1   2
BRANCH   1  30
ATOM     30  C   UNL A   1      36.532  20.399  24.944  1.00  0.00     0.002 C 
BRANCH  30  31
ATOM     31  C   UNL A   1      37.854  19.633  24.927  1.00  0.00     0.021 C 
BRANCH  31  32
ATOM     32  C   UNL A   1      38.848  20.056  26.003  1.00  0.00     0.116 C 
BRANCH  32  33
ATOM     33  N   UNL A   1      40.041  19.225  26.007  1.00  0.00    -0.352 N 
ATOM     34  C   UNL A   1      41.350  19.626  26.119  1.00  0.00     0.251 C 
ATOM     35  H   UNL A   1      39.892  18.255  25.918  1.00  0.00     0.163 HD
ATOM     36  O   UNL A   1      42.266  18.839  25.898  1.00  0.00    -0.269 OA
BRANCH  34  37
ATOM     37  C   UNL A   1      41.629  21.030  26.479  1.00  0.00     0.039 A 
ATOM     38  C   UNL A   1      42.107  21.325  27.754  1.00  0.00     0.014 A 
ATOM     39  C   UNL A   1      41.486  22.039  25.519  1.00  0.00     0.014 A 
ATOM     40  C   UNL A   1      42.500  22.631  28.052  1.00  0.00     0.010 A 
ATOM     41  C   UNL A   1      41.959  23.317  25.791  1.00  0.00     0.010 A 
ATOM     42  C   UNL A   1      42.464  23.630  27.063  1.00  0.00    -0.014 A 
BRANCH  42  43
ATOM     43  C   UNL A   1      42.931  25.011  27.350  1.00  0.00     0.031 A 
ATOM     44  C   UNL A   1      41.998  25.993  28.009  1.00  0.00     0.074 A 
ATOM     45  C   UNL A   1      44.169  25.393  26.980  1.00  0.00     0.049 A 
ATOM     46  N   UNL A   1      42.194  27.253  28.301  1.00  0.00    -0.248 NA
ATOM     47  C   UNL A   1      40.658  25.497  28.357  1.00  0.00     0.031 C 
ATOM     48  C   UNL A   1      45.147  24.542  26.298  1.00  0.00     0.029 A 
ATOM     49  N   UNL A   1      44.819  26.594  27.120  1.00  0.00    -0.354 N 
ATOM     50  C   UNL A   1      41.001  27.702  28.857  1.00  0.00     0.074 A 
ATOM     51  C   UNL A   1      40.067  26.598  28.793  1.00  0.00     0.031 C 
ATOM     52  C   UNL A   1      46.280  25.237  26.111  1.00  0.00     0.029 A 
ATOM     53  C   UNL A   1      46.098  26.595  26.612  1.00  0.00     0.049 A 
ATOM     54  H   UNL A   1      44.408  27.381  27.545  1.00  0.00     0.167 HD
ATOM     55  C   UNL A   1      40.719  28.912  29.398  1.00  0.00     0.034 A 
ATOM     56  C   UNL A   1      47.014  27.582  26.547  1.00  0.00     0.034 A 
ATOM     57  C   UNL A   1      41.666  29.998  29.459  1.00  0.00     0.049 A 
ATOM     58  C   UNL A   1      46.665  28.933  27.121  1.00  0.00     0.074 A 
ATOM     59  C   UNL A   1      41.507  31.250  30.028  1.00  0.00     0.029 A 
ATOM     60  N   UNL A   1      42.948  29.968  28.921  1.00  0.00    -0.354 N 
ATOM     61  N   UNL A   1      45.551  29.326  27.696  1.00  0.00    -0.248 NA
ATOM     62  C   UNL A   1      47.702  29.971  27.047  1.00  0.00     0.031 C 
ATOM     63  C   UNL A   1      42.658  32.001  29.767  1.00  0.00     0.029 A 
ATOM     64  C   UNL A   1      43.574  31.191  29.113  1.00  0.00     0.049 A 
ATOM     65  H   UNL A   1      43.352  29.192  28.471  1.00  0.00     0.167 HD
ATOM     66  C   UNL A   1      45.767  30.647  28.080  1.00  0.00     0.074 A 
ATOM     67  C   UNL A   1      47.121  30.976  27.687  1.00  0.00     0.031 C 
ATOM     68  C   UNL A   1      44.924  31.509  28.704  1.00  0.00     0.034 A 
BRANCH  55  69
ATOM     69  C   UNL A   1      39.323  29.126  29.937  1.00  0.00     0.023 A 
ATOM     70  C   UNL A   1      38.333  29.784  29.187  1.00  0.00     0.031 A 
ATOM     71  C   UNL A   1      38.986  28.694  31.233  1.00  0.00     0.131 A 
ATOM     72  C   UNL A   1      37.084  30.063  29.764  1.00  0.00     0.055 A 
ATOM     73  C   UNL A   1      37.713  28.895  31.768  1.00  0.00     0.041 A 
ATOM     74  F   UNL A   1      39.894  28.080  32.008  1.00  0.00    -0.206 F 
ATOM     75  C   UNL A   1      36.758  29.599  31.039  1.00  0.00     0.022 A 
BRANCH  72  76
ATOM     76  S   UNL A   1      35.955  31.178  28.884  1.00  0.00     0.124 S 
ATOM     77  O   UNL A   1      36.886  32.147  28.310  1.00  0.00    -0.237 OA
ATOM     78  O   UNL A   1      35.301  30.282  27.939  1.00  0.00    -0.237 OA
ATOM     79  O   UNL A   1      35.097  31.702  29.946  1.00  0.00    -0.744 OA
ENDBRANCH  72  76
ENDBRANCH  55  69
BRANCH  56  80
ATOM     80  C   UNL A   1      48.343  27.344  25.910  1.00  0.00     0.023 A 
ATOM     81  C   UNL A   1      48.532  27.533  24.532  1.00  0.00     0.031 A 
ATOM     82  C   UNL A   1      49.434  26.876  26.664  1.00  0.00     0.131 A 
ATOM     83  C   UNL A   1      49.764  27.211  23.942  1.00  0.00     0.055 A 
ATOM     84  C   UNL A   1      50.676  26.613  26.083  1.00  0.00     0.041 A 
ATOM     85  F   UNL A   1      49.311  26.678  27.987  1.00  0.00    -0.206 F 
ATOM     86  C   UNL A   1      50.842  26.766  24.710  1.00  0.00     0.022 A 
BRANCH  83  87
ATOM     87  S   UNL A   1      49.910  27.290  22.136  1.00  0.00     0.124 S 
ATOM     88  O   UNL A   1      51.248  26.751  21.922  1.00  0.00    -0.237 OA
ATOM     89  O   UNL A   1      48.801  26.444  21.706  1.00  0.00    -0.237 OA
ATOM     90  O   UNL A   1      49.755  28.713  21.843  1.00  0.00    -0.744 OA
ENDBRANCH  83  87
ENDBRANCH  56  80
BRANCH  68  91
ATOM     91  C   UNL A   1      45.463  32.879  29.038  1.00  0.00     0.023 A 
ATOM     92  C   UNL A   1      45.369  33.955  28.139  1.00  0.00     0.031 A 
ATOM     93  C   UNL A   1      46.092  33.107  30.277  1.00  0.00     0.131 A 
ATOM     94  C   UNL A   1      45.946  35.191  28.463  1.00  0.00     0.055 A 
ATOM     95  C   UNL A   1      46.602  34.358  30.622  1.00  0.00     0.041 A 
ATOM     96  F   UNL A   1      46.216  32.117  31.174  1.00  0.00    -0.206 F 
ATOM     97  C   UNL A   1      46.544  35.406  29.708  1.00  0.00     0.022 A 
BRANCH  94  98
ATOM     98  S   UNL A   1      45.996  36.488  27.197  1.00  0.00     0.124 S 
ATOM     99  O   UNL A   1      46.263  35.719  25.986  1.00  0.00    -0.237 OA
ATOM    100  O   UNL A   1      44.665  37.077  27.299  1.00  0.00    -0.237 OA
ATOM    101  O   UNL A   1      47.090  37.353  27.635  1.00  0.00    -0.744 OA
ENDBRANCH  94  98
ENDBRANCH  68  91
ENDBRANCH  42  43
ENDBRANCH  34  37
ENDBRANCH  32  33
ENDBRANCH  31  32
ENDBRANCH  30  31
ENDBRANCH   1  30
TORSDOF 21
ENDMDL
MODEL 3
REMARK VINA RESULT:     -10.9      1.716      3.197
REMARK SMILES Cc1ccc(NC(=O)C[C@@H](C(=O)NCCCCCCNC(=O)c2ccc(-c3c4nc(c(-c5cc(S(=O)(=O)[O-])ccc5F)c5ccc([nH]5)c(-c5cc(S(=O)(=O)[O-])ccc5F)c5nc(c(-c6cc(S(=O)(=O)[O-])ccc6F)c6ccc3[nH]6)C=C5)C=C4)cc2)[C@@H](C)c2ccccc2)cc1Br
REMARK SMILES IDX 16 1 15 2 14 3 13 4 11 5 12 6 10 8 9 9 7 10 6 11 8 13 5 14
REMARK SMILES IDX 1 15 2 16 3 17 95 18 4 19 94 20 96 21 86 22 87 23 88 24
REMARK SMILES IDX 89 25 93 26 90 27 92 28 91 29 17 30 18 31 19 32 20 33 21 34
REMARK SMILES IDX 22 36 23 37 24 38 85 39 25 40 84 41 26 42 27 43 28 44 78 45
REMARK SMILES IDX 29 46 83 47 77 48 79 49 30 50 82 51 76 52 75 53 31 55 63 56
REMARK SMILES IDX 43 57 62 58 44 59 47 60 61 61 80 62 45 63 46 64 60 66 81 67
REMARK SMILES IDX 48 68 32 69 33 70 41 71 34 72 40 73 42 74 39 75 35 76 36 77
REMARK SMILES IDX 37 78 38 79 64 80 65 81 73 82 66 83 72 84 74 85 71 86 67 87
REMARK SMILES IDX 68 88 69 89 70 90 49 91 50 92 58 93 51 94 57 95 59 96 56 97
REMARK SMILES IDX 52 98 53 99 54 100 55 101
REMARK H PARENT 13 7 6 12 20 35 79 54 47 65
REMARK Flexibility Score: inf
ROOT
ATOM      1  C   UNL A   1      36.781  22.318  23.910  1.00  0.00     0.002 C 
ENDROOT
BRANCH   1   2
ATOM      2  C   UNL A   1      36.677  23.697  24.582  1.00  0.00     0.021 C 
BRANCH   2   3
ATOM      3  C   UNL A   1      35.313  24.055  25.185  1.00  0.00     0.116 C 
BRANCH   3   4
ATOM      4  N   UNL A   1      34.396  24.507  24.161  1.00  0.00    -0.356 N 
ATOM      5  C   UNL A   1      33.066  24.749  24.122  1.00  0.00     0.224 C 
ATOM      6  O   UNL A   1      32.629  24.946  22.988  1.00  0.00    -0.275 OA
ATOM      7  H   UNL A   1      34.841  24.677  23.299  1.00  0.00     0.163 HD
BRANCH   5   8
ATOM      8  C   UNL A   1      32.187  24.808  25.375  1.00  0.00     0.095 C 
BRANCH   8   9
ATOM      9  C   UNL A   1      31.633  23.446  25.875  1.00  0.00     0.114 C 
BRANCH   9  10
ATOM     10  C   UNL A   1      32.339  22.554  26.866  1.00  0.00     0.225 C 
ATOM     11  N   UNL A   1      32.744  21.283  26.594  1.00  0.00    -0.326 N 
ATOM     12  H   UNL A   1      33.034  20.771  27.383  1.00  0.00     0.169 HD
ATOM     13  O   UNL A   1      32.563  22.985  28.003  1.00  0.00    -0.275 OA
BRANCH  11  14
ATOM     14  C   UNL A   1      32.821  20.579  25.389  1.00  0.00     0.042 A 
ATOM     15  C   UNL A   1      32.154  18.452  21.707  1.00  0.00     0.045 C 
ATOM     16  C   UNL A   1      32.511  19.203  22.956  1.00  0.00    -0.037 A 
ATOM     17  C   UNL A   1      32.157  20.555  23.061  1.00  0.00     0.007 A 
ATOM     18  C   UNL A   1      33.133  18.590  24.056  1.00  0.00     0.022 A 
ATOM     19  C   UNL A   1      32.349  21.245  24.256  1.00  0.00     0.026 A 
ATOM     20  C   UNL A   1      33.275  19.270  25.273  1.00  0.00     0.042 A 
ATOM     21  Br  UNL A   1      33.781  16.805  23.970  1.00  0.00    -0.050 Br
ENDBRANCH  11  14
ENDBRANCH   9  10
ENDBRANCH   8   9
BRANCH   8  22
ATOM     22  C   UNL A   1      30.941  25.790  25.244  1.00  0.00     0.029 C 
ATOM     23  C   UNL A   1      29.761  25.292  26.122  1.00  0.00     0.013 C 
BRANCH  22  24
ATOM     24  C   UNL A   1      31.150  27.293  25.463  1.00  0.00    -0.044 A 
ATOM     25  C   UNL A   1      31.030  28.249  24.446  1.00  0.00     0.004 A 
ATOM     26  C   UNL A   1      31.600  27.745  26.717  1.00  0.00     0.004 A 
ATOM     27  C   UNL A   1      31.345  29.595  24.681  1.00  0.00     0.000 A 
ATOM     28  C   UNL A   1      31.867  29.091  26.969  1.00  0.00     0.000 A 
ATOM     29  C   UNL A   1      31.747  30.019  25.945  1.00  0.00     0.000 A 
ENDBRANCH  22  24
ENDBRANCH   8  22
ENDBRANCH   5   8
ENDBRANCH   3   4
ENDBRANCH   2   3
ENDBRANCH   1   2
BRANCH   1  30
ATOM     30  C   UNL A   1      36.536  21.127  24.832  1.00  0.00     0.002 C 
BRANCH  30  31
ATOM     31  C   UNL A   1      37.665  20.098  24.844  1.00  0.00     0.021 C 
BRANCH  31  32
ATOM     32  C   UNL A   1      38.901  20.518  25.631  1.00  0.00     0.116 C 
BRANCH  32  33
ATOM     33  N   UNL A   1      39.808  19.406  25.865  1.00  0.00    -0.352 N 
ATOM     34  C   UNL A   1      41.155  19.456  26.129  1.00  0.00     0.251 C 
ATOM     35  H   UNL A   1      39.408  18.507  25.829  1.00  0.00     0.163 HD
ATOM     36  O   UNL A   1      41.836  18.435  26.099  1.00  0.00    -0.269 OA
BRANCH  34  37
ATOM     37  C   UNL A   1      41.769  20.768  26.418  1.00  0.00     0.039 A 
ATOM     38  C   UNL A   1      42.333  21.501  25.376  1.00  0.00     0.014 A 
ATOM     39  C   UNL A   1      41.709  21.296  27.713  1.00  0.00     0.014 A 
ATOM     40  C   UNL A   1      42.790  22.798  25.621  1.00  0.00     0.010 A 
ATOM     41  C   UNL A   1      42.085  22.617  27.933  1.00  0.00     0.010 A 
ATOM     42  C   UNL A   1      42.637  23.379  26.892  1.00  0.00    -0.014 A 
BRANCH  42  43
ATOM     43  C   UNL A   1      43.068  24.777  27.153  1.00  0.00     0.031 A 
ATOM     44  C   UNL A   1      42.121  25.740  27.818  1.00  0.00     0.074 A 
ATOM     45  C   UNL A   1      44.288  25.190  26.753  1.00  0.00     0.049 A 
ATOM     46  N   UNL A   1      42.285  27.008  28.091  1.00  0.00    -0.248 NA
ATOM     47  C   UNL A   1      40.803  25.209  28.199  1.00  0.00     0.031 C 
ATOM     48  C   UNL A   1      45.276  24.359  26.063  1.00  0.00     0.029 A 
ATOM     49  N   UNL A   1      44.905  26.411  26.867  1.00  0.00    -0.354 N 
ATOM     50  C   UNL A   1      41.091  27.429  28.665  1.00  0.00     0.074 A 
ATOM     51  C   UNL A   1      40.188  26.298  28.633  1.00  0.00     0.031 C 
ATOM     52  C   UNL A   1      46.386  25.084  25.845  1.00  0.00     0.029 A 
ATOM     53  C   UNL A   1      46.174  26.443  26.334  1.00  0.00     0.049 A 
ATOM     54  H   UNL A   1      44.480  27.190  27.291  1.00  0.00     0.167 HD
ATOM     55  C   UNL A   1      40.784  28.638  29.197  1.00  0.00     0.034 A 
ATOM     56  C   UNL A   1      47.059  27.455  26.239  1.00  0.00     0.034 A 
ATOM     57  C   UNL A   1      41.700  29.751  29.227  1.00  0.00     0.049 A 
ATOM     58  C   UNL A   1      46.682  28.802  26.804  1.00  0.00     0.074 A 
ATOM     59  C   UNL A   1      41.516  31.005  29.784  1.00  0.00     0.029 A 
ATOM     60  N   UNL A   1      42.971  29.751  28.665  1.00  0.00    -0.354 N 
ATOM     61  N   UNL A   1      45.568  29.169  27.396  1.00  0.00    -0.248 NA
ATOM     62  C   UNL A   1      47.686  29.868  26.697  1.00  0.00     0.031 C 
ATOM     63  C   UNL A   1      42.640  31.785  29.492  1.00  0.00     0.029 A 
ATOM     64  C   UNL A   1      43.566  30.994  28.829  1.00  0.00     0.049 A 
ATOM     65  H   UNL A   1      43.390  28.982  28.215  1.00  0.00     0.167 HD
ATOM     66  C   UNL A   1      45.753  30.500  27.760  1.00  0.00     0.074 A 
ATOM     67  C   UNL A   1      47.090  30.864  27.337  1.00  0.00     0.031 C 
ATOM     68  C   UNL A   1      44.897  31.346  28.391  1.00  0.00     0.034 A 
BRANCH  55  69
ATOM     69  C   UNL A   1      39.393  28.817  29.762  1.00  0.00     0.023 A 
ATOM     70  C   UNL A   1      38.343  29.341  28.987  1.00  0.00     0.031 A 
ATOM     71  C   UNL A   1      39.120  28.491  31.102  1.00  0.00     0.131 A 
ATOM     72  C   UNL A   1      37.096  29.598  29.578  1.00  0.00     0.055 A 
ATOM     73  C   UNL A   1      37.853  28.666  31.659  1.00  0.00     0.041 A 
ATOM     74  F   UNL A   1      40.087  28.010  31.900  1.00  0.00    -0.206 F 
ATOM     75  C   UNL A   1      36.835  29.239  30.900  1.00  0.00     0.022 A 
BRANCH  72  76
ATOM     76  S   UNL A   1      35.875  30.554  28.637  1.00  0.00     0.124 S 
ATOM     77  O   UNL A   1      36.717  31.198  27.631  1.00  0.00    -0.237 OA
ATOM     78  O   UNL A   1      34.972  29.520  28.148  1.00  0.00    -0.237 OA
ATOM     79  O   UNL A   1      35.307  31.460  29.635  1.00  0.00    -0.744 OA
ENDBRANCH  72  76
ENDBRANCH  55  69
BRANCH  56  80
ATOM     80  C   UNL A   1      48.382  27.247  25.579  1.00  0.00     0.023 A 
ATOM     81  C   UNL A   1      48.545  27.453  24.200  1.00  0.00     0.031 A 
ATOM     82  C   UNL A   1      49.493  26.791  26.311  1.00  0.00     0.131 A 
ATOM     83  C   UNL A   1      49.773  27.159  23.588  1.00  0.00     0.055 A 
ATOM     84  C   UNL A   1      50.730  26.557  25.708  1.00  0.00     0.041 A 
ATOM     85  F   UNL A   1      49.395  26.578  27.634  1.00  0.00    -0.206 F 
ATOM     86  C   UNL A   1      50.872  26.726  24.334  1.00  0.00     0.022 A 
BRANCH  83  87
ATOM     87  S   UNL A   1      49.890  27.258  21.780  1.00  0.00     0.124 S 
ATOM     88  O   UNL A   1      51.241  26.764  21.542  1.00  0.00    -0.237 OA
ATOM     89  O   UNL A   1      48.802  26.381  21.360  1.00  0.00    -0.237 OA
ATOM     90  O   UNL A   1      49.685  28.678  21.503  1.00  0.00    -0.744 OA
ENDBRANCH  83  87
ENDBRANCH  56  80
BRANCH  68  91
ATOM     91  C   UNL A   1      45.404  32.735  28.698  1.00  0.00     0.023 A 
ATOM     92  C   UNL A   1      45.159  33.821  27.841  1.00  0.00     0.031 A 
ATOM     93  C   UNL A   1      46.152  32.971  29.866  1.00  0.00     0.131 A 
ATOM     94  C   UNL A   1      45.707  35.079  28.131  1.00  0.00     0.055 A 
ATOM     95  C   UNL A   1      46.636  34.239  30.185  1.00  0.00     0.041 A 
ATOM     96  F   UNL A   1      46.422  31.971  30.720  1.00  0.00    -0.206 F 
ATOM     97  C   UNL A   1      46.427  35.300  29.309  1.00  0.00     0.022 A 
BRANCH  94  98
ATOM     98  S   UNL A   1      45.555  36.401  26.900  1.00  0.00     0.124 S 
ATOM     99  O   UNL A   1      46.277  35.840  25.762  1.00  0.00    -0.237 OA
ATOM    100  O   UNL A   1      44.109  36.518  26.743  1.00  0.00    -0.237 OA
ATOM    101  O   UNL A   1      46.203  37.544  27.541  1.00  0.00    -0.744 OA
ENDBRANCH  94  98
ENDBRANCH  68  91
ENDBRANCH  42  43
ENDBRANCH  34  37
ENDBRANCH  32  33
ENDBRANCH  31  32
ENDBRANCH  30  31
ENDBRANCH   1  30
TORSDOF 21
ENDMDL
