MODEL 1
REMARK VINA RESULT:     -10.3      0.000      0.000
REMARK SMILES CC[C@H](C)[NH2+]CCc1ccc(C(=O)NCCCCCCNC(=O)c2ccc(-c3c4nc(c(-c5cc(S(=O)(=O)[O-])ccc5F)c5ccc([nH]5)c(-c5cc(S(=O)(=O)[O-])ccc5F)c5nc(c(-c6cc(S(=O)(=O)[O-])ccc6F)c6ccc3[nH]6)C=C5)C=C4)cc2)cc1
REMARK SMILES IDX 16 1 15 2 14 3 12 4 13 5 11 7 8 8 9 9 88 10 10 11 87 12 7 13
REMARK SMILES IDX 6 14 5 15 3 18 4 19 2 20 1 21 17 22 18 23 19 24 20 25 21 26
REMARK SMILES IDX 22 27 23 29 24 30 25 31 86 32 26 33 85 34 27 35 28 36 29 37
REMARK SMILES IDX 79 38 30 39 84 40 78 41 80 42 31 43 83 44 77 45 76 46 32 48
REMARK SMILES IDX 64 49 44 50 63 51 45 52 48 53 62 54 81 55 46 56 47 57 61 59
REMARK SMILES IDX 82 60 49 61 33 62 34 63 42 64 35 65 41 66 43 67 40 68 36 69
REMARK SMILES IDX 37 70 38 71 39 72 65 73 66 74 74 75 67 76 73 77 75 78 72 79
REMARK SMILES IDX 68 80 69 81 70 82 71 83 50 84 51 85 59 86 52 87 58 88 60 89
REMARK SMILES IDX 57 90 53 91 54 92 55 93 56 94
REMARK H PARENT 14 6 5 16 5 17 21 28 80 47 48 58
REMARK Flexibility Score: inf
ROOT
ATOM      1  C   UNL A   1      34.052  24.795  26.032  1.00  0.00     0.021 C 
ENDROOT
BRANCH   1   2
ATOM      2  C   UNL A   1      34.547  24.446  24.623  1.00  0.00     0.116 C 
BRANCH   2   3
ATOM      3  N   UNL A   1      33.659  23.481  23.996  1.00  0.00    -0.352 N 
ATOM      4  C   UNL A   1      32.442  23.608  23.370  1.00  0.00     0.251 C 
ATOM      5  O   UNL A   1      31.935  22.596  22.884  1.00  0.00    -0.269 OA
ATOM      6  H   UNL A   1      33.995  22.555  24.024  1.00  0.00     0.163 HD
BRANCH   4   7
ATOM      7  C   UNL A   1      31.740  24.910  23.220  1.00  0.00     0.039 A 
ATOM      8  C   UNL A   1      30.259  27.318  22.927  1.00  0.00    -0.042 A 
ATOM      9  C   UNL A   1      29.885  26.352  23.873  1.00  0.00     0.005 A 
ATOM     10  C   UNL A   1      31.377  27.043  22.145  1.00  0.00     0.005 A 
ATOM     11  C   UNL A   1      30.609  25.157  24.010  1.00  0.00     0.014 A 
ATOM     12  C   UNL A   1      32.148  25.900  22.338  1.00  0.00     0.014 A 
BRANCH   8  13
ATOM     13  C   UNL A   1      29.400  28.548  22.731  1.00  0.00     0.097 C 
BRANCH  13  14
ATOM     14  C   UNL A   1      29.889  29.717  21.833  1.00  0.00     0.265 C 
BRANCH  14  15
ATOM     15  N   UNL A   1      28.980  30.677  21.231  1.00  0.00    -0.344 N 
ATOM     16  H   UNL A   1      29.234  30.731  20.244  1.00  0.00     0.346 HD
ATOM     17  H   UNL A   1      28.069  30.298  21.490  1.00  0.00     0.346 HD
BRANCH  15  18
ATOM     18  C   UNL A   1      28.882  32.055  21.704  1.00  0.00     0.178 C 
ATOM     19  C   UNL A   1      27.877  32.766  20.778  1.00  0.00     0.075 C 
BRANCH  18  20
ATOM     20  C   UNL A   1      28.447  32.272  23.165  1.00  0.00     0.061 C 
ATOM     21  C   UNL A   1      27.279  31.374  23.560  1.00  0.00     0.010 C 
ENDBRANCH  18  20
ENDBRANCH  15  18
ENDBRANCH  14  15
ENDBRANCH  13  14
ENDBRANCH   8  13
ENDBRANCH   4   7
ENDBRANCH   2   3
ENDBRANCH   1   2
BRANCH   1  22
ATOM     22  C   UNL A   1      33.323  26.141  26.095  1.00  0.00     0.002 C 
BRANCH  22  23
ATOM     23  C   UNL A   1      33.939  27.237  25.216  1.00  0.00     0.002 C 
BRANCH  23  24
ATOM     24  C   UNL A   1      33.151  28.549  25.181  1.00  0.00     0.021 C 
BRANCH  24  25
ATOM     25  C   UNL A   1      32.746  29.070  26.557  1.00  0.00     0.116 C 
BRANCH  25  26
ATOM     26  N   UNL A   1      32.656  30.523  26.568  1.00  0.00    -0.352 N 
ATOM     27  C   UNL A   1      33.422  31.430  27.250  1.00  0.00     0.251 C 
ATOM     28  H   UNL A   1      31.944  30.907  26.005  1.00  0.00     0.163 HD
ATOM     29  O   UNL A   1      33.036  32.596  27.358  1.00  0.00    -0.269 OA
BRANCH  27  30
ATOM     30  C   UNL A   1      34.696  31.005  27.860  1.00  0.00     0.039 A 
ATOM     31  C   UNL A   1      35.733  31.932  27.993  1.00  0.00     0.014 A 
ATOM     32  C   UNL A   1      34.871  29.688  28.294  1.00  0.00     0.014 A 
ATOM     33  C   UNL A   1      36.925  31.550  28.610  1.00  0.00     0.010 A 
ATOM     34  C   UNL A   1      36.029  29.330  28.976  1.00  0.00     0.010 A 
ATOM     35  C   UNL A   1      37.071  30.256  29.134  1.00  0.00    -0.014 A 
BRANCH  35  36
ATOM     36  C   UNL A   1      38.311  29.848  29.844  1.00  0.00     0.031 A 
ATOM     37  C   UNL A   1      38.607  30.389  31.218  1.00  0.00     0.074 A 
ATOM     38  C   UNL A   1      39.197  29.042  29.229  1.00  0.00     0.049 A 
ATOM     39  N   UNL A   1      39.663  30.212  31.968  1.00  0.00    -0.248 NA
ATOM     40  C   UNL A   1      37.591  31.274  31.806  1.00  0.00     0.031 C 
ATOM     41  C   UNL A   1      39.039  28.488  27.882  1.00  0.00     0.029 A 
ATOM     42  N   UNL A   1      40.409  28.553  29.646  1.00  0.00    -0.354 N 
ATOM     43  C   UNL A   1      39.445  30.972  33.113  1.00  0.00     0.074 A 
ATOM     44  C   UNL A   1      38.189  31.665  32.920  1.00  0.00     0.031 C 
ATOM     45  C   UNL A   1      40.099  27.717  27.596  1.00  0.00     0.029 A 
ATOM     46  C   UNL A   1      41.036  27.759  28.714  1.00  0.00     0.049 A 
ATOM     47  H   UNL A   1      40.794  28.753  30.530  1.00  0.00     0.167 HD
ATOM     48  C   UNL A   1      40.211  31.063  34.230  1.00  0.00     0.034 A 
ATOM     49  C   UNL A   1      42.236  27.147  28.749  1.00  0.00     0.034 A 
ATOM     50  C   UNL A   1      41.460  30.359  34.401  1.00  0.00     0.049 A 
ATOM     51  C   UNL A   1      43.086  27.286  29.986  1.00  0.00     0.074 A 
ATOM     52  C   UNL A   1      42.290  30.334  35.508  1.00  0.00     0.029 A 
ATOM     53  N   UNL A   1      42.067  29.567  33.433  1.00  0.00    -0.354 N 
ATOM     54  N   UNL A   1      42.843  27.965  31.084  1.00  0.00    -0.248 NA
ATOM     55  C   UNL A   1      44.365  26.566  29.992  1.00  0.00     0.031 C 
ATOM     56  C   UNL A   1      43.432  29.593  35.182  1.00  0.00     0.029 A 
ATOM     57  C   UNL A   1      43.277  29.080  33.904  1.00  0.00     0.049 A 
ATOM     58  H   UNL A   1      41.692  29.378  32.543  1.00  0.00     0.167 HD
ATOM     59  C   UNL A   1      43.928  27.728  31.924  1.00  0.00     0.074 A 
ATOM     60  C   UNL A   1      44.817  26.834  31.209  1.00  0.00     0.031 C 
ATOM     61  C   UNL A   1      44.163  28.201  33.175  1.00  0.00     0.034 A 
BRANCH  48  62
ATOM     62  C   UNL A   1      39.724  31.981  35.330  1.00  0.00     0.023 A 
ATOM     63  C   UNL A   1      39.025  31.489  36.447  1.00  0.00     0.031 A 
ATOM     64  C   UNL A   1      39.921  33.369  35.240  1.00  0.00     0.131 A 
ATOM     65  C   UNL A   1      38.468  32.382  37.375  1.00  0.00     0.055 A 
ATOM     66  C   UNL A   1      39.446  34.247  36.218  1.00  0.00     0.041 A 
ATOM     67  F   UNL A   1      40.562  33.904  34.188  1.00  0.00    -0.206 F 
ATOM     68  C   UNL A   1      38.696  33.756  37.283  1.00  0.00     0.022 A 
BRANCH  65  69
ATOM     69  S   UNL A   1      37.294  31.736  38.598  1.00  0.00     0.124 S 
ATOM     70  O   UNL A   1      36.191  32.687  38.479  1.00  0.00    -0.237 OA
ATOM     71  O   UNL A   1      37.034  30.389  38.104  1.00  0.00    -0.237 OA
ATOM     72  O   UNL A   1      38.035  31.809  39.856  1.00  0.00    -0.744 OA
ENDBRANCH  65  69
ENDBRANCH  48  62
BRANCH  49  73
ATOM     73  C   UNL A   1      42.709  26.357  27.576  1.00  0.00     0.023 A 
ATOM     74  C   UNL A   1      42.550  24.963  27.529  1.00  0.00     0.031 A 
ATOM     75  C   UNL A   1      43.345  26.986  26.491  1.00  0.00     0.131 A 
ATOM     76  C   UNL A   1      43.055  24.239  26.439  1.00  0.00     0.055 A 
ATOM     77  C   UNL A   1      43.798  26.266  25.384  1.00  0.00     0.041 A 
ATOM     78  F   UNL A   1      43.517  28.318  26.482  1.00  0.00    -0.206 F 
ATOM     79  C   UNL A   1      43.665  24.882  25.359  1.00  0.00     0.022 A 
BRANCH  76  80
ATOM     80  S   UNL A   1      42.969  22.428  26.483  1.00  0.00     0.124 S 
ATOM     81  O   UNL A   1      42.388  22.190  27.799  1.00  0.00    -0.237 OA
ATOM     82  O   UNL A   1      42.109  22.138  25.339  1.00  0.00    -0.237 OA
ATOM     83  O   UNL A   1      44.363  22.016  26.330  1.00  0.00    -0.744 OA
ENDBRANCH  76  80
ENDBRANCH  49  73
BRANCH  61  84
ATOM     84  C   UNL A   1      45.418  27.721  33.866  1.00  0.00     0.023 A 
ATOM     85  C   UNL A   1      45.457  26.512  34.581  1.00  0.00     0.031 A 
ATOM     86  C   UNL A   1      46.593  28.494  33.811  1.00  0.00     0.131 A 
ATOM     87  C   UNL A   1      46.627  26.139  35.261  1.00  0.00     0.055 A 
ATOM     88  C   UNL A   1      47.772  28.085  34.434  1.00  0.00     0.041 A 
ATOM     89  F   UNL A   1      46.614  29.660  33.146  1.00  0.00    -0.206 F 
ATOM     90  C   UNL A   1      47.791  26.908  35.176  1.00  0.00     0.022 A 
BRANCH  87  91
ATOM     91  S   UNL A   1      46.580  24.683  36.342  1.00  0.00     0.124 S 
ATOM     92  O   UNL A   1      47.404  25.114  37.467  1.00  0.00    -0.237 OA
ATOM     93  O   UNL A   1      45.154  24.541  36.615  1.00  0.00    -0.237 OA
ATOM     94  O   UNL A   1      47.161  23.625  35.518  1.00  0.00    -0.744 OA
ENDBRANCH  87  91
ENDBRANCH  61  84
ENDBRANCH  35  36
ENDBRANCH  27  30
ENDBRANCH  25  26
ENDBRANCH  24  25
ENDBRANCH  23  24
ENDBRANCH  22  23
ENDBRANCH   1  22
TORSDOF 21
ENDMDL
MODEL 2
REMARK VINA RESULT:     -10.2      1.754      3.516
REMARK SMILES CC[C@H](C)[NH2+]CCc1ccc(C(=O)NCCCCCCNC(=O)c2ccc(-c3c4nc(c(-c5cc(S(=O)(=O)[O-])ccc5F)c5ccc([nH]5)c(-c5cc(S(=O)(=O)[O-])ccc5F)c5nc(c(-c6cc(S(=O)(=O)[O-])ccc6F)c6ccc3[nH]6)C=C5)C=C4)cc2)cc1
REMARK SMILES IDX 16 1 15 2 14 3 12 4 13 5 11 7 8 8 9 9 88 10 10 11 87 12 7 13
REMARK SMILES IDX 6 14 5 15 3 18 4 19 2 20 1 21 17 22 18 23 19 24 20 25 21 26
REMARK SMILES IDX 22 27 23 29 24 30 25 31 86 32 26 33 85 34 27 35 28 36 29 37
REMARK SMILES IDX 79 38 30 39 84 40 78 41 80 42 31 43 83 44 77 45 76 46 32 48
REMARK SMILES IDX 64 49 44 50 63 51 45 52 48 53 62 54 81 55 46 56 47 57 61 59
REMARK SMILES IDX 82 60 49 61 33 62 34 63 42 64 35 65 41 66 43 67 40 68 36 69
REMARK SMILES IDX 37 70 38 71 39 72 65 73 66 74 74 75 67 76 73 77 75 78 72 79
REMARK SMILES IDX 68 80 69 81 70 82 71 83 50 84 51 85 59 86 52 87 58 88 60 89
REMARK SMILES IDX 57 90 53 91 54 92 55 93 56 94
REMARK H PARENT 14 6 5 16 5 17 21 28 80 47 48 58
REMARK Flexibility Score: inf
ROOT
ATOM      1  C   UNL A   1      33.714  27.054  22.977  1.00  0.00     0.021 C 
ENDROOT
BRANCH   1   2
ATOM      2  C   UNL A   1      32.825  27.013  21.729  1.00  0.00     0.116 C 
BRANCH   2   3
ATOM      3  N   UNL A   1      31.528  27.610  22.007  1.00  0.00    -0.352 N 
ATOM      4  C   UNL A   1      30.532  27.293  22.899  1.00  0.00     0.251 C 
ATOM      5  O   UNL A   1      29.542  28.024  22.941  1.00  0.00    -0.269 OA
ATOM      6  H   UNL A   1      31.325  28.395  21.448  1.00  0.00     0.163 HD
BRANCH   4   7
ATOM      7  C   UNL A   1      30.619  26.141  23.836  1.00  0.00     0.039 A 
ATOM      8  C   UNL A   1      30.909  24.014  25.698  1.00  0.00    -0.042 A 
ATOM      9  C   UNL A   1      30.876  25.348  26.128  1.00  0.00     0.005 A 
ATOM     10  C   UNL A   1      30.798  23.783  24.329  1.00  0.00     0.005 A 
ATOM     11  C   UNL A   1      30.743  26.400  25.207  1.00  0.00     0.014 A 
ATOM     12  C   UNL A   1      30.579  24.818  23.424  1.00  0.00     0.014 A 
BRANCH   8  13
ATOM     13  C   UNL A   1      31.155  22.908  26.701  1.00  0.00     0.097 C 
BRANCH  13  14
ATOM     14  C   UNL A   1      32.241  21.830  26.436  1.00  0.00     0.265 C 
BRANCH  14  15
ATOM     15  N   UNL A   1      33.664  22.119  26.495  1.00  0.00    -0.344 N 
ATOM     16  H   UNL A   1      33.751  23.047  26.910  1.00  0.00     0.346 HD
ATOM     17  H   UNL A   1      34.024  21.311  27.004  1.00  0.00     0.346 HD
BRANCH  15  18
ATOM     18  C   UNL A   1      34.503  22.126  25.300  1.00  0.00     0.178 C 
ATOM     19  C   UNL A   1      33.846  21.160  24.296  1.00  0.00     0.075 C 
BRANCH  18  20
ATOM     20  C   UNL A   1      34.732  23.481  24.605  1.00  0.00     0.061 C 
ATOM     21  C   UNL A   1      34.336  23.448  23.132  1.00  0.00     0.010 C 
ENDBRANCH  18  20
ENDBRANCH  15  18
ENDBRANCH  14  15
ENDBRANCH  13  14
ENDBRANCH   8  13
ENDBRANCH   4   7
ENDBRANCH   2   3
ENDBRANCH   1   2
BRANCH   1  22
ATOM     22  C   UNL A   1      34.005  28.479  23.459  1.00  0.00     0.002 C 
BRANCH  22  23
ATOM     23  C   UNL A   1      33.645  28.738  24.926  1.00  0.00     0.002 C 
BRANCH  23  24
ATOM     24  C   UNL A   1      32.381  29.575  25.138  1.00  0.00     0.021 C 
BRANCH  24  25
ATOM     25  C   UNL A   1      32.196  30.073  26.568  1.00  0.00     0.116 C 
BRANCH  25  26
ATOM     26  N   UNL A   1      32.211  31.528  26.629  1.00  0.00    -0.352 N 
ATOM     27  C   UNL A   1      33.028  32.354  27.355  1.00  0.00     0.251 C 
ATOM     28  H   UNL A   1      31.540  31.981  26.070  1.00  0.00     0.163 HD
ATOM     29  O   UNL A   1      32.725  33.540  27.498  1.00  0.00    -0.269 OA
BRANCH  27  30
ATOM     30  C   UNL A   1      34.257  31.817  27.970  1.00  0.00     0.039 A 
ATOM     31  C   UNL A   1      35.308  32.687  28.271  1.00  0.00     0.014 A 
ATOM     32  C   UNL A   1      34.376  30.451  28.242  1.00  0.00     0.014 A 
ATOM     33  C   UNL A   1      36.455  32.194  28.893  1.00  0.00     0.010 A 
ATOM     34  C   UNL A   1      35.487  29.975  28.931  1.00  0.00     0.010 A 
ATOM     35  C   UNL A   1      36.541  30.841  29.257  1.00  0.00    -0.014 A 
BRANCH  35  36
ATOM     36  C   UNL A   1      37.731  30.309  29.971  1.00  0.00     0.031 A 
ATOM     37  C   UNL A   1      37.990  30.703  31.401  1.00  0.00     0.074 A 
ATOM     38  C   UNL A   1      38.607  29.525  29.315  1.00  0.00     0.049 A 
ATOM     39  N   UNL A   1      39.005  30.406  32.171  1.00  0.00    -0.248 NA
ATOM     40  C   UNL A   1      36.990  31.574  32.033  1.00  0.00     0.031 C 
ATOM     41  C   UNL A   1      38.483  29.110  27.915  1.00  0.00     0.029 A 
ATOM     42  N   UNL A   1      39.778  28.942  29.729  1.00  0.00    -0.354 N 
ATOM     43  C   UNL A   1      38.771  31.062  33.375  1.00  0.00     0.074 A 
ATOM     44  C   UNL A   1      37.555  31.829  33.202  1.00  0.00     0.031 C 
ATOM     45  C   UNL A   1      39.520  28.322  27.597  1.00  0.00     0.029 A 
ATOM     46  C   UNL A   1      40.410  28.213  28.749  1.00  0.00     0.049 A 
ATOM     47  H   UNL A   1      40.133  29.039  30.643  1.00  0.00     0.167 HD
ATOM     48  C   UNL A   1      39.491  31.011  34.524  1.00  0.00     0.034 A 
ATOM     49  C   UNL A   1      41.579  27.545  28.771  1.00  0.00     0.034 A 
ATOM     50  C   UNL A   1      40.701  30.236  34.674  1.00  0.00     0.049 A 
ATOM     51  C   UNL A   1      42.381  27.525  30.047  1.00  0.00     0.074 A 
ATOM     52  C   UNL A   1      41.481  30.066  35.804  1.00  0.00     0.029 A 
ATOM     53  N   UNL A   1      41.314  29.513  33.658  1.00  0.00    -0.354 N 
ATOM     54  N   UNL A   1      42.121  28.107  31.196  1.00  0.00    -0.248 NA
ATOM     55  C   UNL A   1      43.626  26.748  30.033  1.00  0.00     0.031 C 
ATOM     56  C   UNL A   1      42.603  29.308  35.452  1.00  0.00     0.029 A 
ATOM     57  C   UNL A   1      42.480  28.927  34.126  1.00  0.00     0.049 A 
ATOM     58  H   UNL A   1      40.970  29.427  32.739  1.00  0.00     0.167 HD
ATOM     59  C   UNL A   1      43.157  27.741  32.050  1.00  0.00     0.074 A 
ATOM     60  C   UNL A   1      44.037  26.878  31.286  1.00  0.00     0.031 C 
ATOM     61  C   UNL A   1      43.359  28.081  33.349  1.00  0.00     0.034 A 
BRANCH  48  62
ATOM     62  C   UNL A   1      38.998  31.841  35.688  1.00  0.00     0.023 A 
ATOM     63  C   UNL A   1      38.376  31.253  36.804  1.00  0.00     0.031 A 
ATOM     64  C   UNL A   1      39.109  33.242  35.664  1.00  0.00     0.131 A 
ATOM     65  C   UNL A   1      37.807  32.063  37.798  1.00  0.00     0.055 A 
ATOM     66  C   UNL A   1      38.624  34.039  36.704  1.00  0.00     0.041 A 
ATOM     67  F   UNL A   1      39.674  33.867  34.618  1.00  0.00    -0.206 F 
ATOM     68  C   UNL A   1      37.950  33.452  37.770  1.00  0.00     0.022 A 
BRANCH  65  69
ATOM     69  S   UNL A   1      36.725  31.287  39.031  1.00  0.00     0.124 S 
ATOM     70  O   UNL A   1      37.600  31.233  40.200  1.00  0.00    -0.237 OA
ATOM     71  O   UNL A   1      35.612  32.226  39.109  1.00  0.00    -0.237 OA
ATOM     72  O   UNL A   1      36.408  29.989  38.440  1.00  0.00    -0.744 OA
ENDBRANCH  65  69
ENDBRANCH  48  62
BRANCH  49  73
ATOM     73  C   UNL A   1      42.068  26.849  27.546  1.00  0.00     0.023 A 
ATOM     74  C   UNL A   1      41.891  25.467  27.378  1.00  0.00     0.031 A 
ATOM     75  C   UNL A   1      42.737  27.557  26.532  1.00  0.00     0.131 A 
ATOM     76  C   UNL A   1      42.411  24.829  26.241  1.00  0.00     0.055 A 
ATOM     77  C   UNL A   1      43.205  26.926  25.377  1.00  0.00     0.041 A 
ATOM     78  F   UNL A   1      42.927  28.882  26.638  1.00  0.00    -0.206 F 
ATOM     79  C   UNL A   1      43.053  25.551  25.232  1.00  0.00     0.022 A 
BRANCH  76  80
ATOM     80  S   UNL A   1      42.298  23.022  26.131  1.00  0.00     0.124 S 
ATOM     81  O   UNL A   1      43.130  22.603  27.253  1.00  0.00    -0.237 OA
ATOM     82  O   UNL A   1      40.863  22.799  26.276  1.00  0.00    -0.237 OA
ATOM     83  O   UNL A   1      42.841  22.727  24.806  1.00  0.00    -0.744 OA
ENDBRANCH  76  80
ENDBRANCH  49  73
BRANCH  61  84
ATOM     84  C   UNL A   1      44.561  27.479  34.038  1.00  0.00     0.023 A 
ATOM     85  C   UNL A   1      44.482  26.271  34.752  1.00  0.00     0.031 A 
ATOM     86  C   UNL A   1      45.806  28.132  33.983  1.00  0.00     0.131 A 
ATOM     87  C   UNL A   1      45.610  25.784  35.430  1.00  0.00     0.055 A 
ATOM     88  C   UNL A   1      46.941  27.609  34.603  1.00  0.00     0.041 A 
ATOM     89  F   UNL A   1      45.941  29.292  33.319  1.00  0.00    -0.206 F 
ATOM     90  C   UNL A   1      46.844  26.435  35.343  1.00  0.00     0.022 A 
BRANCH  87  91
ATOM     91  S   UNL A   1      45.422  24.338  36.509  1.00  0.00     0.124 S 
ATOM     92  O   UNL A   1      44.587  24.868  37.583  1.00  0.00    -0.237 OA
ATOM     93  O   UNL A   1      44.783  23.369  35.625  1.00  0.00    -0.237 OA
ATOM     94  O   UNL A   1      46.795  24.015  36.893  1.00  0.00    -0.744 OA
ENDBRANCH  87  91
ENDBRANCH  61  84
ENDBRANCH  35  36
ENDBRANCH  27  30
ENDBRANCH  25  26
ENDBRANCH  24  25
ENDBRANCH  23  24
ENDBRANCH  22  23
ENDBRANCH   1  22
TORSDOF 21
ENDMDL
MODEL 3
REMARK VINA RESULT:     -10.2      2.222      8.547
REMARK SMILES CC[C@H](C)[NH2+]CCc1ccc(C(=O)NCCCCCCNC(=O)c2ccc(-c3c4nc(c(-c5cc(S(=O)(=O)[O-])ccc5F)c5ccc([nH]5)c(-c5cc(S(=O)(=O)[O-])ccc5F)c5nc(c(-c6cc(S(=O)(=O)[O-])ccc6F)c6ccc3[nH]6)C=C5)C=C4)cc2)cc1
REMARK SMILES IDX 16 1 15 2 14 3 12 4 13 5 11 7 8 8 9 9 88 10 10 11 87 12 7 13
REMARK SMILES IDX 6 14 5 15 3 18 4 19 2 20 1 21 17 22 18 23 19 24 20 25 21 26
REMARK SMILES IDX 22 27 23 29 24 30 25 31 86 32 26 33 85 34 27 35 28 36 29 37
REMARK SMILES IDX 79 38 30 39 84 40 78 41 80 42 31 43 83 44 77 45 76 46 32 48
REMARK SMILES IDX 64 49 44 50 63 51 45 52 48 53 62 54 81 55 46 56 47 57 61 59
REMARK SMILES IDX 82 60 49 61 33 62 34 63 42 64 35 65 41 66 43 67 40 68 36 69
REMARK SMILES IDX 37 70 38 71 39 72 65 73 66 74 74 75 67 76 73 77 75 78 72 79
REMARK SMILES IDX 68 80 69 81 70 82 71 83 50 84 51 85 59 86 52 87 58 88 60 89
REMARK SMILES IDX 57 90 53 91 54 92 55 93 56 94
REMARK H PARENT 14 6 5 16 5 17 21 28 80 47 48 58
REMARK Flexibility Score: inf
ROOT
ATOM      1  C   UNL A   1      33.784  27.311  22.915  1.00  0.00     0.021 C 
ENDROOT
BRANCH   1   2
ATOM      2  C   UNL A   1      32.787  26.590  21.999  1.00  0.00     0.116 C 
BRANCH   2   3
ATOM      3  N   UNL A   1      31.421  26.875  22.408  1.00  0.00    -0.352 N 
ATOM      4  C   UNL A   1      30.639  26.399  23.433  1.00  0.00     0.251 C 
ATOM      5  O   UNL A   1      29.508  26.869  23.562  1.00  0.00    -0.269 OA
ATOM      6  H   UNL A   1      30.968  27.540  21.840  1.00  0.00     0.163 HD
BRANCH   4   7
ATOM      7  C   UNL A   1      31.113  25.381  24.408  1.00  0.00     0.039 A 
ATOM      8  C   UNL A   1      32.155  23.521  26.288  1.00  0.00    -0.042 A 
ATOM      9  C   UNL A   1      32.176  24.899  26.550  1.00  0.00     0.005 A 
ATOM     10  C   UNL A   1      31.608  23.112  25.075  1.00  0.00     0.005 A 
ATOM     11  C   UNL A   1      31.672  25.819  25.616  1.00  0.00     0.014 A 
ATOM     12  C   UNL A   1      31.029  24.015  24.187  1.00  0.00     0.014 A 
BRANCH   8  13
ATOM     13  C   UNL A   1      32.797  22.562  27.265  1.00  0.00     0.097 C 
BRANCH  13  14
ATOM     14  C   UNL A   1      33.666  21.380  26.756  1.00  0.00     0.265 C 
BRANCH  14  15
ATOM     15  N   UNL A   1      35.115  21.449  26.675  1.00  0.00    -0.344 N 
ATOM     16  H   UNL A   1      35.425  21.941  27.514  1.00  0.00     0.346 HD
ATOM     17  H   UNL A   1      35.368  20.468  26.553  1.00  0.00     0.346 HD
BRANCH  15  18
ATOM     18  C   UNL A   1      35.800  22.083  25.553  1.00  0.00     0.178 C 
ATOM     19  C   UNL A   1      37.063  21.244  25.279  1.00  0.00     0.075 C 
BRANCH  18  20
ATOM     20  C   UNL A   1      35.013  22.234  24.238  1.00  0.00     0.061 C 
ATOM     21  C   UNL A   1      35.063  23.659  23.695  1.00  0.00     0.010 C 
ENDBRANCH  18  20
ENDBRANCH  15  18
ENDBRANCH  14  15
ENDBRANCH  13  14
ENDBRANCH   8  13
ENDBRANCH   4   7
ENDBRANCH   2   3
ENDBRANCH   1   2
BRANCH   1  22
ATOM     22  C   UNL A   1      33.355  28.741  23.259  1.00  0.00     0.002 C 
BRANCH  22  23
ATOM     23  C   UNL A   1      33.274  29.036  24.761  1.00  0.00     0.002 C 
BRANCH  23  24
ATOM     24  C   UNL A   1      31.959  29.669  25.221  1.00  0.00     0.021 C 
BRANCH  24  25
ATOM     25  C   UNL A   1      32.005  30.248  26.632  1.00  0.00     0.116 C 
BRANCH  25  26
ATOM     26  N   UNL A   1      31.986  31.704  26.608  1.00  0.00    -0.352 N 
ATOM     27  C   UNL A   1      32.778  32.589  27.290  1.00  0.00     0.251 C 
ATOM     28  H   UNL A   1      31.308  32.108  26.020  1.00  0.00     0.163 HD
ATOM     29  O   UNL A   1      32.446  33.774  27.362  1.00  0.00    -0.269 OA
BRANCH  27  30
ATOM     30  C   UNL A   1      34.015  32.118  27.942  1.00  0.00     0.039 A 
ATOM     31  C   UNL A   1      35.038  33.031  28.209  1.00  0.00     0.014 A 
ATOM     32  C   UNL A   1      34.168  30.771  28.283  1.00  0.00     0.014 A 
ATOM     33  C   UNL A   1      36.192  32.602  28.865  1.00  0.00     0.010 A 
ATOM     34  C   UNL A   1      35.284  30.362  29.005  1.00  0.00     0.010 A 
ATOM     35  C   UNL A   1      36.311  31.271  29.297  1.00  0.00    -0.014 A 
BRANCH  35  36
ATOM     36  C   UNL A   1      37.507  30.809  30.048  1.00  0.00     0.031 A 
ATOM     37  C   UNL A   1      38.479  29.855  29.406  1.00  0.00     0.074 A 
ATOM     38  C   UNL A   1      37.683  31.199  31.325  1.00  0.00     0.049 A 
ATOM     39  N   UNL A   1      39.538  29.283  29.917  1.00  0.00    -0.248 NA
ATOM     40  C   UNL A   1      38.199  29.472  28.015  1.00  0.00     0.031 C 
ATOM     41  C   UNL A   1      36.786  32.088  32.067  1.00  0.00     0.029 A 
ATOM     42  N   UNL A   1      38.669  30.894  32.230  1.00  0.00    -0.354 N 
ATOM     43  C   UNL A   1      40.044  28.462  28.915  1.00  0.00     0.074 A 
ATOM     44  C   UNL A   1      39.133  28.561  27.794  1.00  0.00     0.031 C 
ATOM     45  C   UNL A   1      37.276  32.275  33.302  1.00  0.00     0.029 A 
ATOM     46  C   UNL A   1      38.491  31.484  33.460  1.00  0.00     0.049 A 
ATOM     47  H   UNL A   1      39.430  30.306  32.018  1.00  0.00     0.167 HD
ATOM     48  C   UNL A   1      41.177  27.715  28.921  1.00  0.00     0.034 A 
ATOM     49  C   UNL A   1      39.217  31.387  34.591  1.00  0.00     0.034 A 
ATOM     50  C   UNL A   1      42.074  27.634  30.050  1.00  0.00     0.049 A 
ATOM     51  C   UNL A   1      40.456  30.527  34.588  1.00  0.00     0.074 A 
ATOM     52  C   UNL A   1      43.275  26.955  30.149  1.00  0.00     0.029 A 
ATOM     53  N   UNL A   1      41.860  28.242  31.281  1.00  0.00    -0.354 N 
ATOM     54  N   UNL A   1      40.954  29.799  33.615  1.00  0.00    -0.248 NA
ATOM     55  C   UNL A   1      41.235  30.488  35.831  1.00  0.00     0.031 C 
ATOM     56  C   UNL A   1      43.747  27.087  31.461  1.00  0.00     0.029 A 
ATOM     57  C   UNL A   1      42.888  27.923  32.157  1.00  0.00     0.049 A 
ATOM     58  H   UNL A   1      41.092  28.817  31.501  1.00  0.00     0.167 HD
ATOM     59  C   UNL A   1      42.122  29.238  34.121  1.00  0.00     0.074 A 
ATOM     60  C   UNL A   1      42.260  29.725  35.480  1.00  0.00     0.031 C 
ATOM     61  C   UNL A   1      43.005  28.402  33.516  1.00  0.00     0.034 A 
BRANCH  48  62
ATOM     62  C   UNL A   1      41.483  26.909  27.678  1.00  0.00     0.023 A 
ATOM     63  C   UNL A   1      41.242  25.524  27.617  1.00  0.00     0.031 A 
ATOM     64  C   UNL A   1      42.064  27.522  26.555  1.00  0.00     0.131 A 
ATOM     65  C   UNL A   1      41.667  24.786  26.502  1.00  0.00     0.055 A 
ATOM     66  C   UNL A   1      42.398  26.796  25.408  1.00  0.00     0.041 A 
ATOM     67  F   UNL A   1      42.339  28.836  26.556  1.00  0.00    -0.206 F 
ATOM     68  C   UNL A   1      42.219  25.416  25.386  1.00  0.00     0.022 A 
BRANCH  65  69
ATOM     69  S   UNL A   1      41.652  22.975  26.608  1.00  0.00     0.124 S 
ATOM     70  O   UNL A   1      41.895  22.761  28.033  1.00  0.00    -0.237 OA
ATOM     71  O   UNL A   1      40.314  22.643  26.132  1.00  0.00    -0.237 OA
ATOM     72  O   UNL A   1      42.747  22.570  25.730  1.00  0.00    -0.744 OA
ENDBRANCH  65  69
ENDBRANCH  48  62
BRANCH  49  73
ATOM     73  C   UNL A   1      38.789  32.114  35.820  1.00  0.00     0.023 A 
ATOM     74  C   UNL A   1      38.145  31.444  36.872  1.00  0.00     0.031 A 
ATOM     75  C   UNL A   1      39.003  33.498  35.952  1.00  0.00     0.131 A 
ATOM     76  C   UNL A   1      37.703  32.163  37.992  1.00  0.00     0.055 A 
ATOM     77  C   UNL A   1      38.608  34.199  37.093  1.00  0.00     0.041 A 
ATOM     78  F   UNL A   1      39.620  34.187  34.979  1.00  0.00    -0.206 F 
ATOM     79  C   UNL A   1      37.943  33.534  38.117  1.00  0.00     0.022 A 
BRANCH  76  80
ATOM     80  S   UNL A   1      36.741  31.293  39.260  1.00  0.00     0.124 S 
ATOM     81  O   UNL A   1      37.673  31.277  40.381  1.00  0.00    -0.237 OA
ATOM     82  O   UNL A   1      35.576  32.161  39.404  1.00  0.00    -0.237 OA
ATOM     83  O   UNL A   1      36.472  29.992  38.650  1.00  0.00    -0.744 OA
ENDBRANCH  76  80
ENDBRANCH  49  73
BRANCH  61  84
ATOM     84  C   UNL A   1      44.224  27.997  34.311  1.00  0.00     0.023 A 
ATOM     85  C   UNL A   1      45.411  28.750  34.289  1.00  0.00     0.031 A 
ATOM     86  C   UNL A   1      44.197  26.832  35.099  1.00  0.00     0.131 A 
ATOM     87  C   UNL A   1      46.538  28.299  34.993  1.00  0.00     0.055 A 
ATOM     88  C   UNL A   1      45.300  26.425  35.850  1.00  0.00     0.041 A 
ATOM     89  F   UNL A   1      43.092  26.070  35.155  1.00  0.00    -0.206 F 
ATOM     90  C   UNL A   1      46.484  27.153  35.789  1.00  0.00     0.022 A 
BRANCH  87  91
ATOM     91  S   UNL A   1      48.110  29.180  34.777  1.00  0.00     0.124 S 
ATOM     92  O   UNL A   1      49.072  28.082  34.759  1.00  0.00    -0.237 OA
ATOM     93  O   UNL A   1      47.909  29.871  33.508  1.00  0.00    -0.237 OA
ATOM     94  O   UNL A   1      48.181  30.048  35.951  1.00  0.00    -0.744 OA
ENDBRANCH  87  91
ENDBRANCH  61  84
ENDBRANCH  35  36
ENDBRANCH  27  30
ENDBRANCH  25  26
ENDBRANCH  24  25
ENDBRANCH  23  24
ENDBRANCH  22  23
ENDBRANCH   1  22
TORSDOF 21
ENDMDL
