MODEL 1
REMARK VINA RESULT:     -12.3      0.000      0.000
REMARK SMILES Cc1cc([C@H]([NH3+])C(=O)NCCCCCCNC(=O)c2ccc(-c3c4nc(c(-c5cc(S(=O)(=O)[O-])ccc5F)c5ccc([nH]5)c(-c5cc(S(=O)(=O)[O-])ccc5F)c5nc(c(-c6cc(S(=O)(=O)[O-])ccc6F)c6ccc3[nH]6)C=C5)C=C4)cc2)ccc1F
REMARK SMILES IDX 13 1 12 2 11 3 10 4 9 5 7 6 8 7 5 9 4 10 1 11 2 12 3 13
REMARK SMILES IDX 84 14 83 15 85 16 82 17 6 18 14 22 15 23 16 24 17 25 18 27
REMARK SMILES IDX 19 28 20 29 81 30 21 31 80 32 22 33 23 34 24 35 74 36 25 37
REMARK SMILES IDX 79 38 73 39 75 40 26 41 78 42 72 43 71 44 27 46 59 47 39 48
REMARK SMILES IDX 58 49 40 50 43 51 57 52 76 53 41 54 42 55 56 57 77 58 44 59
REMARK SMILES IDX 28 60 29 61 37 62 30 63 36 64 38 65 35 66 31 67 32 68 33 69
REMARK SMILES IDX 34 70 60 71 61 72 69 73 62 74 68 75 70 76 67 77 63 78 64 79
REMARK SMILES IDX 65 80 66 81 45 82 46 83 54 84 47 85 53 86 55 87 52 88 48 89
REMARK SMILES IDX 49 90 50 91 51 92
REMARK H PARENT 9 8 6 19 6 20 6 21 16 26 75 45 43 56
REMARK Flexibility Score: inf
ROOT
ATOM      1  C   UNL A   1      32.444  29.775  26.567  1.00  0.00     0.002 C 
ENDROOT
BRANCH   1   2
ATOM      2  C   UNL A   1      31.718  28.981  25.468  1.00  0.00     0.002 C 
BRANCH   2   3
ATOM      3  C   UNL A   1      32.371  28.999  24.089  1.00  0.00     0.021 C 
BRANCH   3   4
ATOM      4  C   UNL A   1      31.583  28.294  23.002  1.00  0.00     0.116 C 
BRANCH   4   5
ATOM      5  N   UNL A   1      32.395  27.683  21.979  1.00  0.00    -0.351 N 
ATOM      6  C   UNL A   1      32.691  26.354  21.839  1.00  0.00     0.283 C 
ATOM      7  O   UNL A   1      33.263  26.005  20.798  1.00  0.00    -0.268 OA
ATOM      8  H   UNL A   1      32.779  28.290  21.305  1.00  0.00     0.163 HD
BRANCH   6   9
ATOM      9  C   UNL A   1      32.307  25.305  22.924  1.00  0.00     0.302 C 
BRANCH   9  10
ATOM     10  C   UNL A   1      33.498  24.821  23.740  1.00  0.00     0.019 A 
ATOM     11  C   UNL A   1      36.632  22.661  23.383  1.00  0.00     0.047 C 
ATOM     12  C   UNL A   1      35.584  23.553  23.977  1.00  0.00    -0.015 A 
ATOM     13  C   UNL A   1      34.432  23.887  23.252  1.00  0.00     0.017 A 
ATOM     14  C   UNL A   1      35.732  24.067  25.261  1.00  0.00     0.126 A 
ATOM     15  C   UNL A   1      34.794  24.942  25.796  1.00  0.00     0.040 A 
ATOM     16  F   UNL A   1      36.796  23.728  26.001  1.00  0.00    -0.207 F 
ATOM     17  C   UNL A   1      33.696  25.339  25.030  1.00  0.00     0.013 A 
ENDBRANCH   9  10
BRANCH   9  18
ATOM     18  N   UNL A   1      31.486  24.208  22.379  1.00  0.00    -0.343 N 
ATOM     19  H   UNL A   1      30.766  23.954  23.054  1.00  0.00     0.345 HD
ATOM     20  H   UNL A   1      32.080  23.399  22.193  1.00  0.00     0.345 HD
ATOM     21  H   UNL A   1      31.046  24.512  21.510  1.00  0.00     0.345 HD
ENDBRANCH   9  18
ENDBRANCH   6   9
ENDBRANCH   4   5
ENDBRANCH   3   4
ENDBRANCH   2   3
ENDBRANCH   1   2
BRANCH   1  22
ATOM     22  C   UNL A   1      33.448  28.995  27.424  1.00  0.00     0.021 C 
BRANCH  22  23
ATOM     23  C   UNL A   1      34.858  29.105  26.907  1.00  0.00     0.116 C 
BRANCH  23  24
ATOM     24  N   UNL A   1      35.378  30.443  27.136  1.00  0.00    -0.352 N 
ATOM     25  C   UNL A   1      36.450  30.770  27.918  1.00  0.00     0.251 C 
ATOM     26  H   UNL A   1      34.912  31.185  26.684  1.00  0.00     0.163 HD
ATOM     27  O   UNL A   1      36.597  31.931  28.310  1.00  0.00    -0.269 OA
BRANCH  25  28
ATOM     28  C   UNL A   1      37.435  29.713  28.157  1.00  0.00     0.039 A 
ATOM     29  C   UNL A   1      37.361  28.818  29.222  1.00  0.00     0.014 A 
ATOM     30  C   UNL A   1      38.492  29.671  27.246  1.00  0.00     0.014 A 
ATOM     31  C   UNL A   1      38.410  27.924  29.411  1.00  0.00     0.010 A 
ATOM     32  C   UNL A   1      39.382  28.651  27.294  1.00  0.00     0.010 A 
ATOM     33  C   UNL A   1      39.428  27.887  28.454  1.00  0.00    -0.014 A 
BRANCH  33  34
ATOM     34  C   UNL A   1      40.681  27.172  28.586  1.00  0.00     0.031 A 
ATOM     35  C   UNL A   1      40.675  25.713  28.448  1.00  0.00     0.074 A 
ATOM     36  C   UNL A   1      41.789  27.952  28.681  1.00  0.00     0.049 A 
ATOM     37  N   UNL A   1      41.545  24.938  28.981  1.00  0.00    -0.248 NA
ATOM     38  C   UNL A   1      39.639  24.997  27.703  1.00  0.00     0.031 C 
ATOM     39  C   UNL A   1      43.192  27.615  28.539  1.00  0.00     0.029 A 
ATOM     40  N   UNL A   1      41.843  29.317  29.018  1.00  0.00    -0.354 N 
ATOM     41  C   UNL A   1      41.410  23.713  28.360  1.00  0.00     0.074 A 
ATOM     42  C   UNL A   1      40.117  23.747  27.720  1.00  0.00     0.031 C 
ATOM     43  C   UNL A   1      43.929  28.594  29.109  1.00  0.00     0.029 A 
ATOM     44  C   UNL A   1      42.995  29.489  29.782  1.00  0.00     0.049 A 
ATOM     45  H   UNL A   1      41.195  30.014  28.765  1.00  0.00     0.167 HD
ATOM     46  C   UNL A   1      42.512  22.914  28.265  1.00  0.00     0.034 A 
ATOM     47  C   UNL A   1      42.935  29.724  31.132  1.00  0.00     0.034 A 
ATOM     48  C   UNL A   1      43.644  23.559  28.946  1.00  0.00     0.049 A 
ATOM     49  C   UNL A   1      43.590  28.587  31.894  1.00  0.00     0.074 A 
ATOM     50  C   UNL A   1      44.672  24.355  28.464  1.00  0.00     0.029 A 
ATOM     51  N   UNL A   1      43.585  23.793  30.319  1.00  0.00    -0.354 N 
ATOM     52  N   UNL A   1      43.680  27.371  31.426  1.00  0.00    -0.248 NA
ATOM     53  C   UNL A   1      44.211  28.728  33.205  1.00  0.00     0.031 C 
ATOM     54  C   UNL A   1      45.170  25.134  29.544  1.00  0.00     0.029 A 
ATOM     55  C   UNL A   1      44.461  24.805  30.689  1.00  0.00     0.049 A 
ATOM     56  H   UNL A   1      43.001  23.304  30.943  1.00  0.00     0.167 HD
ATOM     57  C   UNL A   1      44.348  26.578  32.315  1.00  0.00     0.074 A 
ATOM     58  C   UNL A   1      44.678  27.483  33.404  1.00  0.00     0.031 C 
ATOM     59  C   UNL A   1      44.564  25.247  32.082  1.00  0.00     0.034 A 
BRANCH  46  60
ATOM     60  C   UNL A   1      42.644  21.768  27.273  1.00  0.00     0.023 A 
ATOM     61  C   UNL A   1      43.637  21.684  26.271  1.00  0.00     0.031 A 
ATOM     62  C   UNL A   1      41.769  20.661  27.341  1.00  0.00     0.131 A 
ATOM     63  C   UNL A   1      43.788  20.533  25.469  1.00  0.00     0.055 A 
ATOM     64  C   UNL A   1      41.892  19.535  26.515  1.00  0.00     0.041 A 
ATOM     65  F   UNL A   1      40.776  20.601  28.238  1.00  0.00    -0.206 F 
ATOM     66  C   UNL A   1      42.915  19.456  25.585  1.00  0.00     0.022 A 
BRANCH  63  67
ATOM     67  S   UNL A   1      45.169  20.364  24.296  1.00  0.00     0.124 S 
ATOM     68  O   UNL A   1      46.317  20.778  25.102  1.00  0.00    -0.237 OA
ATOM     69  O   UNL A   1      45.125  18.944  23.962  1.00  0.00    -0.237 OA
ATOM     70  O   UNL A   1      44.822  21.279  23.212  1.00  0.00    -0.744 OA
ENDBRANCH  63  67
ENDBRANCH  46  60
BRANCH  47  71
ATOM     71  C   UNL A   1      41.680  30.425  31.574  1.00  0.00     0.023 A 
ATOM     72  C   UNL A   1      40.673  29.751  32.285  1.00  0.00     0.031 A 
ATOM     73  C   UNL A   1      41.326  31.625  30.915  1.00  0.00     0.131 A 
ATOM     74  C   UNL A   1      39.338  30.189  32.182  1.00  0.00     0.055 A 
ATOM     75  C   UNL A   1      39.993  32.015  30.762  1.00  0.00     0.041 A 
ATOM     76  F   UNL A   1      42.261  32.341  30.267  1.00  0.00    -0.206 F 
ATOM     77  C   UNL A   1      38.986  31.268  31.364  1.00  0.00     0.022 A 
BRANCH  74  78
ATOM     78  S   UNL A   1      38.024  29.271  33.045  1.00  0.00     0.124 S 
ATOM     79  O   UNL A   1      38.093  29.858  34.380  1.00  0.00    -0.237 OA
ATOM     80  O   UNL A   1      36.819  29.597  32.290  1.00  0.00    -0.237 OA
ATOM     81  O   UNL A   1      38.464  27.886  32.929  1.00  0.00    -0.744 OA
ENDBRANCH  74  78
ENDBRANCH  47  71
BRANCH  59  82
ATOM     82  C   UNL A   1      44.984  24.235  33.125  1.00  0.00     0.023 A 
ATOM     83  C   UNL A   1      46.303  24.308  33.638  1.00  0.00     0.031 A 
ATOM     84  C   UNL A   1      44.234  23.117  33.523  1.00  0.00     0.131 A 
ATOM     85  C   UNL A   1      46.820  23.311  34.468  1.00  0.00     0.055 A 
ATOM     86  C   UNL A   1      44.716  22.180  34.442  1.00  0.00     0.041 A 
ATOM     87  F   UNL A   1      43.038  22.835  32.992  1.00  0.00    -0.206 F 
ATOM     88  C   UNL A   1      46.019  22.264  34.908  1.00  0.00     0.022 A 
BRANCH  85  89
ATOM     89  S   UNL A   1      48.593  23.257  34.850  1.00  0.00     0.124 S 
ATOM     90  O   UNL A   1      48.650  24.012  36.098  1.00  0.00    -0.237 OA
ATOM     91  O   UNL A   1      48.834  21.821  34.976  1.00  0.00    -0.237 OA
ATOM     92  O   UNL A   1      49.218  23.890  33.696  1.00  0.00    -0.744 OA
ENDBRANCH  85  89
ENDBRANCH  59  82
ENDBRANCH  33  34
ENDBRANCH  25  28
ENDBRANCH  23  24
ENDBRANCH  22  23
ENDBRANCH   1  22
TORSDOF 18
ENDMDL
MODEL 2
REMARK VINA RESULT:     -12.1      4.550     10.070
REMARK SMILES Cc1cc([C@H]([NH3+])C(=O)NCCCCCCNC(=O)c2ccc(-c3c4nc(c(-c5cc(S(=O)(=O)[O-])ccc5F)c5ccc([nH]5)c(-c5cc(S(=O)(=O)[O-])ccc5F)c5nc(c(-c6cc(S(=O)(=O)[O-])ccc6F)c6ccc3[nH]6)C=C5)C=C4)cc2)ccc1F
REMARK SMILES IDX 13 1 12 2 11 3 10 4 9 5 7 6 8 7 5 9 4 10 1 11 2 12 3 13
REMARK SMILES IDX 84 14 83 15 85 16 82 17 6 18 14 22 15 23 16 24 17 25 18 27
REMARK SMILES IDX 19 28 20 29 81 30 21 31 80 32 22 33 23 34 24 35 74 36 25 37
REMARK SMILES IDX 79 38 73 39 75 40 26 41 78 42 72 43 71 44 27 46 59 47 39 48
REMARK SMILES IDX 58 49 40 50 43 51 57 52 76 53 41 54 42 55 56 57 77 58 44 59
REMARK SMILES IDX 28 60 29 61 37 62 30 63 36 64 38 65 35 66 31 67 32 68 33 69
REMARK SMILES IDX 34 70 60 71 61 72 69 73 62 74 68 75 70 76 67 77 63 78 64 79
REMARK SMILES IDX 65 80 66 81 45 82 46 83 54 84 47 85 53 86 55 87 52 88 48 89
REMARK SMILES IDX 49 90 50 91 51 92
REMARK H PARENT 9 8 6 19 6 20 6 21 16 26 75 45 43 56
REMARK Flexibility Score: inf
ROOT
ATOM      1  C   UNL A   1      36.753  21.680  24.745  1.00  0.00     0.002 C 
ENDROOT
BRANCH   1   2
ATOM      2  C   UNL A   1      35.529  21.120  25.487  1.00  0.00     0.002 C 
BRANCH   2   3
ATOM      3  C   UNL A   1      34.338  20.734  24.615  1.00  0.00     0.021 C 
BRANCH   3   4
ATOM      4  C   UNL A   1      33.043  20.507  25.369  1.00  0.00     0.116 C 
BRANCH   4   5
ATOM      5  N   UNL A   1      32.967  21.184  26.640  1.00  0.00    -0.351 N 
ATOM      6  C   UNL A   1      32.350  22.376  26.909  1.00  0.00     0.283 C 
ATOM      7  O   UNL A   1      32.248  22.709  28.097  1.00  0.00    -0.268 OA
ATOM      8  H   UNL A   1      33.408  20.739  27.400  1.00  0.00     0.163 HD
BRANCH   6   9
ATOM      9  C   UNL A   1      31.771  23.278  25.779  1.00  0.00     0.302 C 
BRANCH   9  10
ATOM     10  C   UNL A   1      32.356  24.684  25.773  1.00  0.00     0.019 A 
ATOM     11  C   UNL A   1      31.761  28.129  27.319  1.00  0.00     0.047 C 
ATOM     12  C   UNL A   1      32.365  27.024  26.506  1.00  0.00    -0.015 A 
ATOM     13  C   UNL A   1      31.744  25.771  26.426  1.00  0.00     0.017 A 
ATOM     14  C   UNL A   1      33.557  27.219  25.815  1.00  0.00     0.126 A 
ATOM     15  C   UNL A   1      34.154  26.181  25.108  1.00  0.00     0.040 A 
ATOM     16  F   UNL A   1      34.152  28.420  25.830  1.00  0.00    -0.207 F 
ATOM     17  C   UNL A   1      33.572  24.913  25.109  1.00  0.00     0.013 A 
ENDBRANCH   9  10
BRANCH   9  18
ATOM     18  N   UNL A   1      30.297  23.257  25.745  1.00  0.00    -0.343 N 
ATOM     19  H   UNL A   1      29.935  23.164  26.694  1.00  0.00     0.345 HD
ATOM     20  H   UNL A   1      29.982  22.466  25.181  1.00  0.00     0.345 HD
ATOM     21  H   UNL A   1      29.954  24.125  25.334  1.00  0.00     0.345 HD
ENDBRANCH   9  18
ENDBRANCH   6   9
ENDBRANCH   4   5
ENDBRANCH   3   4
ENDBRANCH   2   3
ENDBRANCH   1   2
BRANCH   1  22
ATOM     22  C   UNL A   1      36.874  23.208  24.680  1.00  0.00     0.021 C 
BRANCH  22  23
ATOM     23  C   UNL A   1      37.408  23.801  25.957  1.00  0.00     0.116 C 
BRANCH  23  24
ATOM     24  N   UNL A   1      38.563  23.049  26.419  1.00  0.00    -0.352 N 
ATOM     25  C   UNL A   1      39.744  23.576  26.864  1.00  0.00     0.251 C 
ATOM     26  H   UNL A   1      38.488  22.067  26.410  1.00  0.00     0.163 HD
ATOM     27  O   UNL A   1      40.757  22.872  26.908  1.00  0.00    -0.269 OA
BRANCH  25  28
ATOM     28  C   UNL A   1      39.701  24.950  27.370  1.00  0.00     0.039 A 
ATOM     29  C   UNL A   1      40.145  26.052  26.643  1.00  0.00     0.014 A 
ATOM     30  C   UNL A   1      39.199  25.089  28.665  1.00  0.00     0.014 A 
ATOM     31  C   UNL A   1      40.156  27.296  27.266  1.00  0.00     0.010 A 
ATOM     32  C   UNL A   1      38.988  26.326  29.176  1.00  0.00     0.010 A 
ATOM     33  C   UNL A   1      39.608  27.399  28.548  1.00  0.00    -0.014 A 
BRANCH  33  34
ATOM     34  C   UNL A   1      39.709  28.554  29.416  1.00  0.00     0.031 A 
ATOM     35  C   UNL A   1      38.794  29.678  29.200  1.00  0.00     0.074 A 
ATOM     36  C   UNL A   1      40.563  28.420  30.464  1.00  0.00     0.049 A 
ATOM     37  N   UNL A   1      39.051  30.888  29.536  1.00  0.00    -0.248 NA
ATOM     38  C   UNL A   1      37.497  29.522  28.542  1.00  0.00     0.031 C 
ATOM     39  C   UNL A   1      40.710  29.219  31.666  1.00  0.00     0.029 A 
ATOM     40  N   UNL A   1      41.595  27.474  30.607  1.00  0.00    -0.354 N 
ATOM     41  C   UNL A   1      37.853  31.570  29.489  1.00  0.00     0.074 A 
ATOM     42  C   UNL A   1      36.970  30.741  28.703  1.00  0.00     0.031 C 
ATOM     43  C   UNL A   1      41.924  28.964  32.203  1.00  0.00     0.029 A 
ATOM     44  C   UNL A   1      42.643  28.128  31.250  1.00  0.00     0.049 A 
ATOM     45  H   UNL A   1      41.580  26.535  30.309  1.00  0.00     0.167 HD
ATOM     46  C   UNL A   1      37.686  32.636  30.323  1.00  0.00     0.034 A 
ATOM     47  C   UNL A   1      43.795  28.468  30.589  1.00  0.00     0.034 A 
ATOM     48  C   UNL A   1      38.925  32.864  31.080  1.00  0.00     0.049 A 
ATOM     49  C   UNL A   1      43.960  29.976  30.561  1.00  0.00     0.074 A 
ATOM     50  C   UNL A   1      39.317  32.447  32.343  1.00  0.00     0.029 A 
ATOM     51  N   UNL A   1      40.094  33.215  30.408  1.00  0.00    -0.354 N 
ATOM     52  N   UNL A   1      42.956  30.807  30.633  1.00  0.00    -0.248 NA
ATOM     53  C   UNL A   1      45.246  30.659  30.481  1.00  0.00     0.031 C 
ATOM     54  C   UNL A   1      40.738  32.467  32.392  1.00  0.00     0.029 A 
ATOM     55  C   UNL A   1      41.215  32.910  31.169  1.00  0.00     0.049 A 
ATOM     56  H   UNL A   1      40.121  33.626  29.513  1.00  0.00     0.167 HD
ATOM     57  C   UNL A   1      43.414  32.093  30.620  1.00  0.00     0.074 A 
ATOM     58  C   UNL A   1      44.858  31.945  30.546  1.00  0.00     0.031 C 
ATOM     59  C   UNL A   1      42.567  33.167  30.664  1.00  0.00     0.034 A 
BRANCH  46  60
ATOM     60  C   UNL A   1      36.328  33.212  30.698  1.00  0.00     0.023 A 
ATOM     61  C   UNL A   1      35.601  34.133  29.910  1.00  0.00     0.031 A 
ATOM     62  C   UNL A   1      35.681  32.798  31.883  1.00  0.00     0.131 A 
ATOM     63  C   UNL A   1      34.289  34.527  30.248  1.00  0.00     0.055 A 
ATOM     64  C   UNL A   1      34.394  33.223  32.242  1.00  0.00     0.041 A 
ATOM     65  F   UNL A   1      36.249  31.931  32.733  1.00  0.00    -0.206 F 
ATOM     66  C   UNL A   1      33.682  34.077  31.417  1.00  0.00     0.022 A 
BRANCH  63  67
ATOM     67  S   UNL A   1      33.297  35.581  29.146  1.00  0.00     0.124 S 
ATOM     68  O   UNL A   1      32.530  34.599  28.380  1.00  0.00    -0.237 OA
ATOM     69  O   UNL A   1      32.518  36.378  30.089  1.00  0.00    -0.237 OA
ATOM     70  O   UNL A   1      34.295  36.316  28.372  1.00  0.00    -0.744 OA
ENDBRANCH  63  67
ENDBRANCH  46  60
BRANCH  47  71
ATOM     71  C   UNL A   1      44.127  27.559  29.436  1.00  0.00     0.023 A 
ATOM     72  C   UNL A   1      43.999  27.985  28.105  1.00  0.00     0.031 A 
ATOM     73  C   UNL A   1      44.155  26.167  29.680  1.00  0.00     0.131 A 
ATOM     74  C   UNL A   1      43.739  27.038  27.094  1.00  0.00     0.055 A 
ATOM     75  C   UNL A   1      43.832  25.239  28.687  1.00  0.00     0.041 A 
ATOM     76  F   UNL A   1      44.334  25.703  30.929  1.00  0.00    -0.206 F 
ATOM     77  C   UNL A   1      43.579  25.680  27.393  1.00  0.00     0.022 A 
BRANCH  74  78
ATOM     78  S   UNL A   1      43.500  27.598  25.379  1.00  0.00     0.124 S 
ATOM     79  O   UNL A   1      44.877  27.849  24.965  1.00  0.00    -0.237 OA
ATOM     80  O   UNL A   1      42.857  26.462  24.728  1.00  0.00    -0.237 OA
ATOM     81  O   UNL A   1      42.652  28.774  25.536  1.00  0.00    -0.744 OA
ENDBRANCH  74  78
ENDBRANCH  47  71
BRANCH  59  82
ATOM     82  C   UNL A   1      42.944  34.591  30.323  1.00  0.00     0.023 A 
ATOM     83  C   UNL A   1      42.873  34.999  28.968  1.00  0.00     0.031 A 
ATOM     84  C   UNL A   1      43.519  35.516  31.210  1.00  0.00     0.131 A 
ATOM     85  C   UNL A   1      43.368  36.236  28.549  1.00  0.00     0.055 A 
ATOM     86  C   UNL A   1      43.910  36.797  30.808  1.00  0.00     0.041 A 
ATOM     87  F   UNL A   1      43.796  35.206  32.483  1.00  0.00    -0.206 F 
ATOM     88  C   UNL A   1      43.851  37.158  29.471  1.00  0.00     0.022 A 
BRANCH  85  89
ATOM     89  S   UNL A   1      43.559  36.604  26.783  1.00  0.00     0.124 S 
ATOM     90  O   UNL A   1      42.737  35.562  26.174  1.00  0.00    -0.237 OA
ATOM     91  O   UNL A   1      43.020  37.959  26.694  1.00  0.00    -0.237 OA
ATOM     92  O   UNL A   1      44.994  36.494  26.557  1.00  0.00    -0.744 OA
ENDBRANCH  85  89
ENDBRANCH  59  82
ENDBRANCH  33  34
ENDBRANCH  25  28
ENDBRANCH  23  24
ENDBRANCH  22  23
ENDBRANCH   1  22
TORSDOF 18
ENDMDL
MODEL 3
REMARK VINA RESULT:     -12.0      1.376      1.659
REMARK SMILES Cc1cc([C@H]([NH3+])C(=O)NCCCCCCNC(=O)c2ccc(-c3c4nc(c(-c5cc(S(=O)(=O)[O-])ccc5F)c5ccc([nH]5)c(-c5cc(S(=O)(=O)[O-])ccc5F)c5nc(c(-c6cc(S(=O)(=O)[O-])ccc6F)c6ccc3[nH]6)C=C5)C=C4)cc2)ccc1F
REMARK SMILES IDX 13 1 12 2 11 3 10 4 9 5 7 6 8 7 5 9 4 10 1 11 2 12 3 13
REMARK SMILES IDX 84 14 83 15 85 16 82 17 6 18 14 22 15 23 16 24 17 25 18 27
REMARK SMILES IDX 19 28 20 29 81 30 21 31 80 32 22 33 23 34 24 35 74 36 25 37
REMARK SMILES IDX 79 38 73 39 75 40 26 41 78 42 72 43 71 44 27 46 59 47 39 48
REMARK SMILES IDX 58 49 40 50 43 51 57 52 76 53 41 54 42 55 56 57 77 58 44 59
REMARK SMILES IDX 28 60 29 61 37 62 30 63 36 64 38 65 35 66 31 67 32 68 33 69
REMARK SMILES IDX 34 70 60 71 61 72 69 73 62 74 68 75 70 76 67 77 63 78 64 79
REMARK SMILES IDX 65 80 66 81 45 82 46 83 54 84 47 85 53 86 55 87 52 88 48 89
REMARK SMILES IDX 49 90 50 91 51 92
REMARK H PARENT 9 8 6 19 6 20 6 21 16 26 75 45 43 56
REMARK Flexibility Score: inf
ROOT
ATOM      1  C   UNL A   1      32.467  29.149  27.354  1.00  0.00     0.002 C 
ENDROOT
BRANCH   1   2
ATOM      2  C   UNL A   1      31.447  28.010  27.196  1.00  0.00     0.002 C 
BRANCH   2   3
ATOM      3  C   UNL A   1      31.216  27.514  25.772  1.00  0.00     0.021 C 
BRANCH   3   4
ATOM      4  C   UNL A   1      31.411  26.023  25.577  1.00  0.00     0.116 C 
BRANCH   4   5
ATOM      5  N   UNL A   1      30.619  25.198  26.455  1.00  0.00    -0.351 N 
ATOM      6  C   UNL A   1      30.551  23.831  26.472  1.00  0.00     0.283 C 
ATOM      7  O   UNL A   1      29.944  23.303  27.413  1.00  0.00    -0.268 OA
ATOM      8  H   UNL A   1      30.064  25.672  27.118  1.00  0.00     0.163 HD
BRANCH   6   9
ATOM      9  C   UNL A   1      31.226  22.959  25.373  1.00  0.00     0.302 C 
BRANCH   9  10
ATOM     10  C   UNL A   1      32.740  22.882  25.511  1.00  0.00     0.019 A 
ATOM     11  C   UNL A   1      35.909  23.131  23.388  1.00  0.00     0.047 C 
ATOM     12  C   UNL A   1      35.003  22.963  24.570  1.00  0.00    -0.015 A 
ATOM     13  C   UNL A   1      33.613  22.912  24.407  1.00  0.00     0.017 A 
ATOM     14  C   UNL A   1      35.524  22.854  25.856  1.00  0.00     0.126 A 
ATOM     15  C   UNL A   1      34.688  22.758  26.963  1.00  0.00     0.040 A 
ATOM     16  F   UNL A   1      36.851  22.848  26.044  1.00  0.00    -0.207 F 
ATOM     17  C   UNL A   1      33.304  22.799  26.794  1.00  0.00     0.013 A 
ENDBRANCH   9  10
BRANCH   9  18
ATOM     18  N   UNL A   1      30.779  23.324  24.015  1.00  0.00    -0.343 N 
ATOM     19  H   UNL A   1      30.537  24.314  23.991  1.00  0.00     0.345 HD
ATOM     20  H   UNL A   1      29.962  22.767  23.765  1.00  0.00     0.345 HD
ATOM     21  H   UNL A   1      31.531  23.142  23.350  1.00  0.00     0.345 HD
ENDBRANCH   9  18
ENDBRANCH   6   9
ENDBRANCH   4   5
ENDBRANCH   3   4
ENDBRANCH   2   3
ENDBRANCH   1   2
BRANCH   1  22
ATOM     22  C   UNL A   1      33.594  29.208  26.316  1.00  0.00     0.021 C 
BRANCH  22  23
ATOM     23  C   UNL A   1      34.962  29.118  26.941  1.00  0.00     0.116 C 
BRANCH  23  24
ATOM     24  N   UNL A   1      35.503  30.448  27.166  1.00  0.00    -0.352 N 
ATOM     25  C   UNL A   1      36.583  30.758  27.945  1.00  0.00     0.251 C 
ATOM     26  H   UNL A   1      35.048  31.196  26.715  1.00  0.00     0.163 HD
ATOM     27  O   UNL A   1      36.750  31.917  28.336  1.00  0.00    -0.269 OA
BRANCH  25  28
ATOM     28  C   UNL A   1      37.552  29.686  28.182  1.00  0.00     0.039 A 
ATOM     29  C   UNL A   1      37.450  28.775  29.231  1.00  0.00     0.014 A 
ATOM     30  C   UNL A   1      38.623  29.645  27.288  1.00  0.00     0.014 A 
ATOM     31  C   UNL A   1      38.486  27.865  29.422  1.00  0.00     0.010 A 
ATOM     32  C   UNL A   1      39.500  28.614  27.333  1.00  0.00     0.010 A 
ATOM     33  C   UNL A   1      39.519  27.832  28.481  1.00  0.00    -0.014 A 
BRANCH  33  34
ATOM     34  C   UNL A   1      40.761  27.100  28.621  1.00  0.00     0.031 A 
ATOM     35  C   UNL A   1      40.737  25.642  28.473  1.00  0.00     0.074 A 
ATOM     36  C   UNL A   1      41.877  27.865  28.732  1.00  0.00     0.049 A 
ATOM     37  N   UNL A   1      41.592  24.852  29.010  1.00  0.00    -0.248 NA
ATOM     38  C   UNL A   1      39.700  24.944  27.713  1.00  0.00     0.031 C 
ATOM     39  C   UNL A   1      43.278  27.510  28.602  1.00  0.00     0.029 A 
ATOM     40  N   UNL A   1      41.946  29.227  29.079  1.00  0.00    -0.354 N 
ATOM     41  C   UNL A   1      41.448  23.633  28.380  1.00  0.00     0.074 A 
ATOM     42  C   UNL A   1      40.161  23.688  27.727  1.00  0.00     0.031 C 
ATOM     43  C   UNL A   1      44.021  28.476  29.186  1.00  0.00     0.029 A 
ATOM     44  C   UNL A   1      43.092  29.379  29.855  1.00  0.00     0.049 A 
ATOM     45  H   UNL A   1      41.309  29.934  28.823  1.00  0.00     0.167 HD
ATOM     46  C   UNL A   1      42.540  22.821  28.291  1.00  0.00     0.034 A 
ATOM     47  C   UNL A   1      43.021  29.606  31.206  1.00  0.00     0.034 A 
ATOM     48  C   UNL A   1      43.673  23.446  28.988  1.00  0.00     0.049 A 
ATOM     49  C   UNL A   1      43.653  28.456  31.967  1.00  0.00     0.074 A 
ATOM     50  C   UNL A   1      44.716  24.232  28.522  1.00  0.00     0.029 A 
ATOM     51  N   UNL A   1      43.603  23.672  30.362  1.00  0.00    -0.354 N 
ATOM     52  N   UNL A   1      43.733  27.242  31.493  1.00  0.00    -0.248 NA
ATOM     53  C   UNL A   1      44.263  28.581  33.285  1.00  0.00     0.031 C 
ATOM     54  C   UNL A   1      45.214  24.998  29.611  1.00  0.00     0.029 A 
ATOM     55  C   UNL A   1      44.489  24.671  30.747  1.00  0.00     0.049 A 
ATOM     56  H   UNL A   1      43.007  23.187  30.977  1.00  0.00     0.167 HD
ATOM     57  C   UNL A   1      44.381  26.435  32.383  1.00  0.00     0.074 A 
ATOM     58  C   UNL A   1      44.712  27.328  33.481  1.00  0.00     0.031 C 
ATOM     59  C   UNL A   1      44.583  25.103  32.144  1.00  0.00     0.034 A 
BRANCH  46  60
ATOM     60  C   UNL A   1      42.667  21.679  27.293  1.00  0.00     0.023 A 
ATOM     61  C   UNL A   1      43.674  21.584  26.306  1.00  0.00     0.031 A 
ATOM     62  C   UNL A   1      41.772  20.587  27.340  1.00  0.00     0.131 A 
ATOM     63  C   UNL A   1      43.818  20.436  25.499  1.00  0.00     0.055 A 
ATOM     64  C   UNL A   1      41.888  19.465  26.508  1.00  0.00     0.041 A 
ATOM     65  F   UNL A   1      40.764  20.538  28.221  1.00  0.00    -0.206 F 
ATOM     66  C   UNL A   1      42.924  19.375  25.593  1.00  0.00     0.022 A 
BRANCH  63  67
ATOM     67  S   UNL A   1      45.213  20.251  24.346  1.00  0.00     0.124 S 
ATOM     68  O   UNL A   1      45.289  18.800  24.177  1.00  0.00    -0.237 OA
ATOM     69  O   UNL A   1      44.753  20.989  23.174  1.00  0.00    -0.237 OA
ATOM     70  O   UNL A   1      46.341  20.842  25.062  1.00  0.00    -0.744 OA
ENDBRANCH  63  67
ENDBRANCH  46  60
BRANCH  47  71
ATOM     71  C   UNL A   1      41.770  30.320  31.640  1.00  0.00     0.023 A 
ATOM     72  C   UNL A   1      40.748  29.656  32.336  1.00  0.00     0.031 A 
ATOM     73  C   UNL A   1      41.439  31.529  30.985  1.00  0.00     0.131 A 
ATOM     74  C   UNL A   1      39.420  30.111  32.223  1.00  0.00     0.055 A 
ATOM     75  C   UNL A   1      40.113  31.937  30.821  1.00  0.00     0.041 A 
ATOM     76  F   UNL A   1      42.389  32.237  30.351  1.00  0.00    -0.206 F 
ATOM     77  C   UNL A   1      39.091  31.200  31.408  1.00  0.00     0.022 A 
BRANCH  74  78
ATOM     78  S   UNL A   1      38.086  29.205  33.066  1.00  0.00     0.124 S 
ATOM     79  O   UNL A   1      36.922  29.616  32.287  1.00  0.00    -0.237 OA
ATOM     80  O   UNL A   1      38.466  27.805  32.915  1.00  0.00    -0.237 OA
ATOM     81  O   UNL A   1      38.157  29.715  34.431  1.00  0.00    -0.744 OA
ENDBRANCH  74  78
ENDBRANCH  47  71
BRANCH  59  82
ATOM     82  C   UNL A   1      44.979  24.079  33.184  1.00  0.00     0.023 A 
ATOM     83  C   UNL A   1      46.310  24.097  33.671  1.00  0.00     0.031 A 
ATOM     84  C   UNL A   1      44.190  22.997  33.603  1.00  0.00     0.131 A 
ATOM     85  C   UNL A   1      46.800  23.083  34.497  1.00  0.00     0.055 A 
ATOM     86  C   UNL A   1      44.648  22.045  34.519  1.00  0.00     0.041 A 
ATOM     87  F   UNL A   1      42.972  22.765  33.098  1.00  0.00    -0.206 F 
ATOM     88  C   UNL A   1      45.963  22.074  34.958  1.00  0.00     0.022 A 
BRANCH  85  89
ATOM     89  S   UNL A   1      48.576  22.954  34.844  1.00  0.00     0.124 S 
ATOM     90  O   UNL A   1      48.585  22.837  36.300  1.00  0.00    -0.237 OA
ATOM     91  O   UNL A   1      48.942  21.740  34.117  1.00  0.00    -0.237 OA
ATOM     92  O   UNL A   1      49.128  24.189  34.303  1.00  0.00    -0.744 OA
ENDBRANCH  85  89
ENDBRANCH  59  82
ENDBRANCH  33  34
ENDBRANCH  25  28
ENDBRANCH  23  24
ENDBRANCH  22  23
ENDBRANCH   1  22
TORSDOF 18
ENDMDL
