MODEL 1
REMARK VINA RESULT:     -11.6      0.000      0.000
REMARK SMILES O=C(NCCCCCCNC(=O)[C@@H]1[C@@H](C(=O)NCCn2cc(Cl)cn2)[C@H]2CC[C@@H]1O2)c1ccc(-c2c3nc(c(-c4cc(S(=O)(=O)[O-])ccc4F)c4ccc([nH]4)c(-c4cc(S(=O)(=O)[O-])ccc4F)c4nc(c(-c5cc(S(=O)(=O)[O-])ccc5F)c5ccc2[nH]5)C=C4)C=C3)cc1
REMARK SMILES IDX 7 1 6 2 5 3 4 4 3 5 1 6 2 7 31 9 32 10 93 11 33 12 92 13
REMARK SMILES IDX 34 14 35 15 36 16 86 17 37 18 91 19 85 20 87 21 38 22 90 23
REMARK SMILES IDX 84 24 83 25 39 27 71 28 51 29 70 30 52 31 55 32 69 33 88 34
REMARK SMILES IDX 53 35 54 36 68 38 89 39 56 40 40 41 41 42 49 43 42 44 48 45
REMARK SMILES IDX 50 46 47 47 43 48 44 49 45 50 46 51 72 52 73 53 81 54 74 55
REMARK SMILES IDX 80 56 82 57 79 58 75 59 76 60 77 61 78 62 57 63 58 64 66 65
REMARK SMILES IDX 59 66 65 67 67 68 64 69 60 70 61 71 62 72 63 73 8 74 9 75
REMARK SMILES IDX 10 76 11 77 12 79 13 80 14 81 29 82 26 83 28 84 30 85 27 86
REMARK SMILES IDX 15 87 16 88 17 89 18 91 19 92 20 93 21 94 25 95 22 96 24 97
REMARK SMILES IDX 23 98
REMARK H PARENT 3 8 87 26 55 37 10 78 17 90
REMARK Flexibility Score: inf
ROOT
ATOM      1  C   UNL A   1      31.653  28.400  27.288  1.00  0.00     0.002 C 
ENDROOT
BRANCH   1   2
ATOM      2  C   UNL A   1      31.478  29.532  26.262  1.00  0.00     0.002 C 
BRANCH   2   3
ATOM      3  C   UNL A   1      32.775  30.070  25.645  1.00  0.00     0.021 C 
BRANCH   3   4
ATOM      4  C   UNL A   1      33.976  30.011  26.585  1.00  0.00     0.116 C 
BRANCH   4   5
ATOM      5  N   UNL A   1      33.986  31.070  27.574  1.00  0.00    -0.352 N 
ATOM      6  O   UNL A   1      34.558  32.482  29.175  1.00  0.00    -0.269 OA
ATOM      7  C   UNL A   1      34.912  31.532  28.470  1.00  0.00     0.251 C 
ATOM      8  H   UNL A   1      33.139  31.570  27.607  1.00  0.00     0.163 HD
BRANCH   7   9
ATOM      9  C   UNL A   1      36.268  30.950  28.676  1.00  0.00     0.039 A 
ATOM     10  C   UNL A   1      37.337  31.587  29.308  1.00  0.00     0.014 A 
ATOM     11  C   UNL A   1      36.451  29.630  28.223  1.00  0.00     0.014 A 
ATOM     12  C   UNL A   1      38.571  30.948  29.428  1.00  0.00     0.010 A 
ATOM     13  C   UNL A   1      37.675  28.978  28.363  1.00  0.00     0.010 A 
ATOM     14  C   UNL A   1      38.746  29.645  28.952  1.00  0.00    -0.014 A 
BRANCH  14  15
ATOM     15  C   UNL A   1      40.005  28.960  29.260  1.00  0.00     0.031 A 
ATOM     16  C   UNL A   1      40.335  28.870  30.717  1.00  0.00     0.074 A 
ATOM     17  C   UNL A   1      40.760  28.302  28.356  1.00  0.00     0.049 A 
ATOM     18  N   UNL A   1      41.391  29.293  31.336  1.00  0.00    -0.248 NA
ATOM     19  C   UNL A   1      39.311  28.310  31.613  1.00  0.00     0.031 C 
ATOM     20  C   UNL A   1      40.453  28.033  26.951  1.00  0.00     0.029 A 
ATOM     21  N   UNL A   1      41.939  27.637  28.546  1.00  0.00    -0.354 N 
ATOM     22  C   UNL A   1      41.254  28.899  32.667  1.00  0.00     0.074 A 
ATOM     23  C   UNL A   1      39.905  28.414  32.802  1.00  0.00     0.031 C 
ATOM     24  C   UNL A   1      41.302  27.091  26.479  1.00  0.00     0.029 A 
ATOM     25  C   UNL A   1      42.293  26.789  27.501  1.00  0.00     0.049 A 
ATOM     26  H   UNL A   1      42.490  27.748  29.353  1.00  0.00     0.167 HD
ATOM     27  C   UNL A   1      42.309  28.856  33.529  1.00  0.00     0.034 A 
ATOM     28  C   UNL A   1      43.291  25.864  27.489  1.00  0.00     0.034 A 
ATOM     29  C   UNL A   1      43.401  29.673  33.065  1.00  0.00     0.049 A 
ATOM     30  C   UNL A   1      44.262  26.250  28.538  1.00  0.00     0.074 A 
ATOM     31  C   UNL A   1      43.547  31.021  32.793  1.00  0.00     0.029 A 
ATOM     32  N   UNL A   1      44.475  29.065  32.459  1.00  0.00    -0.354 N 
ATOM     33  N   UNL A   1      44.983  27.336  28.487  1.00  0.00    -0.248 NA
ATOM     34  C   UNL A   1      44.111  25.671  29.864  1.00  0.00     0.031 C 
ATOM     35  C   UNL A   1      44.361  31.070  31.624  1.00  0.00     0.029 A 
ATOM     36  C   UNL A   1      44.718  29.760  31.298  1.00  0.00     0.049 A 
ATOM     37  H   UNL A   1      44.972  28.283  32.792  1.00  0.00     0.167 HD
ATOM     38  C   UNL A   1      45.007  27.813  29.787  1.00  0.00     0.074 A 
ATOM     39  C   UNL A   1      44.542  26.695  30.606  1.00  0.00     0.031 C 
ATOM     40  C   UNL A   1      45.140  29.146  30.053  1.00  0.00     0.034 A 
BRANCH  27  41
ATOM     41  C   UNL A   1      42.460  27.867  34.665  1.00  0.00     0.023 A 
ATOM     42  C   UNL A   1      43.181  26.678  34.429  1.00  0.00     0.031 A 
ATOM     43  C   UNL A   1      41.716  27.903  35.865  1.00  0.00     0.131 A 
ATOM     44  C   UNL A   1      43.096  25.589  35.319  1.00  0.00     0.055 A 
ATOM     45  C   UNL A   1      41.686  26.844  36.777  1.00  0.00     0.041 A 
ATOM     46  F   UNL A   1      40.903  28.920  36.176  1.00  0.00    -0.206 F 
ATOM     47  C   UNL A   1      42.357  25.668  36.496  1.00  0.00     0.022 A 
BRANCH  44  48
ATOM     48  S   UNL A   1      43.827  24.002  34.831  1.00  0.00     0.124 S 
ATOM     49  O   UNL A   1      42.655  23.257  34.382  1.00  0.00    -0.237 OA
ATOM     50  O   UNL A   1      44.768  24.410  33.793  1.00  0.00    -0.237 OA
ATOM     51  O   UNL A   1      44.436  23.514  36.067  1.00  0.00    -0.744 OA
ENDBRANCH  44  48
ENDBRANCH  27  41
BRANCH  28  52
ATOM     52  C   UNL A   1      43.260  24.513  26.861  1.00  0.00     0.023 A 
ATOM     53  C   UNL A   1      44.011  24.176  25.715  1.00  0.00     0.031 A 
ATOM     54  C   UNL A   1      42.651  23.444  27.556  1.00  0.00     0.131 A 
ATOM     55  C   UNL A   1      44.122  22.824  25.307  1.00  0.00     0.055 A 
ATOM     56  C   UNL A   1      42.761  22.114  27.148  1.00  0.00     0.041 A 
ATOM     57  F   UNL A   1      42.001  23.649  28.713  1.00  0.00    -0.206 F 
ATOM     58  C   UNL A   1      43.504  21.797  26.024  1.00  0.00     0.022 A 
BRANCH  55  59
ATOM     59  S   UNL A   1      45.159  22.366  23.879  1.00  0.00     0.124 S 
ATOM     60  O   UNL A   1      44.197  22.382  22.779  1.00  0.00    -0.237 OA
ATOM     61  O   UNL A   1      46.168  23.413  23.872  1.00  0.00    -0.237 OA
ATOM     62  O   UNL A   1      45.659  21.035  24.232  1.00  0.00    -0.744 OA
ENDBRANCH  55  59
ENDBRANCH  28  52
BRANCH  40  63
ATOM     63  C   UNL A   1      45.526  30.078  28.918  1.00  0.00     0.023 A 
ATOM     64  C   UNL A   1      46.852  30.452  28.597  1.00  0.00     0.031 A 
ATOM     65  C   UNL A   1      44.505  30.507  28.052  1.00  0.00     0.131 A 
ATOM     66  C   UNL A   1      47.110  31.237  27.455  1.00  0.00     0.055 A 
ATOM     67  C   UNL A   1      44.766  31.264  26.911  1.00  0.00     0.041 A 
ATOM     68  F   UNL A   1      43.227  30.162  28.282  1.00  0.00    -0.206 F 
ATOM     69  C   UNL A   1      46.071  31.638  26.611  1.00  0.00     0.022 A 
BRANCH  66  70
ATOM     70  S   UNL A   1      48.809  31.763  27.049  1.00  0.00     0.124 S 
ATOM     71  O   UNL A   1      49.419  30.558  26.502  1.00  0.00    -0.237 OA
ATOM     72  O   UNL A   1      48.585  32.856  26.106  1.00  0.00    -0.237 OA
ATOM     73  O   UNL A   1      49.352  32.185  28.343  1.00  0.00    -0.744 OA
ENDBRANCH  66  70
ENDBRANCH  40  63
ENDBRANCH  14  15
ENDBRANCH   7   9
ENDBRANCH   4   5
ENDBRANCH   3   4
ENDBRANCH   2   3
ENDBRANCH   1   2
BRANCH   1  74
ATOM     74  C   UNL A   1      31.979  27.025  26.689  1.00  0.00     0.021 C 
BRANCH  74  75
ATOM     75  C   UNL A   1      30.803  26.404  25.934  1.00  0.00     0.116 C 
BRANCH  75  76
ATOM     76  N   UNL A   1      30.561  25.044  26.385  1.00  0.00    -0.356 N 
ATOM     77  C   UNL A   1      30.793  23.823  25.859  1.00  0.00     0.226 C 
ATOM     78  H   UNL A   1      30.135  25.005  27.271  1.00  0.00     0.163 HD
ATOM     79  O   UNL A   1      30.402  22.867  26.548  1.00  0.00    -0.275 OA
BRANCH  77  80
ATOM     80  C   UNL A   1      31.512  23.513  24.549  1.00  0.00     0.122 C 
ATOM     81  C   UNL A   1      32.881  22.877  24.909  1.00  0.00     0.122 C 
ATOM     82  C   UNL A   1      31.943  24.624  23.606  1.00  0.00     0.132 C 
ATOM     83  C   UNL A   1      33.868  23.839  24.228  1.00  0.00     0.132 C 
ATOM     84  C   UNL A   1      32.534  24.077  22.296  1.00  0.00     0.035 C 
ATOM     85  O   UNL A   1      33.143  25.092  24.266  1.00  0.00    -0.373 OA
ATOM     86  C   UNL A   1      33.940  23.652  22.718  1.00  0.00     0.035 C 
BRANCH  81  87
ATOM     87  C   UNL A   1      33.017  21.456  24.400  1.00  0.00     0.226 C 
ATOM     88  O   UNL A   1      32.178  20.925  23.673  1.00  0.00    -0.275 OA
ATOM     89  N   UNL A   1      34.131  20.747  24.721  1.00  0.00    -0.354 N 
ATOM     90  H   UNL A   1      34.180  19.857  24.303  1.00  0.00     0.163 HD
BRANCH  89  91
ATOM     91  C   UNL A   1      35.264  21.074  25.573  1.00  0.00     0.139 C 
BRANCH  91  92
ATOM     92  C   UNL A   1      36.514  21.402  24.752  1.00  0.00     0.165 C 
BRANCH  92  93
ATOM     93  N   UNL A   1      37.567  22.072  25.499  1.00  0.00    -0.269 N 
ATOM     94  C   UNL A   1      37.486  23.311  26.075  1.00  0.00     0.129 A 
ATOM     95  N   UNL A   1      38.741  21.449  25.750  1.00  0.00    -0.180 NA
ATOM     96  C   UNL A   1      38.676  23.501  26.732  1.00  0.00     0.079 A 
ATOM     97  C   UNL A   1      39.413  22.328  26.498  1.00  0.00     0.155 A 
ATOM     98  Cl  UNL A   1      39.169  24.836  27.643  1.00  0.00    -0.081 Cl
ENDBRANCH  92  93
ENDBRANCH  91  92
ENDBRANCH  89  91
ENDBRANCH  81  87
ENDBRANCH  77  80
ENDBRANCH  75  76
ENDBRANCH  74  75
ENDBRANCH   1  74
TORSDOF 20
ENDMDL
MODEL 2
REMARK VINA RESULT:     -11.6      2.072      2.461
REMARK SMILES O=C(NCCCCCCNC(=O)[C@@H]1[C@@H](C(=O)NCCn2cc(Cl)cn2)[C@H]2CC[C@@H]1O2)c1ccc(-c2c3nc(c(-c4cc(S(=O)(=O)[O-])ccc4F)c4ccc([nH]4)c(-c4cc(S(=O)(=O)[O-])ccc4F)c4nc(c(-c5cc(S(=O)(=O)[O-])ccc5F)c5ccc2[nH]5)C=C4)C=C3)cc1
REMARK SMILES IDX 7 1 6 2 5 3 4 4 3 5 1 6 2 7 31 9 32 10 93 11 33 12 92 13
REMARK SMILES IDX 34 14 35 15 36 16 86 17 37 18 91 19 85 20 87 21 38 22 90 23
REMARK SMILES IDX 84 24 83 25 39 27 71 28 51 29 70 30 52 31 55 32 69 33 88 34
REMARK SMILES IDX 53 35 54 36 68 38 89 39 56 40 40 41 41 42 49 43 42 44 48 45
REMARK SMILES IDX 50 46 47 47 43 48 44 49 45 50 46 51 72 52 73 53 81 54 74 55
REMARK SMILES IDX 80 56 82 57 79 58 75 59 76 60 77 61 78 62 57 63 58 64 66 65
REMARK SMILES IDX 59 66 65 67 67 68 64 69 60 70 61 71 62 72 63 73 8 74 9 75
REMARK SMILES IDX 10 76 11 77 12 79 13 80 14 81 29 82 26 83 28 84 30 85 27 86
REMARK SMILES IDX 15 87 16 88 17 89 18 91 19 92 20 93 21 94 25 95 22 96 24 97
REMARK SMILES IDX 23 98
REMARK H PARENT 3 8 87 26 55 37 10 78 17 90
REMARK Flexibility Score: inf
ROOT
ATOM      1  C   UNL A   1      32.024  29.643  27.142  1.00  0.00     0.002 C 
ENDROOT
BRANCH   1   2
ATOM      2  C   UNL A   1      33.508  30.044  27.121  1.00  0.00     0.002 C 
BRANCH   2   3
ATOM      3  C   UNL A   1      33.809  31.484  27.555  1.00  0.00     0.021 C 
BRANCH   3   4
ATOM      4  C   UNL A   1      35.167  31.654  28.230  1.00  0.00     0.116 C 
BRANCH   4   5
ATOM      5  N   UNL A   1      35.076  31.890  29.656  1.00  0.00    -0.352 N 
ATOM      6  O   UNL A   1      35.473  31.979  31.829  1.00  0.00    -0.269 OA
ATOM      7  C   UNL A   1      35.891  31.622  30.723  1.00  0.00     0.251 C 
ATOM      8  H   UNL A   1      34.244  32.346  29.916  1.00  0.00     0.163 HD
BRANCH   7   9
ATOM      9  C   UNL A   1      37.196  30.906  30.645  1.00  0.00     0.039 A 
ATOM     10  C   UNL A   1      38.452  31.486  30.829  1.00  0.00     0.014 A 
ATOM     11  C   UNL A   1      37.128  29.521  30.404  1.00  0.00     0.014 A 
ATOM     12  C   UNL A   1      39.610  30.717  30.715  1.00  0.00     0.010 A 
ATOM     13  C   UNL A   1      38.282  28.744  30.313  1.00  0.00     0.010 A 
ATOM     14  C   UNL A   1      39.530  29.346  30.450  1.00  0.00    -0.014 A 
BRANCH  14  15
ATOM     15  C   UNL A   1      40.765  28.558  30.514  1.00  0.00     0.031 A 
ATOM     16  C   UNL A   1      41.291  28.318  31.894  1.00  0.00     0.074 A 
ATOM     17  C   UNL A   1      41.330  27.935  29.460  1.00  0.00     0.049 A 
ATOM     18  N   UNL A   1      42.453  28.616  32.381  1.00  0.00    -0.248 NA
ATOM     19  C   UNL A   1      40.365  27.748  32.886  1.00  0.00     0.031 C 
ATOM     20  C   UNL A   1      40.806  27.811  28.098  1.00  0.00     0.029 A 
ATOM     21  N   UNL A   1      42.470  27.181  29.420  1.00  0.00    -0.354 N 
ATOM     22  C   UNL A   1      42.477  28.116  33.683  1.00  0.00     0.074 A 
ATOM     23  C   UNL A   1      41.128  27.708  33.978  1.00  0.00     0.031 C 
ATOM     24  C   UNL A   1      41.505  26.862  27.434  1.00  0.00     0.029 A 
ATOM     25  C   UNL A   1      42.605  26.408  28.271  1.00  0.00     0.049 A 
ATOM     26  H   UNL A   1      43.138  27.185  30.143  1.00  0.00     0.167 HD
ATOM     27  C   UNL A   1      43.638  27.929  34.372  1.00  0.00     0.034 A 
ATOM     28  C   UNL A   1      43.518  25.426  28.039  1.00  0.00     0.034 A 
ATOM     29  C   UNL A   1      44.712  28.712  33.817  1.00  0.00     0.049 A 
ATOM     30  C   UNL A   1      44.655  25.655  28.959  1.00  0.00     0.074 A 
ATOM     31  C   UNL A   1      44.920  30.067  33.633  1.00  0.00     0.029 A 
ATOM     32  N   UNL A   1      45.639  28.093  33.013  1.00  0.00    -0.354 N 
ATOM     33  N   UNL A   1      45.443  26.692  28.887  1.00  0.00    -0.248 NA
ATOM     34  C   UNL A   1      44.651  24.972  30.243  1.00  0.00     0.031 C 
ATOM     35  C   UNL A   1      45.560  30.167  32.363  1.00  0.00     0.029 A 
ATOM     36  C   UNL A   1      45.766  28.870  31.887  1.00  0.00     0.049 A 
ATOM     37  H   UNL A   1      46.118  27.254  33.207  1.00  0.00     0.167 HD
ATOM     38  C   UNL A   1      45.688  27.050  30.202  1.00  0.00     0.074 A 
ATOM     39  C   UNL A   1      45.260  25.896  30.991  1.00  0.00     0.031 C 
ATOM     40  C   UNL A   1      45.959  28.343  30.549  1.00  0.00     0.034 A 
BRANCH  27  41
ATOM     41  C   UNL A   1      43.874  26.836  35.393  1.00  0.00     0.023 A 
ATOM     42  C   UNL A   1      44.192  27.209  36.715  1.00  0.00     0.031 A 
ATOM     43  C   UNL A   1      44.066  25.472  35.079  1.00  0.00     0.131 A 
ATOM     44  C   UNL A   1      44.726  26.274  37.624  1.00  0.00     0.055 A 
ATOM     45  C   UNL A   1      44.535  24.534  36.004  1.00  0.00     0.041 A 
ATOM     46  F   UNL A   1      43.905  24.990  33.840  1.00  0.00    -0.206 F 
ATOM     47  C   UNL A   1      44.893  24.937  37.278  1.00  0.00     0.022 A 
BRANCH  44  48
ATOM     48  S   UNL A   1      45.362  26.868  39.216  1.00  0.00     0.124 S 
ATOM     49  O   UNL A   1      44.869  28.241  39.243  1.00  0.00    -0.237 OA
ATOM     50  O   UNL A   1      44.737  25.941  40.155  1.00  0.00    -0.237 OA
ATOM     51  O   UNL A   1      46.810  26.730  39.076  1.00  0.00    -0.744 OA
ENDBRANCH  44  48
ENDBRANCH  27  41
BRANCH  28  52
ATOM     52  C   UNL A   1      43.295  24.141  27.319  1.00  0.00     0.023 A 
ATOM     53  C   UNL A   1      44.103  23.704  26.248  1.00  0.00     0.031 A 
ATOM     54  C   UNL A   1      42.397  23.193  27.861  1.00  0.00     0.131 A 
ATOM     55  C   UNL A   1      43.989  22.378  25.762  1.00  0.00     0.055 A 
ATOM     56  C   UNL A   1      42.286  21.890  27.377  1.00  0.00     0.041 A 
ATOM     57  F   UNL A   1      41.658  23.480  28.945  1.00  0.00    -0.206 F 
ATOM     58  C   UNL A   1      43.089  21.473  26.329  1.00  0.00     0.022 A 
BRANCH  55  59
ATOM     59  S   UNL A   1      45.088  21.775  24.438  1.00  0.00     0.124 S 
ATOM     60  O   UNL A   1      46.388  21.741  25.105  1.00  0.00    -0.237 OA
ATOM     61  O   UNL A   1      44.499  20.489  24.100  1.00  0.00    -0.237 OA
ATOM     62  O   UNL A   1      44.963  22.799  23.397  1.00  0.00    -0.744 OA
ENDBRANCH  55  59
ENDBRANCH  28  52
BRANCH  40  63
ATOM     63  C   UNL A   1      46.249  29.344  29.445  1.00  0.00     0.023 A 
ATOM     64  C   UNL A   1      45.263  29.996  28.667  1.00  0.00     0.031 A 
ATOM     65  C   UNL A   1      47.586  29.740  29.260  1.00  0.00     0.131 A 
ATOM     66  C   UNL A   1      45.635  30.991  27.740  1.00  0.00     0.055 A 
ATOM     67  C   UNL A   1      47.947  30.740  28.357  1.00  0.00     0.041 A 
ATOM     68  F   UNL A   1      48.569  29.183  29.986  1.00  0.00    -0.206 F 
ATOM     69  C   UNL A   1      46.973  31.366  27.589  1.00  0.00     0.022 A 
BRANCH  66  70
ATOM     70  S   UNL A   1      44.381  31.812  26.701  1.00  0.00     0.124 S 
ATOM     71  O   UNL A   1      45.157  32.354  25.592  1.00  0.00    -0.237 OA
ATOM     72  O   UNL A   1      43.473  30.715  26.374  1.00  0.00    -0.237 OA
ATOM     73  O   UNL A   1      43.808  32.822  27.593  1.00  0.00    -0.744 OA
ENDBRANCH  66  70
ENDBRANCH  40  63
ENDBRANCH  14  15
ENDBRANCH   7   9
ENDBRANCH   4   5
ENDBRANCH   3   4
ENDBRANCH   2   3
ENDBRANCH   1   2
BRANCH   1  74
ATOM     74  C   UNL A   1      31.748  28.197  27.575  1.00  0.00     0.021 C 
BRANCH  74  75
ATOM     75  C   UNL A   1      31.327  27.292  26.417  1.00  0.00     0.116 C 
BRANCH  75  76
ATOM     76  N   UNL A   1      31.078  25.939  26.883  1.00  0.00    -0.356 N 
ATOM     77  C   UNL A   1      31.170  24.717  26.318  1.00  0.00     0.226 C 
ATOM     78  H   UNL A   1      30.776  25.906  27.819  1.00  0.00     0.163 HD
ATOM     79  O   UNL A   1      30.828  23.770  27.044  1.00  0.00    -0.275 OA
BRANCH  77  80
ATOM     80  C   UNL A   1      31.687  24.393  24.918  1.00  0.00     0.122 C 
ATOM     81  C   UNL A   1      32.910  23.453  25.079  1.00  0.00     0.122 C 
ATOM     82  C   UNL A   1      32.264  25.477  24.023  1.00  0.00     0.132 C 
ATOM     83  C   UNL A   1      34.019  24.250  24.372  1.00  0.00     0.132 C 
ATOM     84  C   UNL A   1      32.604  24.950  22.619  1.00  0.00     0.035 C 
ATOM     85  O   UNL A   1      33.590  25.617  24.584  1.00  0.00    -0.373 OA
ATOM     86  C   UNL A   1      33.915  24.200  22.854  1.00  0.00     0.035 C 
BRANCH  81  87
ATOM     87  C   UNL A   1      32.688  22.091  24.451  1.00  0.00     0.226 C 
ATOM     88  O   UNL A   1      31.795  21.873  23.633  1.00  0.00    -0.275 OA
ATOM     89  N   UNL A   1      33.534  21.077  24.767  1.00  0.00    -0.354 N 
ATOM     90  H   UNL A   1      33.368  20.241  24.273  1.00  0.00     0.163 HD
BRANCH  89  91
ATOM     91  C   UNL A   1      34.642  21.008  25.707  1.00  0.00     0.139 C 
BRANCH  91  92
ATOM     92  C   UNL A   1      35.949  20.612  25.014  1.00  0.00     0.165 C 
BRANCH  92  93
ATOM     93  N   UNL A   1      37.100  21.416  25.393  1.00  0.00    -0.269 N 
ATOM     94  C   UNL A   1      37.071  22.709  25.838  1.00  0.00     0.129 A 
ATOM     95  N   UNL A   1      38.343  20.883  25.400  1.00  0.00    -0.180 NA
ATOM     96  C   UNL A   1      38.369  23.032  26.146  1.00  0.00     0.079 A 
ATOM     97  C   UNL A   1      39.111  21.876  25.856  1.00  0.00     0.155 A 
ATOM     98  Cl  UNL A   1      38.970  24.490  26.756  1.00  0.00    -0.081 Cl
ENDBRANCH  92  93
ENDBRANCH  91  92
ENDBRANCH  89  91
ENDBRANCH  81  87
ENDBRANCH  77  80
ENDBRANCH  75  76
ENDBRANCH  74  75
ENDBRANCH   1  74
TORSDOF 20
ENDMDL
MODEL 3
REMARK VINA RESULT:     -11.2      2.521      3.469
REMARK SMILES O=C(NCCCCCCNC(=O)[C@@H]1[C@@H](C(=O)NCCn2cc(Cl)cn2)[C@H]2CC[C@@H]1O2)c1ccc(-c2c3nc(c(-c4cc(S(=O)(=O)[O-])ccc4F)c4ccc([nH]4)c(-c4cc(S(=O)(=O)[O-])ccc4F)c4nc(c(-c5cc(S(=O)(=O)[O-])ccc5F)c5ccc2[nH]5)C=C4)C=C3)cc1
REMARK SMILES IDX 7 1 6 2 5 3 4 4 3 5 1 6 2 7 31 9 32 10 93 11 33 12 92 13
REMARK SMILES IDX 34 14 35 15 36 16 86 17 37 18 91 19 85 20 87 21 38 22 90 23
REMARK SMILES IDX 84 24 83 25 39 27 71 28 51 29 70 30 52 31 55 32 69 33 88 34
REMARK SMILES IDX 53 35 54 36 68 38 89 39 56 40 40 41 41 42 49 43 42 44 48 45
REMARK SMILES IDX 50 46 47 47 43 48 44 49 45 50 46 51 72 52 73 53 81 54 74 55
REMARK SMILES IDX 80 56 82 57 79 58 75 59 76 60 77 61 78 62 57 63 58 64 66 65
REMARK SMILES IDX 59 66 65 67 67 68 64 69 60 70 61 71 62 72 63 73 8 74 9 75
REMARK SMILES IDX 10 76 11 77 12 79 13 80 14 81 29 82 26 83 28 84 30 85 27 86
REMARK SMILES IDX 15 87 16 88 17 89 18 91 19 92 20 93 21 94 25 95 22 96 24 97
REMARK SMILES IDX 23 98
REMARK H PARENT 3 8 87 26 55 37 10 78 17 90
REMARK Flexibility Score: inf
ROOT
ATOM      1  C   UNL A   1      35.662  29.802  27.596  1.00  0.00     0.002 C 
ENDROOT
BRANCH   1   2
ATOM      2  C   UNL A   1      35.243  31.269  27.794  1.00  0.00     0.002 C 
BRANCH   2   3
ATOM      3  C   UNL A   1      36.396  32.267  27.959  1.00  0.00     0.021 C 
BRANCH   3   4
ATOM      4  C   UNL A   1      36.079  33.423  28.903  1.00  0.00     0.116 C 
BRANCH   4   5
ATOM      5  N   UNL A   1      35.639  32.993  30.215  1.00  0.00    -0.352 N 
ATOM      6  O   UNL A   1      35.470  32.009  32.186  1.00  0.00    -0.269 OA
ATOM      7  C   UNL A   1      36.136  32.130  31.154  1.00  0.00     0.251 C 
ATOM      8  H   UNL A   1      34.795  33.416  30.493  1.00  0.00     0.163 HD
BRANCH   7   9
ATOM      9  C   UNL A   1      37.375  31.317  30.999  1.00  0.00     0.039 A 
ATOM     10  C   UNL A   1      38.680  31.809  31.042  1.00  0.00     0.014 A 
ATOM     11  C   UNL A   1      37.188  29.930  30.835  1.00  0.00     0.014 A 
ATOM     12  C   UNL A   1      39.766  30.951  30.866  1.00  0.00     0.010 A 
ATOM     13  C   UNL A   1      38.272  29.067  30.683  1.00  0.00     0.010 A 
ATOM     14  C   UNL A   1      39.566  29.580  30.679  1.00  0.00    -0.014 A 
BRANCH  14  15
ATOM     15  C   UNL A   1      40.743  28.705  30.674  1.00  0.00     0.031 A 
ATOM     16  C   UNL A   1      41.294  28.380  32.027  1.00  0.00     0.074 A 
ATOM     17  C   UNL A   1      41.229  28.082  29.581  1.00  0.00     0.049 A 
ATOM     18  N   UNL A   1      42.489  28.578  32.483  1.00  0.00    -0.248 NA
ATOM     19  C   UNL A   1      40.361  27.840  33.030  1.00  0.00     0.031 C 
ATOM     20  C   UNL A   1      40.655  28.044  28.235  1.00  0.00     0.029 A 
ATOM     21  N   UNL A   1      42.310  27.253  29.477  1.00  0.00    -0.354 N 
ATOM     22  C   UNL A   1      42.519  28.031  33.767  1.00  0.00     0.074 A 
ATOM     23  C   UNL A   1      41.154  27.708  34.094  1.00  0.00     0.031 C 
ATOM     24  C   UNL A   1      41.264  27.074  27.516  1.00  0.00     0.029 A 
ATOM     25  C   UNL A   1      42.354  26.514  28.299  1.00  0.00     0.049 A 
ATOM     26  H   UNL A   1      42.999  27.184  30.177  1.00  0.00     0.167 HD
ATOM     27  C   UNL A   1      43.685  27.738  34.409  1.00  0.00     0.034 A 
ATOM     28  C   UNL A   1      43.187  25.479  28.003  1.00  0.00     0.034 A 
ATOM     29  C   UNL A   1      44.794  28.464  33.844  1.00  0.00     0.049 A 
ATOM     30  C   UNL A   1      44.366  25.595  28.892  1.00  0.00     0.074 A 
ATOM     31  C   UNL A   1      45.091  29.806  33.699  1.00  0.00     0.029 A 
ATOM     32  N   UNL A   1      45.648  27.810  32.989  1.00  0.00    -0.354 N 
ATOM     33  N   UNL A   1      45.223  26.576  28.827  1.00  0.00    -0.248 NA
ATOM     34  C   UNL A   1      44.353  24.868  30.151  1.00  0.00     0.031 C 
ATOM     35  C   UNL A   1      45.697  29.907  32.412  1.00  0.00     0.029 A 
ATOM     36  C   UNL A   1      45.795  28.617  31.886  1.00  0.00     0.049 A 
ATOM     37  H   UNL A   1      46.072  26.934  33.138  1.00  0.00     0.167 HD
ATOM     38  C   UNL A   1      45.534  26.868  30.144  1.00  0.00     0.074 A 
ATOM     39  C   UNL A   1      45.050  25.720  30.908  1.00  0.00     0.031 C 
ATOM     40  C   UNL A   1      45.907  28.126  30.525  1.00  0.00     0.034 A 
BRANCH  27  41
ATOM     41  C   UNL A   1      43.874  26.595  35.384  1.00  0.00     0.023 A 
ATOM     42  C   UNL A   1      44.236  26.899  36.713  1.00  0.00     0.031 A 
ATOM     43  C   UNL A   1      43.982  25.235  35.016  1.00  0.00     0.131 A 
ATOM     44  C   UNL A   1      44.729  25.901  37.576  1.00  0.00     0.055 A 
ATOM     45  C   UNL A   1      44.412  24.238  35.897  1.00  0.00     0.041 A 
ATOM     46  F   UNL A   1      43.773  24.811  33.764  1.00  0.00    -0.206 F 
ATOM     47  C   UNL A   1      44.813  24.571  37.177  1.00  0.00     0.022 A 
BRANCH  44  48
ATOM     48  S   UNL A   1      45.425  26.397  39.177  1.00  0.00     0.124 S 
ATOM     49  O   UNL A   1      45.061  25.267  40.026  1.00  0.00    -0.237 OA
ATOM     50  O   UNL A   1      46.843  26.534  38.859  1.00  0.00    -0.237 OA
ATOM     51  O   UNL A   1      44.731  27.647  39.477  1.00  0.00    -0.744 OA
ENDBRANCH  44  48
ENDBRANCH  27  41
BRANCH  28  52
ATOM     52  C   UNL A   1      42.850  24.240  27.248  1.00  0.00     0.023 A 
ATOM     53  C   UNL A   1      43.738  23.621  26.342  1.00  0.00     0.031 A 
ATOM     54  C   UNL A   1      41.701  23.501  27.612  1.00  0.00     0.131 A 
ATOM     55  C   UNL A   1      43.456  22.328  25.838  1.00  0.00     0.055 A 
ATOM     56  C   UNL A   1      41.426  22.230  27.109  1.00  0.00     0.041 A 
ATOM     57  F   UNL A   1      40.848  23.959  28.542  1.00  0.00    -0.206 F 
ATOM     58  C   UNL A   1      42.308  21.632  26.224  1.00  0.00     0.022 A 
BRANCH  55  59
ATOM     59  S   UNL A   1      44.636  21.482  24.735  1.00  0.00     0.124 S 
ATOM     60  O   UNL A   1      45.896  21.621  25.464  1.00  0.00    -0.237 OA
ATOM     61  O   UNL A   1      44.083  20.140  24.649  1.00  0.00    -0.237 OA
ATOM     62  O   UNL A   1      44.561  22.257  23.494  1.00  0.00    -0.744 OA
ENDBRANCH  55  59
ENDBRANCH  28  52
BRANCH  40  63
ATOM     63  C   UNL A   1      46.233  29.144  29.446  1.00  0.00     0.023 A 
ATOM     64  C   UNL A   1      45.271  29.837  28.674  1.00  0.00     0.031 A 
ATOM     65  C   UNL A   1      47.581  29.510  29.282  1.00  0.00     0.131 A 
ATOM     66  C   UNL A   1      45.676  30.842  27.773  1.00  0.00     0.055 A 
ATOM     67  C   UNL A   1      47.976  30.520  28.405  1.00  0.00     0.041 A 
ATOM     68  F   UNL A   1      48.543  28.912  30.005  1.00  0.00    -0.206 F 
ATOM     69  C   UNL A   1      47.025  31.186  27.642  1.00  0.00     0.022 A 
BRANCH  66  70
ATOM     70  S   UNL A   1      44.453  31.717  26.741  1.00  0.00     0.124 S 
ATOM     71  O   UNL A   1      43.918  32.737  27.634  1.00  0.00    -0.237 OA
ATOM     72  O   UNL A   1      45.267  32.200  25.628  1.00  0.00    -0.237 OA
ATOM     73  O   UNL A   1      43.500  30.666  26.378  1.00  0.00    -0.744 OA
ENDBRANCH  66  70
ENDBRANCH  40  63
ENDBRANCH  14  15
ENDBRANCH   7   9
ENDBRANCH   4   5
ENDBRANCH   3   4
ENDBRANCH   2   3
ENDBRANCH   1   2
BRANCH   1  74
ATOM     74  C   UNL A   1      34.735  28.978  26.692  1.00  0.00     0.021 C 
BRANCH  74  75
ATOM     75  C   UNL A   1      33.258  29.115  27.061  1.00  0.00     0.116 C 
BRANCH  75  76
ATOM     76  N   UNL A   1      32.643  27.809  27.224  1.00  0.00    -0.356 N 
ATOM     77  C   UNL A   1      31.708  27.117  26.540  1.00  0.00     0.226 C 
ATOM     78  H   UNL A   1      32.986  27.319  28.006  1.00  0.00     0.163 HD
ATOM     79  O   UNL A   1      31.408  26.012  27.021  1.00  0.00    -0.275 OA
BRANCH  77  80
ATOM     80  C   UNL A   1      31.031  27.534  25.236  1.00  0.00     0.122 C 
ATOM     81  C   UNL A   1      31.736  26.775  24.082  1.00  0.00     0.122 C 
ATOM     82  C   UNL A   1      31.108  28.967  24.735  1.00  0.00     0.132 C 
ATOM     83  C   UNL A   1      32.231  27.929  23.196  1.00  0.00     0.132 C 
ATOM     84  C   UNL A   1      30.254  29.188  23.475  1.00  0.00     0.035 C 
ATOM     85  O   UNL A   1      32.437  28.986  24.164  1.00  0.00    -0.373 OA
ATOM     86  C   UNL A   1      31.119  28.572  22.376  1.00  0.00     0.035 C 
BRANCH  81  87
ATOM     87  C   UNL A   1      30.802  25.838  23.342  1.00  0.00     0.226 C 
ATOM     88  O   UNL A   1      29.600  25.760  23.595  1.00  0.00    -0.275 OA
ATOM     89  N   UNL A   1      31.297  25.084  22.326  1.00  0.00    -0.354 N 
ATOM     90  H   UNL A   1      30.619  24.550  21.851  1.00  0.00     0.163 HD
BRANCH  89  91
ATOM     91  C   UNL A   1      32.651  24.927  21.818  1.00  0.00     0.139 C 
BRANCH  91  92
ATOM     92  C   UNL A   1      33.225  23.548  22.151  1.00  0.00     0.165 C 
BRANCH  92  93
ATOM     93  N   UNL A   1      33.840  23.453  23.467  1.00  0.00    -0.269 N 
ATOM     94  C   UNL A   1      35.157  23.673  23.761  1.00  0.00     0.129 A 
ATOM     95  N   UNL A   1      33.090  23.197  24.563  1.00  0.00    -0.180 NA
ATOM     96  C   UNL A   1      35.267  23.548  25.123  1.00  0.00     0.079 A 
ATOM     97  C   UNL A   1      33.968  23.252  25.568  1.00  0.00     0.155 A 
ATOM     98  Cl  UNL A   1      36.646  23.720  26.085  1.00  0.00    -0.081 Cl
ENDBRANCH  92  93
ENDBRANCH  91  92
ENDBRANCH  89  91
ENDBRANCH  81  87
ENDBRANCH  77  80
ENDBRANCH  75  76
ENDBRANCH  74  75
ENDBRANCH   1  74
TORSDOF 20
ENDMDL
