MODEL 1
REMARK VINA RESULT:      -9.1      0.000      0.000
REMARK SMILES CC1([C@@]2(C)C[C@@H]2C(=O)NCCCCCCNC(=O)c2ccc(-c3c4nc(c(-c5cc(S(=O)(=O)[O-])ccc5F)c5ccc([nH]5)c(-c5cc(S(=O)(=O)[O-])ccc5F)c5nc(c(-c6cc(S(=O)(=O)[O-])ccc6F)c6ccc3[nH]6)C=C5)C=C4)cc2)CC1
REMARK SMILES IDX 13 1 12 2 11 3 10 4 9 5 7 6 8 7 6 9 3 10 4 11 5 12 2 13 1 14
REMARK SMILES IDX 82 15 83 16 14 17 15 18 16 19 17 20 18 22 19 23 20 24 81 25
REMARK SMILES IDX 21 26 80 27 22 28 23 29 24 30 74 31 25 32 79 33 73 34 75 35
REMARK SMILES IDX 26 36 78 37 72 38 71 39 27 41 59 42 39 43 58 44 40 45 43 46
REMARK SMILES IDX 57 47 76 48 41 49 42 50 56 52 77 53 44 54 28 55 29 56 37 57
REMARK SMILES IDX 30 58 36 59 38 60 35 61 31 62 32 63 33 64 34 65 60 66 61 67
REMARK SMILES IDX 69 68 62 69 68 70 70 71 67 72 63 73 64 74 65 75 66 76 45 77
REMARK SMILES IDX 46 78 54 79 47 80 53 81 55 82 52 83 48 84 49 85 50 86 51 87
REMARK H PARENT 9 8 16 21 75 40 43 51
REMARK Flexibility Score: inf
ROOT
ATOM      1  C   UNL A   1      42.005  22.596  28.810  1.00  0.00     0.002 C 
ENDROOT
BRANCH   1   2
ATOM      2  C   UNL A   1      42.740  23.861  28.354  1.00  0.00     0.002 C 
BRANCH   2   3
ATOM      3  C   UNL A   1      44.006  24.195  29.147  1.00  0.00     0.021 C 
BRANCH   3   4
ATOM      4  C   UNL A   1      45.302  23.771  28.461  1.00  0.00     0.116 C 
BRANCH   4   5
ATOM      5  N   UNL A   1      45.098  22.609  27.615  1.00  0.00    -0.356 N 
ATOM      6  C   UNL A   1      45.505  22.444  26.321  1.00  0.00     0.223 C 
ATOM      7  O   UNL A   1      45.180  21.457  25.670  1.00  0.00    -0.275 OA
ATOM      8  H   UNL A   1      44.611  21.855  28.019  1.00  0.00     0.163 HD
BRANCH   6   9
ATOM      9  C   UNL A   1      46.335  23.523  25.740  1.00  0.00     0.085 C 
ATOM     10  C   UNL A   1      45.773  24.801  25.111  1.00  0.00    -0.015 C 
ATOM     11  C   UNL A   1      44.273  24.970  25.005  1.00  0.00     0.013 C 
ATOM     12  C   UNL A   1      46.356  23.706  24.243  1.00  0.00     0.022 C 
BRANCH  10  13
ATOM     13  C   UNL A   1      46.546  26.133  25.389  1.00  0.00    -0.026 C 
ATOM     14  C   UNL A   1      47.208  26.181  26.749  1.00  0.00     0.012 C 
ATOM     15  C   UNL A   1      46.000  27.444  24.851  1.00  0.00     0.008 C 
ATOM     16  C   UNL A   1      47.266  26.886  24.281  1.00  0.00     0.008 C 
ENDBRANCH  10  13
ENDBRANCH   6   9
ENDBRANCH   4   5
ENDBRANCH   3   4
ENDBRANCH   2   3
ENDBRANCH   1   2
BRANCH   1  17
ATOM     17  C   UNL A   1      41.819  21.528  27.730  1.00  0.00     0.021 C 
BRANCH  17  18
ATOM     18  C   UNL A   1      41.555  22.077  26.332  1.00  0.00     0.116 C 
BRANCH  18  19
ATOM     19  N   UNL A   1      40.150  21.986  25.969  1.00  0.00    -0.352 N 
ATOM     20  C   UNL A   1      39.137  22.887  26.183  1.00  0.00     0.251 C 
ATOM     21  H   UNL A   1      39.888  21.160  25.502  1.00  0.00     0.163 HD
ATOM     22  O   UNL A   1      37.971  22.548  25.996  1.00  0.00    -0.269 OA
BRANCH  20  23
ATOM     23  C   UNL A   1      39.451  24.253  26.659  1.00  0.00     0.039 A 
ATOM     24  C   UNL A   1      39.103  24.611  27.963  1.00  0.00     0.014 A 
ATOM     25  C   UNL A   1      40.085  25.178  25.825  1.00  0.00     0.014 A 
ATOM     26  C   UNL A   1      39.443  25.876  28.449  1.00  0.00     0.010 A 
ATOM     27  C   UNL A   1      40.492  26.408  26.335  1.00  0.00     0.010 A 
ATOM     28  C   UNL A   1      40.173  26.773  27.652  1.00  0.00    -0.014 A 
BRANCH  28  29
ATOM     29  C   UNL A   1      40.603  28.097  28.177  1.00  0.00     0.031 A 
ATOM     30  C   UNL A   1      42.064  28.457  28.213  1.00  0.00     0.074 A 
ATOM     31  C   UNL A   1      39.682  28.954  28.666  1.00  0.00     0.049 A 
ATOM     32  N   UNL A   1      42.641  29.527  28.696  1.00  0.00    -0.248 NA
ATOM     33  C   UNL A   1      43.003  27.469  27.658  1.00  0.00     0.031 C 
ATOM     34  C   UNL A   1      38.240  28.707  28.713  1.00  0.00     0.029 A 
ATOM     35  N   UNL A   1      39.821  30.202  29.220  1.00  0.00    -0.354 N 
ATOM     36  C   UNL A   1      44.006  29.340  28.509  1.00  0.00     0.074 A 
ATOM     37  C   UNL A   1      44.174  28.024  27.929  1.00  0.00     0.031 C 
ATOM     38  C   UNL A   1      37.626  29.778  29.237  1.00  0.00     0.029 A 
ATOM     39  C   UNL A   1      38.630  30.768  29.617  1.00  0.00     0.049 A 
ATOM     40  H   UNL A   1      40.690  30.650  29.325  1.00  0.00     0.167 HD
ATOM     41  C   UNL A   1      45.025  30.197  28.773  1.00  0.00     0.034 A 
ATOM     42  C   UNL A   1      38.376  31.941  30.230  1.00  0.00     0.034 A 
ATOM     43  C   UNL A   1      44.842  31.509  29.344  1.00  0.00     0.049 A 
ATOM     44  C   UNL A   1      39.532  32.855  30.556  1.00  0.00     0.074 A 
ATOM     45  C   UNL A   1      45.799  32.472  29.612  1.00  0.00     0.029 A 
ATOM     46  N   UNL A   1      43.623  32.042  29.744  1.00  0.00    -0.354 N 
ATOM     47  N   UNL A   1      40.814  32.681  30.331  1.00  0.00    -0.248 NA
ATOM     48  C   UNL A   1      39.205  34.131  31.208  1.00  0.00     0.031 C 
ATOM     49  C   UNL A   1      45.173  33.551  30.244  1.00  0.00     0.029 A 
ATOM     50  C   UNL A   1      43.810  33.304  30.287  1.00  0.00     0.049 A 
ATOM     51  H   UNL A   1      42.753  31.589  29.654  1.00  0.00     0.167 HD
ATOM     52  C   UNL A   1      41.439  33.843  30.778  1.00  0.00     0.074 A 
ATOM     53  C   UNL A   1      40.392  34.714  31.271  1.00  0.00     0.031 C 
ATOM     54  C   UNL A   1      42.758  34.163  30.778  1.00  0.00     0.034 A 
BRANCH  41  55
ATOM     55  C   UNL A   1      46.429  29.728  28.468  1.00  0.00     0.023 A 
ATOM     56  C   UNL A   1      47.190  29.013  29.409  1.00  0.00     0.031 A 
ATOM     57  C   UNL A   1      47.019  30.007  27.222  1.00  0.00     0.131 A 
ATOM     58  C   UNL A   1      48.517  28.663  29.118  1.00  0.00     0.055 A 
ATOM     59  C   UNL A   1      48.311  29.581  26.907  1.00  0.00     0.041 A 
ATOM     60  F   UNL A   1      46.352  30.706  26.292  1.00  0.00    -0.206 F 
ATOM     61  C   UNL A   1      49.073  28.917  27.863  1.00  0.00     0.022 A 
BRANCH  58  62
ATOM     62  S   UNL A   1      49.550  27.998  30.453  1.00  0.00     0.124 S 
ATOM     63  O   UNL A   1      48.594  27.921  31.555  1.00  0.00    -0.237 OA
ATOM     64  O   UNL A   1      49.995  26.724  29.903  1.00  0.00    -0.237 OA
ATOM     65  O   UNL A   1      50.595  29.009  30.614  1.00  0.00    -0.744 OA
ENDBRANCH  58  62
ENDBRANCH  41  55
BRANCH  42  66
ATOM     66  C   UNL A   1      36.980  32.323  30.599  1.00  0.00     0.023 A 
ATOM     67  C   UNL A   1      36.102  32.863  29.647  1.00  0.00     0.031 A 
ATOM     68  C   UNL A   1      36.523  32.213  31.925  1.00  0.00     0.131 A 
ATOM     69  C   UNL A   1      34.840  33.332  30.044  1.00  0.00     0.055 A 
ATOM     70  C   UNL A   1      35.243  32.619  32.302  1.00  0.00     0.041 A 
ATOM     71  F   UNL A   1      37.320  31.702  32.879  1.00  0.00    -0.206 F 
ATOM     72  C   UNL A   1      34.398  33.199  31.362  1.00  0.00     0.022 A 
BRANCH  69  73
ATOM     73  S   UNL A   1      33.828  34.230  28.834  1.00  0.00     0.124 S 
ATOM     74  O   UNL A   1      33.347  33.144  27.988  1.00  0.00    -0.237 OA
ATOM     75  O   UNL A   1      32.831  34.868  29.688  1.00  0.00    -0.237 OA
ATOM     76  O   UNL A   1      34.782  35.140  28.203  1.00  0.00    -0.744 OA
ENDBRANCH  69  73
ENDBRANCH  42  66
BRANCH  54  77
ATOM     77  C   UNL A   1      43.134  35.540  31.276  1.00  0.00     0.023 A 
ATOM     78  C   UNL A   1      43.380  36.608  30.397  1.00  0.00     0.031 A 
ATOM     79  C   UNL A   1      43.254  35.780  32.657  1.00  0.00     0.131 A 
ATOM     80  C   UNL A   1      43.794  37.850  30.904  1.00  0.00     0.055 A 
ATOM     81  C   UNL A   1      43.598  37.035  33.158  1.00  0.00     0.041 A 
ATOM     82  F   UNL A   1      43.036  34.796  33.544  1.00  0.00    -0.206 F 
ATOM     83  C   UNL A   1      43.885  38.076  32.280  1.00  0.00     0.022 A 
BRANCH  80  84
ATOM     84  S   UNL A   1      44.314  39.137  29.737  1.00  0.00     0.124 S 
ATOM     85  O   UNL A   1      45.191  39.960  30.564  1.00  0.00    -0.237 OA
ATOM     86  O   UNL A   1      44.970  38.362  28.689  1.00  0.00    -0.237 OA
ATOM     87  O   UNL A   1      43.058  39.771  29.343  1.00  0.00    -0.744 OA
ENDBRANCH  80  84
ENDBRANCH  54  77
ENDBRANCH  28  29
ENDBRANCH  20  23
ENDBRANCH  18  19
ENDBRANCH  17  18
ENDBRANCH   1  17
TORSDOF 17
ENDMDL
MODEL 2
REMARK VINA RESULT:      -9.1      3.883     10.038
REMARK SMILES CC1([C@@]2(C)C[C@@H]2C(=O)NCCCCCCNC(=O)c2ccc(-c3c4nc(c(-c5cc(S(=O)(=O)[O-])ccc5F)c5ccc([nH]5)c(-c5cc(S(=O)(=O)[O-])ccc5F)c5nc(c(-c6cc(S(=O)(=O)[O-])ccc6F)c6ccc3[nH]6)C=C5)C=C4)cc2)CC1
REMARK SMILES IDX 13 1 12 2 11 3 10 4 9 5 7 6 8 7 6 9 3 10 4 11 5 12 2 13 1 14
REMARK SMILES IDX 82 15 83 16 14 17 15 18 16 19 17 20 18 22 19 23 20 24 81 25
REMARK SMILES IDX 21 26 80 27 22 28 23 29 24 30 74 31 25 32 79 33 73 34 75 35
REMARK SMILES IDX 26 36 78 37 72 38 71 39 27 41 59 42 39 43 58 44 40 45 43 46
REMARK SMILES IDX 57 47 76 48 41 49 42 50 56 52 77 53 44 54 28 55 29 56 37 57
REMARK SMILES IDX 30 58 36 59 38 60 35 61 31 62 32 63 33 64 34 65 60 66 61 67
REMARK SMILES IDX 69 68 62 69 68 70 70 71 67 72 63 73 64 74 65 75 66 76 45 77
REMARK SMILES IDX 46 78 54 79 47 80 53 81 55 82 52 83 48 84 49 85 50 86 51 87
REMARK H PARENT 9 8 16 21 75 40 43 51
REMARK Flexibility Score: inf
ROOT
ATOM      1  C   UNL A   1      35.172  23.064  23.283  1.00  0.00     0.002 C 
ENDROOT
BRANCH   1   2
ATOM      2  C   UNL A   1      34.489  24.353  23.754  1.00  0.00     0.002 C 
BRANCH   2   3
ATOM      3  C   UNL A   1      33.335  24.833  22.869  1.00  0.00     0.021 C 
BRANCH   3   4
ATOM      4  C   UNL A   1      33.473  26.277  22.394  1.00  0.00     0.116 C 
BRANCH   4   5
ATOM      5  N   UNL A   1      32.224  26.776  21.847  1.00  0.00    -0.356 N 
ATOM      6  C   UNL A   1      31.380  27.692  22.410  1.00  0.00     0.223 C 
ATOM      7  O   UNL A   1      30.295  27.957  21.903  1.00  0.00    -0.275 OA
ATOM      8  H   UNL A   1      31.955  26.415  20.971  1.00  0.00     0.163 HD
BRANCH   6   9
ATOM      9  C   UNL A   1      31.828  28.326  23.669  1.00  0.00     0.085 C 
ATOM     10  C   UNL A   1      31.400  27.869  25.067  1.00  0.00    -0.015 C 
ATOM     11  C   UNL A   1      30.403  26.737  25.197  1.00  0.00     0.013 C 
ATOM     12  C   UNL A   1      30.845  29.145  24.468  1.00  0.00     0.022 C 
BRANCH  10  13
ATOM     13  C   UNL A   1      32.489  27.891  26.190  1.00  0.00    -0.026 C 
ATOM     14  C   UNL A   1      31.931  28.139  27.575  1.00  0.00     0.012 C 
ATOM     15  C   UNL A   1      33.861  28.471  25.894  1.00  0.00     0.008 C 
ATOM     16  C   UNL A   1      33.721  26.999  26.127  1.00  0.00     0.008 C 
ENDBRANCH  10  13
ENDBRANCH   6   9
ENDBRANCH   4   5
ENDBRANCH   3   4
ENDBRANCH   2   3
ENDBRANCH   1   2
BRANCH   1  17
ATOM     17  C   UNL A   1      36.598  22.861  23.799  1.00  0.00     0.021 C 
BRANCH  17  18
ATOM     18  C   UNL A   1      36.704  22.636  25.304  1.00  0.00     0.116 C 
BRANCH  18  19
ATOM     19  N   UNL A   1      37.605  21.543  25.628  1.00  0.00    -0.352 N 
ATOM     20  C   UNL A   1      38.884  21.588  26.127  1.00  0.00     0.251 C 
ATOM     21  H   UNL A   1      37.247  20.639  25.468  1.00  0.00     0.163 HD
ATOM     22  O   UNL A   1      39.569  20.570  26.138  1.00  0.00    -0.269 OA
BRANCH  20  23
ATOM     23  C   UNL A   1      39.437  22.868  26.625  1.00  0.00     0.039 A 
ATOM     24  C   UNL A   1      40.416  22.839  27.620  1.00  0.00     0.014 A 
ATOM     25  C   UNL A   1      38.991  24.091  26.115  1.00  0.00     0.014 A 
ATOM     26  C   UNL A   1      40.990  24.034  28.061  1.00  0.00     0.010 A 
ATOM     27  C   UNL A   1      39.620  25.273  26.499  1.00  0.00     0.010 A 
ATOM     28  C   UNL A   1      40.624  25.259  27.479  1.00  0.00    -0.014 A 
BRANCH  28  29
ATOM     29  C   UNL A   1      41.275  26.532  27.889  1.00  0.00     0.031 A 
ATOM     30  C   UNL A   1      40.479  27.590  28.607  1.00  0.00     0.074 A 
ATOM     31  C   UNL A   1      42.568  26.755  27.574  1.00  0.00     0.049 A 
ATOM     32  N   UNL A   1      40.846  28.789  28.983  1.00  0.00    -0.248 NA
ATOM     33  C   UNL A   1      39.078  27.267  28.917  1.00  0.00     0.031 C 
ATOM     34  C   UNL A   1      43.435  25.818  26.855  1.00  0.00     0.029 A 
ATOM     35  N   UNL A   1      43.377  27.837  27.811  1.00  0.00    -0.354 N 
ATOM     36  C   UNL A   1      39.722  29.364  29.566  1.00  0.00     0.074 A 
ATOM     37  C   UNL A   1      38.645  28.407  29.433  1.00  0.00     0.031 C 
ATOM     38  C   UNL A   1      44.659  26.354  26.737  1.00  0.00     0.029 A 
ATOM     39  C   UNL A   1      44.655  27.693  27.319  1.00  0.00     0.049 A 
ATOM     40  H   UNL A   1      43.073  28.642  28.289  1.00  0.00     0.167 HD
ATOM     41  C   UNL A   1      39.606  30.569  30.178  1.00  0.00     0.034 A 
ATOM     42  C   UNL A   1      45.699  28.545  27.321  1.00  0.00     0.034 A 
ATOM     43  C   UNL A   1      40.693  31.510  30.309  1.00  0.00     0.049 A 
ATOM     44  C   UNL A   1      45.530  29.899  27.967  1.00  0.00     0.074 A 
ATOM     45  C   UNL A   1      40.695  32.738  30.947  1.00  0.00     0.029 A 
ATOM     46  N   UNL A   1      41.968  31.334  29.787  1.00  0.00    -0.354 N 
ATOM     47  N   UNL A   1      44.472  30.410  28.554  1.00  0.00    -0.248 NA
ATOM     48  C   UNL A   1      46.700  30.788  27.960  1.00  0.00     0.031 C 
ATOM     49  C   UNL A   1      41.942  33.337  30.743  1.00  0.00     0.029 A 
ATOM     50  C   UNL A   1      42.751  32.446  30.058  1.00  0.00     0.049 A 
ATOM     51  H   UNL A   1      42.271  30.536  29.296  1.00  0.00     0.167 HD
ATOM     52  C   UNL A   1      44.864  31.662  29.021  1.00  0.00     0.074 A 
ATOM     53  C   UNL A   1      46.257  31.822  28.660  1.00  0.00     0.031 C 
ATOM     54  C   UNL A   1      44.140  32.594  29.691  1.00  0.00     0.034 A 
BRANCH  41  55
ATOM     55  C   UNL A   1      38.251  30.946  30.730  1.00  0.00     0.023 A 
ATOM     56  C   UNL A   1      37.285  31.594  29.939  1.00  0.00     0.031 A 
ATOM     57  C   UNL A   1      37.921  30.660  32.066  1.00  0.00     0.131 A 
ATOM     58  C   UNL A   1      36.069  31.997  30.509  1.00  0.00     0.055 A 
ATOM     59  C   UNL A   1      36.674  30.988  32.603  1.00  0.00     0.041 A 
ATOM     60  F   UNL A   1      38.809  30.064  32.877  1.00  0.00    -0.206 F 
ATOM     61  C   UNL A   1      35.745  31.673  31.828  1.00  0.00     0.022 A 
BRANCH  58  62
ATOM     62  S   UNL A   1      34.975  33.074  29.543  1.00  0.00     0.124 S 
ATOM     63  O   UNL A   1      35.904  34.107  29.089  1.00  0.00    -0.237 OA
ATOM     64  O   UNL A   1      34.470  32.172  28.516  1.00  0.00    -0.237 OA
ATOM     65  O   UNL A   1      33.985  33.524  30.521  1.00  0.00    -0.744 OA
ENDBRANCH  58  62
ENDBRANCH  41  55
BRANCH  42  66
ATOM     66  C   UNL A   1      46.994  28.168  26.680  1.00  0.00     0.023 A 
ATOM     67  C   UNL A   1      47.133  28.153  25.283  1.00  0.00     0.031 A 
ATOM     68  C   UNL A   1      48.094  27.754  27.453  1.00  0.00     0.131 A 
ATOM     69  C   UNL A   1      48.317  27.673  24.702  1.00  0.00     0.055 A 
ATOM     70  C   UNL A   1      49.293  27.341  26.872  1.00  0.00     0.041 A 
ATOM     71  F   UNL A   1      48.018  27.748  28.795  1.00  0.00    -0.206 F 
ATOM     72  C   UNL A   1      49.404  27.282  25.486  1.00  0.00     0.022 A 
BRANCH  69  73
ATOM     73  S   UNL A   1      48.373  27.455  22.901  1.00  0.00     0.124 S 
ATOM     74  O   UNL A   1      47.188  28.191  22.478  1.00  0.00    -0.237 OA
ATOM     75  O   UNL A   1      49.659  28.058  22.563  1.00  0.00    -0.237 OA
ATOM     76  O   UNL A   1      48.302  26.005  22.733  1.00  0.00    -0.744 OA
ENDBRANCH  69  73
ENDBRANCH  42  66
BRANCH  54  77
ATOM     77  C   UNL A   1      44.864  33.847  30.128  1.00  0.00     0.023 A 
ATOM     78  C   UNL A   1      45.010  34.958  29.280  1.00  0.00     0.031 A 
ATOM     79  C   UNL A   1      45.423  33.922  31.418  1.00  0.00     0.131 A 
ATOM     80  C   UNL A   1      45.751  36.071  29.707  1.00  0.00     0.055 A 
ATOM     81  C   UNL A   1      46.098  35.059  31.861  1.00  0.00     0.041 A 
ATOM     82  F   UNL A   1      45.319  32.890  32.269  1.00  0.00    -0.206 F 
ATOM     83  C   UNL A   1      46.279  36.137  31.000  1.00  0.00     0.022 A 
BRANCH  80  84
ATOM     84  S   UNL A   1      46.106  37.390  28.515  1.00  0.00     0.124 S 
ATOM     85  O   UNL A   1      47.453  37.795  28.902  1.00  0.00    -0.237 OA
ATOM     86  O   UNL A   1      45.993  36.694  27.237  1.00  0.00    -0.237 OA
ATOM     87  O   UNL A   1      45.062  38.379  28.775  1.00  0.00    -0.744 OA
ENDBRANCH  80  84
ENDBRANCH  54  77
ENDBRANCH  28  29
ENDBRANCH  20  23
ENDBRANCH  18  19
ENDBRANCH  17  18
ENDBRANCH   1  17
TORSDOF 17
ENDMDL
MODEL 3
REMARK VINA RESULT:      -9.0      3.971     10.014
REMARK SMILES CC1([C@@]2(C)C[C@@H]2C(=O)NCCCCCCNC(=O)c2ccc(-c3c4nc(c(-c5cc(S(=O)(=O)[O-])ccc5F)c5ccc([nH]5)c(-c5cc(S(=O)(=O)[O-])ccc5F)c5nc(c(-c6cc(S(=O)(=O)[O-])ccc6F)c6ccc3[nH]6)C=C5)C=C4)cc2)CC1
REMARK SMILES IDX 13 1 12 2 11 3 10 4 9 5 7 6 8 7 6 9 3 10 4 11 5 12 2 13 1 14
REMARK SMILES IDX 82 15 83 16 14 17 15 18 16 19 17 20 18 22 19 23 20 24 81 25
REMARK SMILES IDX 21 26 80 27 22 28 23 29 24 30 74 31 25 32 79 33 73 34 75 35
REMARK SMILES IDX 26 36 78 37 72 38 71 39 27 41 59 42 39 43 58 44 40 45 43 46
REMARK SMILES IDX 57 47 76 48 41 49 42 50 56 52 77 53 44 54 28 55 29 56 37 57
REMARK SMILES IDX 30 58 36 59 38 60 35 61 31 62 32 63 33 64 34 65 60 66 61 67
REMARK SMILES IDX 69 68 62 69 68 70 70 71 67 72 63 73 64 74 65 75 66 76 45 77
REMARK SMILES IDX 46 78 54 79 47 80 53 81 55 82 52 83 48 84 49 85 50 86 51 87
REMARK H PARENT 9 8 16 21 75 40 43 51
REMARK Flexibility Score: inf
ROOT
ATOM      1  C   UNL A   1      35.433  22.269  25.718  1.00  0.00     0.002 C 
ENDROOT
BRANCH   1   2
ATOM      2  C   UNL A   1      35.887  23.601  25.111  1.00  0.00     0.002 C 
BRANCH   2   3
ATOM      3  C   UNL A   1      35.316  24.849  25.790  1.00  0.00     0.021 C 
BRANCH   3   4
ATOM      4  C   UNL A   1      34.006  25.345  25.185  1.00  0.00     0.116 C 
BRANCH   4   5
ATOM      5  N   UNL A   1      32.939  25.361  26.170  1.00  0.00    -0.356 N 
ATOM      6  C   UNL A   1      31.999  24.394  26.389  1.00  0.00     0.223 C 
ATOM      7  O   UNL A   1      31.078  24.566  27.180  1.00  0.00    -0.275 OA
ATOM      8  H   UNL A   1      32.888  26.158  26.745  1.00  0.00     0.163 HD
BRANCH   6   9
ATOM      9  C   UNL A   1      32.134  23.143  25.610  1.00  0.00     0.085 C 
ATOM     10  C   UNL A   1      31.576  22.940  24.198  1.00  0.00    -0.015 C 
ATOM     11  C   UNL A   1      30.774  24.052  23.558  1.00  0.00     0.013 C 
ATOM     12  C   UNL A   1      30.916  22.280  25.391  1.00  0.00     0.022 C 
BRANCH  10  13
ATOM     13  C   UNL A   1      32.459  22.131  23.191  1.00  0.00    -0.026 C 
ATOM     14  C   UNL A   1      33.467  22.979  22.446  1.00  0.00     0.012 C 
ATOM     15  C   UNL A   1      31.851  20.967  22.427  1.00  0.00     0.008 C 
ATOM     16  C   UNL A   1      32.886  20.698  23.474  1.00  0.00     0.008 C 
ENDBRANCH  10  13
ENDBRANCH   6   9
ENDBRANCH   4   5
ENDBRANCH   3   4
ENDBRANCH   2   3
ENDBRANCH   1   2
BRANCH   1  17
ATOM     17  C   UNL A   1      36.193  21.037  25.219  1.00  0.00     0.021 C 
BRANCH  17  18
ATOM     18  C   UNL A   1      37.675  21.269  24.952  1.00  0.00     0.116 C 
BRANCH  18  19
ATOM     19  N   UNL A   1      38.505  20.248  25.568  1.00  0.00    -0.352 N 
ATOM     20  C   UNL A   1      39.694  20.381  26.241  1.00  0.00     0.251 C 
ATOM     21  H   UNL A   1      38.165  19.326  25.492  1.00  0.00     0.163 HD
ATOM     22  O   UNL A   1      40.358  19.384  26.508  1.00  0.00    -0.269 OA
BRANCH  20  23
ATOM     23  C   UNL A   1      40.180  21.727  26.620  1.00  0.00     0.039 A 
ATOM     24  C   UNL A   1      41.153  21.839  27.616  1.00  0.00     0.014 A 
ATOM     25  C   UNL A   1      39.679  22.874  25.999  1.00  0.00     0.014 A 
ATOM     26  C   UNL A   1      41.664  23.096  27.946  1.00  0.00     0.010 A 
ATOM     27  C   UNL A   1      40.246  24.116  26.273  1.00  0.00     0.010 A 
ATOM     28  C   UNL A   1      41.242  24.243  27.253  1.00  0.00    -0.014 A 
BRANCH  28  29
ATOM     29  C   UNL A   1      41.827  25.579  27.545  1.00  0.00     0.031 A 
ATOM     30  C   UNL A   1      41.031  26.600  28.313  1.00  0.00     0.074 A 
ATOM     31  C   UNL A   1      43.055  25.889  27.079  1.00  0.00     0.049 A 
ATOM     32  N   UNL A   1      41.336  27.839  28.606  1.00  0.00    -0.248 NA
ATOM     33  C   UNL A   1      39.703  26.182  28.789  1.00  0.00     0.031 C 
ATOM     34  C   UNL A   1      43.911  24.995  26.297  1.00  0.00     0.029 A 
ATOM     35  N   UNL A   1      43.793  27.041  27.187  1.00  0.00    -0.354 N 
ATOM     36  C   UNL A   1      40.240  28.348  29.293  1.00  0.00     0.074 A 
ATOM     37  C   UNL A   1      39.237  27.305  29.315  1.00  0.00     0.031 C 
ATOM     38  C   UNL A   1      45.067  25.619  26.024  1.00  0.00     0.029 A 
ATOM     39  C   UNL A   1      45.016  26.977  26.558  1.00  0.00     0.049 A 
ATOM     40  H   UNL A   1      43.478  27.839  27.669  1.00  0.00     0.167 HD
ATOM     41  C   UNL A   1      40.093  29.565  29.875  1.00  0.00     0.034 A 
ATOM     42  C   UNL A   1      45.980  27.908  26.415  1.00  0.00     0.034 A 
ATOM     43  C   UNL A   1      41.106  30.592  29.851  1.00  0.00     0.049 A 
ATOM     44  C   UNL A   1      45.772  29.270  27.031  1.00  0.00     0.074 A 
ATOM     45  C   UNL A   1      41.076  31.843  30.445  1.00  0.00     0.029 A 
ATOM     46  N   UNL A   1      42.326  30.496  29.194  1.00  0.00    -0.354 N 
ATOM     47  N   UNL A   1      44.747  29.720  27.717  1.00  0.00    -0.248 NA
ATOM     48  C   UNL A   1      46.857  30.247  26.864  1.00  0.00     0.031 C 
ATOM     49  C   UNL A   1      42.240  32.529  30.082  1.00  0.00     0.029 A 
ATOM     50  C   UNL A   1      43.040  31.675  29.339  1.00  0.00     0.049 A 
ATOM     51  H   UNL A   1      42.638  29.704  28.699  1.00  0.00     0.167 HD
ATOM     52  C   UNL A   1      45.083  31.017  28.096  1.00  0.00     0.074 A 
ATOM     53  C   UNL A   1      46.410  31.271  27.575  1.00  0.00     0.031 C 
ATOM     54  C   UNL A   1      44.362  31.917  28.813  1.00  0.00     0.034 A 
BRANCH  41  55
ATOM     55  C   UNL A   1      38.780  29.857  30.563  1.00  0.00     0.023 A 
ATOM     56  C   UNL A   1      37.774  30.619  29.944  1.00  0.00     0.031 A 
ATOM     57  C   UNL A   1      38.533  29.373  31.860  1.00  0.00     0.131 A 
ATOM     58  C   UNL A   1      36.601  30.933  30.645  1.00  0.00     0.055 A 
ATOM     59  C   UNL A   1      37.326  29.618  32.521  1.00  0.00     0.041 A 
ATOM     60  F   UNL A   1      39.463  28.660  32.513  1.00  0.00    -0.206 F 
ATOM     61  C   UNL A   1      36.357  30.414  31.919  1.00  0.00     0.022 A 
BRANCH  58  62
ATOM     62  S   UNL A   1      35.460  32.146  29.925  1.00  0.00     0.124 S 
ATOM     63  O   UNL A   1      34.518  32.353  31.024  1.00  0.00    -0.237 OA
ATOM     64  O   UNL A   1      36.341  33.266  29.620  1.00  0.00    -0.237 OA
ATOM     65  O   UNL A   1      34.907  31.450  28.764  1.00  0.00    -0.744 OA
ENDBRANCH  58  62
ENDBRANCH  41  55
BRANCH  42  66
ATOM     66  C   UNL A   1      47.224  27.607  25.644  1.00  0.00     0.023 A 
ATOM     67  C   UNL A   1      47.318  27.906  24.276  1.00  0.00     0.031 A 
ATOM     68  C   UNL A   1      48.314  26.956  26.250  1.00  0.00     0.131 A 
ATOM     69  C   UNL A   1      48.445  27.499  23.545  1.00  0.00     0.055 A 
ATOM     70  C   UNL A   1      49.461  26.613  25.533  1.00  0.00     0.041 A 
ATOM     71  F   UNL A   1      48.281  26.646  27.557  1.00  0.00    -0.206 F 
ATOM     72  C   UNL A   1      49.524  26.869  24.168  1.00  0.00     0.022 A 
BRANCH  69  73
ATOM     73  S   UNL A   1      48.428  27.699  21.742  1.00  0.00     0.124 S 
ATOM     74  O   UNL A   1      48.627  26.326  21.291  1.00  0.00    -0.237 OA
ATOM     75  O   UNL A   1      47.102  28.264  21.513  1.00  0.00    -0.237 OA
ATOM     76  O   UNL A   1      49.544  28.608  21.491  1.00  0.00    -0.744 OA
ENDBRANCH  69  73
ENDBRANCH  42  66
BRANCH  54  77
ATOM     77  C   UNL A   1      45.024  33.240  29.124  1.00  0.00     0.023 A 
ATOM     78  C   UNL A   1      44.915  34.348  28.268  1.00  0.00     0.031 A 
ATOM     79  C   UNL A   1      45.785  33.386  30.299  1.00  0.00     0.131 A 
ATOM     80  C   UNL A   1      45.605  35.534  28.566  1.00  0.00     0.055 A 
ATOM     81  C   UNL A   1      46.411  34.589  30.625  1.00  0.00     0.041 A 
ATOM     82  F   UNL A   1      45.929  32.360  31.153  1.00  0.00    -0.206 F 
ATOM     83  C   UNL A   1      46.336  35.668  29.749  1.00  0.00     0.022 A 
BRANCH  80  84
ATOM     84  S   UNL A   1      45.621  36.865  27.335  1.00  0.00     0.124 S 
ATOM     85  O   UNL A   1      44.210  37.234  27.268  1.00  0.00    -0.237 OA
ATOM     86  O   UNL A   1      46.508  37.848  27.949  1.00  0.00    -0.237 OA
ATOM     87  O   UNL A   1      46.150  36.218  26.136  1.00  0.00    -0.744 OA
ENDBRANCH  80  84
ENDBRANCH  54  77
ENDBRANCH  28  29
ENDBRANCH  20  23
ENDBRANCH  18  19
ENDBRANCH  17  18
ENDBRANCH   1  17
TORSDOF 17
ENDMDL
