MODEL 1
REMARK VINA RESULT:     -11.6      0.000      0.000
REMARK SMILES CC[C@H](NC(=O)c1nn(C)cc1C(=O)NCCCCCCNC(=O)c1ccc(-c2c3nc(c(-c4cc(S(=O)(=O)[O-])ccc4F)c4ccc([nH]4)c(-c4cc(S(=O)(=O)[O-])ccc4F)c4nc(c(-c5cc(S(=O)(=O)[O-])ccc5F)c5ccc2[nH]5)C=C4)C=C3)cc1)c1ccccc1
REMARK SMILES IDX 18 1 17 2 16 3 15 4 13 5 14 6 12 8 7 9 8 10 9 11 11 12 10 13
REMARK SMILES IDX 5 14 4 15 6 17 3 18 2 19 1 20 88 21 89 22 93 23 90 24 92 25
REMARK SMILES IDX 91 26 19 27 20 28 21 29 22 30 23 31 24 33 25 34 26 35 87 36
REMARK SMILES IDX 27 37 86 38 28 39 29 40 30 41 80 42 31 43 85 44 79 45 81 46
REMARK SMILES IDX 32 47 84 48 78 49 77 50 33 52 65 53 45 54 64 55 46 56 49 57
REMARK SMILES IDX 63 58 82 59 47 60 48 61 62 63 83 64 50 65 34 66 35 67 43 68
REMARK SMILES IDX 36 69 42 70 44 71 41 72 37 73 38 74 39 75 40 76 66 77 67 78
REMARK SMILES IDX 75 79 68 80 74 81 76 82 73 83 69 84 70 85 71 86 72 87 51 88
REMARK SMILES IDX 52 89 60 90 53 91 59 92 61 93 58 94 54 95 55 96 56 97 57 98
REMARK H PARENT 15 7 4 16 22 32 81 51 49 62
REMARK Flexibility Score: inf
ROOT
ATOM      1  C   UNL A   1      32.280  29.589  26.672  1.00  0.00     0.002 C 
ENDROOT
BRANCH   1   2
ATOM      2  C   UNL A   1      31.568  28.279  27.028  1.00  0.00     0.021 C 
BRANCH   2   3
ATOM      3  C   UNL A   1      32.204  26.993  26.509  1.00  0.00     0.116 C 
BRANCH   3   4
ATOM      4  N   UNL A   1      31.447  25.795  26.805  1.00  0.00    -0.352 N 
ATOM      5  C   UNL A   1      31.714  24.457  26.695  1.00  0.00     0.255 C 
ATOM      6  O   UNL A   1      30.863  23.688  27.152  1.00  0.00    -0.269 OA
ATOM      7  H   UNL A   1      30.549  25.983  27.160  1.00  0.00     0.163 HD
BRANCH   5   8
ATOM      8  C   UNL A   1      32.907  23.935  26.052  1.00  0.00     0.090 A 
ATOM      9  C   UNL A   1      32.987  23.512  24.682  1.00  0.00     0.162 A 
ATOM     10  N   UNL A   1      34.216  23.052  24.372  1.00  0.00    -0.167 NA
ATOM     11  N   UNL A   1      34.874  23.077  25.537  1.00  0.00    -0.274 N 
ATOM     12  C   UNL A   1      34.150  23.608  26.564  1.00  0.00     0.123 A 
ATOM     13  C   UNL A   1      36.201  22.512  25.613  1.00  0.00     0.173 C 
BRANCH   9  14
ATOM     14  C   UNL A   1      31.914  23.486  23.682  1.00  0.00     0.273 C 
ATOM     15  N   UNL A   1      31.596  24.635  23.002  1.00  0.00    -0.344 N 
ATOM     16  H   UNL A   1      30.851  24.551  22.364  1.00  0.00     0.164 HD
ATOM     17  O   UNL A   1      31.311  22.452  23.387  1.00  0.00    -0.267 OA
BRANCH  15  18
ATOM     18  C   UNL A   1      32.190  25.962  23.083  1.00  0.00     0.112 C 
BRANCH  18  19
ATOM     19  C   UNL A   1      33.184  26.147  21.917  1.00  0.00     0.026 C 
ATOM     20  C   UNL A   1      32.671  25.566  20.605  1.00  0.00     0.006 C 
ENDBRANCH  18  19
BRANCH  18  21
ATOM     21  C   UNL A   1      31.141  27.069  23.056  1.00  0.00    -0.026 A 
ATOM     22  C   UNL A   1      29.822  26.777  23.447  1.00  0.00     0.006 A 
ATOM     23  C   UNL A   1      31.431  28.386  22.661  1.00  0.00     0.006 A 
ATOM     24  C   UNL A   1      28.835  27.767  23.452  1.00  0.00     0.000 A 
ATOM     25  C   UNL A   1      30.440  29.372  22.653  1.00  0.00     0.000 A 
ATOM     26  C   UNL A   1      29.143  29.063  23.050  1.00  0.00     0.000 A 
ENDBRANCH  18  21
ENDBRANCH  15  18
ENDBRANCH   9  14
ENDBRANCH   5   8
ENDBRANCH   3   4
ENDBRANCH   2   3
ENDBRANCH   1   2
BRANCH   1  27
ATOM     27  C   UNL A   1      31.468  30.675  25.958  1.00  0.00     0.002 C 
BRANCH  27  28
ATOM     28  C   UNL A   1      31.369  32.045  26.632  1.00  0.00     0.021 C 
BRANCH  28  29
ATOM     29  C   UNL A   1      32.674  32.668  27.116  1.00  0.00     0.116 C 
BRANCH  29  30
ATOM     30  N   UNL A   1      32.492  33.965  27.740  1.00  0.00    -0.352 N 
ATOM     31  C   UNL A   1      33.187  34.542  28.778  1.00  0.00     0.251 C 
ATOM     32  H   UNL A   1      31.763  34.512  27.367  1.00  0.00     0.163 HD
ATOM     33  O   UNL A   1      32.804  35.614  29.236  1.00  0.00    -0.269 OA
BRANCH  31  34
ATOM     34  C   UNL A   1      34.369  33.866  29.368  1.00  0.00     0.039 A 
ATOM     35  C   UNL A   1      35.645  34.291  28.979  1.00  0.00     0.014 A 
ATOM     36  C   UNL A   1      34.235  32.814  30.280  1.00  0.00     0.014 A 
ATOM     37  C   UNL A   1      36.781  33.717  29.558  1.00  0.00     0.010 A 
ATOM     38  C   UNL A   1      35.368  32.270  30.887  1.00  0.00     0.010 A 
ATOM     39  C   UNL A   1      36.651  32.723  30.540  1.00  0.00    -0.014 A 
BRANCH  39  40
ATOM     40  C   UNL A   1      37.839  32.155  31.225  1.00  0.00     0.031 A 
ATOM     41  C   UNL A   1      38.643  31.068  30.571  1.00  0.00     0.074 A 
ATOM     42  C   UNL A   1      38.142  32.553  32.475  1.00  0.00     0.049 A 
ATOM     43  N   UNL A   1      39.612  30.343  31.068  1.00  0.00    -0.248 NA
ATOM     44  C   UNL A   1      38.287  30.735  29.185  1.00  0.00     0.031 C 
ATOM     45  C   UNL A   1      37.412  33.563  33.246  1.00  0.00     0.029 A 
ATOM     46  N   UNL A   1      39.130  32.132  33.328  1.00  0.00    -0.354 N 
ATOM     47  C   UNL A   1      39.955  29.435  30.073  1.00  0.00     0.074 A 
ATOM     48  C   UNL A   1      39.087  29.706  28.944  1.00  0.00     0.031 C 
ATOM     49  C   UNL A   1      37.971  33.674  34.462  1.00  0.00     0.029 A 
ATOM     50  C   UNL A   1      39.082  32.733  34.562  1.00  0.00     0.049 A 
ATOM     51  H   UNL A   1      39.808  31.464  33.080  1.00  0.00     0.167 HD
ATOM     52  C   UNL A   1      40.899  28.461  30.099  1.00  0.00     0.034 A 
ATOM     53  C   UNL A   1      39.833  32.533  35.661  1.00  0.00     0.034 A 
ATOM     54  C   UNL A   1      41.790  28.217  31.204  1.00  0.00     0.049 A 
ATOM     55  C   UNL A   1      40.931  31.511  35.636  1.00  0.00     0.074 A 
ATOM     56  C   UNL A   1      42.817  27.294  31.301  1.00  0.00     0.029 A 
ATOM     57  N   UNL A   1      41.763  28.907  32.408  1.00  0.00    -0.354 N 
ATOM     58  N   UNL A   1      41.242  30.661  34.688  1.00  0.00    -0.248 NA
ATOM     59  C   UNL A   1      41.781  31.427  36.832  1.00  0.00     0.031 C 
ATOM     60  C   UNL A   1      43.398  27.411  32.573  1.00  0.00     0.029 A 
ATOM     61  C   UNL A   1      42.749  28.426  33.255  1.00  0.00     0.049 A 
ATOM     62  H   UNL A   1      41.135  29.632  32.627  1.00  0.00     0.167 HD
ATOM     63  C   UNL A   1      42.321  29.935  35.175  1.00  0.00     0.074 A 
ATOM     64  C   UNL A   1      42.612  30.449  36.499  1.00  0.00     0.031 C 
ATOM     65  C   UNL A   1      43.013  28.935  34.576  1.00  0.00     0.034 A 
BRANCH  52  66
ATOM     66  C   UNL A   1      40.967  27.558  28.900  1.00  0.00     0.023 A 
ATOM     67  C   UNL A   1      41.929  27.739  27.894  1.00  0.00     0.031 A 
ATOM     68  C   UNL A   1      40.018  26.533  28.740  1.00  0.00     0.131 A 
ATOM     69  C   UNL A   1      41.885  26.943  26.739  1.00  0.00     0.055 A 
ATOM     70  C   UNL A   1      40.011  25.711  27.613  1.00  0.00     0.041 A 
ATOM     71  F   UNL A   1      39.064  26.337  29.664  1.00  0.00    -0.206 F 
ATOM     72  C   UNL A   1      40.941  25.922  26.598  1.00  0.00     0.022 A 
BRANCH  69  73
ATOM     73  S   UNL A   1      42.998  27.345  25.365  1.00  0.00     0.124 S 
ATOM     74  O   UNL A   1      44.202  27.775  26.072  1.00  0.00    -0.237 OA
ATOM     75  O   UNL A   1      43.091  26.075  24.656  1.00  0.00    -0.237 OA
ATOM     76  O   UNL A   1      42.291  28.408  24.652  1.00  0.00    -0.744 OA
ENDBRANCH  69  73
ENDBRANCH  52  66
BRANCH  53  77
ATOM     77  C   UNL A   1      39.537  33.285  36.902  1.00  0.00     0.023 A 
ATOM     78  C   UNL A   1      40.195  34.487  37.194  1.00  0.00     0.031 A 
ATOM     79  C   UNL A   1      38.578  32.803  37.805  1.00  0.00     0.131 A 
ATOM     80  C   UNL A   1      39.892  35.167  38.383  1.00  0.00     0.055 A 
ATOM     81  C   UNL A   1      38.275  33.487  38.982  1.00  0.00     0.041 A 
ATOM     82  F   UNL A   1      37.918  31.663  37.547  1.00  0.00    -0.206 F 
ATOM     83  C   UNL A   1      38.936  34.676  39.278  1.00  0.00     0.022 A 
BRANCH  80  84
ATOM     84  S   UNL A   1      40.758  36.720  38.741  1.00  0.00     0.124 S 
ATOM     85  O   UNL A   1      39.656  37.675  38.780  1.00  0.00    -0.237 OA
ATOM     86  O   UNL A   1      41.396  36.424  40.021  1.00  0.00    -0.237 OA
ATOM     87  O   UNL A   1      41.675  36.866  37.612  1.00  0.00    -0.744 OA
ENDBRANCH  80  84
ENDBRANCH  53  77
BRANCH  65  88
ATOM     88  C   UNL A   1      44.159  28.356  35.352  1.00  0.00     0.023 A 
ATOM     89  C   UNL A   1      43.991  27.212  36.148  1.00  0.00     0.031 A 
ATOM     90  C   UNL A   1      45.420  28.969  35.310  1.00  0.00     0.131 A 
ATOM     91  C   UNL A   1      45.072  26.724  36.897  1.00  0.00     0.055 A 
ATOM     92  C   UNL A   1      46.496  28.471  36.044  1.00  0.00     0.041 A 
ATOM     93  F   UNL A   1      45.619  30.070  34.568  1.00  0.00    -0.206 F 
ATOM     94  C   UNL A   1      46.324  27.346  36.847  1.00  0.00     0.022 A 
BRANCH  91  95
ATOM     95  S   UNL A   1      44.814  25.285  37.971  1.00  0.00     0.124 S 
ATOM     96  O   UNL A   1      43.458  24.878  37.617  1.00  0.00    -0.237 OA
ATOM     97  O   UNL A   1      45.881  24.385  37.549  1.00  0.00    -0.237 OA
ATOM     98  O   UNL A   1      44.963  25.832  39.319  1.00  0.00    -0.744 OA
ENDBRANCH  91  95
ENDBRANCH  65  88
ENDBRANCH  39  40
ENDBRANCH  31  34
ENDBRANCH  29  30
ENDBRANCH  28  29
ENDBRANCH  27  28
ENDBRANCH   1  27
TORSDOF 20
ENDMDL
MODEL 2
REMARK VINA RESULT:     -11.3      5.689     11.167
REMARK SMILES CC[C@H](NC(=O)c1nn(C)cc1C(=O)NCCCCCCNC(=O)c1ccc(-c2c3nc(c(-c4cc(S(=O)(=O)[O-])ccc4F)c4ccc([nH]4)c(-c4cc(S(=O)(=O)[O-])ccc4F)c4nc(c(-c5cc(S(=O)(=O)[O-])ccc5F)c5ccc2[nH]5)C=C4)C=C3)cc1)c1ccccc1
REMARK SMILES IDX 18 1 17 2 16 3 15 4 13 5 14 6 12 8 7 9 8 10 9 11 11 12 10 13
REMARK SMILES IDX 5 14 4 15 6 17 3 18 2 19 1 20 88 21 89 22 93 23 90 24 92 25
REMARK SMILES IDX 91 26 19 27 20 28 21 29 22 30 23 31 24 33 25 34 26 35 87 36
REMARK SMILES IDX 27 37 86 38 28 39 29 40 30 41 80 42 31 43 85 44 79 45 81 46
REMARK SMILES IDX 32 47 84 48 78 49 77 50 33 52 65 53 45 54 64 55 46 56 49 57
REMARK SMILES IDX 63 58 82 59 47 60 48 61 62 63 83 64 50 65 34 66 35 67 43 68
REMARK SMILES IDX 36 69 42 70 44 71 41 72 37 73 38 74 39 75 40 76 66 77 67 78
REMARK SMILES IDX 75 79 68 80 74 81 76 82 73 83 69 84 70 85 71 86 72 87 51 88
REMARK SMILES IDX 52 89 60 90 53 91 59 92 61 93 58 94 54 95 55 96 56 97 57 98
REMARK H PARENT 15 7 4 16 22 32 81 51 49 62
REMARK Flexibility Score: inf
ROOT
ATOM      1  C   UNL A   1      37.267  22.408  25.642  1.00  0.00     0.002 C 
ENDROOT
BRANCH   1   2
ATOM      2  C   UNL A   1      36.821  23.693  24.936  1.00  0.00     0.021 C 
BRANCH   2   3
ATOM      3  C   UNL A   1      35.429  24.214  25.280  1.00  0.00     0.116 C 
BRANCH   3   4
ATOM      4  N   UNL A   1      34.961  23.833  26.596  1.00  0.00    -0.352 N 
ATOM      5  C   UNL A   1      34.064  22.904  27.048  1.00  0.00     0.255 C 
ATOM      6  O   UNL A   1      33.985  22.767  28.273  1.00  0.00    -0.269 OA
ATOM      7  H   UNL A   1      35.376  24.354  27.320  1.00  0.00     0.163 HD
BRANCH   5   8
ATOM      8  C   UNL A   1      33.211  22.127  26.165  1.00  0.00     0.090 A 
ATOM      9  C   UNL A   1      31.785  22.261  26.068  1.00  0.00     0.162 A 
ATOM     10  N   UNL A   1      31.261  21.392  25.181  1.00  0.00    -0.167 NA
ATOM     11  N   UNL A   1      32.306  20.648  24.799  1.00  0.00    -0.274 N 
ATOM     12  C   UNL A   1      33.492  21.053  25.340  1.00  0.00     0.123 A 
ATOM     13  C   UNL A   1      32.089  19.506  23.943  1.00  0.00     0.173 C 
BRANCH   9  14
ATOM     14  C   UNL A   1      30.909  23.154  26.835  1.00  0.00     0.273 C 
ATOM     15  N   UNL A   1      30.892  24.495  26.546  1.00  0.00    -0.344 N 
ATOM     16  H   UNL A   1      30.299  25.037  27.115  1.00  0.00     0.164 HD
ATOM     17  O   UNL A   1      30.141  22.737  27.706  1.00  0.00    -0.267 OA
BRANCH  15  18
ATOM     18  C   UNL A   1      31.619  25.239  25.528  1.00  0.00     0.112 C 
BRANCH  18  19
ATOM     19  C   UNL A   1      30.685  25.505  24.327  1.00  0.00     0.026 C 
ATOM     20  C   UNL A   1      30.760  24.414  23.267  1.00  0.00     0.006 C 
ENDBRANCH  18  19
BRANCH  18  21
ATOM     21  C   UNL A   1      32.175  26.557  26.060  1.00  0.00    -0.026 A 
ATOM     22  C   UNL A   1      31.385  27.339  26.921  1.00  0.00     0.006 A 
ATOM     23  C   UNL A   1      33.456  27.032  25.733  1.00  0.00     0.006 A 
ATOM     24  C   UNL A   1      31.864  28.545  27.443  1.00  0.00     0.000 A 
ATOM     25  C   UNL A   1      33.929  28.244  26.244  1.00  0.00     0.000 A 
ATOM     26  C   UNL A   1      33.134  28.998  27.100  1.00  0.00     0.000 A 
ENDBRANCH  18  21
ENDBRANCH  15  18
ENDBRANCH   9  14
ENDBRANCH   5   8
ENDBRANCH   3   4
ENDBRANCH   2   3
ENDBRANCH   1   2
BRANCH   1  27
ATOM     27  C   UNL A   1      37.022  21.075  24.927  1.00  0.00     0.002 C 
BRANCH  27  28
ATOM     28  C   UNL A   1      38.148  20.039  24.951  1.00  0.00     0.021 C 
BRANCH  28  29
ATOM     29  C   UNL A   1      39.303  20.304  25.911  1.00  0.00     0.116 C 
BRANCH  29  30
ATOM     30  N   UNL A   1      40.304  19.254  25.904  1.00  0.00    -0.352 N 
ATOM     31  C   UNL A   1      41.663  19.340  26.097  1.00  0.00     0.251 C 
ATOM     32  H   UNL A   1      39.961  18.347  25.735  1.00  0.00     0.163 HD
ATOM     33  O   UNL A   1      42.358  18.339  25.942  1.00  0.00    -0.269 OA
BRANCH  31  34
ATOM     34  C   UNL A   1      42.299  20.633  26.455  1.00  0.00     0.039 A 
ATOM     35  C   UNL A   1      42.758  21.459  25.422  1.00  0.00     0.014 A 
ATOM     36  C   UNL A   1      42.461  21.029  27.786  1.00  0.00     0.014 A 
ATOM     37  C   UNL A   1      43.309  22.710  25.719  1.00  0.00     0.010 A 
ATOM     38  C   UNL A   1      42.974  22.294  28.079  1.00  0.00     0.010 A 
ATOM     39  C   UNL A   1      43.393  23.150  27.048  1.00  0.00    -0.014 A 
BRANCH  39  40
ATOM     40  C   UNL A   1      43.900  24.504  27.382  1.00  0.00     0.031 A 
ATOM     41  C   UNL A   1      42.966  25.552  27.918  1.00  0.00     0.074 A 
ATOM     42  C   UNL A   1      45.182  24.821  27.119  1.00  0.00     0.049 A 
ATOM     43  N   UNL A   1      43.181  26.827  28.121  1.00  0.00    -0.248 NA
ATOM     44  C   UNL A   1      41.601  25.111  28.236  1.00  0.00     0.031 C 
ATOM     45  C   UNL A   1      46.182  23.914  26.550  1.00  0.00     0.029 A 
ATOM     46  N   UNL A   1      45.854  26.007  27.269  1.00  0.00    -0.354 N 
ATOM     47  C   UNL A   1      41.968  27.353  28.549  1.00  0.00     0.074 A 
ATOM     48  C   UNL A   1      41.023  26.253  28.575  1.00  0.00     0.031 C 
ATOM     49  C   UNL A   1      47.337  24.581  26.389  1.00  0.00     0.029 A 
ATOM     50  C   UNL A   1      47.153  25.962  26.824  1.00  0.00     0.049 A 
ATOM     51  H   UNL A   1      45.446  26.813  27.659  1.00  0.00     0.167 HD
ATOM     52  C   UNL A   1      41.666  28.632  28.882  1.00  0.00     0.034 A 
ATOM     53  C   UNL A   1      48.086  26.929  26.752  1.00  0.00     0.034 A 
ATOM     54  C   UNL A   1      42.614  29.718  28.896  1.00  0.00     0.049 A 
ATOM     55  C   UNL A   1      47.755  28.318  27.210  1.00  0.00     0.074 A 
ATOM     56  C   UNL A   1      42.417  31.035  29.275  1.00  0.00     0.029 A 
ATOM     57  N   UNL A   1      43.944  29.609  28.517  1.00  0.00    -0.354 N 
ATOM     58  N   UNL A   1      46.603  28.799  27.611  1.00  0.00    -0.248 NA
ATOM     59  C   UNL A   1      48.854  29.293  27.207  1.00  0.00     0.031 C 
ATOM     60  C   UNL A   1      43.624  31.729  29.104  1.00  0.00     0.029 A 
ATOM     61  C   UNL A   1      44.578  30.835  28.646  1.00  0.00     0.049 A 
ATOM     62  H   UNL A   1      44.375  28.782  28.202  1.00  0.00     0.167 HD
ATOM     63  C   UNL A   1      46.838  30.137  27.904  1.00  0.00     0.074 A 
ATOM     64  C   UNL A   1      48.240  30.387  27.638  1.00  0.00     0.031 C 
ATOM     65  C   UNL A   1      45.968  31.072  28.359  1.00  0.00     0.034 A 
BRANCH  52  66
ATOM     66  C   UNL A   1      40.228  28.922  29.208  1.00  0.00     0.023 A 
ATOM     67  C   UNL A   1      39.777  29.014  30.534  1.00  0.00     0.031 A 
ATOM     68  C   UNL A   1      39.288  29.054  28.171  1.00  0.00     0.131 A 
ATOM     69  C   UNL A   1      38.407  29.173  30.792  1.00  0.00     0.055 A 
ATOM     70  C   UNL A   1      37.934  29.264  28.433  1.00  0.00     0.041 A 
ATOM     71  F   UNL A   1      39.668  28.950  26.888  1.00  0.00    -0.206 F 
ATOM     72  C   UNL A   1      37.484  29.313  29.751  1.00  0.00     0.022 A 
BRANCH  69  73
ATOM     73  S   UNL A   1      37.829  29.068  32.507  1.00  0.00     0.124 S 
ATOM     74  O   UNL A   1      37.839  27.625  32.738  1.00  0.00    -0.237 OA
ATOM     75  O   UNL A   1      38.837  29.838  33.225  1.00  0.00    -0.237 OA
ATOM     76  O   UNL A   1      36.499  29.673  32.458  1.00  0.00    -0.744 OA
ENDBRANCH  69  73
ENDBRANCH  52  66
BRANCH  53  77
ATOM     77  C   UNL A   1      49.415  26.627  26.171  1.00  0.00     0.023 A 
ATOM     78  C   UNL A   1      49.745  27.032  24.871  1.00  0.00     0.031 A 
ATOM     79  C   UNL A   1      50.371  25.931  26.926  1.00  0.00     0.131 A 
ATOM     80  C   UNL A   1      51.011  26.721  24.354  1.00  0.00     0.055 A 
ATOM     81  C   UNL A   1      51.631  25.632  26.410  1.00  0.00     0.041 A 
ATOM     82  F   UNL A   1      50.092  25.543  28.181  1.00  0.00    -0.206 F 
ATOM     83  C   UNL A   1      51.956  26.026  25.114  1.00  0.00     0.022 A 
BRANCH  80  84
ATOM     84  S   UNL A   1      51.416  27.254  22.668  1.00  0.00     0.124 S 
ATOM     85  O   UNL A   1      52.654  26.525  22.413  1.00  0.00    -0.237 OA
ATOM     86  O   UNL A   1      50.244  26.810  21.919  1.00  0.00    -0.237 OA
ATOM     87  O   UNL A   1      51.557  28.703  22.794  1.00  0.00    -0.744 OA
ENDBRANCH  80  84
ENDBRANCH  53  77
BRANCH  65  88
ATOM     88  C   UNL A   1      46.530  32.441  28.609  1.00  0.00     0.023 A 
ATOM     89  C   UNL A   1      46.557  33.410  27.593  1.00  0.00     0.031 A 
ATOM     90  C   UNL A   1      47.061  32.767  29.866  1.00  0.00     0.131 A 
ATOM     91  C   UNL A   1      47.131  34.664  27.848  1.00  0.00     0.055 A 
ATOM     92  C   UNL A   1      47.617  34.020  30.119  1.00  0.00     0.041 A 
ATOM     93  F   UNL A   1      47.062  31.864  30.860  1.00  0.00    -0.206 F 
ATOM     94  C   UNL A   1      47.658  34.976  29.106  1.00  0.00     0.022 A 
BRANCH  91  95
ATOM     95  S   UNL A   1      47.216  35.878  26.502  1.00  0.00     0.124 S 
ATOM     96  O   UNL A   1      48.265  35.320  25.654  1.00  0.00    -0.237 OA
ATOM     97  O   UNL A   1      45.864  35.835  25.957  1.00  0.00    -0.237 OA
ATOM     98  O   UNL A   1      47.569  37.122  27.184  1.00  0.00    -0.744 OA
ENDBRANCH  91  95
ENDBRANCH  65  88
ENDBRANCH  39  40
ENDBRANCH  31  34
ENDBRANCH  29  30
ENDBRANCH  28  29
ENDBRANCH  27  28
ENDBRANCH   1  27
TORSDOF 20
ENDMDL
MODEL 3
REMARK VINA RESULT:     -11.2      1.657      2.171
REMARK SMILES CC[C@H](NC(=O)c1nn(C)cc1C(=O)NCCCCCCNC(=O)c1ccc(-c2c3nc(c(-c4cc(S(=O)(=O)[O-])ccc4F)c4ccc([nH]4)c(-c4cc(S(=O)(=O)[O-])ccc4F)c4nc(c(-c5cc(S(=O)(=O)[O-])ccc5F)c5ccc2[nH]5)C=C4)C=C3)cc1)c1ccccc1
REMARK SMILES IDX 18 1 17 2 16 3 15 4 13 5 14 6 12 8 7 9 8 10 9 11 11 12 10 13
REMARK SMILES IDX 5 14 4 15 6 17 3 18 2 19 1 20 88 21 89 22 93 23 90 24 92 25
REMARK SMILES IDX 91 26 19 27 20 28 21 29 22 30 23 31 24 33 25 34 26 35 87 36
REMARK SMILES IDX 27 37 86 38 28 39 29 40 30 41 80 42 31 43 85 44 79 45 81 46
REMARK SMILES IDX 32 47 84 48 78 49 77 50 33 52 65 53 45 54 64 55 46 56 49 57
REMARK SMILES IDX 63 58 82 59 47 60 48 61 62 63 83 64 50 65 34 66 35 67 43 68
REMARK SMILES IDX 36 69 42 70 44 71 41 72 37 73 38 74 39 75 40 76 66 77 67 78
REMARK SMILES IDX 75 79 68 80 74 81 76 82 73 83 69 84 70 85 71 86 72 87 51 88
REMARK SMILES IDX 52 89 60 90 53 91 59 92 61 93 58 94 54 95 55 96 56 97 57 98
REMARK H PARENT 15 7 4 16 22 32 81 51 49 62
REMARK Flexibility Score: inf
ROOT
ATOM      1  C   UNL A   1      33.474  29.996  27.483  1.00  0.00     0.002 C 
ENDROOT
BRANCH   1   2
ATOM      2  C   UNL A   1      34.305  28.915  26.782  1.00  0.00     0.021 C 
BRANCH   2   3
ATOM      3  C   UNL A   1      33.553  27.673  26.313  1.00  0.00     0.116 C 
BRANCH   3   4
ATOM      4  N   UNL A   1      34.398  26.652  25.732  1.00  0.00    -0.352 N 
ATOM      5  C   UNL A   1      34.163  25.393  25.247  1.00  0.00     0.255 C 
ATOM      6  O   UNL A   1      35.118  24.825  24.710  1.00  0.00    -0.269 OA
ATOM      7  H   UNL A   1      35.343  26.920  25.672  1.00  0.00     0.163 HD
BRANCH   5   8
ATOM      8  C   UNL A   1      32.882  24.720  25.373  1.00  0.00     0.090 A 
ATOM      9  C   UNL A   1      31.960  24.495  24.295  1.00  0.00     0.162 A 
ATOM     10  N   UNL A   1      30.845  23.866  24.716  1.00  0.00    -0.167 NA
ATOM     11  N   UNL A   1      30.997  23.789  26.043  1.00  0.00    -0.274 N 
ATOM     12  C   UNL A   1      32.197  24.265  26.485  1.00  0.00     0.123 A 
ATOM     13  C   UNL A   1      29.911  23.291  26.853  1.00  0.00     0.173 C 
BRANCH   9  14
ATOM     14  C   UNL A   1      32.093  24.908  22.893  1.00  0.00     0.273 C 
ATOM     15  N   UNL A   1      31.863  26.218  22.551  1.00  0.00    -0.344 N 
ATOM     16  H   UNL A   1      31.948  26.419  21.591  1.00  0.00     0.164 HD
ATOM     17  O   UNL A   1      32.455  24.131  22.007  1.00  0.00    -0.267 OA
BRANCH  15  18
ATOM     18  C   UNL A   1      31.511  27.353  23.391  1.00  0.00     0.112 C 
BRANCH  18  19
ATOM     19  C   UNL A   1      32.280  28.602  22.907  1.00  0.00     0.026 C 
ATOM     20  C   UNL A   1      33.778  28.360  22.779  1.00  0.00     0.006 C 
ENDBRANCH  18  19
BRANCH  18  21
ATOM     21  C   UNL A   1      30.011  27.631  23.391  1.00  0.00    -0.026 A 
ATOM     22  C   UNL A   1      29.535  28.844  22.863  1.00  0.00     0.006 A 
ATOM     23  C   UNL A   1      29.066  26.720  23.894  1.00  0.00     0.006 A 
ATOM     24  C   UNL A   1      28.167  29.130  22.829  1.00  0.00     0.000 A 
ATOM     25  C   UNL A   1      27.700  27.013  23.873  1.00  0.00     0.000 A 
ATOM     26  C   UNL A   1      27.251  28.216  23.339  1.00  0.00     0.000 A 
ENDBRANCH  18  21
ENDBRANCH  15  18
ENDBRANCH   9  14
ENDBRANCH   5   8
ENDBRANCH   3   4
ENDBRANCH   2   3
ENDBRANCH   1   2
BRANCH   1  27
ATOM     27  C   UNL A   1      32.120  30.369  26.872  1.00  0.00     0.002 C 
BRANCH  27  28
ATOM     28  C   UNL A   1      31.721  31.846  26.877  1.00  0.00     0.021 C 
BRANCH  28  29
ATOM     29  C   UNL A   1      32.857  32.864  26.883  1.00  0.00     0.116 C 
BRANCH  29  30
ATOM     30  N   UNL A   1      32.540  34.070  27.624  1.00  0.00    -0.352 N 
ATOM     31  C   UNL A   1      33.129  34.581  28.757  1.00  0.00     0.251 C 
ATOM     32  H   UNL A   1      31.793  34.601  27.264  1.00  0.00     0.163 HD
ATOM     33  O   UNL A   1      32.639  35.568  29.299  1.00  0.00    -0.269 OA
BRANCH  31  34
ATOM     34  C   UNL A   1      34.326  33.931  29.349  1.00  0.00     0.039 A 
ATOM     35  C   UNL A   1      35.591  34.422  29.004  1.00  0.00     0.014 A 
ATOM     36  C   UNL A   1      34.216  32.843  30.219  1.00  0.00     0.014 A 
ATOM     37  C   UNL A   1      36.737  33.873  29.587  1.00  0.00     0.010 A 
ATOM     38  C   UNL A   1      35.358  32.322  30.831  1.00  0.00     0.010 A 
ATOM     39  C   UNL A   1      36.628  32.839  30.528  1.00  0.00    -0.014 A 
BRANCH  39  40
ATOM     40  C   UNL A   1      37.824  32.295  31.219  1.00  0.00     0.031 A 
ATOM     41  C   UNL A   1      38.628  31.194  30.586  1.00  0.00     0.074 A 
ATOM     42  C   UNL A   1      38.135  32.726  32.456  1.00  0.00     0.049 A 
ATOM     43  N   UNL A   1      39.605  30.487  31.095  1.00  0.00    -0.248 NA
ATOM     44  C   UNL A   1      38.263  30.824  29.212  1.00  0.00     0.031 C 
ATOM     45  C   UNL A   1      37.407  33.752  33.206  1.00  0.00     0.029 A 
ATOM     46  N   UNL A   1      39.132  32.332  33.311  1.00  0.00    -0.354 N 
ATOM     47  C   UNL A   1      39.944  29.555  30.121  1.00  0.00     0.074 A 
ATOM     48  C   UNL A   1      39.065  29.793  28.992  1.00  0.00     0.031 C 
ATOM     49  C   UNL A   1      37.975  33.897  34.414  1.00  0.00     0.029 A 
ATOM     50  C   UNL A   1      39.091  32.964  34.530  1.00  0.00     0.049 A 
ATOM     51  H   UNL A   1      39.811  31.660  33.075  1.00  0.00     0.167 HD
ATOM     52  C   UNL A   1      40.892  28.586  30.164  1.00  0.00     0.034 A 
ATOM     53  C   UNL A   1      39.852  32.796  35.627  1.00  0.00     0.034 A 
ATOM     54  C   UNL A   1      41.794  28.375  31.268  1.00  0.00     0.049 A 
ATOM     55  C   UNL A   1      40.954  31.779  35.620  1.00  0.00     0.074 A 
ATOM     56  C   UNL A   1      42.826  27.459  31.381  1.00  0.00     0.029 A 
ATOM     57  N   UNL A   1      41.773  29.096  32.454  1.00  0.00    -0.354 N 
ATOM     58  N   UNL A   1      41.261  30.905  34.692  1.00  0.00    -0.248 NA
ATOM     59  C   UNL A   1      41.814  31.730  36.811  1.00  0.00     0.031 C 
ATOM     60  C   UNL A   1      43.416  27.612  32.645  1.00  0.00     0.029 A 
ATOM     61  C   UNL A   1      42.768  28.642  33.305  1.00  0.00     0.049 A 
ATOM     62  H   UNL A   1      41.143  29.823  32.660  1.00  0.00     0.167 HD
ATOM     63  C   UNL A   1      42.348  30.198  35.189  1.00  0.00     0.074 A 
ATOM     64  C   UNL A   1      42.647  30.747  36.496  1.00  0.00     0.031 C 
ATOM     65  C   UNL A   1      43.039  29.186  34.610  1.00  0.00     0.034 A 
BRANCH  52  66
ATOM     66  C   UNL A   1      40.955  27.652  28.989  1.00  0.00     0.023 A 
ATOM     67  C   UNL A   1      41.952  27.769  28.007  1.00  0.00     0.031 A 
ATOM     68  C   UNL A   1      39.968  26.665  28.825  1.00  0.00     0.131 A 
ATOM     69  C   UNL A   1      41.906  26.948  26.870  1.00  0.00     0.055 A 
ATOM     70  C   UNL A   1      39.958  25.817  27.717  1.00  0.00     0.041 A 
ATOM     71  F   UNL A   1      38.982  26.531  29.725  1.00  0.00    -0.206 F 
ATOM     72  C   UNL A   1      40.924  25.964  26.725  1.00  0.00     0.022 A 
BRANCH  69  73
ATOM     73  S   UNL A   1      43.073  27.270  25.519  1.00  0.00     0.124 S 
ATOM     74  O   UNL A   1      42.277  28.114  24.631  1.00  0.00    -0.237 OA
ATOM     75  O   UNL A   1      44.176  27.929  26.209  1.00  0.00    -0.237 OA
ATOM     76  O   UNL A   1      43.370  25.937  24.999  1.00  0.00    -0.744 OA
ENDBRANCH  69  73
ENDBRANCH  52  66
BRANCH  53  77
ATOM     77  C   UNL A   1      39.561  33.579  36.850  1.00  0.00     0.023 A 
ATOM     78  C   UNL A   1      38.824  33.026  37.906  1.00  0.00     0.031 A 
ATOM     79  C   UNL A   1      40.031  34.896  36.972  1.00  0.00     0.131 A 
ATOM     80  C   UNL A   1      38.563  33.801  39.045  1.00  0.00     0.055 A 
ATOM     81  C   UNL A   1      39.775  35.660  38.110  1.00  0.00     0.041 A 
ATOM     82  F   UNL A   1      40.754  35.450  35.985  1.00  0.00    -0.206 F 
ATOM     83  C   UNL A   1      39.035  35.113  39.155  1.00  0.00     0.022 A 
BRANCH  80  84
ATOM     84  S   UNL A   1      37.606  33.064  40.398  1.00  0.00     0.124 S 
ATOM     85  O   UNL A   1      36.396  32.633  39.707  1.00  0.00    -0.237 OA
ATOM     86  O   UNL A   1      38.497  32.001  40.856  1.00  0.00    -0.237 OA
ATOM     87  O   UNL A   1      37.433  34.172  41.335  1.00  0.00    -0.744 OA
ENDBRANCH  80  84
ENDBRANCH  53  77
BRANCH  65  88
ATOM     88  C   UNL A   1      44.194  28.632  35.392  1.00  0.00     0.023 A 
ATOM     89  C   UNL A   1      44.001  27.639  36.365  1.00  0.00     0.031 A 
ATOM     90  C   UNL A   1      45.492  29.120  35.175  1.00  0.00     0.131 A 
ATOM     91  C   UNL A   1      45.096  27.177  37.110  1.00  0.00     0.055 A 
ATOM     92  C   UNL A   1      46.580  28.646  35.907  1.00  0.00     0.041 A 
ATOM     93  F   UNL A   1      45.716  30.076  34.259  1.00  0.00    -0.206 F 
ATOM     94  C   UNL A   1      46.385  27.673  36.884  1.00  0.00     0.022 A 
BRANCH  91  95
ATOM     95  S   UNL A   1      44.813  25.943  38.410  1.00  0.00     0.124 S 
ATOM     96  O   UNL A   1      45.948  26.168  39.299  1.00  0.00    -0.237 OA
ATOM     97  O   UNL A   1      43.507  26.331  38.930  1.00  0.00    -0.237 OA
ATOM     98  O   UNL A   1      44.837  24.672  37.687  1.00  0.00    -0.744 OA
ENDBRANCH  91  95
ENDBRANCH  65  88
ENDBRANCH  39  40
ENDBRANCH  31  34
ENDBRANCH  29  30
ENDBRANCH  28  29
ENDBRANCH  27  28
ENDBRANCH   1  27
TORSDOF 20
ENDMDL
