MODEL 1
REMARK VINA RESULT:     -10.3      0.000      0.000
REMARK SMILES COc1ccccc1-c1nnc(SCCC(=O)NCCCCCCNC(=O)c2ccc(-c3c4nc(c(-c5cc(S(=O)(=O)[O-])ccc5F)c5ccc([nH]5)c(-c5cc(S(=O)(=O)[O-])ccc5F)c5nc(c(-c6cc(S(=O)(=O)[O-])ccc6F)c6ccc3[nH]6)C=C5)C=C4)cc2)o1
REMARK SMILES IDX 20 1 19 2 18 3 16 4 17 5 15 7 14 8 13 9 12 10 9 11 10 12
REMARK SMILES IDX 91 13 11 14 8 15 3 16 4 17 5 18 7 19 6 20 2 21 1 22 21 23
REMARK SMILES IDX 22 24 23 25 24 26 25 27 26 28 27 30 28 31 29 32 90 33 30 34
REMARK SMILES IDX 89 35 31 36 32 37 33 38 83 39 34 40 88 41 82 42 84 43 35 44
REMARK SMILES IDX 87 45 81 46 80 47 36 49 68 50 48 51 67 52 49 53 52 54 66 55
REMARK SMILES IDX 85 56 50 57 51 58 65 60 86 61 53 62 37 63 38 64 46 65 39 66
REMARK SMILES IDX 45 67 47 68 44 69 40 70 41 71 42 72 43 73 69 74 70 75 78 76
REMARK SMILES IDX 71 77 77 78 79 79 76 80 72 81 73 82 74 83 75 84 54 85 55 86
REMARK SMILES IDX 63 87 56 88 62 89 64 90 61 91 57 92 58 93 59 94 60 95
REMARK H PARENT 18 6 25 29 84 48 52 59
REMARK Flexibility Score: inf
ROOT
ATOM      1  C   UNL A   1      36.840  23.810  25.394  1.00  0.00     0.021 C 
ENDROOT
BRANCH   1   2
ATOM      2  C   UNL A   1      35.367  23.490  25.146  1.00  0.00     0.116 C 
BRANCH   2   3
ATOM      3  N   UNL A   1      34.688  22.961  26.316  1.00  0.00    -0.356 N 
ATOM      4  C   UNL A   1      34.063  21.779  26.543  1.00  0.00     0.220 C 
ATOM      5  O   UNL A   1      33.754  21.476  27.696  1.00  0.00    -0.275 OA
ATOM      6  H   UNL A   1      34.682  23.573  27.087  1.00  0.00     0.163 HD
BRANCH   4   7
ATOM      7  C   UNL A   1      33.706  20.870  25.403  1.00  0.00     0.111 C 
BRANCH   7   8
ATOM      8  C   UNL A   1      32.231  21.035  25.057  1.00  0.00     0.090 C 
BRANCH   8   9
ATOM      9  S   UNL A   1      31.901  22.355  23.867  1.00  0.00    -0.065 SA
BRANCH   9  10
ATOM     10  C   UNL A   1      31.517  23.761  24.819  1.00  0.00     0.276 A 
ATOM     11  C   UNL A   1      31.221  25.731  25.593  1.00  0.00     0.252 A 
ATOM     12  N   UNL A   1      30.704  24.896  26.472  1.00  0.00    -0.107 NA
ATOM     13  O   UNL A   1      31.773  25.079  24.512  1.00  0.00    -0.411 OA
ATOM     14  N   UNL A   1      30.884  23.634  25.969  1.00  0.00    -0.101 NA
BRANCH  11  15
ATOM     15  C   UNL A   1      31.357  27.181  25.731  1.00  0.00     0.081 A 
ATOM     16  C   UNL A   1      31.148  28.126  24.714  1.00  0.00     0.131 A 
ATOM     17  C   UNL A   1      31.406  29.486  24.956  1.00  0.00     0.047 A 
ATOM     18  C   UNL A   1      31.742  29.936  26.230  1.00  0.00     0.004 A 
ATOM     19  C   UNL A   1      31.670  27.665  27.020  1.00  0.00     0.018 A 
ATOM     20  C   UNL A   1      31.846  29.027  27.273  1.00  0.00     0.001 A 
BRANCH  16  21
ATOM     21  O   UNL A   1      30.701  27.726  23.482  1.00  0.00    -0.496 OA
ATOM     22  C   UNL A   1      29.279  27.562  23.427  1.00  0.00     0.278 C 
ENDBRANCH  16  21
ENDBRANCH  11  15
ENDBRANCH   9  10
ENDBRANCH   8   9
ENDBRANCH   7   8
ENDBRANCH   4   7
ENDBRANCH   2   3
ENDBRANCH   1   2
BRANCH   1  23
ATOM     23  C   UNL A   1      37.714  22.597  25.742  1.00  0.00     0.002 C 
BRANCH  23  24
ATOM     24  C   UNL A   1      37.478  21.350  24.888  1.00  0.00     0.002 C 
BRANCH  24  25
ATOM     25  C   UNL A   1      38.453  20.201  25.139  1.00  0.00     0.021 C 
BRANCH  25  26
ATOM     26  C   UNL A   1      39.546  20.498  26.160  1.00  0.00     0.116 C 
BRANCH  26  27
ATOM     27  N   UNL A   1      40.541  19.437  26.236  1.00  0.00    -0.352 N 
ATOM     28  C   UNL A   1      41.910  19.567  26.304  1.00  0.00     0.251 C 
ATOM     29  H   UNL A   1      40.193  18.516  26.237  1.00  0.00     0.163 HD
ATOM     30  O   UNL A   1      42.643  18.591  26.190  1.00  0.00    -0.269 OA
BRANCH  28  31
ATOM     31  C   UNL A   1      42.474  20.921  26.486  1.00  0.00     0.039 A 
ATOM     32  C   UNL A   1      42.719  21.720  25.368  1.00  0.00     0.014 A 
ATOM     33  C   UNL A   1      42.663  21.422  27.777  1.00  0.00     0.014 A 
ATOM     34  C   UNL A   1      43.086  23.055  25.548  1.00  0.00     0.010 A 
ATOM     35  C   UNL A   1      42.955  22.770  27.951  1.00  0.00     0.010 A 
ATOM     36  C   UNL A   1      43.169  23.602  26.840  1.00  0.00    -0.014 A 
BRANCH  36  37
ATOM     37  C   UNL A   1      43.502  25.034  27.064  1.00  0.00     0.031 A 
ATOM     38  C   UNL A   1      44.907  25.512  26.814  1.00  0.00     0.074 A 
ATOM     39  C   UNL A   1      42.578  25.878  27.562  1.00  0.00     0.049 A 
ATOM     40  N   UNL A   1      45.447  26.675  27.069  1.00  0.00    -0.248 NA
ATOM     41  C   UNL A   1      45.836  24.530  26.233  1.00  0.00     0.031 C 
ATOM     42  C   UNL A   1      41.191  25.528  27.874  1.00  0.00     0.029 A 
ATOM     43  N   UNL A   1      42.669  27.204  27.909  1.00  0.00    -0.354 N 
ATOM     44  C   UNL A   1      46.783  26.559  26.701  1.00  0.00     0.074 A 
ATOM     45  C   UNL A   1      46.982  25.190  26.270  1.00  0.00     0.031 C 
ATOM     46  C   UNL A   1      40.557  26.615  28.344  1.00  0.00     0.029 A 
ATOM     47  C   UNL A   1      41.501  27.727  28.414  1.00  0.00     0.049 A 
ATOM     48  H   UNL A   1      43.494  27.731  27.805  1.00  0.00     0.167 HD
ATOM     49  C   UNL A   1      47.750  27.511  26.696  1.00  0.00     0.034 A 
ATOM     50  C   UNL A   1      41.226  28.958  28.893  1.00  0.00     0.034 A 
ATOM     51  C   UNL A   1      47.530  28.873  27.112  1.00  0.00     0.049 A 
ATOM     52  C   UNL A   1      42.323  29.995  28.906  1.00  0.00     0.074 A 
ATOM     53  C   UNL A   1      48.422  29.931  27.111  1.00  0.00     0.029 A 
ATOM     54  N   UNL A   1      46.330  29.368  27.609  1.00  0.00    -0.354 N 
ATOM     55  N   UNL A   1      43.574  29.880  28.525  1.00  0.00    -0.248 NA
ATOM     56  C   UNL A   1      41.968  31.329  29.406  1.00  0.00     0.031 C 
ATOM     57  C   UNL A   1      47.782  31.047  27.661  1.00  0.00     0.029 A 
ATOM     58  C   UNL A   1      46.466  30.708  27.937  1.00  0.00     0.049 A 
ATOM     59  H   UNL A   1      45.503  28.843  27.712  1.00  0.00     0.167 HD
ATOM     60  C   UNL A   1      44.144  31.138  28.702  1.00  0.00     0.074 A 
ATOM     61  C   UNL A   1      43.098  31.997  29.220  1.00  0.00     0.031 C 
ATOM     62  C   UNL A   1      45.412  31.551  28.451  1.00  0.00     0.034 A 
BRANCH  49  63
ATOM     63  C   UNL A   1      49.130  27.091  26.246  1.00  0.00     0.023 A 
ATOM     64  C   UNL A   1      50.160  26.841  27.170  1.00  0.00     0.031 A 
ATOM     65  C   UNL A   1      49.435  26.987  24.878  1.00  0.00     0.131 A 
ATOM     66  C   UNL A   1      51.464  26.594  26.715  1.00  0.00     0.055 A 
ATOM     67  C   UNL A   1      50.715  26.650  24.432  1.00  0.00     0.041 A 
ATOM     68  F   UNL A   1      48.499  27.232  23.947  1.00  0.00    -0.206 F 
ATOM     69  C   UNL A   1      51.744  26.470  25.353  1.00  0.00     0.022 A 
BRANCH  66  70
ATOM     70  S   UNL A   1      52.816  26.601  27.925  1.00  0.00     0.124 S 
ATOM     71  O   UNL A   1      53.847  25.847  27.216  1.00  0.00    -0.237 OA
ATOM     72  O   UNL A   1      53.073  28.025  28.102  1.00  0.00    -0.237 OA
ATOM     73  O   UNL A   1      52.242  25.921  29.083  1.00  0.00    -0.744 OA
ENDBRANCH  66  70
ENDBRANCH  49  63
BRANCH  50  74
ATOM     74  C   UNL A   1      39.865  29.288  29.404  1.00  0.00     0.023 A 
ATOM     75  C   UNL A   1      39.614  29.374  30.782  1.00  0.00     0.031 A 
ATOM     76  C   UNL A   1      38.784  29.479  28.525  1.00  0.00     0.131 A 
ATOM     77  C   UNL A   1      38.307  29.593  31.245  1.00  0.00     0.055 A 
ATOM     78  C   UNL A   1      37.495  29.749  28.989  1.00  0.00     0.041 A 
ATOM     79  F   UNL A   1      38.968  29.412  27.197  1.00  0.00    -0.206 F 
ATOM     80  C   UNL A   1      37.248  29.795  30.357  1.00  0.00     0.022 A 
BRANCH  77  81
ATOM     81  S   UNL A   1      37.996  29.530  33.031  1.00  0.00     0.124 S 
ATOM     82  O   UNL A   1      37.220  28.301  33.154  1.00  0.00    -0.237 OA
ATOM     83  O   UNL A   1      39.351  29.492  33.573  1.00  0.00    -0.237 OA
ATOM     84  O   UNL A   1      37.258  30.764  33.291  1.00  0.00    -0.744 OA
ENDBRANCH  77  81
ENDBRANCH  50  74
BRANCH  62  85
ATOM     85  C   UNL A   1      45.719  33.010  28.672  1.00  0.00     0.023 A 
ATOM     86  C   UNL A   1      46.213  33.490  29.898  1.00  0.00     0.031 A 
ATOM     87  C   UNL A   1      45.518  33.934  27.630  1.00  0.00     0.131 A 
ATOM     88  C   UNL A   1      46.446  34.864  30.065  1.00  0.00     0.055 A 
ATOM     89  C   UNL A   1      45.806  35.290  27.785  1.00  0.00     0.041 A 
ATOM     90  F   UNL A   1      45.047  33.529  26.440  1.00  0.00    -0.206 F 
ATOM     91  C   UNL A   1      46.263  35.764  29.012  1.00  0.00     0.022 A 
BRANCH  88  92
ATOM     92  S   UNL A   1      46.927  35.475  31.705  1.00  0.00     0.124 S 
ATOM     93  O   UNL A   1      46.896  36.920  31.510  1.00  0.00    -0.237 OA
ATOM     94  O   UNL A   1      45.882  34.925  32.561  1.00  0.00    -0.237 OA
ATOM     95  O   UNL A   1      48.257  34.903  31.907  1.00  0.00    -0.744 OA
ENDBRANCH  88  92
ENDBRANCH  62  85
ENDBRANCH  36  37
ENDBRANCH  28  31
ENDBRANCH  26  27
ENDBRANCH  25  26
ENDBRANCH  24  25
ENDBRANCH  23  24
ENDBRANCH   1  23
TORSDOF 21
ENDMDL
MODEL 2
REMARK VINA RESULT:     -10.2      5.291      8.864
REMARK SMILES COc1ccccc1-c1nnc(SCCC(=O)NCCCCCCNC(=O)c2ccc(-c3c4nc(c(-c5cc(S(=O)(=O)[O-])ccc5F)c5ccc([nH]5)c(-c5cc(S(=O)(=O)[O-])ccc5F)c5nc(c(-c6cc(S(=O)(=O)[O-])ccc6F)c6ccc3[nH]6)C=C5)C=C4)cc2)o1
REMARK SMILES IDX 20 1 19 2 18 3 16 4 17 5 15 7 14 8 13 9 12 10 9 11 10 12
REMARK SMILES IDX 91 13 11 14 8 15 3 16 4 17 5 18 7 19 6 20 2 21 1 22 21 23
REMARK SMILES IDX 22 24 23 25 24 26 25 27 26 28 27 30 28 31 29 32 90 33 30 34
REMARK SMILES IDX 89 35 31 36 32 37 33 38 83 39 34 40 88 41 82 42 84 43 35 44
REMARK SMILES IDX 87 45 81 46 80 47 36 49 68 50 48 51 67 52 49 53 52 54 66 55
REMARK SMILES IDX 85 56 50 57 51 58 65 60 86 61 53 62 37 63 38 64 46 65 39 66
REMARK SMILES IDX 45 67 47 68 44 69 40 70 41 71 42 72 43 73 69 74 70 75 78 76
REMARK SMILES IDX 71 77 77 78 79 79 76 80 72 81 73 82 74 83 75 84 54 85 55 86
REMARK SMILES IDX 63 87 56 88 62 89 64 90 61 91 57 92 58 93 59 94 60 95
REMARK H PARENT 18 6 25 29 84 48 52 59
REMARK Flexibility Score: inf
ROOT
ATOM      1  C   UNL A   1      44.201  24.062  29.345  1.00  0.00     0.021 C 
ENDROOT
BRANCH   1   2
ATOM      2  C   UNL A   1      43.061  24.085  28.327  1.00  0.00     0.116 C 
BRANCH   2   3
ATOM      3  N   UNL A   1      42.024  25.051  28.646  1.00  0.00    -0.356 N 
ATOM      4  C   UNL A   1      40.824  25.313  28.072  1.00  0.00     0.220 C 
ATOM      5  O   UNL A   1      40.021  26.037  28.664  1.00  0.00    -0.275 OA
ATOM      6  H   UNL A   1      42.230  25.618  29.424  1.00  0.00     0.163 HD
BRANCH   4   7
ATOM      7  C   UNL A   1      40.491  24.772  26.712  1.00  0.00     0.111 C 
BRANCH   7   8
ATOM      8  C   UNL A   1      39.032  24.330  26.678  1.00  0.00     0.090 C 
BRANCH   8   9
ATOM      9  S   UNL A   1      38.803  22.600  26.208  1.00  0.00    -0.065 SA
BRANCH   9  10
ATOM     10  C   UNL A   1      40.345  21.833  26.466  1.00  0.00     0.276 A 
ATOM     11  C   UNL A   1      42.335  21.067  26.328  1.00  0.00     0.252 A 
ATOM     12  N   UNL A   1      41.907  20.800  27.546  1.00  0.00    -0.107 NA
ATOM     13  O   UNL A   1      41.384  21.716  25.570  1.00  0.00    -0.411 OA
ATOM     14  N   UNL A   1      40.636  21.302  27.637  1.00  0.00    -0.101 NA
BRANCH  11  15
ATOM     15  C   UNL A   1      43.598  20.642  25.726  1.00  0.00     0.081 A 
ATOM     16  C   UNL A   1      43.948  19.324  25.396  1.00  0.00     0.131 A 
ATOM     17  C   UNL A   1      45.236  19.040  24.909  1.00  0.00     0.047 A 
ATOM     18  C   UNL A   1      46.135  20.064  24.621  1.00  0.00     0.004 A 
ATOM     19  C   UNL A   1      44.516  21.664  25.400  1.00  0.00     0.018 A 
ATOM     20  C   UNL A   1      45.764  21.383  24.840  1.00  0.00     0.001 A 
BRANCH  16  21
ATOM     21  O   UNL A   1      43.041  18.308  25.555  1.00  0.00    -0.496 OA
ATOM     22  C   UNL A   1      43.155  17.648  26.821  1.00  0.00     0.278 C 
ENDBRANCH  16  21
ENDBRANCH  11  15
ENDBRANCH   9  10
ENDBRANCH   8   9
ENDBRANCH   7   8
ENDBRANCH   4   7
ENDBRANCH   2   3
ENDBRANCH   1   2
BRANCH   1  23
ATOM     23  C   UNL A   1      43.870  23.356  30.667  1.00  0.00     0.002 C 
BRANCH  23  24
ATOM     24  C   UNL A   1      44.469  23.995  31.921  1.00  0.00     0.002 C 
BRANCH  24  25
ATOM     25  C   UNL A   1      44.620  23.056  33.116  1.00  0.00     0.021 C 
BRANCH  25  26
ATOM     26  C   UNL A   1      43.414  23.005  34.048  1.00  0.00     0.116 C 
BRANCH  26  27
ATOM     27  N   UNL A   1      43.794  23.035  35.454  1.00  0.00    -0.352 N 
ATOM     28  C   UNL A   1      44.206  24.119  36.194  1.00  0.00     0.251 C 
ATOM     29  H   UNL A   1      43.751  22.175  35.932  1.00  0.00     0.163 HD
ATOM     30  O   UNL A   1      44.662  23.977  37.323  1.00  0.00    -0.269 OA
BRANCH  28  31
ATOM     31  C   UNL A   1      44.116  25.459  35.577  1.00  0.00     0.039 A 
ATOM     32  C   UNL A   1      45.285  26.122  35.198  1.00  0.00     0.014 A 
ATOM     33  C   UNL A   1      42.861  26.005  35.291  1.00  0.00     0.014 A 
ATOM     34  C   UNL A   1      45.193  27.305  34.461  1.00  0.00     0.010 A 
ATOM     35  C   UNL A   1      42.774  27.141  34.494  1.00  0.00     0.010 A 
ATOM     36  C   UNL A   1      43.938  27.804  34.069  1.00  0.00    -0.014 A 
BRANCH  36  37
ATOM     37  C   UNL A   1      43.807  29.029  33.238  1.00  0.00     0.031 A 
ATOM     38  C   UNL A   1      43.878  28.913  31.738  1.00  0.00     0.074 A 
ATOM     39  C   UNL A   1      43.707  30.240  33.820  1.00  0.00     0.049 A 
ATOM     40  N   UNL A   1      43.921  29.856  30.834  1.00  0.00    -0.248 NA
ATOM     41  C   UNL A   1      43.948  27.550  31.192  1.00  0.00     0.031 C 
ATOM     42  C   UNL A   1      43.658  30.485  35.263  1.00  0.00     0.029 A 
ATOM     43  N   UNL A   1      43.642  31.496  33.270  1.00  0.00    -0.354 N 
ATOM     44  C   UNL A   1      44.045  29.201  29.613  1.00  0.00     0.074 A 
ATOM     45  C   UNL A   1      44.139  27.786  29.905  1.00  0.00     0.031 C 
ATOM     46  C   UNL A   1      43.549  31.806  35.481  1.00  0.00     0.029 A 
ATOM     47  C   UNL A   1      43.569  32.507  34.201  1.00  0.00     0.049 A 
ATOM     48  H   UNL A   1      43.646  31.659  32.299  1.00  0.00     0.167 HD
ATOM     49  C   UNL A   1      44.054  29.728  28.363  1.00  0.00     0.034 A 
ATOM     50  C   UNL A   1      43.537  33.846  34.041  1.00  0.00     0.034 A 
ATOM     51  C   UNL A   1      43.943  31.138  28.090  1.00  0.00     0.049 A 
ATOM     52  C   UNL A   1      43.576  34.412  32.643  1.00  0.00     0.074 A 
ATOM     53  C   UNL A   1      43.899  31.780  26.865  1.00  0.00     0.029 A 
ATOM     54  N   UNL A   1      43.861  32.130  29.060  1.00  0.00    -0.354 N 
ATOM     55  N   UNL A   1      43.662  33.780  31.496  1.00  0.00    -0.248 NA
ATOM     56  C   UNL A   1      43.506  35.874  32.518  1.00  0.00     0.031 C 
ATOM     57  C   UNL A   1      43.852  33.160  27.093  1.00  0.00     0.029 A 
ATOM     58  C   UNL A   1      43.789  33.378  28.460  1.00  0.00     0.049 A 
ATOM     59  H   UNL A   1      43.855  31.970  30.031  1.00  0.00     0.167 HD
ATOM     60  C   UNL A   1      43.616  34.764  30.513  1.00  0.00     0.074 A 
ATOM     61  C   UNL A   1      43.491  36.032  31.202  1.00  0.00     0.031 C 
ATOM     62  C   UNL A   1      43.663  34.634  29.163  1.00  0.00     0.034 A 
BRANCH  49  63
ATOM     63  C   UNL A   1      44.212  28.764  27.210  1.00  0.00     0.023 A 
ATOM     64  C   UNL A   1      45.466  28.515  26.625  1.00  0.00     0.031 A 
ATOM     65  C   UNL A   1      43.090  28.124  26.655  1.00  0.00     0.131 A 
ATOM     66  C   UNL A   1      45.556  27.728  25.468  1.00  0.00     0.055 A 
ATOM     67  C   UNL A   1      43.199  27.267  25.556  1.00  0.00     0.041 A 
ATOM     68  F   UNL A   1      41.863  28.336  27.155  1.00  0.00    -0.206 F 
ATOM     69  C   UNL A   1      44.436  27.080  24.944  1.00  0.00     0.022 A 
BRANCH  66  70
ATOM     70  S   UNL A   1      47.130  27.697  24.565  1.00  0.00     0.124 S 
ATOM     71  O   UNL A   1      47.261  26.276  24.252  1.00  0.00    -0.237 OA
ATOM     72  O   UNL A   1      46.861  28.578  23.434  1.00  0.00    -0.237 OA
ATOM     73  O   UNL A   1      48.093  28.206  25.538  1.00  0.00    -0.744 OA
ENDBRANCH  66  70
ENDBRANCH  49  63
BRANCH  50  74
ATOM     74  C   UNL A   1      43.467  34.751  35.225  1.00  0.00     0.023 A 
ATOM     75  C   UNL A   1      42.247  34.999  35.872  1.00  0.00     0.031 A 
ATOM     76  C   UNL A   1      44.611  35.417  35.699  1.00  0.00     0.131 A 
ATOM     77  C   UNL A   1      42.186  35.925  36.924  1.00  0.00     0.055 A 
ATOM     78  C   UNL A   1      44.556  36.299  36.781  1.00  0.00     0.041 A 
ATOM     79  F   UNL A   1      45.805  35.214  35.120  1.00  0.00    -0.206 F 
ATOM     80  C   UNL A   1      43.336  36.567  37.392  1.00  0.00     0.022 A 
BRANCH  77  81
ATOM     81  S   UNL A   1      40.565  36.343  37.623  1.00  0.00     0.124 S 
ATOM     82  O   UNL A   1      40.214  35.108  38.315  1.00  0.00    -0.237 OA
ATOM     83  O   UNL A   1      40.887  37.486  38.471  1.00  0.00    -0.237 OA
ATOM     84  O   UNL A   1      39.757  36.652  36.445  1.00  0.00    -0.744 OA
ENDBRANCH  77  81
ENDBRANCH  50  74
BRANCH  62  85
ATOM     85  C   UNL A   1      43.512  35.890  28.342  1.00  0.00     0.023 A 
ATOM     86  C   UNL A   1      44.623  36.634  27.908  1.00  0.00     0.031 A 
ATOM     87  C   UNL A   1      42.229  36.344  27.986  1.00  0.00     0.131 A 
ATOM     88  C   UNL A   1      44.428  37.817  27.179  1.00  0.00     0.055 A 
ATOM     89  C   UNL A   1      42.044  37.490  27.214  1.00  0.00     0.041 A 
ATOM     90  F   UNL A   1      41.134  35.672  28.376  1.00  0.00    -0.206 F 
ATOM     91  C   UNL A   1      43.147  38.241  26.814  1.00  0.00     0.022 A 
BRANCH  88  92
ATOM     92  S   UNL A   1      45.870  38.840  26.773  1.00  0.00     0.124 S 
ATOM     93  O   UNL A   1      45.267  39.919  25.997  1.00  0.00    -0.237 OA
ATOM     94  O   UNL A   1      46.373  39.209  28.092  1.00  0.00    -0.237 OA
ATOM     95  O   UNL A   1      46.730  37.935  26.013  1.00  0.00    -0.744 OA
ENDBRANCH  88  92
ENDBRANCH  62  85
ENDBRANCH  36  37
ENDBRANCH  28  31
ENDBRANCH  26  27
ENDBRANCH  25  26
ENDBRANCH  24  25
ENDBRANCH  23  24
ENDBRANCH   1  23
TORSDOF 21
ENDMDL
MODEL 3
REMARK VINA RESULT:     -10.0      3.037      3.874
REMARK SMILES COc1ccccc1-c1nnc(SCCC(=O)NCCCCCCNC(=O)c2ccc(-c3c4nc(c(-c5cc(S(=O)(=O)[O-])ccc5F)c5ccc([nH]5)c(-c5cc(S(=O)(=O)[O-])ccc5F)c5nc(c(-c6cc(S(=O)(=O)[O-])ccc6F)c6ccc3[nH]6)C=C5)C=C4)cc2)o1
REMARK SMILES IDX 20 1 19 2 18 3 16 4 17 5 15 7 14 8 13 9 12 10 9 11 10 12
REMARK SMILES IDX 91 13 11 14 8 15 3 16 4 17 5 18 7 19 6 20 2 21 1 22 21 23
REMARK SMILES IDX 22 24 23 25 24 26 25 27 26 28 27 30 28 31 29 32 90 33 30 34
REMARK SMILES IDX 89 35 31 36 32 37 33 38 83 39 34 40 88 41 82 42 84 43 35 44
REMARK SMILES IDX 87 45 81 46 80 47 36 49 68 50 48 51 67 52 49 53 52 54 66 55
REMARK SMILES IDX 85 56 50 57 51 58 65 60 86 61 53 62 37 63 38 64 46 65 39 66
REMARK SMILES IDX 45 67 47 68 44 69 40 70 41 71 42 72 43 73 69 74 70 75 78 76
REMARK SMILES IDX 71 77 77 78 79 79 76 80 72 81 73 82 74 83 75 84 54 85 55 86
REMARK SMILES IDX 63 87 56 88 62 89 64 90 61 91 57 92 58 93 59 94 60 95
REMARK H PARENT 18 6 25 29 84 48 52 59
REMARK Flexibility Score: inf
ROOT
ATOM      1  C   UNL A   1      35.799  22.606  23.784  1.00  0.00     0.021 C 
ENDROOT
BRANCH   1   2
ATOM      2  C   UNL A   1      34.302  22.730  23.504  1.00  0.00     0.116 C 
BRANCH   2   3
ATOM      3  N   UNL A   1      33.994  23.637  22.413  1.00  0.00    -0.356 N 
ATOM      4  C   UNL A   1      33.311  24.808  22.373  1.00  0.00     0.220 C 
ATOM      5  O   UNL A   1      33.374  25.506  21.360  1.00  0.00    -0.275 OA
ATOM      6  H   UNL A   1      34.348  23.349  21.540  1.00  0.00     0.163 HD
BRANCH   4   7
ATOM      7  C   UNL A   1      32.447  25.229  23.527  1.00  0.00     0.111 C 
BRANCH   7   8
ATOM      8  C   UNL A   1      33.236  26.150  24.450  1.00  0.00     0.090 C 
BRANCH   8   9
ATOM      9  S   UNL A   1      32.265  26.823  25.818  1.00  0.00    -0.065 SA
BRANCH   9  10
ATOM     10  C   UNL A   1      31.559  28.296  25.214  1.00  0.00     0.276 A 
ATOM     11  C   UNL A   1      30.403  29.792  24.218  1.00  0.00     0.252 A 
ATOM     12  N   UNL A   1      31.198  30.423  25.060  1.00  0.00    -0.107 NA
ATOM     13  O   UNL A   1      30.586  28.427  24.249  1.00  0.00    -0.411 OA
ATOM     14  N   UNL A   1      31.930  29.462  25.706  1.00  0.00    -0.101 NA
BRANCH  11  15
ATOM     15  C   UNL A   1      29.503  30.397  23.237  1.00  0.00     0.081 A 
ATOM     16  C   UNL A   1      29.039  31.721  23.255  1.00  0.00     0.131 A 
ATOM     17  C   UNL A   1      28.100  32.149  22.301  1.00  0.00     0.047 A 
ATOM     18  C   UNL A   1      27.715  31.318  21.252  1.00  0.00     0.004 A 
ATOM     19  C   UNL A   1      29.120  29.584  22.148  1.00  0.00     0.018 A 
ATOM     20  C   UNL A   1      28.248  30.041  21.158  1.00  0.00     0.001 A 
BRANCH  16  21
ATOM     21  O   UNL A   1      29.493  32.599  24.205  1.00  0.00    -0.496 OA
ATOM     22  C   UNL A   1      29.820  33.886  23.669  1.00  0.00     0.278 C 
ENDBRANCH  16  21
ENDBRANCH  11  15
ENDBRANCH   9  10
ENDBRANCH   8   9
ENDBRANCH   7   8
ENDBRANCH   4   7
ENDBRANCH   2   3
ENDBRANCH   1   2
BRANCH   1  23
ATOM     23  C   UNL A   1      36.154  21.868  25.082  1.00  0.00     0.002 C 
BRANCH  23  24
ATOM     24  C   UNL A   1      36.287  20.349  24.960  1.00  0.00     0.002 C 
BRANCH  24  25
ATOM     25  C   UNL A   1      37.722  19.830  24.886  1.00  0.00     0.021 C 
BRANCH  25  26
ATOM     26  C   UNL A   1      38.736  20.631  25.696  1.00  0.00     0.116 C 
BRANCH  26  27
ATOM     27  N   UNL A   1      39.850  19.813  26.158  1.00  0.00    -0.352 N 
ATOM     28  C   UNL A   1      41.028  20.237  26.729  1.00  0.00     0.251 C 
ATOM     29  H   UNL A   1      39.748  18.840  26.048  1.00  0.00     0.163 HD
ATOM     30  O   UNL A   1      41.956  19.458  26.915  1.00  0.00    -0.269 OA
BRANCH  28  31
ATOM     31  C   UNL A   1      41.158  21.667  27.081  1.00  0.00     0.039 A 
ATOM     32  C   UNL A   1      41.714  22.024  28.311  1.00  0.00     0.014 A 
ATOM     33  C   UNL A   1      40.813  22.643  26.143  1.00  0.00     0.014 A 
ATOM     34  C   UNL A   1      41.996  23.368  28.570  1.00  0.00     0.010 A 
ATOM     35  C   UNL A   1      41.163  23.969  26.374  1.00  0.00     0.010 A 
ATOM     36  C   UNL A   1      41.758  24.346  27.590  1.00  0.00    -0.014 A 
BRANCH  36  37
ATOM     37  C   UNL A   1      42.098  25.776  27.812  1.00  0.00     0.031 A 
ATOM     38  C   UNL A   1      43.467  26.277  27.435  1.00  0.00     0.074 A 
ATOM     39  C   UNL A   1      41.219  26.599  28.419  1.00  0.00     0.049 A 
ATOM     40  N   UNL A   1      44.017  27.441  27.662  1.00  0.00    -0.248 NA
ATOM     41  C   UNL A   1      44.343  25.320  26.743  1.00  0.00     0.031 C 
ATOM     42  C   UNL A   1      39.873  26.225  28.858  1.00  0.00     0.029 A 
ATOM     43  N   UNL A   1      41.331  27.917  28.784  1.00  0.00    -0.354 N 
ATOM     44  C   UNL A   1      45.311  27.349  27.161  1.00  0.00     0.074 A 
ATOM     45  C   UNL A   1      45.480  25.993  26.682  1.00  0.00     0.031 C 
ATOM     46  C   UNL A   1      39.279  27.294  29.413  1.00  0.00     0.029 A 
ATOM     47  C   UNL A   1      40.214  28.415  29.415  1.00  0.00     0.049 A 
ATOM     48  H   UNL A   1      42.136  28.457  28.612  1.00  0.00     0.167 HD
ATOM     49  C   UNL A   1      46.263  28.313  27.082  1.00  0.00     0.034 A 
ATOM     50  C   UNL A   1      39.975  29.632  29.946  1.00  0.00     0.034 A 
ATOM     51  C   UNL A   1      46.072  29.662  27.549  1.00  0.00     0.049 A 
ATOM     52  C   UNL A   1      41.058  30.682  29.874  1.00  0.00     0.074 A 
ATOM     53  C   UNL A   1      46.949  30.731  27.483  1.00  0.00     0.029 A 
ATOM     54  N   UNL A   1      44.922  30.132  28.173  1.00  0.00    -0.354 N 
ATOM     55  N   UNL A   1      42.266  30.591  29.368  1.00  0.00    -0.248 NA
ATOM     56  C   UNL A   1      40.741  32.001  30.437  1.00  0.00     0.031 C 
ATOM     57  C   UNL A   1      46.355  31.827  28.120  1.00  0.00     0.029 A 
ATOM     58  C   UNL A   1      45.077  31.466  28.516  1.00  0.00     0.049 A 
ATOM     59  H   UNL A   1      44.115  29.595  28.345  1.00  0.00     0.167 HD
ATOM     60  C   UNL A   1      42.838  31.852  29.517  1.00  0.00     0.074 A 
ATOM     61  C   UNL A   1      41.840  32.686  30.155  1.00  0.00     0.031 C 
ATOM     62  C   UNL A   1      44.071  32.285  29.151  1.00  0.00     0.034 A 
BRANCH  49  63
ATOM     63  C   UNL A   1      47.596  27.919  26.488  1.00  0.00     0.023 A 
ATOM     64  C   UNL A   1      47.807  27.908  25.098  1.00  0.00     0.031 A 
ATOM     65  C   UNL A   1      48.652  27.503  27.317  1.00  0.00     0.131 A 
ATOM     66  C   UNL A   1      49.006  27.401  24.576  1.00  0.00     0.055 A 
ATOM     67  C   UNL A   1      49.878  27.085  26.793  1.00  0.00     0.041 A 
ATOM     68  F   UNL A   1      48.506  27.472  28.650  1.00  0.00    -0.206 F 
ATOM     69  C   UNL A   1      50.054  27.014  25.414  1.00  0.00     0.022 A 
BRANCH  66  70
ATOM     70  S   UNL A   1      49.111  27.102  22.790  1.00  0.00     0.124 S 
ATOM     71  O   UNL A   1      48.419  28.273  22.256  1.00  0.00    -0.237 OA
ATOM     72  O   UNL A   1      50.551  27.053  22.562  1.00  0.00    -0.237 OA
ATOM     73  O   UNL A   1      48.407  25.835  22.612  1.00  0.00    -0.744 OA
ENDBRANCH  66  70
ENDBRANCH  49  63
BRANCH  50  74
ATOM     74  C   UNL A   1      38.668  29.935  30.597  1.00  0.00     0.023 A 
ATOM     75  C   UNL A   1      37.684  30.678  29.926  1.00  0.00     0.031 A 
ATOM     76  C   UNL A   1      38.399  29.525  31.915  1.00  0.00     0.131 A 
ATOM     77  C   UNL A   1      36.499  31.032  30.589  1.00  0.00     0.055 A 
ATOM     78  C   UNL A   1      37.196  29.835  32.552  1.00  0.00     0.041 A 
ATOM     79  F   UNL A   1      39.303  28.807  32.601  1.00  0.00    -0.206 F 
ATOM     80  C   UNL A   1      36.242  30.604  31.894  1.00  0.00     0.022 A 
BRANCH  77  81
ATOM     81  S   UNL A   1      35.328  32.133  29.748  1.00  0.00     0.124 S 
ATOM     82  O   UNL A   1      34.420  32.485  30.834  1.00  0.00    -0.237 OA
ATOM     83  O   UNL A   1      36.204  33.200  29.272  1.00  0.00    -0.237 OA
ATOM     84  O   UNL A   1      34.757  31.287  28.703  1.00  0.00    -0.744 OA
ENDBRANCH  77  81
ENDBRANCH  50  74
BRANCH  62  85
ATOM     85  C   UNL A   1      44.384  33.743  29.374  1.00  0.00     0.023 A 
ATOM     86  C   UNL A   1      43.889  34.749  28.528  1.00  0.00     0.031 A 
ATOM     87  C   UNL A   1      45.191  34.127  30.461  1.00  0.00     0.131 A 
ATOM     88  C   UNL A   1      44.242  36.089  28.756  1.00  0.00     0.055 A 
ATOM     89  C   UNL A   1      45.492  35.465  30.715  1.00  0.00     0.041 A 
ATOM     90  F   UNL A   1      45.692  33.206  31.299  1.00  0.00    -0.206 F 
ATOM     91  C   UNL A   1      45.025  36.454  29.854  1.00  0.00     0.022 A 
BRANCH  88  92
ATOM     92  S   UNL A   1      43.722  37.346  27.555  1.00  0.00     0.124 S 
ATOM     93  O   UNL A   1      42.852  38.194  28.363  1.00  0.00    -0.237 OA
ATOM     94  O   UNL A   1      44.994  37.937  27.152  1.00  0.00    -0.237 OA
ATOM     95  O   UNL A   1      43.044  36.570  26.518  1.00  0.00    -0.744 OA
ENDBRANCH  88  92
ENDBRANCH  62  85
ENDBRANCH  36  37
ENDBRANCH  28  31
ENDBRANCH  26  27
ENDBRANCH  25  26
ENDBRANCH  24  25
ENDBRANCH  23  24
ENDBRANCH   1  23
TORSDOF 21
ENDMDL
