MODEL 1
REMARK VINA RESULT:     -10.5      0.000      0.000
REMARK SMILES C[C@@H](Sc1ccccc1[N+](=O)[O-])[C@@H](C)C(=O)NCCCCCCNC(=O)c1ccc(-c2c3nc(c(-c4cc(S(=O)(=O)[O-])ccc4F)c4ccc([nH]4)c(-c4cc(S(=O)(=O)[O-])ccc4F)c4nc(c(-c5cc(S(=O)(=O)[O-])ccc5F)c5ccc2[nH]5)C=C4)C=C3)cc1
REMARK SMILES IDX 20 1 19 2 18 3 17 4 15 5 16 6 13 8 14 9 2 10 1 11 3 12 4 13
REMARK SMILES IDX 5 14 9 15 6 16 8 17 7 18 10 19 11 20 12 21 21 22 22 23 23 24
REMARK SMILES IDX 24 25 25 26 26 28 27 29 28 30 89 31 29 32 88 33 30 34 31 35
REMARK SMILES IDX 32 36 82 37 33 38 87 39 81 40 83 41 34 42 86 43 80 44 79 45
REMARK SMILES IDX 35 47 67 48 47 49 66 50 48 51 51 52 65 53 84 54 49 55 50 56
REMARK SMILES IDX 64 58 85 59 52 60 36 61 37 62 45 63 38 64 44 65 46 66 43 67
REMARK SMILES IDX 39 68 40 69 41 70 42 71 68 72 69 73 77 74 70 75 76 76 78 77
REMARK SMILES IDX 75 78 71 79 72 80 73 81 74 82 53 83 54 84 62 85 55 86 61 87
REMARK SMILES IDX 63 88 60 89 56 90 57 91 58 92 59 93
REMARK H PARENT 17 7 24 27 83 46 51 57
REMARK Flexibility Score: inf
ROOT
ATOM      1  C   UNL A   1      32.008  28.891  24.036  1.00  0.00     0.002 C 
ENDROOT
BRANCH   1   2
ATOM      2  C   UNL A   1      30.915  28.713  22.975  1.00  0.00     0.021 C 
BRANCH   2   3
ATOM      3  C   UNL A   1      30.634  27.259  22.602  1.00  0.00     0.116 C 
BRANCH   3   4
ATOM      4  N   UNL A   1      31.564  26.784  21.595  1.00  0.00    -0.356 N 
ATOM      5  C   UNL A   1      32.570  25.872  21.645  1.00  0.00     0.223 C 
ATOM      6  O   UNL A   1      33.202  25.659  20.606  1.00  0.00    -0.275 OA
ATOM      7  H   UNL A   1      31.443  27.200  20.710  1.00  0.00     0.163 HD
BRANCH   5   8
ATOM      8  C   UNL A   1      32.858  25.051  22.897  1.00  0.00     0.088 C 
ATOM      9  C   UNL A   1      33.949  25.770  23.707  1.00  0.00     0.019 C 
BRANCH   8  10
ATOM     10  C   UNL A   1      33.097  23.541  22.620  1.00  0.00     0.061 C 
ATOM     11  C   UNL A   1      34.494  23.097  23.062  1.00  0.00     0.020 C 
BRANCH  10  12
ATOM     12  S   UNL A   1      31.805  22.528  23.512  1.00  0.00    -0.115 SA
BRANCH  12  13
ATOM     13  C   UNL A   1      32.485  22.430  25.170  1.00  0.00     0.085 A 
ATOM     14  C   UNL A   1      32.354  23.565  25.986  1.00  0.00     0.022 A 
ATOM     15  C   UNL A   1      33.042  21.283  25.761  1.00  0.00     0.282 A 
ATOM     16  C   UNL A   1      32.833  23.587  27.300  1.00  0.00     0.002 A 
ATOM     17  C   UNL A   1      33.509  21.289  27.090  1.00  0.00     0.087 A 
ATOM     18  C   UNL A   1      33.415  22.451  27.851  1.00  0.00     0.007 A 
BRANCH  15  19
ATOM     19  N   UNL A   1      33.136  20.018  25.047  1.00  0.00     0.063 N 
ATOM     20  O   UNL A   1      34.162  19.829  24.376  1.00  0.00    -0.258 OA
ATOM     21  O   UNL A   1      32.165  19.253  25.093  1.00  0.00    -0.258 OA
ENDBRANCH  15  19
ENDBRANCH  12  13
ENDBRANCH  10  12
ENDBRANCH   8  10
ENDBRANCH   5   8
ENDBRANCH   3   4
ENDBRANCH   2   3
ENDBRANCH   1   2
BRANCH   1  22
ATOM     22  C   UNL A   1      31.643  28.384  25.435  1.00  0.00     0.002 C 
BRANCH  22  23
ATOM     23  C   UNL A   1      32.832  28.105  26.360  1.00  0.00     0.021 C 
BRANCH  23  24
ATOM     24  C   UNL A   1      34.011  29.062  26.208  1.00  0.00     0.116 C 
BRANCH  24  25
ATOM     25  N   UNL A   1      33.714  30.386  26.726  1.00  0.00    -0.352 N 
ATOM     26  C   UNL A   1      34.347  31.108  27.704  1.00  0.00     0.251 C 
ATOM     27  H   UNL A   1      32.942  30.834  26.311  1.00  0.00     0.163 HD
ATOM     28  O   UNL A   1      33.816  32.138  28.128  1.00  0.00    -0.269 OA
BRANCH  26  29
ATOM     29  C   UNL A   1      35.637  30.655  28.269  1.00  0.00     0.039 A 
ATOM     30  C   UNL A   1      35.620  29.716  29.304  1.00  0.00     0.014 A 
ATOM     31  C   UNL A   1      36.857  31.167  27.814  1.00  0.00     0.014 A 
ATOM     32  C   UNL A   1      36.822  29.251  29.843  1.00  0.00     0.010 A 
ATOM     33  C   UNL A   1      38.057  30.653  28.307  1.00  0.00     0.010 A 
ATOM     34  C   UNL A   1      38.053  29.691  29.328  1.00  0.00    -0.014 A 
BRANCH  34  35
ATOM     35  C   UNL A   1      39.330  29.133  29.846  1.00  0.00     0.031 A 
ATOM     36  C   UNL A   1      39.997  29.732  31.055  1.00  0.00     0.074 A 
ATOM     37  C   UNL A   1      39.906  28.100  29.199  1.00  0.00     0.049 A 
ATOM     38  N   UNL A   1      41.108  29.375  31.648  1.00  0.00    -0.248 NA
ATOM     39  C   UNL A   1      39.343  30.901  31.659  1.00  0.00     0.031 C 
ATOM     40  C   UNL A   1      39.384  27.472  27.982  1.00  0.00     0.029 A 
ATOM     41  N   UNL A   1      41.051  27.396  29.468  1.00  0.00    -0.354 N 
ATOM     42  C   UNL A   1      41.290  30.276  32.692  1.00  0.00     0.074 A 
ATOM     43  C   UNL A   1      40.206  31.233  32.609  1.00  0.00     0.031 C 
ATOM     44  C   UNL A   1      40.188  26.456  27.632  1.00  0.00     0.029 A 
ATOM     45  C   UNL A   1      41.302  26.382  28.572  1.00  0.00     0.049 A 
ATOM     46  H   UNL A   1      41.639  27.595  30.232  1.00  0.00     0.167 HD
ATOM     47  C   UNL A   1      42.258  30.291  33.643  1.00  0.00     0.034 A 
ATOM     48  C   UNL A   1      42.314  25.495  28.512  1.00  0.00     0.034 A 
ATOM     49  C   UNL A   1      43.329  29.324  33.716  1.00  0.00     0.049 A 
ATOM     50  C   UNL A   1      43.373  25.528  29.582  1.00  0.00     0.074 A 
ATOM     51  C   UNL A   1      44.326  29.210  34.669  1.00  0.00     0.029 A 
ATOM     52  N   UNL A   1      43.550  28.309  32.792  1.00  0.00    -0.354 N 
ATOM     53  N   UNL A   1      43.493  26.346  30.603  1.00  0.00    -0.248 NA
ATOM     54  C   UNL A   1      44.422  24.505  29.502  1.00  0.00     0.031 C 
ATOM     55  C   UNL A   1      45.185  28.173  34.288  1.00  0.00     0.029 A 
ATOM     56  C   UNL A   1      44.684  27.587  33.137  1.00  0.00     0.049 A 
ATOM     57  H   UNL A   1      42.984  28.128  32.008  1.00  0.00     0.167 HD
ATOM     58  C   UNL A   1      44.621  25.921  31.297  1.00  0.00     0.074 A 
ATOM     59  C   UNL A   1      45.124  24.757  30.596  1.00  0.00     0.031 C 
ATOM     60  C   UNL A   1      45.193  26.444  32.413  1.00  0.00     0.034 A 
BRANCH  47  61
ATOM     61  C   UNL A   1      42.214  31.405  34.664  1.00  0.00     0.023 A 
ATOM     62  C   UNL A   1      42.936  32.600  34.489  1.00  0.00     0.031 A 
ATOM     63  C   UNL A   1      41.453  31.265  35.838  1.00  0.00     0.131 A 
ATOM     64  C   UNL A   1      42.942  33.571  35.502  1.00  0.00     0.055 A 
ATOM     65  C   UNL A   1      41.399  32.272  36.807  1.00  0.00     0.041 A 
ATOM     66  F   UNL A   1      40.758  30.141  36.073  1.00  0.00    -0.206 F 
ATOM     67  C   UNL A   1      42.159  33.426  36.649  1.00  0.00     0.022 A 
BRANCH  64  68
ATOM     68  S   UNL A   1      44.102  34.959  35.363  1.00  0.00     0.124 S 
ATOM     69  O   UNL A   1      45.058  34.448  34.385  1.00  0.00    -0.237 OA
ATOM     70  O   UNL A   1      43.240  36.045  34.910  1.00  0.00    -0.237 OA
ATOM     71  O   UNL A   1      44.627  35.103  36.720  1.00  0.00    -0.744 OA
ENDBRANCH  64  68
ENDBRANCH  47  61
BRANCH  48  72
ATOM     72  C   UNL A   1      42.380  24.499  27.404  1.00  0.00     0.023 A 
ATOM     73  C   UNL A   1      41.625  23.315  27.447  1.00  0.00     0.031 A 
ATOM     74  C   UNL A   1      43.231  24.698  26.303  1.00  0.00     0.131 A 
ATOM     75  C   UNL A   1      41.775  22.354  26.435  1.00  0.00     0.055 A 
ATOM     76  C   UNL A   1      43.337  23.764  25.272  1.00  0.00     0.041 A 
ATOM     77  F   UNL A   1      43.968  25.818  26.210  1.00  0.00    -0.206 F 
ATOM     78  C   UNL A   1      42.616  22.576  25.343  1.00  0.00     0.022 A 
BRANCH  75  79
ATOM     79  S   UNL A   1      40.915  20.767  26.612  1.00  0.00     0.124 S 
ATOM     80  O   UNL A   1      41.806  19.863  25.894  1.00  0.00    -0.237 OA
ATOM     81  O   UNL A   1      40.870  20.607  28.061  1.00  0.00    -0.237 OA
ATOM     82  O   UNL A   1      39.622  21.007  25.975  1.00  0.00    -0.744 OA
ENDBRANCH  75  79
ENDBRANCH  48  72
BRANCH  60  83
ATOM     83  C   UNL A   1      46.416  25.734  32.943  1.00  0.00     0.023 A 
ATOM     84  C   UNL A   1      47.700  26.003  32.437  1.00  0.00     0.031 A 
ATOM     85  C   UNL A   1      46.292  24.742  33.932  1.00  0.00     0.131 A 
ATOM     86  C   UNL A   1      48.795  25.235  32.860  1.00  0.00     0.055 A 
ATOM     87  C   UNL A   1      47.396  24.028  34.400  1.00  0.00     0.041 A 
ATOM     88  F   UNL A   1      45.090  24.441  34.451  1.00  0.00    -0.206 F 
ATOM     89  C   UNL A   1      48.654  24.259  33.850  1.00  0.00     0.022 A 
BRANCH  86  90
ATOM     90  S   UNL A   1      50.382  25.440  32.006  1.00  0.00     0.124 S 
ATOM     91  O   UNL A   1      50.043  26.401  30.961  1.00  0.00    -0.237 OA
ATOM     92  O   UNL A   1      51.248  25.935  33.072  1.00  0.00    -0.237 OA
ATOM     93  O   UNL A   1      50.692  24.092  31.531  1.00  0.00    -0.744 OA
ENDBRANCH  86  90
ENDBRANCH  60  83
ENDBRANCH  34  35
ENDBRANCH  26  29
ENDBRANCH  24  25
ENDBRANCH  23  24
ENDBRANCH  22  23
ENDBRANCH   1  22
TORSDOF 20
ENDMDL
MODEL 2
REMARK VINA RESULT:     -10.3      1.544      3.065
REMARK SMILES C[C@@H](Sc1ccccc1[N+](=O)[O-])[C@@H](C)C(=O)NCCCCCCNC(=O)c1ccc(-c2c3nc(c(-c4cc(S(=O)(=O)[O-])ccc4F)c4ccc([nH]4)c(-c4cc(S(=O)(=O)[O-])ccc4F)c4nc(c(-c5cc(S(=O)(=O)[O-])ccc5F)c5ccc2[nH]5)C=C4)C=C3)cc1
REMARK SMILES IDX 20 1 19 2 18 3 17 4 15 5 16 6 13 8 14 9 2 10 1 11 3 12 4 13
REMARK SMILES IDX 5 14 9 15 6 16 8 17 7 18 10 19 11 20 12 21 21 22 22 23 23 24
REMARK SMILES IDX 24 25 25 26 26 28 27 29 28 30 89 31 29 32 88 33 30 34 31 35
REMARK SMILES IDX 32 36 82 37 33 38 87 39 81 40 83 41 34 42 86 43 80 44 79 45
REMARK SMILES IDX 35 47 67 48 47 49 66 50 48 51 51 52 65 53 84 54 49 55 50 56
REMARK SMILES IDX 64 58 85 59 52 60 36 61 37 62 45 63 38 64 44 65 46 66 43 67
REMARK SMILES IDX 39 68 40 69 41 70 42 71 68 72 69 73 77 74 70 75 76 76 78 77
REMARK SMILES IDX 75 78 71 79 72 80 73 81 74 82 53 83 54 84 62 85 55 86 61 87
REMARK SMILES IDX 63 88 60 89 56 90 57 91 58 92 59 93
REMARK H PARENT 17 7 24 27 83 46 51 57
REMARK Flexibility Score: inf
ROOT
ATOM      1  C   UNL A   1      32.477  26.243  26.352  1.00  0.00     0.002 C 
ENDROOT
BRANCH   1   2
ATOM      2  C   UNL A   1      31.627  24.989  26.586  1.00  0.00     0.021 C 
BRANCH   2   3
ATOM      3  C   UNL A   1      32.418  23.777  27.073  1.00  0.00     0.116 C 
BRANCH   3   4
ATOM      4  N   UNL A   1      31.884  22.543  26.527  1.00  0.00    -0.356 N 
ATOM      5  C   UNL A   1      32.309  21.737  25.520  1.00  0.00     0.223 C 
ATOM      6  O   UNL A   1      31.644  20.725  25.277  1.00  0.00    -0.275 OA
ATOM      7  H   UNL A   1      31.059  22.234  26.967  1.00  0.00     0.163 HD
BRANCH   5   8
ATOM      8  C   UNL A   1      33.615  21.991  24.774  1.00  0.00     0.088 C 
ATOM      9  C   UNL A   1      34.778  21.831  25.766  1.00  0.00     0.019 C 
BRANCH   8  10
ATOM     10  C   UNL A   1      33.614  23.293  23.926  1.00  0.00     0.061 C 
ATOM     11  C   UNL A   1      34.982  23.557  23.291  1.00  0.00     0.020 C 
BRANCH  10  12
ATOM     12  S   UNL A   1      32.315  23.171  22.590  1.00  0.00    -0.115 SA
BRANCH  12  13
ATOM     13  C   UNL A   1      31.468  24.746  22.747  1.00  0.00     0.085 A 
ATOM     14  C   UNL A   1      30.376  24.803  23.627  1.00  0.00     0.022 A 
ATOM     15  C   UNL A   1      31.867  25.954  22.149  1.00  0.00     0.282 A 
ATOM     16  C   UNL A   1      29.659  25.986  23.836  1.00  0.00     0.002 A 
ATOM     17  C   UNL A   1      31.163  27.155  22.370  1.00  0.00     0.087 A 
ATOM     18  C   UNL A   1      30.049  27.161  23.204  1.00  0.00     0.007 A 
BRANCH  15  19
ATOM     19  N   UNL A   1      33.045  26.040  21.300  1.00  0.00     0.063 N 
ATOM     20  O   UNL A   1      32.980  25.480  20.195  1.00  0.00    -0.258 OA
ATOM     21  O   UNL A   1      34.052  26.594  21.760  1.00  0.00    -0.258 OA
ENDBRANCH  15  19
ENDBRANCH  12  13
ENDBRANCH  10  12
ENDBRANCH   8  10
ENDBRANCH   5   8
ENDBRANCH   3   4
ENDBRANCH   2   3
ENDBRANCH   1   2
BRANCH   1  22
ATOM     22  C   UNL A   1      31.924  27.528  26.978  1.00  0.00     0.002 C 
BRANCH  22  23
ATOM     23  C   UNL A   1      32.264  28.819  26.227  1.00  0.00     0.021 C 
BRANCH  23  24
ATOM     24  C   UNL A   1      33.650  29.391  26.513  1.00  0.00     0.116 C 
BRANCH  24  25
ATOM     25  N   UNL A   1      33.588  30.731  27.068  1.00  0.00    -0.352 N 
ATOM     26  C   UNL A   1      34.389  31.333  28.003  1.00  0.00     0.251 C 
ATOM     27  H   UNL A   1      32.859  31.295  26.719  1.00  0.00     0.163 HD
ATOM     28  O   UNL A   1      34.046  32.418  28.478  1.00  0.00    -0.269 OA
BRANCH  26  29
ATOM     29  C   UNL A   1      35.639  30.686  28.460  1.00  0.00     0.039 A 
ATOM     30  C   UNL A   1      36.844  31.061  27.860  1.00  0.00     0.014 A 
ATOM     31  C   UNL A   1      35.632  29.695  29.447  1.00  0.00     0.014 A 
ATOM     32  C   UNL A   1      38.043  30.485  28.286  1.00  0.00     0.010 A 
ATOM     33  C   UNL A   1      36.836  29.169  29.917  1.00  0.00     0.010 A 
ATOM     34  C   UNL A   1      38.055  29.557  29.340  1.00  0.00    -0.014 A 
BRANCH  34  35
ATOM     35  C   UNL A   1      39.340  29.008  29.847  1.00  0.00     0.031 A 
ATOM     36  C   UNL A   1      40.014  29.613  31.049  1.00  0.00     0.074 A 
ATOM     37  C   UNL A   1      39.918  27.978  29.196  1.00  0.00     0.049 A 
ATOM     38  N   UNL A   1      41.133  29.264  31.633  1.00  0.00    -0.248 NA
ATOM     39  C   UNL A   1      39.357  30.778  31.658  1.00  0.00     0.031 C 
ATOM     40  C   UNL A   1      39.389  27.344  27.985  1.00  0.00     0.029 A 
ATOM     41  N   UNL A   1      41.070  27.281  29.456  1.00  0.00    -0.354 N 
ATOM     42  C   UNL A   1      41.318  30.168  32.674  1.00  0.00     0.074 A 
ATOM     43  C   UNL A   1      40.227  31.117  32.599  1.00  0.00     0.031 C 
ATOM     44  C   UNL A   1      40.197  26.334  27.629  1.00  0.00     0.029 A 
ATOM     45  C   UNL A   1      41.319  26.268  28.559  1.00  0.00     0.049 A 
ATOM     46  H   UNL A   1      41.663  27.486  30.215  1.00  0.00     0.167 HD
ATOM     47  C   UNL A   1      42.294  30.191  33.616  1.00  0.00     0.034 A 
ATOM     48  C   UNL A   1      42.336  25.387  28.491  1.00  0.00     0.034 A 
ATOM     49  C   UNL A   1      43.372  29.231  33.681  1.00  0.00     0.049 A 
ATOM     50  C   UNL A   1      43.405  25.430  29.552  1.00  0.00     0.074 A 
ATOM     51  C   UNL A   1      44.379  29.124  34.625  1.00  0.00     0.029 A 
ATOM     52  N   UNL A   1      43.592  28.216  32.757  1.00  0.00    -0.354 N 
ATOM     53  N   UNL A   1      43.528  26.250  30.570  1.00  0.00    -0.248 NA
ATOM     54  C   UNL A   1      44.460  24.413  29.464  1.00  0.00     0.031 C 
ATOM     55  C   UNL A   1      45.241  28.093  34.238  1.00  0.00     0.029 A 
ATOM     56  C   UNL A   1      44.734  27.502  33.092  1.00  0.00     0.049 A 
ATOM     57  H   UNL A   1      43.020  28.030  31.978  1.00  0.00     0.167 HD
ATOM     58  C   UNL A   1      44.665  25.833  31.255  1.00  0.00     0.074 A 
ATOM     59  C   UNL A   1      45.170  24.672  30.552  1.00  0.00     0.031 C 
ATOM     60  C   UNL A   1      45.244  26.362  32.365  1.00  0.00     0.034 A 
BRANCH  47  61
ATOM     61  C   UNL A   1      42.251  31.305  34.636  1.00  0.00     0.023 A 
ATOM     62  C   UNL A   1      42.937  32.518  34.438  1.00  0.00     0.031 A 
ATOM     63  C   UNL A   1      41.530  31.149  35.833  1.00  0.00     0.131 A 
ATOM     64  C   UNL A   1      42.949  33.492  35.448  1.00  0.00     0.055 A 
ATOM     65  C   UNL A   1      41.479  32.156  36.801  1.00  0.00     0.041 A 
ATOM     66  F   UNL A   1      40.871  30.008  36.091  1.00  0.00    -0.206 F 
ATOM     67  C   UNL A   1      42.204  33.329  36.618  1.00  0.00     0.022 A 
BRANCH  64  68
ATOM     68  S   UNL A   1      44.067  34.909  35.272  1.00  0.00     0.124 S 
ATOM     69  O   UNL A   1      45.355  34.247  35.082  1.00  0.00    -0.237 OA
ATOM     70  O   UNL A   1      43.522  35.598  34.108  1.00  0.00    -0.237 OA
ATOM     71  O   UNL A   1      43.922  35.619  36.542  1.00  0.00    -0.744 OA
ENDBRANCH  64  68
ENDBRANCH  47  61
BRANCH  48  72
ATOM     72  C   UNL A   1      42.399  24.390  27.384  1.00  0.00     0.023 A 
ATOM     73  C   UNL A   1      41.638  23.211  27.426  1.00  0.00     0.031 A 
ATOM     74  C   UNL A   1      43.253  24.585  26.285  1.00  0.00     0.131 A 
ATOM     75  C   UNL A   1      41.784  22.249  26.415  1.00  0.00     0.055 A 
ATOM     76  C   UNL A   1      43.356  23.649  25.255  1.00  0.00     0.041 A 
ATOM     77  F   UNL A   1      43.997  25.700  26.192  1.00  0.00    -0.206 F 
ATOM     78  C   UNL A   1      42.629  22.466  25.324  1.00  0.00     0.022 A 
BRANCH  75  79
ATOM     79  S   UNL A   1      40.915  20.666  26.591  1.00  0.00     0.124 S 
ATOM     80  O   UNL A   1      41.797  19.760  25.866  1.00  0.00    -0.237 OA
ATOM     81  O   UNL A   1      40.877  20.502  28.040  1.00  0.00    -0.237 OA
ATOM     82  O   UNL A   1      39.621  20.917  25.961  1.00  0.00    -0.744 OA
ENDBRANCH  75  79
ENDBRANCH  48  72
BRANCH  60  83
ATOM     83  C   UNL A   1      46.477  25.661  32.885  1.00  0.00     0.023 A 
ATOM     84  C   UNL A   1      46.385  24.586  33.787  1.00  0.00     0.031 A 
ATOM     85  C   UNL A   1      47.758  26.103  32.514  1.00  0.00     0.131 A 
ATOM     86  C   UNL A   1      47.550  24.042  34.349  1.00  0.00     0.055 A 
ATOM     87  C   UNL A   1      48.916  25.513  33.023  1.00  0.00     0.041 A 
ATOM     88  F   UNL A   1      47.907  27.127  31.657  1.00  0.00    -0.206 F 
ATOM     89  C   UNL A   1      48.816  24.489  33.961  1.00  0.00     0.022 A 
BRANCH  86  90
ATOM     90  S   UNL A   1      47.386  22.833  35.691  1.00  0.00     0.124 S 
ATOM     91  O   UNL A   1      47.194  21.587  34.955  1.00  0.00    -0.237 OA
ATOM     92  O   UNL A   1      48.658  22.971  36.392  1.00  0.00    -0.237 OA
ATOM     93  O   UNL A   1      46.216  23.301  36.433  1.00  0.00    -0.744 OA
ENDBRANCH  86  90
ENDBRANCH  60  83
ENDBRANCH  34  35
ENDBRANCH  26  29
ENDBRANCH  24  25
ENDBRANCH  23  24
ENDBRANCH  22  23
ENDBRANCH   1  22
TORSDOF 20
ENDMDL
MODEL 3
REMARK VINA RESULT:     -10.2      3.121      3.805
REMARK SMILES C[C@@H](Sc1ccccc1[N+](=O)[O-])[C@@H](C)C(=O)NCCCCCCNC(=O)c1ccc(-c2c3nc(c(-c4cc(S(=O)(=O)[O-])ccc4F)c4ccc([nH]4)c(-c4cc(S(=O)(=O)[O-])ccc4F)c4nc(c(-c5cc(S(=O)(=O)[O-])ccc5F)c5ccc2[nH]5)C=C4)C=C3)cc1
REMARK SMILES IDX 20 1 19 2 18 3 17 4 15 5 16 6 13 8 14 9 2 10 1 11 3 12 4 13
REMARK SMILES IDX 5 14 9 15 6 16 8 17 7 18 10 19 11 20 12 21 21 22 22 23 23 24
REMARK SMILES IDX 24 25 25 26 26 28 27 29 28 30 89 31 29 32 88 33 30 34 31 35
REMARK SMILES IDX 32 36 82 37 33 38 87 39 81 40 83 41 34 42 86 43 80 44 79 45
REMARK SMILES IDX 35 47 67 48 47 49 66 50 48 51 51 52 65 53 84 54 49 55 50 56
REMARK SMILES IDX 64 58 85 59 52 60 36 61 37 62 45 63 38 64 44 65 46 66 43 67
REMARK SMILES IDX 39 68 40 69 41 70 42 71 68 72 69 73 77 74 70 75 76 76 78 77
REMARK SMILES IDX 75 78 71 79 72 80 73 81 74 82 53 83 54 84 62 85 55 86 61 87
REMARK SMILES IDX 63 88 60 89 56 90 57 91 58 92 59 93
REMARK H PARENT 17 7 24 27 83 46 51 57
REMARK Flexibility Score: inf
ROOT
ATOM      1  C   UNL A   1      31.591  29.406  24.011  1.00  0.00     0.002 C 
ENDROOT
BRANCH   1   2
ATOM      2  C   UNL A   1      32.901  28.942  23.365  1.00  0.00     0.021 C 
BRANCH   2   3
ATOM      3  C   UNL A   1      32.978  27.438  23.114  1.00  0.00     0.116 C 
BRANCH   3   4
ATOM      4  N   UNL A   1      33.810  26.779  24.105  1.00  0.00    -0.356 N 
ATOM      5  C   UNL A   1      33.534  25.829  25.035  1.00  0.00     0.223 C 
ATOM      6  O   UNL A   1      34.462  25.442  25.751  1.00  0.00    -0.275 OA
ATOM      7  H   UNL A   1      34.748  27.078  24.102  1.00  0.00     0.163 HD
BRANCH   5   8
ATOM      8  C   UNL A   1      32.162  25.170  25.139  1.00  0.00     0.088 C 
ATOM      9  C   UNL A   1      31.341  25.926  26.195  1.00  0.00     0.019 C 
BRANCH   8  10
ATOM     10  C   UNL A   1      32.215  23.625  25.291  1.00  0.00     0.061 C 
ATOM     11  C   UNL A   1      30.879  23.057  25.779  1.00  0.00     0.020 C 
BRANCH  10  12
ATOM     12  S   UNL A   1      32.666  22.847  23.654  1.00  0.00    -0.115 SA
BRANCH  12  13
ATOM     13  C   UNL A   1      34.355  22.313  23.947  1.00  0.00     0.085 A 
ATOM     14  C   UNL A   1      35.379  23.075  23.363  1.00  0.00     0.022 A 
ATOM     15  C   UNL A   1      34.747  21.264  24.795  1.00  0.00     0.282 A 
ATOM     16  C   UNL A   1      36.729  22.756  23.543  1.00  0.00     0.002 A 
ATOM     17  C   UNL A   1      36.105  20.947  25.000  1.00  0.00     0.087 A 
ATOM     18  C   UNL A   1      37.093  21.689  24.357  1.00  0.00     0.007 A 
BRANCH  15  19
ATOM     19  N   UNL A   1      33.778  20.470  25.536  1.00  0.00     0.063 N 
ATOM     20  O   UNL A   1      33.169  19.596  24.900  1.00  0.00    -0.258 OA
ATOM     21  O   UNL A   1      33.571  20.765  26.719  1.00  0.00    -0.258 OA
ENDBRANCH  15  19
ENDBRANCH  12  13
ENDBRANCH  10  12
ENDBRANCH   8  10
ENDBRANCH   5   8
ENDBRANCH   3   4
ENDBRANCH   2   3
ENDBRANCH   1   2
BRANCH   1  22
ATOM     22  C   UNL A   1      31.610  29.474  25.542  1.00  0.00     0.002 C 
BRANCH  22  23
ATOM     23  C   UNL A   1      31.467  30.878  26.136  1.00  0.00     0.021 C 
BRANCH  23  24
ATOM     24  C   UNL A   1      32.687  31.389  26.897  1.00  0.00     0.116 C 
BRANCH  24  25
ATOM     25  N   UNL A   1      32.601  32.811  27.182  1.00  0.00    -0.352 N 
ATOM     26  C   UNL A   1      33.349  33.582  28.032  1.00  0.00     0.251 C 
ATOM     27  H   UNL A   1      31.899  33.294  26.689  1.00  0.00     0.163 HD
ATOM     28  O   UNL A   1      32.986  34.737  28.271  1.00  0.00    -0.269 OA
BRANCH  26  29
ATOM     29  C   UNL A   1      34.564  33.040  28.680  1.00  0.00     0.039 A 
ATOM     30  C   UNL A   1      34.413  32.212  29.796  1.00  0.00     0.014 A 
ATOM     31  C   UNL A   1      35.846  33.363  28.222  1.00  0.00     0.014 A 
ATOM     32  C   UNL A   1      35.540  31.666  30.416  1.00  0.00     0.010 A 
ATOM     33  C   UNL A   1      36.966  32.765  28.800  1.00  0.00     0.010 A 
ATOM     34  C   UNL A   1      36.825  31.912  29.905  1.00  0.00    -0.014 A 
BRANCH  34  35
ATOM     35  C   UNL A   1      38.016  31.263  30.515  1.00  0.00     0.031 A 
ATOM     36  C   UNL A   1      38.463  31.628  31.905  1.00  0.00     0.074 A 
ATOM     37  C   UNL A   1      38.716  30.364  29.794  1.00  0.00     0.049 A 
ATOM     38  N   UNL A   1      39.472  31.163  32.597  1.00  0.00    -0.248 NA
ATOM     39  C   UNL A   1      37.689  32.669  32.596  1.00  0.00     0.031 C 
ATOM     40  C   UNL A   1      38.414  29.970  28.415  1.00  0.00     0.029 A 
ATOM     41  N   UNL A   1      39.821  29.617  30.115  1.00  0.00    -0.354 N 
ATOM     42  C   UNL A   1      39.460  31.858  33.802  1.00  0.00     0.074 A 
ATOM     43  C   UNL A   1      38.379  32.818  33.718  1.00  0.00     0.031 C 
ATOM     44  C   UNL A   1      39.291  29.033  28.023  1.00  0.00     0.029 A 
ATOM     45  C   UNL A   1      40.239  28.783  29.104  1.00  0.00     0.049 A 
ATOM     46  H   UNL A   1      40.272  29.671  30.989  1.00  0.00     0.167 HD
ATOM     47  C   UNL A   1      40.261  31.695  34.886  1.00  0.00     0.034 A 
ATOM     48  C   UNL A   1      41.270  27.918  29.050  1.00  0.00     0.034 A 
ATOM     49  C   UNL A   1      41.330  30.726  34.957  1.00  0.00     0.049 A 
ATOM     50  C   UNL A   1      42.141  27.750  30.268  1.00  0.00     0.074 A 
ATOM     51  C   UNL A   1      42.163  30.435  36.024  1.00  0.00     0.029 A 
ATOM     52  N   UNL A   1      41.724  29.896  33.913  1.00  0.00    -0.354 N 
ATOM     53  N   UNL A   1      42.073  28.368  31.425  1.00  0.00    -0.248 NA
ATOM     54  C   UNL A   1      43.216  26.755  30.176  1.00  0.00     0.031 C 
ATOM     55  C   UNL A   1      43.099  29.482  35.607  1.00  0.00     0.029 A 
ATOM     56  C   UNL A   1      42.806  29.119  34.303  1.00  0.00     0.049 A 
ATOM     57  H   UNL A   1      41.297  29.864  33.027  1.00  0.00     0.167 HD
ATOM     58  C   UNL A   1      43.085  27.818  32.206  1.00  0.00     0.074 A 
ATOM     59  C   UNL A   1      43.725  26.800  31.398  1.00  0.00     0.031 C 
ATOM     60  C   UNL A   1      43.455  28.126  33.477  1.00  0.00     0.034 A 
BRANCH  47  61
ATOM     61  C   UNL A   1      40.023  32.603  36.071  1.00  0.00     0.023 A 
ATOM     62  C   UNL A   1      39.168  32.235  37.126  1.00  0.00     0.031 A 
ATOM     63  C   UNL A   1      40.644  33.862  36.140  1.00  0.00     0.131 A 
ATOM     64  C   UNL A   1      38.900  33.143  38.162  1.00  0.00     0.055 A 
ATOM     65  C   UNL A   1      40.437  34.730  37.216  1.00  0.00     0.041 A 
ATOM     66  F   UNL A   1      41.455  34.280  35.155  1.00  0.00    -0.206 F 
ATOM     67  C   UNL A   1      39.548  34.378  38.227  1.00  0.00     0.022 A 
BRANCH  64  68
ATOM     68  S   UNL A   1      37.585  32.744  39.345  1.00  0.00     0.124 S 
ATOM     69  O   UNL A   1      37.974  31.404  39.777  1.00  0.00    -0.237 OA
ATOM     70  O   UNL A   1      37.723  33.803  40.339  1.00  0.00    -0.237 OA
ATOM     71  O   UNL A   1      36.368  32.801  38.537  1.00  0.00    -0.744 OA
ENDBRANCH  64  68
ENDBRANCH  47  61
BRANCH  48  72
ATOM     72  C   UNL A   1      41.540  27.141  27.807  1.00  0.00     0.023 A 
ATOM     73  C   UNL A   1      41.276  25.763  27.740  1.00  0.00     0.031 A 
ATOM     74  C   UNL A   1      42.105  27.759  26.677  1.00  0.00     0.131 A 
ATOM     75  C   UNL A   1      41.623  25.040  26.589  1.00  0.00     0.055 A 
ATOM     76  C   UNL A   1      42.400  27.046  25.515  1.00  0.00     0.041 A 
ATOM     77  F   UNL A   1      42.369  29.076  26.686  1.00  0.00    -0.206 F 
ATOM     78  C   UNL A   1      42.172  25.674  25.472  1.00  0.00     0.022 A 
BRANCH  75  79
ATOM     79  S   UNL A   1      41.426  23.237  26.604  1.00  0.00     0.124 S 
ATOM     80  O   UNL A   1      39.979  23.095  26.489  1.00  0.00    -0.237 OA
ATOM     81  O   UNL A   1      42.205  22.838  25.437  1.00  0.00    -0.237 OA
ATOM     82  O   UNL A   1      41.993  22.843  27.892  1.00  0.00    -0.744 OA
ENDBRANCH  75  79
ENDBRANCH  48  72
BRANCH  60  83
ATOM     83  C   UNL A   1      44.594  27.326  34.063  1.00  0.00     0.023 A 
ATOM     84  C   UNL A   1      44.378  26.079  34.676  1.00  0.00     0.031 A 
ATOM     85  C   UNL A   1      45.904  27.837  34.051  1.00  0.00     0.131 A 
ATOM     86  C   UNL A   1      45.437  25.424  35.323  1.00  0.00     0.055 A 
ATOM     87  C   UNL A   1      46.968  27.148  34.636  1.00  0.00     0.041 A 
ATOM     88  F   UNL A   1      46.170  29.023  33.480  1.00  0.00    -0.206 F 
ATOM     89  C   UNL A   1      46.734  25.943  35.293  1.00  0.00     0.022 A 
BRANCH  86  90
ATOM     90  S   UNL A   1      45.071  23.950  36.314  1.00  0.00     0.124 S 
ATOM     91  O   UNL A   1      46.358  23.260  36.320  1.00  0.00    -0.237 OA
ATOM     92  O   UNL A   1      44.651  24.527  37.587  1.00  0.00    -0.237 OA
ATOM     93  O   UNL A   1      44.013  23.282  35.558  1.00  0.00    -0.744 OA
ENDBRANCH  86  90
ENDBRANCH  60  83
ENDBRANCH  34  35
ENDBRANCH  26  29
ENDBRANCH  24  25
ENDBRANCH  23  24
ENDBRANCH  22  23
ENDBRANCH   1  22
TORSDOF 20
ENDMDL
