MODEL 1
REMARK VINA RESULT:     -11.9      0.000      0.000
REMARK SMILES O=C(NCCCCCCNC(=O)c1ccc(C[N@H+]2CC[N@H+]3CCCC[C@@H]3C2)c(F)c1)c1ccc(-c2c3nc(c(-c4cc(S(=O)(=O)[O-])ccc4F)c4ccc([nH]4)c(-c4cc(S(=O)(=O)[O-])ccc4F)c4nc(c(-c5cc(S(=O)(=O)[O-])ccc5F)c5ccc2[nH]5)C=C4)C=C3)cc1
REMARK SMILES IDX 6 1 5 2 4 3 3 4 1 5 2 6 31 8 32 9 93 10 33 11 92 12 34 13
REMARK SMILES IDX 35 14 36 15 86 16 37 17 91 18 85 19 87 20 38 21 90 22 84 23
REMARK SMILES IDX 83 24 39 26 71 27 51 28 70 29 52 30 55 31 69 32 88 33 53 34
REMARK SMILES IDX 54 35 68 37 89 38 56 39 40 40 41 41 49 42 42 43 48 44 50 45
REMARK SMILES IDX 47 46 43 47 44 48 45 49 46 50 72 51 73 52 81 53 74 54 80 55
REMARK SMILES IDX 82 56 79 57 75 58 76 59 77 60 78 61 57 62 58 63 66 64 59 65
REMARK SMILES IDX 65 66 67 67 64 68 60 69 61 70 62 71 63 72 7 73 8 74 9 75
REMARK SMILES IDX 10 76 11 77 12 79 13 80 14 81 30 82 15 83 28 84 16 85 29 86
REMARK SMILES IDX 17 87 18 88 19 89 27 90 20 92 26 93 21 94 25 95 22 96 24 98
REMARK SMILES IDX 23 99
REMARK H PARENT 3 7 87 25 55 36 10 78 18 91 21 97
REMARK Flexibility Score: inf
ROOT
ATOM      1  C   UNL A   1      37.021  20.082  24.721  1.00  0.00     0.002 C 
ENDROOT
BRANCH   1   2
ATOM      2  C   UNL A   1      38.231  19.222  25.089  1.00  0.00     0.021 C 
BRANCH   2   3
ATOM      3  C   UNL A   1      39.376  19.964  25.772  1.00  0.00     0.116 C 
BRANCH   3   4
ATOM      4  N   UNL A   1      40.518  19.105  26.049  1.00  0.00    -0.352 N 
ATOM      5  O   UNL A   1      42.684  18.569  26.369  1.00  0.00    -0.269 OA
ATOM      6  C   UNL A   1      41.828  19.442  26.319  1.00  0.00     0.251 C 
ATOM      7  H   UNL A   1      40.328  18.139  26.042  1.00  0.00     0.163 HD
BRANCH   6   8
ATOM      8  C   UNL A   1      42.199  20.862  26.531  1.00  0.00     0.039 A 
ATOM      9  C   UNL A   1      42.393  21.714  25.444  1.00  0.00     0.014 A 
ATOM     10  C   UNL A   1      42.343  21.351  27.834  1.00  0.00     0.014 A 
ATOM     11  C   UNL A   1      42.885  22.996  25.651  1.00  0.00     0.010 A 
ATOM     12  C   UNL A   1      42.740  22.677  28.043  1.00  0.00     0.010 A 
ATOM     13  C   UNL A   1      43.044  23.505  26.952  1.00  0.00    -0.014 A 
BRANCH  13  14
ATOM     14  C   UNL A   1      43.454  24.925  27.114  1.00  0.00     0.031 A 
ATOM     15  C   UNL A   1      42.537  25.947  27.726  1.00  0.00     0.074 A 
ATOM     16  C   UNL A   1      44.711  25.268  26.766  1.00  0.00     0.049 A 
ATOM     17  N   UNL A   1      42.787  27.197  28.024  1.00  0.00    -0.248 NA
ATOM     18  C   UNL A   1      41.165  25.521  28.037  1.00  0.00     0.031 C 
ATOM     19  C   UNL A   1      45.684  24.359  26.152  1.00  0.00     0.029 A 
ATOM     20  N   UNL A   1      45.405  26.440  26.916  1.00  0.00    -0.354 N 
ATOM     21  C   UNL A   1      41.605  27.713  28.543  1.00  0.00     0.074 A 
ATOM     22  C   UNL A   1      40.628  26.645  28.492  1.00  0.00     0.031 C 
ATOM     23  C   UNL A   1      46.868  24.976  26.064  1.00  0.00     0.029 A 
ATOM     24  C   UNL A   1      46.723  26.349  26.535  1.00  0.00     0.049 A 
ATOM     25  H   UNL A   1      44.998  27.268  27.262  1.00  0.00     0.167 HD
ATOM     26  C   UNL A   1      41.365  28.959  29.023  1.00  0.00     0.034 A 
ATOM     27  C   UNL A   1      47.711  27.264  26.551  1.00  0.00     0.034 A 
ATOM     28  C   UNL A   1      42.355  30.006  29.075  1.00  0.00     0.049 A 
ATOM     29  C   UNL A   1      47.413  28.646  27.053  1.00  0.00     0.074 A 
ATOM     30  C   UNL A   1      42.224  31.288  29.583  1.00  0.00     0.029 A 
ATOM     31  N   UNL A   1      43.655  29.902  28.596  1.00  0.00    -0.354 N 
ATOM     32  N   UNL A   1      46.288  29.114  27.539  1.00  0.00    -0.248 NA
ATOM     33  C   UNL A   1      48.504  29.626  26.997  1.00  0.00     0.031 C 
ATOM     34  C   UNL A   1      43.417  31.979  29.345  1.00  0.00     0.029 A 
ATOM     35  C   UNL A   1      44.320  31.107  28.760  1.00  0.00     0.049 A 
ATOM     36  H   UNL A   1      44.047  29.092  28.198  1.00  0.00     0.167 HD
ATOM     37  C   UNL A   1      46.536  30.444  27.854  1.00  0.00     0.074 A 
ATOM     38  C   UNL A   1      47.921  30.703  27.508  1.00  0.00     0.031 C 
ATOM     39  C   UNL A   1      45.693  31.362  28.387  1.00  0.00     0.034 A 
BRANCH  26  40
ATOM     40  C   UNL A   1      39.965  29.276  29.492  1.00  0.00     0.023 A 
ATOM     41  C   UNL A   1      39.640  29.362  30.857  1.00  0.00     0.031 A 
ATOM     42  C   UNL A   1      38.944  29.519  28.555  1.00  0.00     0.131 A 
ATOM     43  C   UNL A   1      38.320  29.635  31.246  1.00  0.00     0.055 A 
ATOM     44  C   UNL A   1      37.649  29.857  28.947  1.00  0.00     0.041 A 
ATOM     45  F   UNL A   1      39.193  29.435  27.239  1.00  0.00    -0.206 F 
ATOM     46  C   UNL A   1      37.328  29.907  30.301  1.00  0.00     0.022 A 
BRANCH  43  47
ATOM     47  S   UNL A   1      37.892  29.538  33.006  1.00  0.00     0.124 S 
ATOM     48  O   UNL A   1      39.202  29.686  33.638  1.00  0.00    -0.237 OA
ATOM     49  O   UNL A   1      36.976  30.661  33.172  1.00  0.00    -0.237 OA
ATOM     50  O   UNL A   1      37.289  28.215  33.142  1.00  0.00    -0.744 OA
ENDBRANCH  43  47
ENDBRANCH  26  40
BRANCH  27  51
ATOM     51  C   UNL A   1      49.060  26.883  26.048  1.00  0.00     0.023 A 
ATOM     52  C   UNL A   1      49.492  27.265  24.770  1.00  0.00     0.031 A 
ATOM     53  C   UNL A   1      49.963  26.198  26.881  1.00  0.00     0.131 A 
ATOM     54  C   UNL A   1      50.800  26.962  24.361  1.00  0.00     0.055 A 
ATOM     55  C   UNL A   1      51.272  25.932  26.484  1.00  0.00     0.041 A 
ATOM     56  F   UNL A   1      49.597  25.830  28.120  1.00  0.00    -0.206 F 
ATOM     57  C   UNL A   1      51.698  26.314  25.216  1.00  0.00     0.022 A 
BRANCH  54  58
ATOM     58  S   UNL A   1      51.329  27.436  22.692  1.00  0.00     0.124 S 
ATOM     59  O   UNL A   1      51.304  28.892  22.776  1.00  0.00    -0.237 OA
ATOM     60  O   UNL A   1      52.649  26.820  22.602  1.00  0.00    -0.237 OA
ATOM     61  O   UNL A   1      50.310  26.842  21.830  1.00  0.00    -0.744 OA
ENDBRANCH  54  58
ENDBRANCH  27  51
BRANCH  39  62
ATOM     62  C   UNL A   1      46.242  32.738  28.650  1.00  0.00     0.023 A 
ATOM     63  C   UNL A   1      46.192  33.748  27.675  1.00  0.00     0.031 A 
ATOM     64  C   UNL A   1      46.763  33.057  29.916  1.00  0.00     0.131 A 
ATOM     65  C   UNL A   1      46.672  35.031  27.978  1.00  0.00     0.055 A 
ATOM     66  C   UNL A   1      47.201  34.345  30.225  1.00  0.00     0.041 A 
ATOM     67  F   UNL A   1      46.830  32.125  30.880  1.00  0.00    -0.206 F 
ATOM     68  C   UNL A   1      47.158  35.340  29.253  1.00  0.00     0.022 A 
BRANCH  65  69
ATOM     69  S   UNL A   1      46.669  36.297  26.680  1.00  0.00     0.124 S 
ATOM     70  O   UNL A   1      48.058  36.746  26.695  1.00  0.00    -0.237 OA
ATOM     71  O   UNL A   1      46.255  35.543  25.501  1.00  0.00    -0.237 OA
ATOM     72  O   UNL A   1      45.695  37.277  27.159  1.00  0.00    -0.744 OA
ENDBRANCH  65  69
ENDBRANCH  39  62
ENDBRANCH  13  14
ENDBRANCH   6   8
ENDBRANCH   3   4
ENDBRANCH   2   3
ENDBRANCH   1   2
BRANCH   1  73
ATOM     73  C   UNL A   1      37.191  21.594  24.907  1.00  0.00     0.002 C 
BRANCH  73  74
ATOM     74  C   UNL A   1      36.285  22.485  24.046  1.00  0.00     0.021 C 
BRANCH  74  75
ATOM     75  C   UNL A   1      34.971  22.911  24.706  1.00  0.00     0.116 C 
BRANCH  75  76
ATOM     76  N   UNL A   1      34.070  21.786  24.900  1.00  0.00    -0.352 N 
ATOM     77  C   UNL A   1      32.698  21.777  24.965  1.00  0.00     0.251 C 
ATOM     78  H   UNL A   1      34.505  20.908  25.000  1.00  0.00     0.163 HD
ATOM     79  O   UNL A   1      32.089  20.757  25.272  1.00  0.00    -0.269 OA
BRANCH  77  80
ATOM     80  C   UNL A   1      31.940  23.009  24.677  1.00  0.00     0.042 A 
ATOM     81  C   UNL A   1      31.508  23.286  23.377  1.00  0.00     0.014 A 
ATOM     82  C   UNL A   1      31.630  23.873  25.725  1.00  0.00     0.053 A 
ATOM     83  C   UNL A   1      30.822  24.478  23.117  1.00  0.00     0.013 A 
ATOM     84  C   UNL A   1      30.975  25.069  25.446  1.00  0.00     0.132 A 
ATOM     85  C   UNL A   1      30.611  25.419  24.140  1.00  0.00     0.042 A 
ATOM     86  F   UNL A   1      30.731  25.916  26.456  1.00  0.00    -0.206 F 
BRANCH  85  87
ATOM     87  C   UNL A   1      30.041  26.788  23.838  1.00  0.00     0.302 C 
BRANCH  87  88
ATOM     88  N   UNL A   1      30.945  27.832  23.335  1.00  0.00    -0.322 N 
ATOM     89  C   UNL A   1      30.415  29.203  23.312  1.00  0.00     0.324 C 
ATOM     90  C   UNL A   1      32.315  27.826  23.868  1.00  0.00     0.328 C 
ATOM     91  H   UNL A   1      31.006  27.526  22.364  1.00  0.00     0.348 HD
ATOM     92  C   UNL A   1      30.661  30.064  24.578  1.00  0.00     0.324 C 
ATOM     93  C   UNL A   1      32.477  28.587  25.207  1.00  0.00     0.239 C 
ATOM     94  N   UNL A   1      32.035  29.992  25.123  1.00  0.00    -0.323 N 
ATOM     95  C   UNL A   1      33.914  28.488  25.727  1.00  0.00     0.071 C 
ATOM     96  C   UNL A   1      32.089  30.639  26.443  1.00  0.00     0.262 C 
ATOM     97  H   UNL A   1      32.668  30.489  24.496  1.00  0.00     0.348 HD
ATOM     98  C   UNL A   1      33.974  29.074  27.134  1.00  0.00     0.012 C 
ATOM     99  C   UNL A   1      33.456  30.508  27.126  1.00  0.00     0.062 C 
ENDBRANCH  87  88
ENDBRANCH  85  87
ENDBRANCH  77  80
ENDBRANCH  75  76
ENDBRANCH  74  75
ENDBRANCH  73  74
ENDBRANCH   1  73
TORSDOF 18
ENDMDL
MODEL 2
REMARK VINA RESULT:     -11.8      1.538      7.535
REMARK SMILES O=C(NCCCCCCNC(=O)c1ccc(C[N@H+]2CC[N@H+]3CCCC[C@@H]3C2)c(F)c1)c1ccc(-c2c3nc(c(-c4cc(S(=O)(=O)[O-])ccc4F)c4ccc([nH]4)c(-c4cc(S(=O)(=O)[O-])ccc4F)c4nc(c(-c5cc(S(=O)(=O)[O-])ccc5F)c5ccc2[nH]5)C=C4)C=C3)cc1
REMARK SMILES IDX 6 1 5 2 4 3 3 4 1 5 2 6 31 8 32 9 93 10 33 11 92 12 34 13
REMARK SMILES IDX 35 14 36 15 86 16 37 17 91 18 85 19 87 20 38 21 90 22 84 23
REMARK SMILES IDX 83 24 39 26 71 27 51 28 70 29 52 30 55 31 69 32 88 33 53 34
REMARK SMILES IDX 54 35 68 37 89 38 56 39 40 40 41 41 49 42 42 43 48 44 50 45
REMARK SMILES IDX 47 46 43 47 44 48 45 49 46 50 72 51 73 52 81 53 74 54 80 55
REMARK SMILES IDX 82 56 79 57 75 58 76 59 77 60 78 61 57 62 58 63 66 64 59 65
REMARK SMILES IDX 65 66 67 67 64 68 60 69 61 70 62 71 63 72 7 73 8 74 9 75
REMARK SMILES IDX 10 76 11 77 12 79 13 80 14 81 30 82 15 83 28 84 16 85 29 86
REMARK SMILES IDX 17 87 18 88 19 89 27 90 20 92 26 93 21 94 25 95 22 96 24 98
REMARK SMILES IDX 23 99
REMARK H PARENT 3 7 87 25 55 36 10 78 18 91 21 97
REMARK Flexibility Score: inf
ROOT
ATOM      1  C   UNL A   1      38.175  22.266  25.396  1.00  0.00     0.002 C 
ENDROOT
BRANCH   1   2
ATOM      2  C   UNL A   1      38.670  20.823  25.287  1.00  0.00     0.021 C 
BRANCH   2   3
ATOM      3  C   UNL A   1      39.449  20.308  26.493  1.00  0.00     0.116 C 
BRANCH   3   4
ATOM      4  N   UNL A   1      40.571  19.459  26.118  1.00  0.00    -0.352 N 
ATOM      5  O   UNL A   1      42.667  18.961  25.454  1.00  0.00    -0.269 OA
ATOM      6  C   UNL A   1      41.896  19.787  25.925  1.00  0.00     0.251 C 
ATOM      7  H   UNL A   1      40.352  18.509  25.983  1.00  0.00     0.163 HD
BRANCH   6   8
ATOM      8  C   UNL A   1      42.382  21.145  26.271  1.00  0.00     0.039 A 
ATOM      9  C   UNL A   1      42.739  21.457  27.583  1.00  0.00     0.014 A 
ATOM     10  C   UNL A   1      42.495  22.115  25.269  1.00  0.00     0.014 A 
ATOM     11  C   UNL A   1      43.048  22.768  27.921  1.00  0.00     0.010 A 
ATOM     12  C   UNL A   1      42.907  23.413  25.595  1.00  0.00     0.010 A 
ATOM     13  C   UNL A   1      43.159  23.761  26.931  1.00  0.00    -0.014 A 
BRANCH  13  14
ATOM     14  C   UNL A   1      43.615  25.118  27.333  1.00  0.00     0.031 A 
ATOM     15  C   UNL A   1      45.010  25.599  27.047  1.00  0.00     0.074 A 
ATOM     16  C   UNL A   1      42.716  25.948  27.899  1.00  0.00     0.049 A 
ATOM     17  N   UNL A   1      45.524  26.786  27.248  1.00  0.00    -0.248 NA
ATOM     18  C   UNL A   1      45.954  24.628  26.475  1.00  0.00     0.031 C 
ATOM     19  C   UNL A   1      41.336  25.583  28.231  1.00  0.00     0.029 A 
ATOM     20  N   UNL A   1      42.800  27.271  28.249  1.00  0.00    -0.354 N 
ATOM     21  C   UNL A   1      46.850  26.705  26.840  1.00  0.00     0.074 A 
ATOM     22  C   UNL A   1      47.071  25.341  26.409  1.00  0.00     0.031 C 
ATOM     23  C   UNL A   1      40.680  26.673  28.649  1.00  0.00     0.029 A 
ATOM     24  C   UNL A   1      41.610  27.797  28.694  1.00  0.00     0.049 A 
ATOM     25  H   UNL A   1      43.633  27.793  28.189  1.00  0.00     0.167 HD
ATOM     26  C   UNL A   1      47.791  27.683  26.823  1.00  0.00     0.034 A 
ATOM     27  C   UNL A   1      41.293  29.039  29.103  1.00  0.00     0.034 A 
ATOM     28  C   UNL A   1      47.548  29.041  27.247  1.00  0.00     0.049 A 
ATOM     29  C   UNL A   1      42.358  30.096  29.109  1.00  0.00     0.074 A 
ATOM     30  C   UNL A   1      48.421  30.116  27.227  1.00  0.00     0.029 A 
ATOM     31  N   UNL A   1      46.354  29.512  27.777  1.00  0.00    -0.354 N 
ATOM     32  N   UNL A   1      43.607  29.999  28.721  1.00  0.00    -0.248 NA
ATOM     33  C   UNL A   1      41.982  31.420  29.619  1.00  0.00     0.031 C 
ATOM     34  C   UNL A   1      47.780  31.213  27.810  1.00  0.00     0.029 A 
ATOM     35  C   UNL A   1      46.481  30.848  28.124  1.00  0.00     0.049 A 
ATOM     36  H   UNL A   1      45.536  28.976  27.890  1.00  0.00     0.167 HD
ATOM     37  C   UNL A   1      44.168  31.252  28.934  1.00  0.00     0.074 A 
ATOM     38  C   UNL A   1      43.117  32.091  29.480  1.00  0.00     0.031 C 
ATOM     39  C   UNL A   1      45.435  31.668  28.692  1.00  0.00     0.034 A 
BRANCH  26  40
ATOM     40  C   UNL A   1      49.183  27.315  26.370  1.00  0.00     0.023 A 
ATOM     41  C   UNL A   1      50.229  27.100  27.284  1.00  0.00     0.031 A 
ATOM     42  C   UNL A   1      49.460  27.153  25.001  1.00  0.00     0.131 A 
ATOM     43  C   UNL A   1      51.513  26.783  26.815  1.00  0.00     0.055 A 
ATOM     44  C   UNL A   1      50.722  26.772  24.544  1.00  0.00     0.041 A 
ATOM     45  F   UNL A   1      48.504  27.361  24.082  1.00  0.00    -0.206 F 
ATOM     46  C   UNL A   1      51.761  26.594  25.453  1.00  0.00     0.022 A 
BRANCH  43  47
ATOM     47  S   UNL A   1      52.882  26.713  28.003  1.00  0.00     0.124 S 
ATOM     48  O   UNL A   1      53.165  28.131  28.213  1.00  0.00    -0.237 OA
ATOM     49  O   UNL A   1      52.286  26.008  29.133  1.00  0.00    -0.237 OA
ATOM     50  O   UNL A   1      53.923  25.977  27.288  1.00  0.00    -0.744 OA
ENDBRANCH  43  47
ENDBRANCH  26  40
BRANCH  27  51
ATOM     51  C   UNL A   1      39.904  29.320  29.560  1.00  0.00     0.023 A 
ATOM     52  C   UNL A   1      39.586  29.376  30.924  1.00  0.00     0.031 A 
ATOM     53  C   UNL A   1      38.893  29.615  28.626  1.00  0.00     0.131 A 
ATOM     54  C   UNL A   1      38.285  29.726  31.319  1.00  0.00     0.055 A 
ATOM     55  C   UNL A   1      37.614  29.998  29.025  1.00  0.00     0.041 A 
ATOM     56  F   UNL A   1      39.159  29.591  27.310  1.00  0.00    -0.206 F 
ATOM     57  C   UNL A   1      37.303  30.055  30.379  1.00  0.00     0.022 A 
BRANCH  54  58
ATOM     58  S   UNL A   1      37.886  29.762  33.089  1.00  0.00     0.124 S 
ATOM     59  O   UNL A   1      39.208  29.909  33.687  1.00  0.00    -0.237 OA
ATOM     60  O   UNL A   1      37.006  30.923  33.181  1.00  0.00    -0.237 OA
ATOM     61  O   UNL A   1      37.236  28.474  33.317  1.00  0.00    -0.744 OA
ENDBRANCH  54  58
ENDBRANCH  27  51
BRANCH  39  62
ATOM     62  C   UNL A   1      45.765  33.104  28.997  1.00  0.00     0.023 A 
ATOM     63  C   UNL A   1      45.654  34.106  28.020  1.00  0.00     0.031 A 
ATOM     64  C   UNL A   1      46.134  33.479  30.301  1.00  0.00     0.131 A 
ATOM     65  C   UNL A   1      45.926  35.441  28.360  1.00  0.00     0.055 A 
ATOM     66  C   UNL A   1      46.363  34.811  30.643  1.00  0.00     0.041 A 
ATOM     67  F   UNL A   1      46.252  32.555  31.268  1.00  0.00    -0.206 F 
ATOM     68  C   UNL A   1      46.261  35.801  29.670  1.00  0.00     0.022 A 
BRANCH  65  69
ATOM     69  S   UNL A   1      45.852  36.707  27.064  1.00  0.00     0.124 S 
ATOM     70  O   UNL A   1      46.765  37.721  27.582  1.00  0.00    -0.237 OA
ATOM     71  O   UNL A   1      46.307  35.981  25.884  1.00  0.00    -0.237 OA
ATOM     72  O   UNL A   1      44.441  37.094  27.044  1.00  0.00    -0.744 OA
ENDBRANCH  65  69
ENDBRANCH  39  62
ENDBRANCH  13  14
ENDBRANCH   6   8
ENDBRANCH   3   4
ENDBRANCH   2   3
ENDBRANCH   1   2
BRANCH   1  73
ATOM     73  C   UNL A   1      36.903  22.600  24.609  1.00  0.00     0.002 C 
BRANCH  73  74
ATOM     74  C   UNL A   1      35.867  21.473  24.493  1.00  0.00     0.021 C 
BRANCH  74  75
ATOM     75  C   UNL A   1      35.056  21.196  25.762  1.00  0.00     0.116 C 
BRANCH  75  76
ATOM     76  N   UNL A   1      34.160  20.062  25.597  1.00  0.00    -0.352 N 
ATOM     77  C   UNL A   1      32.836  20.051  25.233  1.00  0.00     0.251 C 
ATOM     78  H   UNL A   1      34.558  19.179  25.772  1.00  0.00     0.163 HD
ATOM     79  O   UNL A   1      32.180  19.015  25.272  1.00  0.00    -0.269 OA
BRANCH  77  80
ATOM     80  C   UNL A   1      32.183  21.301  24.800  1.00  0.00     0.042 A 
ATOM     81  C   UNL A   1      32.260  21.716  23.468  1.00  0.00     0.014 A 
ATOM     82  C   UNL A   1      31.457  22.042  25.731  1.00  0.00     0.053 A 
ATOM     83  C   UNL A   1      31.665  22.922  23.084  1.00  0.00     0.013 A 
ATOM     84  C   UNL A   1      30.898  23.256  25.342  1.00  0.00     0.132 A 
ATOM     85  C   UNL A   1      31.036  23.744  24.037  1.00  0.00     0.042 A 
ATOM     86  F   UNL A   1      30.248  23.985  26.261  1.00  0.00    -0.206 F 
BRANCH  85  87
ATOM     87  C   UNL A   1      30.555  25.132  23.676  1.00  0.00     0.302 C 
BRANCH  87  88
ATOM     88  N   UNL A   1      31.523  26.092  23.124  1.00  0.00    -0.322 N 
ATOM     89  C   UNL A   1      30.969  27.335  22.568  1.00  0.00     0.324 C 
ATOM     90  C   UNL A   1      32.700  26.386  23.953  1.00  0.00     0.328 C 
ATOM     91  H   UNL A   1      31.851  25.539  22.332  1.00  0.00     0.348 HD
ATOM     92  C   UNL A   1      30.838  28.533  23.544  1.00  0.00     0.324 C 
ATOM     93  C   UNL A   1      32.473  27.500  25.004  1.00  0.00     0.239 C 
ATOM     94  N   UNL A   1      32.019  28.769  24.404  1.00  0.00    -0.323 N 
ATOM     95  C   UNL A   1      33.721  27.710  25.866  1.00  0.00     0.071 C 
ATOM     96  C   UNL A   1      31.696  29.756  25.445  1.00  0.00     0.262 C 
ATOM     97  H   UNL A   1      32.778  29.141  23.833  1.00  0.00     0.348 HD
ATOM     98  C   UNL A   1      33.383  28.664  27.007  1.00  0.00     0.012 C 
ATOM     99  C   UNL A   1      32.834  29.973  26.449  1.00  0.00     0.062 C 
ENDBRANCH  87  88
ENDBRANCH  85  87
ENDBRANCH  77  80
ENDBRANCH  75  76
ENDBRANCH  74  75
ENDBRANCH  73  74
ENDBRANCH   1  73
TORSDOF 18
ENDMDL
MODEL 3
REMARK VINA RESULT:     -11.6      1.513      1.872
REMARK SMILES O=C(NCCCCCCNC(=O)c1ccc(C[N@H+]2CC[N@H+]3CCCC[C@@H]3C2)c(F)c1)c1ccc(-c2c3nc(c(-c4cc(S(=O)(=O)[O-])ccc4F)c4ccc([nH]4)c(-c4cc(S(=O)(=O)[O-])ccc4F)c4nc(c(-c5cc(S(=O)(=O)[O-])ccc5F)c5ccc2[nH]5)C=C4)C=C3)cc1
REMARK SMILES IDX 6 1 5 2 4 3 3 4 1 5 2 6 31 8 32 9 93 10 33 11 92 12 34 13
REMARK SMILES IDX 35 14 36 15 86 16 37 17 91 18 85 19 87 20 38 21 90 22 84 23
REMARK SMILES IDX 83 24 39 26 71 27 51 28 70 29 52 30 55 31 69 32 88 33 53 34
REMARK SMILES IDX 54 35 68 37 89 38 56 39 40 40 41 41 49 42 42 43 48 44 50 45
REMARK SMILES IDX 47 46 43 47 44 48 45 49 46 50 72 51 73 52 81 53 74 54 80 55
REMARK SMILES IDX 82 56 79 57 75 58 76 59 77 60 78 61 57 62 58 63 66 64 59 65
REMARK SMILES IDX 65 66 67 67 64 68 60 69 61 70 62 71 63 72 7 73 8 74 9 75
REMARK SMILES IDX 10 76 11 77 12 79 13 80 14 81 30 82 15 83 28 84 16 85 29 86
REMARK SMILES IDX 17 87 18 88 19 89 27 90 20 92 26 93 21 94 25 95 22 96 24 98
REMARK SMILES IDX 23 99
REMARK H PARENT 3 7 87 25 55 36 10 78 18 91 21 97
REMARK Flexibility Score: inf
ROOT
ATOM      1  C   UNL A   1      38.526  22.028  25.651  1.00  0.00     0.002 C 
ENDROOT
BRANCH   1   2
ATOM      2  C   UNL A   1      38.985  20.594  25.383  1.00  0.00     0.021 C 
BRANCH   2   3
ATOM      3  C   UNL A   1      39.664  19.897  26.558  1.00  0.00     0.116 C 
BRANCH   3   4
ATOM      4  N   UNL A   1      40.857  19.161  26.162  1.00  0.00    -0.352 N 
ATOM      5  O   UNL A   1      42.965  18.867  25.421  1.00  0.00    -0.269 OA
ATOM      6  C   UNL A   1      42.128  19.623  25.897  1.00  0.00     0.251 C 
ATOM      7  H   UNL A   1      40.737  18.188  26.070  1.00  0.00     0.163 HD
BRANCH   6   8
ATOM      8  C   UNL A   1      42.476  21.037  26.174  1.00  0.00     0.039 A 
ATOM      9  C   UNL A   1      42.598  21.954  25.130  1.00  0.00     0.014 A 
ATOM     10  C   UNL A   1      42.670  21.457  27.495  1.00  0.00     0.014 A 
ATOM     11  C   UNL A   1      43.069  23.236  25.387  1.00  0.00     0.010 A 
ATOM     12  C   UNL A   1      43.045  22.779  27.761  1.00  0.00     0.010 A 
ATOM     13  C   UNL A   1      43.277  23.674  26.707  1.00  0.00    -0.014 A 
BRANCH  13  14
ATOM     14  C   UNL A   1      43.661  25.094  26.931  1.00  0.00     0.031 A 
ATOM     15  C   UNL A   1      42.723  26.071  27.582  1.00  0.00     0.074 A 
ATOM     16  C   UNL A   1      44.912  25.473  26.603  1.00  0.00     0.049 A 
ATOM     17  N   UNL A   1      42.949  27.312  27.934  1.00  0.00    -0.248 NA
ATOM     18  C   UNL A   1      41.358  25.608  27.869  1.00  0.00     0.031 C 
ATOM     19  C   UNL A   1      45.904  24.609  25.956  1.00  0.00     0.029 A 
ATOM     20  N   UNL A   1      45.584  26.651  26.806  1.00  0.00    -0.354 N 
ATOM     21  C   UNL A   1      41.756  27.784  28.469  1.00  0.00     0.074 A 
ATOM     22  C   UNL A   1      40.798  26.702  28.369  1.00  0.00     0.031 C 
ATOM     23  C   UNL A   1      47.077  25.251  25.899  1.00  0.00     0.029 A 
ATOM     24  C   UNL A   1      46.905  26.600  26.428  1.00  0.00     0.049 A 
ATOM     25  H   UNL A   1      45.161  27.455  27.186  1.00  0.00     0.167 HD
ATOM     26  C   UNL A   1      41.491  29.003  29.001  1.00  0.00     0.034 A 
ATOM     27  C   UNL A   1      47.877  27.530  26.488  1.00  0.00     0.034 A 
ATOM     28  C   UNL A   1      42.462  30.065  29.102  1.00  0.00     0.049 A 
ATOM     29  C   UNL A   1      47.551  28.884  27.047  1.00  0.00     0.074 A 
ATOM     30  C   UNL A   1      42.306  31.322  29.663  1.00  0.00     0.029 A 
ATOM     31  N   UNL A   1      43.765  30.006  28.625  1.00  0.00    -0.354 N 
ATOM     32  N   UNL A   1      46.416  29.310  27.547  1.00  0.00    -0.248 NA
ATOM     33  C   UNL A   1      48.624  29.886  27.037  1.00  0.00     0.031 C 
ATOM     34  C   UNL A   1      43.486  32.043  29.461  1.00  0.00     0.029 A 
ATOM     35  C   UNL A   1      44.408  31.214  28.843  1.00  0.00     0.049 A 
ATOM     36  H   UNL A   1      44.173  29.220  28.194  1.00  0.00     0.167 HD
ATOM     37  C   UNL A   1      46.639  30.631  27.919  1.00  0.00     0.074 A 
ATOM     38  C   UNL A   1      48.020  30.929  27.591  1.00  0.00     0.031 C 
ATOM     39  C   UNL A   1      45.777  31.509  28.487  1.00  0.00     0.034 A 
BRANCH  26  40
ATOM     40  C   UNL A   1      40.084  29.275  29.477  1.00  0.00     0.023 A 
ATOM     41  C   UNL A   1      39.760  29.335  30.843  1.00  0.00     0.031 A 
ATOM     42  C   UNL A   1      39.055  29.501  28.545  1.00  0.00     0.131 A 
ATOM     43  C   UNL A   1      38.434  29.566  31.239  1.00  0.00     0.055 A 
ATOM     44  C   UNL A   1      37.751  29.796  28.944  1.00  0.00     0.041 A 
ATOM     45  F   UNL A   1      39.302  29.439  27.227  1.00  0.00    -0.206 F 
ATOM     46  C   UNL A   1      37.432  29.821  30.299  1.00  0.00     0.022 A 
BRANCH  43  47
ATOM     47  S   UNL A   1      38.014  29.436  32.999  1.00  0.00     0.124 S 
ATOM     48  O   UNL A   1      37.147  30.598  33.183  1.00  0.00    -0.237 OA
ATOM     49  O   UNL A   1      37.359  28.135  33.072  1.00  0.00    -0.237 OA
ATOM     50  O   UNL A   1      39.309  29.521  33.670  1.00  0.00    -0.744 OA
ENDBRANCH  43  47
ENDBRANCH  26  40
BRANCH  27  51
ATOM     51  C   UNL A   1      49.233  27.196  25.975  1.00  0.00     0.023 A 
ATOM     52  C   UNL A   1      49.624  27.545  24.674  1.00  0.00     0.031 A 
ATOM     53  C   UNL A   1      50.184  26.591  26.817  1.00  0.00     0.131 A 
ATOM     54  C   UNL A   1      50.939  27.290  24.253  1.00  0.00     0.055 A 
ATOM     55  C   UNL A   1      51.498  26.373  26.406  1.00  0.00     0.041 A 
ATOM     56  F   UNL A   1      49.857  26.256  28.076  1.00  0.00    -0.206 F 
ATOM     57  C   UNL A   1      51.882  26.723  25.116  1.00  0.00     0.022 A 
BRANCH  54  58
ATOM     58  S   UNL A   1      51.415  27.721  22.556  1.00  0.00     0.124 S 
ATOM     59  O   UNL A   1      52.829  27.364  22.546  1.00  0.00    -0.237 OA
ATOM     60  O   UNL A   1      50.531  26.871  21.765  1.00  0.00    -0.237 OA
ATOM     61  O   UNL A   1      51.131  29.152  22.476  1.00  0.00    -0.744 OA
ENDBRANCH  54  58
ENDBRANCH  27  51
BRANCH  39  62
ATOM     62  C   UNL A   1      46.300  32.883  28.811  1.00  0.00     0.023 A 
ATOM     63  C   UNL A   1      46.916  33.162  30.041  1.00  0.00     0.031 A 
ATOM     64  C   UNL A   1      46.234  33.906  27.849  1.00  0.00     0.131 A 
ATOM     65  C   UNL A   1      47.432  34.445  30.285  1.00  0.00     0.055 A 
ATOM     66  C   UNL A   1      46.785  35.166  28.080  1.00  0.00     0.041 A 
ATOM     67  F   UNL A   1      45.654  33.685  26.658  1.00  0.00    -0.206 F 
ATOM     68  C   UNL A   1      47.388  35.441  29.304  1.00  0.00     0.022 A 
BRANCH  65  69
ATOM     69  S   UNL A   1      48.154  34.805  31.909  1.00  0.00     0.124 S 
ATOM     70  O   UNL A   1      49.072  35.895  31.595  1.00  0.00    -0.237 OA
ATOM     71  O   UNL A   1      46.985  35.163  32.704  1.00  0.00    -0.237 OA
ATOM     72  O   UNL A   1      48.794  33.544  32.286  1.00  0.00    -0.744 OA
ENDBRANCH  65  69
ENDBRANCH  39  62
ENDBRANCH  13  14
ENDBRANCH   6   8
ENDBRANCH   3   4
ENDBRANCH   2   3
ENDBRANCH   1   2
BRANCH   1  73
ATOM     73  C   UNL A   1      37.328  22.514  24.826  1.00  0.00     0.002 C 
BRANCH  73  74
ATOM     74  C   UNL A   1      36.185  21.508  24.640  1.00  0.00     0.021 C 
BRANCH  74  75
ATOM     75  C   UNL A   1      35.233  21.371  25.832  1.00  0.00     0.116 C 
BRANCH  75  76
ATOM     76  N   UNL A   1      34.388  20.193  25.721  1.00  0.00    -0.352 N 
ATOM     77  C   UNL A   1      33.074  20.105  25.333  1.00  0.00     0.251 C 
ATOM     78  H   UNL A   1      34.818  19.340  25.957  1.00  0.00     0.163 HD
ATOM     79  O   UNL A   1      32.460  19.046  25.422  1.00  0.00    -0.269 OA
BRANCH  77  80
ATOM     80  C   UNL A   1      32.379  21.297  24.812  1.00  0.00     0.042 A 
ATOM     81  C   UNL A   1      32.472  21.637  23.460  1.00  0.00     0.014 A 
ATOM     82  C   UNL A   1      31.599  22.059  25.681  1.00  0.00     0.053 A 
ATOM     83  C   UNL A   1      31.836  22.792  22.992  1.00  0.00     0.013 A 
ATOM     84  C   UNL A   1      30.999  23.222  25.208  1.00  0.00     0.132 A 
ATOM     85  C   UNL A   1      31.149  23.640  23.880  1.00  0.00     0.042 A 
ATOM     86  F   UNL A   1      30.295  23.974  26.068  1.00  0.00    -0.206 F 
BRANCH  85  87
ATOM     87  C   UNL A   1      30.620  24.982  23.428  1.00  0.00     0.302 C 
BRANCH  87  88
ATOM     88  N   UNL A   1      31.573  25.984  22.928  1.00  0.00    -0.322 N 
ATOM     89  C   UNL A   1      30.996  27.205  22.346  1.00  0.00     0.324 C 
ATOM     90  C   UNL A   1      32.692  26.324  23.817  1.00  0.00     0.328 C 
ATOM     91  H   UNL A   1      31.965  25.448  22.153  1.00  0.00     0.348 HD
ATOM     92  C   UNL A   1      30.764  28.392  23.315  1.00  0.00     0.324 C 
ATOM     93  C   UNL A   1      32.363  27.423  24.857  1.00  0.00     0.239 C 
ATOM     94  N   UNL A   1      31.888  28.674  24.236  1.00  0.00    -0.323 N 
ATOM     95  C   UNL A   1      33.556  27.684  25.782  1.00  0.00     0.071 C 
ATOM     96  C   UNL A   1      31.470  29.644  25.260  1.00  0.00     0.262 C 
ATOM     97  H   UNL A   1      32.659  29.081  23.705  1.00  0.00     0.348 HD
ATOM     98  C   UNL A   1      33.119  28.618  26.905  1.00  0.00     0.012 C 
ATOM     99  C   UNL A   1      32.545  29.904  26.322  1.00  0.00     0.062 C 
ENDBRANCH  87  88
ENDBRANCH  85  87
ENDBRANCH  77  80
ENDBRANCH  75  76
ENDBRANCH  74  75
ENDBRANCH  73  74
ENDBRANCH   1  73
TORSDOF 18
ENDMDL
