MODEL 1
REMARK VINA RESULT:     -11.4      0.000      0.000
REMARK SMILES COCc1cccc(C(=O)N2C[C@@H](O)C[C@@H]2C(=O)NCCCCCCNC(=O)c2ccc(-c3c4nc(c(-c5cc(S(=O)(=O)[O-])ccc5F)c5ccc([nH]5)c(-c5cc(S(=O)(=O)[O-])ccc5F)c5nc(c(-c6cc(S(=O)(=O)[O-])ccc6F)c6ccc3[nH]6)C=C5)C=C4)cc2)c1
REMARK SMILES IDX 22 1 21 2 20 3 19 4 17 5 18 6 16 8 11 9 12 10 13 11 15 12
REMARK SMILES IDX 9 13 10 14 8 15 4 16 5 17 92 18 6 19 7 20 3 21 2 22 1 23
REMARK SMILES IDX 14 24 23 26 24 27 25 28 26 29 27 30 28 32 29 33 30 34 91 35
REMARK SMILES IDX 31 36 90 37 32 38 33 39 34 40 84 41 35 42 89 43 83 44 85 45
REMARK SMILES IDX 36 46 88 47 82 48 81 49 37 51 69 52 49 53 68 54 50 55 53 56
REMARK SMILES IDX 67 57 86 58 51 59 52 60 66 62 87 63 54 64 38 65 39 66 47 67
REMARK SMILES IDX 40 68 46 69 48 70 45 71 41 72 42 73 43 74 44 75 70 76 71 77
REMARK SMILES IDX 79 78 72 79 78 80 80 81 77 82 73 83 74 84 75 85 76 86 55 87
REMARK SMILES IDX 56 88 64 89 57 90 63 91 65 92 62 93 58 94 59 95 60 96 61 97
REMARK H PARENT 19 7 14 25 26 31 85 50 53 61
REMARK Flexibility Score: inf
ROOT
ATOM      1  C   UNL A   1      31.683  29.609  26.026  1.00  0.00     0.002 C 
ENDROOT
BRANCH   1   2
ATOM      2  C   UNL A   1      33.108  29.551  25.463  1.00  0.00     0.021 C 
BRANCH   2   3
ATOM      3  C   UNL A   1      33.944  28.391  26.002  1.00  0.00     0.116 C 
BRANCH   3   4
ATOM      4  N   UNL A   1      33.193  27.159  25.960  1.00  0.00    -0.354 N 
ATOM      5  C   UNL A   1      32.727  26.375  24.958  1.00  0.00     0.242 C 
ATOM      6  O   UNL A   1      31.888  25.541  25.328  1.00  0.00    -0.273 OA
ATOM      7  H   UNL A   1      32.969  26.814  26.854  1.00  0.00     0.163 HD
BRANCH   5   8
ATOM      8  C   UNL A   1      33.295  26.309  23.516  1.00  0.00     0.177 C 
ATOM      9  N   UNL A   1      32.233  26.740  22.601  1.00  0.00    -0.324 N 
ATOM     10  C   UNL A   1      32.084  25.811  21.492  1.00  0.00     0.152 C 
ATOM     11  C   UNL A   1      32.691  24.514  22.010  1.00  0.00     0.136 C 
ATOM     12  C   UNL A   1      33.826  25.013  22.913  1.00  0.00     0.069 C 
BRANCH   9  13
ATOM     13  C   UNL A   1      31.869  28.074  22.527  1.00  0.00     0.254 C 
ATOM     14  O   UNL A   1      32.689  28.979  22.404  1.00  0.00    -0.269 OA
BRANCH  13  15
ATOM     15  C   UNL A   1      30.424  28.408  22.684  1.00  0.00     0.040 A 
ATOM     16  C   UNL A   1      28.490  29.831  22.218  1.00  0.00    -0.022 A 
ATOM     17  C   UNL A   1      27.686  28.931  22.928  1.00  0.00     0.006 A 
ATOM     18  C   UNL A   1      29.858  29.543  22.083  1.00  0.00     0.020 A 
ATOM     19  C   UNL A   1      28.230  27.767  23.477  1.00  0.00     0.001 A 
ATOM     20  C   UNL A   1      29.595  27.508  23.360  1.00  0.00     0.014 A 
BRANCH  16  21
ATOM     21  C   UNL A   1      27.962  31.119  21.627  1.00  0.00     0.195 C 
BRANCH  21  22
ATOM     22  O   UNL A   1      27.743  32.144  22.596  1.00  0.00    -0.380 OA
ATOM     23  C   UNL A   1      28.836  33.047  22.688  1.00  0.00     0.195 C 
ENDBRANCH  21  22
ENDBRANCH  16  21
ENDBRANCH  13  15
ENDBRANCH   9  13
BRANCH  11  24
ATOM     24  O   UNL A   1      33.168  23.710  20.947  1.00  0.00    -0.391 OA
ATOM     25  H   UNL A   1      32.945  22.782  21.118  1.00  0.00     0.211 HD
ENDBRANCH  11  24
ENDBRANCH   5   8
ENDBRANCH   3   4
ENDBRANCH   2   3
ENDBRANCH   1   2
BRANCH   1  26
ATOM     26  C   UNL A   1      31.462  30.635  27.143  1.00  0.00     0.002 C 
BRANCH  26  27
ATOM     27  C   UNL A   1      31.555  32.104  26.717  1.00  0.00     0.021 C 
BRANCH  27  28
ATOM     28  C   UNL A   1      32.835  32.814  27.143  1.00  0.00     0.116 C 
BRANCH  28  29
ATOM     29  N   UNL A   1      32.575  34.162  27.616  1.00  0.00    -0.352 N 
ATOM     30  C   UNL A   1      33.113  34.825  28.690  1.00  0.00     0.251 C 
ATOM     31  H   UNL A   1      31.920  34.674  27.089  1.00  0.00     0.163 HD
ATOM     32  O   UNL A   1      32.608  35.880  29.063  1.00  0.00    -0.269 OA
BRANCH  30  33
ATOM     33  C   UNL A   1      34.280  34.260  29.406  1.00  0.00     0.039 A 
ATOM     34  C   UNL A   1      34.057  33.447  30.520  1.00  0.00     0.014 A 
ATOM     35  C   UNL A   1      35.586  34.555  29.004  1.00  0.00     0.014 A 
ATOM     36  C   UNL A   1      35.142  32.893  31.202  1.00  0.00     0.010 A 
ATOM     37  C   UNL A   1      36.666  33.952  29.647  1.00  0.00     0.010 A 
ATOM     38  C   UNL A   1      36.455  33.121  30.758  1.00  0.00    -0.014 A 
BRANCH  38  39
ATOM     39  C   UNL A   1      37.617  32.518  31.461  1.00  0.00     0.031 A 
ATOM     40  C   UNL A   1      38.357  31.365  30.839  1.00  0.00     0.074 A 
ATOM     41  C   UNL A   1      37.975  32.977  32.677  1.00  0.00     0.049 A 
ATOM     42  N   UNL A   1      39.352  30.663  31.319  1.00  0.00    -0.248 NA
ATOM     43  C   UNL A   1      37.896  30.925  29.514  1.00  0.00     0.031 C 
ATOM     44  C   UNL A   1      37.312  34.068  33.394  1.00  0.00     0.029 A 
ATOM     45  N   UNL A   1      38.978  32.583  33.525  1.00  0.00    -0.354 N 
ATOM     46  C   UNL A   1      39.632  29.695  30.359  1.00  0.00     0.074 A 
ATOM     47  C   UNL A   1      38.658  29.863  29.301  1.00  0.00     0.031 C 
ATOM     48  C   UNL A   1      37.942  34.270  34.564  1.00  0.00     0.029 A 
ATOM     49  C   UNL A   1      39.024  33.301  34.698  1.00  0.00     0.049 A 
ATOM     50  H   UNL A   1      39.606  31.855  33.314  1.00  0.00     0.167 HD
ATOM     51  C   UNL A   1      40.622  28.768  30.351  1.00  0.00     0.034 A 
ATOM     52  C   UNL A   1      39.842  33.186  35.763  1.00  0.00     0.034 A 
ATOM     53  C   UNL A   1      41.593  28.621  31.409  1.00  0.00     0.049 A 
ATOM     54  C   UNL A   1      40.924  32.135  35.739  1.00  0.00     0.074 A 
ATOM     55  C   UNL A   1      42.661  27.745  31.485  1.00  0.00     0.029 A 
ATOM     56  N   UNL A   1      41.611  29.369  32.579  1.00  0.00    -0.354 N 
ATOM     57  N   UNL A   1      41.199  31.253  34.806  1.00  0.00    -0.248 NA
ATOM     58  C   UNL A   1      41.813  32.075  36.906  1.00  0.00     0.031 C 
ATOM     59  C   UNL A   1      43.289  27.923  32.724  1.00  0.00     0.029 A 
ATOM     60  C   UNL A   1      42.656  28.957  33.393  1.00  0.00     0.049 A 
ATOM     61  H   UNL A   1      40.974  30.086  32.800  1.00  0.00     0.167 HD
ATOM     62  C   UNL A   1      42.314  30.556  35.262  1.00  0.00     0.074 A 
ATOM     63  C   UNL A   1      42.667  31.129  36.544  1.00  0.00     0.031 C 
ATOM     64  C   UNL A   1      42.988  29.534  34.674  1.00  0.00     0.034 A 
BRANCH  51  65
ATOM     65  C   UNL A   1      40.685  27.832  29.167  1.00  0.00     0.023 A 
ATOM     66  C   UNL A   1      41.624  28.009  28.136  1.00  0.00     0.031 A 
ATOM     67  C   UNL A   1      39.775  26.766  29.050  1.00  0.00     0.131 A 
ATOM     68  C   UNL A   1      41.583  27.186  27.000  1.00  0.00     0.055 A 
ATOM     69  C   UNL A   1      39.792  25.899  27.955  1.00  0.00     0.041 A 
ATOM     70  F   UNL A   1      38.841  26.557  29.992  1.00  0.00    -0.206 F 
ATOM     71  C   UNL A   1      40.689  26.116  26.913  1.00  0.00     0.022 A 
BRANCH  68  72
ATOM     72  S   UNL A   1      42.616  27.626  25.575  1.00  0.00     0.124 S 
ATOM     73  O   UNL A   1      41.946  28.828  25.086  1.00  0.00    -0.237 OA
ATOM     74  O   UNL A   1      43.925  27.828  26.185  1.00  0.00    -0.237 OA
ATOM     75  O   UNL A   1      42.506  26.461  24.700  1.00  0.00    -0.744 OA
ENDBRANCH  68  72
ENDBRANCH  51  65
BRANCH  52  76
ATOM     76  C   UNL A   1      39.678  34.079  36.945  1.00  0.00     0.023 A 
ATOM     77  C   UNL A   1      39.090  33.609  38.129  1.00  0.00     0.031 A 
ATOM     78  C   UNL A   1      40.064  35.430  36.890  1.00  0.00     0.131 A 
ATOM     79  C   UNL A   1      38.858  34.493  39.194  1.00  0.00     0.055 A 
ATOM     80  C   UNL A   1      39.879  36.294  37.971  1.00  0.00     0.041 A 
ATOM     81  F   UNL A   1      40.637  35.929  35.783  1.00  0.00    -0.206 F 
ATOM     82  C   UNL A   1      39.259  35.829  39.128  1.00  0.00     0.022 A 
BRANCH  79  83
ATOM     83  S   UNL A   1      37.943  33.889  40.639  1.00  0.00     0.124 S 
ATOM     84  O   UNL A   1      36.844  33.165  40.013  1.00  0.00    -0.237 OA
ATOM     85  O   UNL A   1      38.950  33.074  41.312  1.00  0.00    -0.237 OA
ATOM     86  O   UNL A   1      37.568  35.115  41.339  1.00  0.00    -0.744 OA
ENDBRANCH  79  83
ENDBRANCH  52  76
BRANCH  64  87
ATOM     87  C   UNL A   1      44.204  29.013  35.399  1.00  0.00     0.023 A 
ATOM     88  C   UNL A   1      44.102  28.034  36.402  1.00  0.00     0.031 A 
ATOM     89  C   UNL A   1      45.479  29.521  35.095  1.00  0.00     0.131 A 
ATOM     90  C   UNL A   1      45.248  27.634  37.107  1.00  0.00     0.055 A 
ATOM     91  C   UNL A   1      46.623  29.078  35.760  1.00  0.00     0.041 A 
ATOM     92  F   UNL A   1      45.633  30.459  34.147  1.00  0.00    -0.206 F 
ATOM     93  C   UNL A   1      46.509  28.139  36.782  1.00  0.00     0.022 A 
BRANCH  90  94
ATOM     94  S   UNL A   1      45.055  26.512  38.519  1.00  0.00     0.124 S 
ATOM     95  O   UNL A   1      45.683  25.291  38.026  1.00  0.00    -0.237 OA
ATOM     96  O   UNL A   1      45.774  27.216  39.577  1.00  0.00    -0.237 OA
ATOM     97  O   UNL A   1      43.606  26.436  38.700  1.00  0.00    -0.744 OA
ENDBRANCH  90  94
ENDBRANCH  64  87
ENDBRANCH  38  39
ENDBRANCH  30  33
ENDBRANCH  28  29
ENDBRANCH  27  28
ENDBRANCH  26  27
ENDBRANCH   1  26
TORSDOF 21
ENDMDL
MODEL 2
REMARK VINA RESULT:     -11.3      5.293      8.626
REMARK SMILES COCc1cccc(C(=O)N2C[C@@H](O)C[C@@H]2C(=O)NCCCCCCNC(=O)c2ccc(-c3c4nc(c(-c5cc(S(=O)(=O)[O-])ccc5F)c5ccc([nH]5)c(-c5cc(S(=O)(=O)[O-])ccc5F)c5nc(c(-c6cc(S(=O)(=O)[O-])ccc6F)c6ccc3[nH]6)C=C5)C=C4)cc2)c1
REMARK SMILES IDX 22 1 21 2 20 3 19 4 17 5 18 6 16 8 11 9 12 10 13 11 15 12
REMARK SMILES IDX 9 13 10 14 8 15 4 16 5 17 92 18 6 19 7 20 3 21 2 22 1 23
REMARK SMILES IDX 14 24 23 26 24 27 25 28 26 29 27 30 28 32 29 33 30 34 91 35
REMARK SMILES IDX 31 36 90 37 32 38 33 39 34 40 84 41 35 42 89 43 83 44 85 45
REMARK SMILES IDX 36 46 88 47 82 48 81 49 37 51 69 52 49 53 68 54 50 55 53 56
REMARK SMILES IDX 67 57 86 58 51 59 52 60 66 62 87 63 54 64 38 65 39 66 47 67
REMARK SMILES IDX 40 68 46 69 48 70 45 71 41 72 42 73 43 74 44 75 70 76 71 77
REMARK SMILES IDX 79 78 72 79 78 80 80 81 77 82 73 83 74 84 75 85 76 86 55 87
REMARK SMILES IDX 56 88 64 89 57 90 63 91 65 92 62 93 58 94 59 95 60 96 61 97
REMARK H PARENT 19 7 14 25 26 31 85 50 53 61
REMARK Flexibility Score: inf
ROOT
ATOM      1  C   UNL A   1      34.538  24.077  24.163  1.00  0.00     0.002 C 
ENDROOT
BRANCH   1   2
ATOM      2  C   UNL A   1      34.723  24.996  25.376  1.00  0.00     0.021 C 
BRANCH   2   3
ATOM      3  C   UNL A   1      34.074  26.371  25.220  1.00  0.00     0.116 C 
BRANCH   3   4
ATOM      4  N   UNL A   1      33.195  26.647  26.331  1.00  0.00    -0.354 N 
ATOM      5  C   UNL A   1      31.870  26.910  26.441  1.00  0.00     0.242 C 
ATOM      6  O   UNL A   1      31.542  27.365  27.546  1.00  0.00    -0.273 OA
ATOM      7  H   UNL A   1      33.658  26.646  27.199  1.00  0.00     0.163 HD
BRANCH   5   8
ATOM      8  C   UNL A   1      30.776  26.502  25.419  1.00  0.00     0.177 C 
ATOM      9  N   UNL A   1      30.971  25.084  25.103  1.00  0.00    -0.324 N 
ATOM     10  C   UNL A   1      30.956  24.857  23.666  1.00  0.00     0.152 C 
ATOM     11  C   UNL A   1      31.293  26.219  23.073  1.00  0.00     0.136 C 
ATOM     12  C   UNL A   1      30.637  27.187  24.064  1.00  0.00     0.069 C 
BRANCH   9  13
ATOM     13  C   UNL A   1      30.642  24.107  26.028  1.00  0.00     0.254 C 
ATOM     14  O   UNL A   1      29.609  24.142  26.690  1.00  0.00    -0.269 OA
BRANCH  13  15
ATOM     15  C   UNL A   1      31.634  23.020  26.269  1.00  0.00     0.040 A 
ATOM     16  C   UNL A   1      32.723  20.928  25.618  1.00  0.00    -0.022 A 
ATOM     17  C   UNL A   1      33.581  21.060  26.716  1.00  0.00     0.006 A 
ATOM     18  C   UNL A   1      31.767  21.932  25.392  1.00  0.00     0.020 A 
ATOM     19  C   UNL A   1      33.496  22.171  27.560  1.00  0.00     0.001 A 
ATOM     20  C   UNL A   1      32.523  23.145  27.340  1.00  0.00     0.014 A 
BRANCH  16  21
ATOM     21  C   UNL A   1      32.750  19.735  24.689  1.00  0.00     0.195 C 
BRANCH  21  22
ATOM     22  O   UNL A   1      31.981  18.628  25.161  1.00  0.00    -0.380 OA
ATOM     23  C   UNL A   1      32.601  17.380  24.884  1.00  0.00     0.195 C 
ENDBRANCH  21  22
ENDBRANCH  16  21
ENDBRANCH  13  15
ENDBRANCH   9  13
BRANCH  11  24
ATOM     24  O   UNL A   1      30.766  26.354  21.766  1.00  0.00    -0.391 OA
ATOM     25  H   UNL A   1      31.463  26.176  21.116  1.00  0.00     0.211 HD
ENDBRANCH  11  24
ENDBRANCH   5   8
ENDBRANCH   3   4
ENDBRANCH   2   3
ENDBRANCH   1   2
BRANCH   1  26
ATOM     26  C   UNL A   1      35.807  23.365  23.681  1.00  0.00     0.002 C 
BRANCH  26  27
ATOM     27  C   UNL A   1      36.151  22.064  24.413  1.00  0.00     0.021 C 
BRANCH  27  28
ATOM     28  C   UNL A   1      36.861  22.249  25.750  1.00  0.00     0.116 C 
BRANCH  28  29
ATOM     29  N   UNL A   1      37.914  21.269  25.945  1.00  0.00    -0.352 N 
ATOM     30  C   UNL A   1      39.240  21.465  26.239  1.00  0.00     0.251 C 
ATOM     31  H   UNL A   1      37.636  20.329  25.854  1.00  0.00     0.163 HD
ATOM     32  O   UNL A   1      40.024  20.525  26.148  1.00  0.00    -0.269 OA
BRANCH  30  33
ATOM     33  C   UNL A   1      39.723  22.805  26.642  1.00  0.00     0.039 A 
ATOM     34  C   UNL A   1      40.475  22.924  27.814  1.00  0.00     0.014 A 
ATOM     35  C   UNL A   1      39.411  23.943  25.892  1.00  0.00     0.014 A 
ATOM     36  C   UNL A   1      40.952  24.177  28.207  1.00  0.00     0.010 A 
ATOM     37  C   UNL A   1      39.940  25.181  26.251  1.00  0.00     0.010 A 
ATOM     38  C   UNL A   1      40.709  25.312  27.418  1.00  0.00    -0.014 A 
BRANCH  38  39
ATOM     39  C   UNL A   1      41.231  26.646  27.813  1.00  0.00     0.031 A 
ATOM     40  C   UNL A   1      42.661  27.011  27.521  1.00  0.00     0.074 A 
ATOM     41  C   UNL A   1      40.432  27.507  28.474  1.00  0.00     0.049 A 
ATOM     42  N   UNL A   1      43.322  28.096  27.839  1.00  0.00    -0.248 NA
ATOM     43  C   UNL A   1      43.462  26.010  26.800  1.00  0.00     0.031 C 
ATOM     44  C   UNL A   1      39.038  27.252  28.842  1.00  0.00     0.029 A 
ATOM     45  N   UNL A   1      40.677  28.767  28.958  1.00  0.00    -0.354 N 
ATOM     46  C   UNL A   1      44.616  27.904  27.364  1.00  0.00     0.074 A 
ATOM     47  C   UNL A   1      44.660  26.573  26.795  1.00  0.00     0.031 C 
ATOM     48  C   UNL A   1      38.546  28.331  29.473  1.00  0.00     0.029 A 
ATOM     49  C   UNL A   1      39.597  29.337  29.591  1.00  0.00     0.049 A 
ATOM     50  H   UNL A   1      41.546  29.221  28.861  1.00  0.00     0.167 HD
ATOM     51  C   UNL A   1      45.663  28.767  27.382  1.00  0.00     0.034 A 
ATOM     52  C   UNL A   1      39.470  30.531  30.203  1.00  0.00     0.034 A 
ATOM     53  C   UNL A   1      45.599  30.095  27.943  1.00  0.00     0.049 A 
ATOM     54  C   UNL A   1      40.654  31.465  30.226  1.00  0.00     0.074 A 
ATOM     55  C   UNL A   1      46.585  31.066  27.978  1.00  0.00     0.029 A 
ATOM     56  N   UNL A   1      44.486  30.639  28.572  1.00  0.00    -0.354 N 
ATOM     57  N   UNL A   1      41.860  31.284  29.738  1.00  0.00    -0.248 NA
ATOM     58  C   UNL A   1      40.454  32.770  30.870  1.00  0.00     0.031 C 
ATOM     59  C   UNL A   1      46.088  32.172  28.678  1.00  0.00     0.029 A 
ATOM     60  C   UNL A   1      44.770  31.920  29.019  1.00  0.00     0.049 A 
ATOM     61  H   UNL A   1      43.623  30.181  28.684  1.00  0.00     0.167 HD
ATOM     62  C   UNL A   1      42.550  32.467  29.989  1.00  0.00     0.074 A 
ATOM     63  C   UNL A   1      41.623  33.356  30.658  1.00  0.00     0.031 C 
ATOM     64  C   UNL A   1      43.835  32.791  29.693  1.00  0.00     0.034 A 
BRANCH  51  65
ATOM     65  C   UNL A   1      46.968  28.284  26.794  1.00  0.00     0.023 A 
ATOM     66  C   UNL A   1      47.188  28.267  25.405  1.00  0.00     0.031 A 
ATOM     67  C   UNL A   1      47.994  27.806  27.627  1.00  0.00     0.131 A 
ATOM     68  C   UNL A   1      48.369  27.711  24.889  1.00  0.00     0.055 A 
ATOM     69  C   UNL A   1      49.202  27.330  27.110  1.00  0.00     0.041 A 
ATOM     70  F   UNL A   1      47.836  27.779  28.960  1.00  0.00    -0.206 F 
ATOM     71  C   UNL A   1      49.388  27.266  25.733  1.00  0.00     0.022 A 
BRANCH  68  72
ATOM     72  S   UNL A   1      48.490  27.446  23.098  1.00  0.00     0.124 S 
ATOM     73  O   UNL A   1      49.804  28.012  22.805  1.00  0.00    -0.237 OA
ATOM     74  O   UNL A   1      48.379  25.996  22.986  1.00  0.00    -0.237 OA
ATOM     75  O   UNL A   1      47.360  28.203  22.563  1.00  0.00    -0.744 OA
ENDBRANCH  68  72
ENDBRANCH  51  65
BRANCH  52  76
ATOM     76  C   UNL A   1      38.183  30.920  30.846  1.00  0.00     0.023 A 
ATOM     77  C   UNL A   1      37.211  31.641  30.136  1.00  0.00     0.031 A 
ATOM     78  C   UNL A   1      37.927  30.616  32.195  1.00  0.00     0.131 A 
ATOM     79  C   UNL A   1      36.049  32.079  30.790  1.00  0.00     0.055 A 
ATOM     80  C   UNL A   1      36.747  31.010  32.827  1.00  0.00     0.041 A 
ATOM     81  F   UNL A   1      38.821  29.923  32.917  1.00  0.00    -0.206 F 
ATOM     82  C   UNL A   1      35.805  31.759  32.128  1.00  0.00     0.022 A 
BRANCH  79  83
ATOM     83  S   UNL A   1      34.898  33.152  29.888  1.00  0.00     0.124 S 
ATOM     84  O   UNL A   1      34.061  33.664  30.966  1.00  0.00    -0.237 OA
ATOM     85  O   UNL A   1      35.806  34.112  29.268  1.00  0.00    -0.237 OA
ATOM     86  O   UNL A   1      34.236  32.236  28.962  1.00  0.00    -0.744 OA
ENDBRANCH  79  83
ENDBRANCH  52  76
BRANCH  64  87
ATOM     87  C   UNL A   1      44.286  34.185  30.050  1.00  0.00     0.023 A 
ATOM     88  C   UNL A   1      44.875  34.475  31.293  1.00  0.00     0.031 A 
ATOM     89  C   UNL A   1      44.103  35.241  29.141  1.00  0.00     0.131 A 
ATOM     90  C   UNL A   1      45.208  35.800  31.616  1.00  0.00     0.055 A 
ATOM     91  C   UNL A   1      44.489  36.548  29.445  1.00  0.00     0.041 A 
ATOM     92  F   UNL A   1      43.543  35.020  27.940  1.00  0.00    -0.206 F 
ATOM     93  C   UNL A   1      45.033  36.835  30.695  1.00  0.00     0.022 A 
BRANCH  90  94
ATOM     94  S   UNL A   1      45.789  36.166  33.294  1.00  0.00     0.124 S 
ATOM     95  O   UNL A   1      46.931  35.267  33.425  1.00  0.00    -0.237 OA
ATOM     96  O   UNL A   1      46.107  37.589  33.211  1.00  0.00    -0.237 OA
ATOM     97  O   UNL A   1      44.640  35.837  34.135  1.00  0.00    -0.744 OA
ENDBRANCH  90  94
ENDBRANCH  64  87
ENDBRANCH  38  39
ENDBRANCH  30  33
ENDBRANCH  28  29
ENDBRANCH  27  28
ENDBRANCH  26  27
ENDBRANCH   1  26
TORSDOF 21
ENDMDL
MODEL 3
REMARK VINA RESULT:     -11.3      3.093      8.483
REMARK SMILES COCc1cccc(C(=O)N2C[C@@H](O)C[C@@H]2C(=O)NCCCCCCNC(=O)c2ccc(-c3c4nc(c(-c5cc(S(=O)(=O)[O-])ccc5F)c5ccc([nH]5)c(-c5cc(S(=O)(=O)[O-])ccc5F)c5nc(c(-c6cc(S(=O)(=O)[O-])ccc6F)c6ccc3[nH]6)C=C5)C=C4)cc2)c1
REMARK SMILES IDX 22 1 21 2 20 3 19 4 17 5 18 6 16 8 11 9 12 10 13 11 15 12
REMARK SMILES IDX 9 13 10 14 8 15 4 16 5 17 92 18 6 19 7 20 3 21 2 22 1 23
REMARK SMILES IDX 14 24 23 26 24 27 25 28 26 29 27 30 28 32 29 33 30 34 91 35
REMARK SMILES IDX 31 36 90 37 32 38 33 39 34 40 84 41 35 42 89 43 83 44 85 45
REMARK SMILES IDX 36 46 88 47 82 48 81 49 37 51 69 52 49 53 68 54 50 55 53 56
REMARK SMILES IDX 67 57 86 58 51 59 52 60 66 62 87 63 54 64 38 65 39 66 47 67
REMARK SMILES IDX 40 68 46 69 48 70 45 71 41 72 42 73 43 74 44 75 70 76 71 77
REMARK SMILES IDX 79 78 72 79 78 80 80 81 77 82 73 83 74 84 75 85 76 86 55 87
REMARK SMILES IDX 56 88 64 89 57 90 63 91 65 92 62 93 58 94 59 95 60 96 61 97
REMARK H PARENT 19 7 14 25 26 31 85 50 53 61
REMARK Flexibility Score: inf
ROOT
ATOM      1  C   UNL A   1      32.874  26.080  26.485  1.00  0.00     0.002 C 
ENDROOT
BRANCH   1   2
ATOM      2  C   UNL A   1      34.135  25.929  25.626  1.00  0.00     0.021 C 
BRANCH   2   3
ATOM      3  C   UNL A   1      34.844  24.586  25.791  1.00  0.00     0.116 C 
BRANCH   3   4
ATOM      4  N   UNL A   1      35.526  24.217  24.573  1.00  0.00    -0.354 N 
ATOM      5  C   UNL A   1      35.338  23.247  23.645  1.00  0.00     0.242 C 
ATOM      6  O   UNL A   1      36.305  23.092  22.885  1.00  0.00    -0.273 OA
ATOM      7  H   UNL A   1      36.296  24.796  24.372  1.00  0.00     0.163 HD
BRANCH   5   8
ATOM      8  C   UNL A   1      34.002  22.517  23.352  1.00  0.00     0.177 C 
ATOM      9  N   UNL A   1      32.962  23.540  23.200  1.00  0.00    -0.324 N 
ATOM     10  C   UNL A   1      31.785  23.217  23.992  1.00  0.00     0.152 C 
ATOM     11  C   UNL A   1      32.308  22.266  25.061  1.00  0.00     0.136 C 
ATOM     12  C   UNL A   1      33.406  21.497  24.317  1.00  0.00     0.069 C 
BRANCH   9  13
ATOM     13  C   UNL A   1      32.918  24.332  22.066  1.00  0.00     0.254 C 
ATOM     14  O   UNL A   1      33.192  23.906  20.948  1.00  0.00    -0.269 OA
BRANCH  13  15
ATOM     15  C   UNL A   1      32.598  25.778  22.243  1.00  0.00     0.040 A 
ATOM     16  C   UNL A   1      30.997  27.588  22.626  1.00  0.00    -0.022 A 
ATOM     17  C   UNL A   1      32.065  28.492  22.671  1.00  0.00     0.006 A 
ATOM     18  C   UNL A   1      31.281  26.226  22.435  1.00  0.00     0.020 A 
ATOM     19  C   UNL A   1      33.383  28.047  22.542  1.00  0.00     0.001 A 
ATOM     20  C   UNL A   1      33.649  26.696  22.324  1.00  0.00     0.014 A 
BRANCH  16  21
ATOM     21  C   UNL A   1      29.551  28.015  22.731  1.00  0.00     0.195 C 
BRANCH  21  22
ATOM     22  O   UNL A   1      29.267  29.239  22.053  1.00  0.00    -0.380 OA
ATOM     23  C   UNL A   1      28.211  29.967  22.664  1.00  0.00     0.195 C 
ENDBRANCH  21  22
ENDBRANCH  16  21
ENDBRANCH  13  15
ENDBRANCH   9  13
BRANCH  11  24
ATOM     24  O   UNL A   1      31.283  21.410  25.532  1.00  0.00    -0.391 OA
ATOM     25  H   UNL A   1      30.617  21.291  24.838  1.00  0.00     0.211 HD
ENDBRANCH  11  24
ENDBRANCH   5   8
ENDBRANCH   3   4
ENDBRANCH   2   3
ENDBRANCH   1   2
BRANCH   1  26
ATOM     26  C   UNL A   1      32.026  27.323  26.192  1.00  0.00     0.002 C 
BRANCH  26  27
ATOM     27  C   UNL A   1      32.313  28.540  27.078  1.00  0.00     0.021 C 
BRANCH  27  28
ATOM     28  C   UNL A   1      33.569  29.321  26.705  1.00  0.00     0.116 C 
BRANCH  28  29
ATOM     29  N   UNL A   1      33.454  30.726  27.048  1.00  0.00    -0.352 N 
ATOM     30  C   UNL A   1      34.224  31.481  27.898  1.00  0.00     0.251 C 
ATOM     31  H   UNL A   1      32.717  31.209  26.607  1.00  0.00     0.163 HD
ATOM     32  O   UNL A   1      33.840  32.597  28.231  1.00  0.00    -0.269 OA
BRANCH  30  33
ATOM     33  C   UNL A   1      35.499  30.940  28.424  1.00  0.00     0.039 A 
ATOM     34  C   UNL A   1      35.454  29.903  29.360  1.00  0.00     0.014 A 
ATOM     35  C   UNL A   1      36.729  31.471  28.025  1.00  0.00     0.014 A 
ATOM     36  C   UNL A   1      36.644  29.369  29.860  1.00  0.00     0.010 A 
ATOM     37  C   UNL A   1      37.915  30.896  28.476  1.00  0.00     0.010 A 
ATOM     38  C   UNL A   1      37.885  29.844  29.405  1.00  0.00    -0.014 A 
BRANCH  38  39
ATOM     39  C   UNL A   1      39.157  29.268  29.911  1.00  0.00     0.031 A 
ATOM     40  C   UNL A   1      39.828  29.867  31.117  1.00  0.00     0.074 A 
ATOM     41  C   UNL A   1      39.730  28.236  29.258  1.00  0.00     0.049 A 
ATOM     42  N   UNL A   1      40.970  29.549  31.674  1.00  0.00    -0.248 NA
ATOM     43  C   UNL A   1      39.137  30.991  31.765  1.00  0.00     0.031 C 
ATOM     44  C   UNL A   1      39.190  27.594  28.058  1.00  0.00     0.029 A 
ATOM     45  N   UNL A   1      40.892  27.552  29.506  1.00  0.00    -0.354 N 
ATOM     46  C   UNL A   1      41.137  30.439  32.732  1.00  0.00     0.074 A 
ATOM     47  C   UNL A   1      40.009  31.347  32.695  1.00  0.00     0.031 C 
ATOM     48  C   UNL A   1      40.008  26.594  27.690  1.00  0.00     0.029 A 
ATOM     49  C   UNL A   1      41.148  26.549  28.599  1.00  0.00     0.049 A 
ATOM     50  H   UNL A   1      41.487  27.759  30.262  1.00  0.00     0.167 HD
ATOM     51  C   UNL A   1      42.125  30.479  33.659  1.00  0.00     0.034 A 
ATOM     52  C   UNL A   1      42.188  25.697  28.507  1.00  0.00     0.034 A 
ATOM     53  C   UNL A   1      43.237  29.558  33.689  1.00  0.00     0.049 A 
ATOM     54  C   UNL A   1      43.285  25.774  29.539  1.00  0.00     0.074 A 
ATOM     55  C   UNL A   1      44.271  29.482  34.604  1.00  0.00     0.029 A 
ATOM     56  N   UNL A   1      43.461  28.553  32.756  1.00  0.00    -0.354 N 
ATOM     57  N   UNL A   1      43.407  26.596  30.556  1.00  0.00    -0.248 NA
ATOM     58  C   UNL A   1      44.376  24.798  29.418  1.00  0.00     0.031 C 
ATOM     59  C   UNL A   1      45.149  28.472  34.194  1.00  0.00     0.029 A 
ATOM     60  C   UNL A   1      44.628  27.871  33.061  1.00  0.00     0.049 A 
ATOM     61  H   UNL A   1      42.875  28.356  31.989  1.00  0.00     0.167 HD
ATOM     62  C   UNL A   1      44.573  26.213  31.213  1.00  0.00     0.074 A 
ATOM     63  C   UNL A   1      45.107  25.079  30.486  1.00  0.00     0.031 C 
ATOM     64  C   UNL A   1      45.151  26.748  32.319  1.00  0.00     0.034 A 
BRANCH  51  65
ATOM     65  C   UNL A   1      42.053  31.570  34.702  1.00  0.00     0.023 A 
ATOM     66  C   UNL A   1      41.080  31.554  35.718  1.00  0.00     0.031 A 
ATOM     67  C   UNL A   1      42.945  32.655  34.664  1.00  0.00     0.131 A 
ATOM     68  C   UNL A   1      40.974  32.638  36.603  1.00  0.00     0.055 A 
ATOM     69  C   UNL A   1      42.886  33.691  35.599  1.00  0.00     0.041 A 
ATOM     70  F   UNL A   1      43.883  32.737  33.706  1.00  0.00    -0.206 F 
ATOM     71  C   UNL A   1      41.886  33.695  36.566  1.00  0.00     0.022 A 
BRANCH  68  72
ATOM     72  S   UNL A   1      39.536  32.715  37.706  1.00  0.00     0.124 S 
ATOM     73  O   UNL A   1      39.047  34.069  37.458  1.00  0.00    -0.237 OA
ATOM     74  O   UNL A   1      38.698  31.631  37.208  1.00  0.00    -0.237 OA
ATOM     75  O   UNL A   1      40.111  32.502  39.033  1.00  0.00    -0.744 OA
ENDBRANCH  68  72
ENDBRANCH  51  65
BRANCH  52  76
ATOM     76  C   UNL A   1      42.252  24.697  27.403  1.00  0.00     0.023 A 
ATOM     77  C   UNL A   1      41.480  23.527  27.444  1.00  0.00     0.031 A 
ATOM     78  C   UNL A   1      43.123  24.877  26.313  1.00  0.00     0.131 A 
ATOM     79  C   UNL A   1      41.629  22.555  26.442  1.00  0.00     0.055 A 
ATOM     80  C   UNL A   1      43.229  23.931  25.292  1.00  0.00     0.041 A 
ATOM     81  F   UNL A   1      43.878  25.983  26.222  1.00  0.00    -0.206 F 
ATOM     82  C   UNL A   1      42.490  22.754  25.360  1.00  0.00     0.022 A 
BRANCH  79  83
ATOM     83  S   UNL A   1      40.742  20.983  26.620  1.00  0.00     0.124 S 
ATOM     84  O   UNL A   1      39.397  21.351  26.197  1.00  0.00    -0.237 OA
ATOM     85  O   UNL A   1      41.486  20.114  25.714  1.00  0.00    -0.237 OA
ATOM     86  O   UNL A   1      40.888  20.670  28.040  1.00  0.00    -0.744 OA
ENDBRANCH  79  83
ENDBRANCH  52  76
BRANCH  64  87
ATOM     87  C   UNL A   1      46.400  26.072  32.830  1.00  0.00     0.023 A 
ATOM     88  C   UNL A   1      46.340  24.964  33.692  1.00  0.00     0.031 A 
ATOM     89  C   UNL A   1      47.666  26.560  32.463  1.00  0.00     0.131 A 
ATOM     90  C   UNL A   1      47.525  24.415  34.206  1.00  0.00     0.055 A 
ATOM     91  C   UNL A   1      48.843  25.973  32.932  1.00  0.00     0.041 A 
ATOM     92  F   UNL A   1      47.781  27.617  31.642  1.00  0.00    -0.206 F 
ATOM     93  C   UNL A   1      48.775  24.903  33.820  1.00  0.00     0.022 A 
BRANCH  90  94
ATOM     94  S   UNL A   1      47.406  23.111  35.462  1.00  0.00     0.124 S 
ATOM     95  O   UNL A   1      46.656  23.776  36.522  1.00  0.00    -0.237 OA
ATOM     96  O   UNL A   1      46.697  22.054  34.748  1.00  0.00    -0.237 OA
ATOM     97  O   UNL A   1      48.802  22.814  35.780  1.00  0.00    -0.744 OA
ENDBRANCH  90  94
ENDBRANCH  64  87
ENDBRANCH  38  39
ENDBRANCH  30  33
ENDBRANCH  28  29
ENDBRANCH  27  28
ENDBRANCH  26  27
ENDBRANCH   1  26
TORSDOF 21
ENDMDL
