MODEL 1
REMARK VINA RESULT:     -11.5      0.000      0.000
REMARK SMILES CCCc1cc2c(cc1Cl)C=C(C(=O)NCCCCCCNC(=O)c1ccc(-c3c4nc(c(-c5cc(S(=O)(=O)[O-])ccc5F)c5ccc([nH]5)c(-c5cc(S(=O)(=O)[O-])ccc5F)c5nc(c(-c6cc(S(=O)(=O)[O-])ccc6F)c6ccc3[nH]6)C=C5)C=C4)cc1)[C@@H](C(F)(F)F)O2
REMARK SMILES IDX 19 1 18 2 17 3 16 4 15 5 13 6 14 7 12 9 4 10 5 11 9 12 6 13
REMARK SMILES IDX 8 14 10 15 7 16 93 17 11 18 88 19 3 20 2 21 1 22 89 23 90 24
REMARK SMILES IDX 91 25 92 26 20 27 21 28 22 29 23 30 24 32 25 33 26 34 87 35
REMARK SMILES IDX 27 36 86 37 28 38 29 39 30 40 80 41 31 42 85 43 79 44 81 45
REMARK SMILES IDX 32 46 84 47 78 48 77 49 33 51 65 52 45 53 64 54 46 55 49 56
REMARK SMILES IDX 63 57 82 58 47 59 48 60 62 62 83 63 50 64 34 65 35 66 43 67
REMARK SMILES IDX 36 68 42 69 44 70 41 71 37 72 38 73 39 74 40 75 66 76 67 77
REMARK SMILES IDX 75 78 68 79 74 80 76 81 73 82 69 83 70 84 71 85 72 86 51 87
REMARK SMILES IDX 52 88 60 89 53 90 59 91 61 92 58 93 54 94 55 95 56 96 57 97
REMARK H PARENT 15 8 22 31 81 50 49 61
REMARK Flexibility Score: inf
ROOT
ATOM      1  C   UNL A   1      36.876  21.278  24.834  1.00  0.00     0.002 C 
ENDROOT
BRANCH   1   2
ATOM      2  C   UNL A   1      35.618  21.176  25.708  1.00  0.00     0.002 C 
BRANCH   2   3
ATOM      3  C   UNL A   1      35.319  22.395  26.586  1.00  0.00     0.021 C 
BRANCH   3   4
ATOM      4  C   UNL A   1      33.988  22.323  27.330  1.00  0.00     0.116 C 
BRANCH   4   5
ATOM      5  N   UNL A   1      32.966  21.641  26.553  1.00  0.00    -0.352 N 
ATOM      6  C   UNL A   1      32.149  21.932  25.514  1.00  0.00     0.251 C 
ATOM      7  O   UNL A   1      31.434  20.998  25.133  1.00  0.00    -0.270 OA
ATOM      8  H   UNL A   1      32.832  20.717  26.868  1.00  0.00     0.163 HD
BRANCH   6   9
ATOM      9  C   UNL A   1      32.053  23.256  24.826  1.00  0.00     0.067 C 
ATOM     10  C   UNL A   1      30.381  27.713  23.104  1.00  0.00    -0.026 A 
ATOM     11  C   UNL A   1      31.633  27.085  23.183  1.00  0.00     0.052 A 
ATOM     12  C   UNL A   1      29.258  27.011  23.568  1.00  0.00     0.045 A 
ATOM     13  C   UNL A   1      31.762  25.815  23.734  1.00  0.00     0.128 A 
ATOM     14  C   UNL A   1      29.391  25.725  24.112  1.00  0.00     0.032 A 
ATOM     15  Cl  UNL A   1      27.673  27.696  23.518  1.00  0.00    -0.084 Cl
ATOM     16  C   UNL A   1      30.650  25.128  24.210  1.00  0.00     0.019 A 
ATOM     17  O   UNL A   1      33.034  25.339  23.833  1.00  0.00    -0.475 OA
ATOM     18  C   UNL A   1      30.837  23.833  24.852  1.00  0.00     0.025 C 
ATOM     19  C   UNL A   1      33.195  23.924  24.109  1.00  0.00     0.314 C 
BRANCH  10  20
ATOM     20  C   UNL A   1      30.333  29.131  22.588  1.00  0.00     0.037 C 
BRANCH  20  21
ATOM     21  C   UNL A   1      29.815  30.136  23.624  1.00  0.00     0.001 C 
ATOM     22  C   UNL A   1      28.842  31.163  23.055  1.00  0.00     0.004 C 
ENDBRANCH  20  21
ENDBRANCH  10  20
BRANCH  19  23
ATOM     23  C   UNL A   1      33.569  23.214  22.797  1.00  0.00     0.429 C 
ATOM     24  F   UNL A   1      34.898  22.950  22.759  1.00  0.00    -0.167 F 
ATOM     25  F   UNL A   1      32.938  22.026  22.649  1.00  0.00    -0.167 F 
ATOM     26  F   UNL A   1      33.269  23.958  21.708  1.00  0.00    -0.167 F 
ENDBRANCH  19  23
ENDBRANCH   6   9
ENDBRANCH   4   5
ENDBRANCH   3   4
ENDBRANCH   2   3
ENDBRANCH   1   2
BRANCH   1  27
ATOM     27  C   UNL A   1      37.922  20.178  25.036  1.00  0.00     0.021 C 
BRANCH  27  28
ATOM     28  C   UNL A   1      39.180  20.609  25.780  1.00  0.00     0.116 C 
BRANCH  28  29
ATOM     29  N   UNL A   1      40.115  19.514  25.983  1.00  0.00    -0.352 N 
ATOM     30  C   UNL A   1      41.469  19.565  26.219  1.00  0.00     0.251 C 
ATOM     31  H   UNL A   1      39.726  18.611  25.945  1.00  0.00     0.163 HD
ATOM     32  O   UNL A   1      42.130  18.530  26.220  1.00  0.00    -0.269 OA
BRANCH  30  33
ATOM     33  C   UNL A   1      42.125  20.874  26.434  1.00  0.00     0.039 A 
ATOM     34  C   UNL A   1      42.423  21.320  27.723  1.00  0.00     0.014 A 
ATOM     35  C   UNL A   1      42.418  21.678  25.328  1.00  0.00     0.014 A 
ATOM     36  C   UNL A   1      42.859  22.627  27.917  1.00  0.00     0.010 A 
ATOM     37  C   UNL A   1      42.930  22.964  25.522  1.00  0.00     0.010 A 
ATOM     38  C   UNL A   1      43.109  23.468  26.819  1.00  0.00    -0.014 A 
BRANCH  38  39
ATOM     39  C   UNL A   1      43.558  24.866  27.055  1.00  0.00     0.031 A 
ATOM     40  C   UNL A   1      42.599  25.908  27.564  1.00  0.00     0.074 A 
ATOM     41  C   UNL A   1      44.853  25.180  26.856  1.00  0.00     0.049 A 
ATOM     42  N   UNL A   1      42.830  27.161  27.862  1.00  0.00    -0.248 NA
ATOM     43  C   UNL A   1      41.200  25.495  27.763  1.00  0.00     0.031 C 
ATOM     44  C   UNL A   1      45.870  24.249  26.368  1.00  0.00     0.029 A 
ATOM     45  N   UNL A   1      45.542  26.350  27.059  1.00  0.00    -0.354 N 
ATOM     46  C   UNL A   1      41.609  27.690  28.269  1.00  0.00     0.074 A 
ATOM     47  C   UNL A   1      40.632  26.631  28.146  1.00  0.00     0.031 C 
ATOM     48  C   UNL A   1      47.060  24.864  26.361  1.00  0.00     0.029 A 
ATOM     49  C   UNL A   1      46.886  26.254  26.776  1.00  0.00     0.049 A 
ATOM     50  H   UNL A   1      45.116  27.179  27.375  1.00  0.00     0.167 HD
ATOM     51  C   UNL A   1      41.336  28.938  28.718  1.00  0.00     0.034 A 
ATOM     52  C   UNL A   1      47.868  27.176  26.836  1.00  0.00     0.034 A 
ATOM     53  C   UNL A   1      42.325  29.977  28.852  1.00  0.00     0.049 A 
ATOM     54  C   UNL A   1      47.532  28.564  27.317  1.00  0.00     0.074 A 
ATOM     55  C   UNL A   1      42.148  31.268  29.321  1.00  0.00     0.029 A 
ATOM     56  N   UNL A   1      43.669  29.851  28.529  1.00  0.00    -0.354 N 
ATOM     57  N   UNL A   1      46.382  29.032  27.738  1.00  0.00    -0.248 NA
ATOM     58  C   UNL A   1      48.621  29.550  27.333  1.00  0.00     0.031 C 
ATOM     59  C   UNL A   1      43.370  31.937  29.228  1.00  0.00     0.029 A 
ATOM     60  C   UNL A   1      44.327  31.047  28.767  1.00  0.00     0.049 A 
ATOM     61  H   UNL A   1      44.092  29.032  28.182  1.00  0.00     0.167 HD
ATOM     62  C   UNL A   1      46.611  30.360  28.087  1.00  0.00     0.074 A 
ATOM     63  C   UNL A   1      48.018  30.612  27.853  1.00  0.00     0.031 C 
ATOM     64  C   UNL A   1      45.734  31.286  28.548  1.00  0.00     0.034 A 
BRANCH  51  65
ATOM     65  C   UNL A   1      39.920  29.270  29.119  1.00  0.00     0.023 A 
ATOM     66  C   UNL A   1      39.554  29.280  30.478  1.00  0.00     0.031 A 
ATOM     67  C   UNL A   1      38.908  29.442  28.157  1.00  0.00     0.131 A 
ATOM     68  C   UNL A   1      38.208  29.423  30.837  1.00  0.00     0.055 A 
ATOM     69  C   UNL A   1      37.572  29.622  28.521  1.00  0.00     0.041 A 
ATOM     70  F   UNL A   1      39.205  29.440  26.847  1.00  0.00    -0.206 F 
ATOM     71  C   UNL A   1      37.217  29.600  29.866  1.00  0.00     0.022 A 
BRANCH  68  72
ATOM     72  S   UNL A   1      37.682  29.322  32.570  1.00  0.00     0.124 S 
ATOM     73  O   UNL A   1      38.700  30.127  33.240  1.00  0.00    -0.237 OA
ATOM     74  O   UNL A   1      36.349  29.918  32.520  1.00  0.00    -0.237 OA
ATOM     75  O   UNL A   1      37.725  27.894  32.868  1.00  0.00    -0.744 OA
ENDBRANCH  68  72
ENDBRANCH  51  65
BRANCH  52  76
ATOM     76  C   UNL A   1      49.260  26.778  26.474  1.00  0.00     0.023 A 
ATOM     77  C   UNL A   1      50.257  26.656  27.460  1.00  0.00     0.031 A 
ATOM     78  C   UNL A   1      49.640  26.630  25.130  1.00  0.00     0.131 A 
ATOM     79  C   UNL A   1      51.593  26.476  27.083  1.00  0.00     0.055 A 
ATOM     80  C   UNL A   1      50.962  26.374  24.762  1.00  0.00     0.041 A 
ATOM     81  F   UNL A   1      48.729  26.750  24.153  1.00  0.00    -0.206 F 
ATOM     82  C   UNL A   1      51.951  26.318  25.741  1.00  0.00     0.022 A 
BRANCH  79  83
ATOM     83  S   UNL A   1      52.927  26.597  28.307  1.00  0.00     0.124 S 
ATOM     84  O   UNL A   1      53.180  28.035  28.340  1.00  0.00    -0.237 OA
ATOM     85  O   UNL A   1      52.290  26.040  29.499  1.00  0.00    -0.237 OA
ATOM     86  O   UNL A   1      53.993  25.780  27.738  1.00  0.00    -0.744 OA
ENDBRANCH  79  83
ENDBRANCH  52  76
BRANCH  64  87
ATOM     87  C   UNL A   1      46.240  32.676  28.848  1.00  0.00     0.023 A 
ATOM     88  C   UNL A   1      46.286  33.643  27.825  1.00  0.00     0.031 A 
ATOM     89  C   UNL A   1      46.819  32.991  30.088  1.00  0.00     0.131 A 
ATOM     90  C   UNL A   1      46.937  34.862  28.047  1.00  0.00     0.055 A 
ATOM     91  C   UNL A   1      47.426  34.226  30.320  1.00  0.00     0.041 A 
ATOM     92  F   UNL A   1      46.810  32.098  31.091  1.00  0.00    -0.206 F 
ATOM     93  C   UNL A   1      47.501  35.162  29.292  1.00  0.00     0.022 A 
BRANCH  90  94
ATOM     94  S   UNL A   1      47.157  36.065  26.707  1.00  0.00     0.124 S 
ATOM     95  O   UNL A   1      47.188  35.202  25.529  1.00  0.00    -0.237 OA
ATOM     96  O   UNL A   1      45.964  36.897  26.841  1.00  0.00    -0.237 OA
ATOM     97  O   UNL A   1      48.420  36.722  27.028  1.00  0.00    -0.744 OA
ENDBRANCH  90  94
ENDBRANCH  64  87
ENDBRANCH  38  39
ENDBRANCH  30  33
ENDBRANCH  28  29
ENDBRANCH  27  28
ENDBRANCH   1  27
TORSDOF 19
ENDMDL
MODEL 2
REMARK VINA RESULT:     -11.5      1.973      2.318
REMARK SMILES CCCc1cc2c(cc1Cl)C=C(C(=O)NCCCCCCNC(=O)c1ccc(-c3c4nc(c(-c5cc(S(=O)(=O)[O-])ccc5F)c5ccc([nH]5)c(-c5cc(S(=O)(=O)[O-])ccc5F)c5nc(c(-c6cc(S(=O)(=O)[O-])ccc6F)c6ccc3[nH]6)C=C5)C=C4)cc1)[C@@H](C(F)(F)F)O2
REMARK SMILES IDX 19 1 18 2 17 3 16 4 15 5 13 6 14 7 12 9 4 10 5 11 9 12 6 13
REMARK SMILES IDX 8 14 10 15 7 16 93 17 11 18 88 19 3 20 2 21 1 22 89 23 90 24
REMARK SMILES IDX 91 25 92 26 20 27 21 28 22 29 23 30 24 32 25 33 26 34 87 35
REMARK SMILES IDX 27 36 86 37 28 38 29 39 30 40 80 41 31 42 85 43 79 44 81 45
REMARK SMILES IDX 32 46 84 47 78 48 77 49 33 51 65 52 45 53 64 54 46 55 49 56
REMARK SMILES IDX 63 57 82 58 47 59 48 60 62 62 83 63 50 64 34 65 35 66 43 67
REMARK SMILES IDX 36 68 42 69 44 70 41 71 37 72 38 73 39 74 40 75 66 76 67 77
REMARK SMILES IDX 75 78 68 79 74 80 76 81 73 82 69 83 70 84 71 85 72 86 51 87
REMARK SMILES IDX 52 88 60 89 53 90 59 91 61 92 58 93 54 94 55 95 56 96 57 97
REMARK H PARENT 15 8 22 31 81 50 49 61
REMARK Flexibility Score: inf
ROOT
ATOM      1  C   UNL A   1      37.086  21.436  24.604  1.00  0.00     0.002 C 
ENDROOT
BRANCH   1   2
ATOM      2  C   UNL A   1      35.779  21.608  25.390  1.00  0.00     0.002 C 
BRANCH   2   3
ATOM      3  C   UNL A   1      35.575  22.976  26.050  1.00  0.00     0.021 C 
BRANCH   3   4
ATOM      4  C   UNL A   1      34.249  23.126  26.790  1.00  0.00     0.116 C 
BRANCH   4   5
ATOM      5  N   UNL A   1      33.153  22.486  26.082  1.00  0.00    -0.352 N 
ATOM      6  C   UNL A   1      32.191  22.850  25.203  1.00  0.00     0.251 C 
ATOM      7  O   UNL A   1      31.463  21.930  24.813  1.00  0.00    -0.270 OA
ATOM      8  H   UNL A   1      33.097  21.527  26.300  1.00  0.00     0.163 HD
BRANCH   6   9
ATOM      9  C   UNL A   1      31.955  24.237  24.696  1.00  0.00     0.067 C 
ATOM     10  C   UNL A   1      29.769  28.608  23.377  1.00  0.00    -0.026 A 
ATOM     11  C   UNL A   1      31.091  28.171  23.548  1.00  0.00     0.052 A 
ATOM     12  C   UNL A   1      28.734  27.681  23.573  1.00  0.00     0.045 A 
ATOM     13  C   UNL A   1      31.367  26.863  23.933  1.00  0.00     0.128 A 
ATOM     14  C   UNL A   1      29.018  26.360  23.950  1.00  0.00     0.032 A 
ATOM     15  Cl  UNL A   1      27.073  28.120  23.389  1.00  0.00    -0.084 Cl
ATOM     16  C   UNL A   1      30.339  25.951  24.146  1.00  0.00     0.019 A 
ATOM     17  O   UNL A   1      32.679  26.574  24.150  1.00  0.00    -0.475 OA
ATOM     18  C   UNL A   1      30.664  24.614  24.625  1.00  0.00     0.025 C 
ATOM     19  C   UNL A   1      33.044  25.174  24.249  1.00  0.00     0.314 C 
BRANCH  10  20
ATOM     20  C   UNL A   1      29.543  30.066  23.057  1.00  0.00     0.037 C 
BRANCH  20  21
ATOM     21  C   UNL A   1      29.436  30.347  21.553  1.00  0.00     0.001 C 
ATOM     22  C   UNL A   1      28.053  30.815  21.110  1.00  0.00     0.004 C 
ENDBRANCH  20  21
ENDBRANCH  10  20
BRANCH  19  23
ATOM     23  C   UNL A   1      33.689  24.745  22.920  1.00  0.00     0.429 C 
ATOM     24  F   UNL A   1      34.019  25.830  22.178  1.00  0.00    -0.167 F 
ATOM     25  F   UNL A   1      34.831  24.041  23.098  1.00  0.00    -0.167 F 
ATOM     26  F   UNL A   1      32.863  23.976  22.174  1.00  0.00    -0.167 F 
ENDBRANCH  19  23
ENDBRANCH   6   9
ENDBRANCH   4   5
ENDBRANCH   3   4
ENDBRANCH   2   3
ENDBRANCH   1   2
BRANCH   1  27
ATOM     27  C   UNL A   1      38.004  20.304  25.073  1.00  0.00     0.021 C 
BRANCH  27  28
ATOM     28  C   UNL A   1      39.148  20.733  25.984  1.00  0.00     0.116 C 
BRANCH  28  29
ATOM     29  N   UNL A   1      40.184  19.720  26.100  1.00  0.00    -0.352 N 
ATOM     30  C   UNL A   1      41.533  19.882  26.315  1.00  0.00     0.251 C 
ATOM     31  H   UNL A   1      39.878  18.789  26.012  1.00  0.00     0.163 HD
ATOM     32  O   UNL A   1      42.285  18.914  26.238  1.00  0.00    -0.269 OA
BRANCH  30  33
ATOM     33  C   UNL A   1      42.071  21.230  26.599  1.00  0.00     0.039 A 
ATOM     34  C   UNL A   1      42.327  21.634  27.911  1.00  0.00     0.014 A 
ATOM     35  C   UNL A   1      42.294  22.112  25.537  1.00  0.00     0.014 A 
ATOM     36  C   UNL A   1      42.646  22.963  28.173  1.00  0.00     0.010 A 
ATOM     37  C   UNL A   1      42.692  23.426  25.799  1.00  0.00     0.010 A 
ATOM     38  C   UNL A   1      42.823  23.877  27.121  1.00  0.00    -0.014 A 
BRANCH  38  39
ATOM     39  C   UNL A   1      43.148  25.295  27.430  1.00  0.00     0.031 A 
ATOM     40  C   UNL A   1      42.107  26.217  28.004  1.00  0.00     0.074 A 
ATOM     41  C   UNL A   1      44.407  25.736  27.237  1.00  0.00     0.049 A 
ATOM     42  N   UNL A   1      42.228  27.468  28.369  1.00  0.00    -0.248 NA
ATOM     43  C   UNL A   1      40.754  25.669  28.192  1.00  0.00     0.031 C 
ATOM     44  C   UNL A   1      45.497  24.928  26.690  1.00  0.00     0.029 A 
ATOM     45  N   UNL A   1      44.991  26.950  27.500  1.00  0.00    -0.354 N 
ATOM     46  C   UNL A   1      40.970  27.860  28.816  1.00  0.00     0.074 A 
ATOM     47  C   UNL A   1      40.090  26.726  28.643  1.00  0.00     0.031 C 
ATOM     48  C   UNL A   1      46.627  25.648  26.707  1.00  0.00     0.029 A 
ATOM     49  C   UNL A   1      46.334  26.992  27.200  1.00  0.00     0.049 A 
ATOM     50  H   UNL A   1      44.496  27.719  27.865  1.00  0.00     0.167 HD
ATOM     51  C   UNL A   1      40.591  29.053  29.336  1.00  0.00     0.034 A 
ATOM     52  C   UNL A   1      47.230  27.995  27.303  1.00  0.00     0.034 A 
ATOM     53  C   UNL A   1      41.485  30.168  29.518  1.00  0.00     0.049 A 
ATOM     54  C   UNL A   1      46.777  29.318  27.863  1.00  0.00     0.074 A 
ATOM     55  C   UNL A   1      41.199  31.410  30.059  1.00  0.00     0.029 A 
ATOM     56  N   UNL A   1      42.830  30.182  29.177  1.00  0.00    -0.354 N 
ATOM     57  N   UNL A   1      45.595  29.657  28.319  1.00  0.00    -0.248 NA
ATOM     58  C   UNL A   1      47.773  30.396  27.924  1.00  0.00     0.031 C 
ATOM     59  C   UNL A   1      42.354  32.191  29.993  1.00  0.00     0.029 A 
ATOM     60  C   UNL A   1      43.381  31.418  29.475  1.00  0.00     0.049 A 
ATOM     61  H   UNL A   1      43.320  29.425  28.781  1.00  0.00     0.167 HD
ATOM     62  C   UNL A   1      45.708  30.979  28.738  1.00  0.00     0.074 A 
ATOM     63  C   UNL A   1      47.084  31.370  28.507  1.00  0.00     0.031 C 
ATOM     64  C   UNL A   1      44.757  31.795  29.258  1.00  0.00     0.034 A 
BRANCH  51  65
ATOM     65  C   UNL A   1      39.157  29.233  29.766  1.00  0.00     0.023 A 
ATOM     66  C   UNL A   1      38.283  30.024  28.996  1.00  0.00     0.031 A 
ATOM     67  C   UNL A   1      38.694  28.740  30.998  1.00  0.00     0.131 A 
ATOM     68  C   UNL A   1      37.004  30.325  29.481  1.00  0.00     0.055 A 
ATOM     69  C   UNL A   1      37.406  29.011  31.462  1.00  0.00     0.041 A 
ATOM     70  F   UNL A   1      39.489  27.980  31.770  1.00  0.00    -0.206 F 
ATOM     71  C   UNL A   1      36.559  29.819  30.707  1.00  0.00     0.022 A 
BRANCH  68  72
ATOM     72  S   UNL A   1      35.893  31.437  28.576  1.00  0.00     0.124 S 
ATOM     73  O   UNL A   1      35.423  30.574  27.495  1.00  0.00    -0.237 OA
ATOM     74  O   UNL A   1      34.895  31.765  29.591  1.00  0.00    -0.237 OA
ATOM     75  O   UNL A   1      36.757  32.537  28.161  1.00  0.00    -0.744 OA
ENDBRANCH  68  72
ENDBRANCH  51  65
BRANCH  52  76
ATOM     76  C   UNL A   1      48.646  27.744  26.907  1.00  0.00     0.023 A 
ATOM     77  C   UNL A   1      49.078  27.962  25.585  1.00  0.00     0.031 A 
ATOM     78  C   UNL A   1      49.556  27.172  27.813  1.00  0.00     0.131 A 
ATOM     79  C   UNL A   1      50.351  27.536  25.188  1.00  0.00     0.055 A 
ATOM     80  C   UNL A   1      50.852  26.819  27.430  1.00  0.00     0.041 A 
ATOM     81  F   UNL A   1      49.189  26.933  29.080  1.00  0.00    -0.206 F 
ATOM     82  C   UNL A   1      51.248  26.982  26.105  1.00  0.00     0.022 A 
BRANCH  79  83
ATOM     83  S   UNL A   1      50.827  27.546  23.437  1.00  0.00     0.124 S 
ATOM     84  O   UNL A   1      49.655  26.952  22.800  1.00  0.00    -0.237 OA
ATOM     85  O   UNL A   1      51.026  28.972  23.189  1.00  0.00    -0.237 OA
ATOM     86  O   UNL A   1      52.042  26.738  23.405  1.00  0.00    -0.744 OA
ENDBRANCH  79  83
ENDBRANCH  52  76
BRANCH  64  87
ATOM     87  C   UNL A   1      45.140  33.207  29.630  1.00  0.00     0.023 A 
ATOM     88  C   UNL A   1      45.067  34.232  28.667  1.00  0.00     0.031 A 
ATOM     89  C   UNL A   1      45.723  33.502  30.874  1.00  0.00     0.131 A 
ATOM     90  C   UNL A   1      45.608  35.492  28.948  1.00  0.00     0.055 A 
ATOM     91  C   UNL A   1      46.219  34.774  31.166  1.00  0.00     0.041 A 
ATOM     92  F   UNL A   1      45.826  32.556  31.820  1.00  0.00    -0.206 F 
ATOM     93  C   UNL A   1      46.178  35.771  30.195  1.00  0.00     0.022 A 
BRANCH  90  94
ATOM     94  S   UNL A   1      45.678  36.787  27.678  1.00  0.00     0.124 S 
ATOM     95  O   UNL A   1      44.314  36.768  27.154  1.00  0.00    -0.237 OA
ATOM     96  O   UNL A   1      46.029  37.968  28.462  1.00  0.00    -0.237 OA
ATOM     97  O   UNL A   1      46.705  36.319  26.754  1.00  0.00    -0.744 OA
ENDBRANCH  90  94
ENDBRANCH  64  87
ENDBRANCH  38  39
ENDBRANCH  30  33
ENDBRANCH  28  29
ENDBRANCH  27  28
ENDBRANCH   1  27
TORSDOF 19
ENDMDL
MODEL 3
REMARK VINA RESULT:     -11.4      3.262      4.230
REMARK SMILES CCCc1cc2c(cc1Cl)C=C(C(=O)NCCCCCCNC(=O)c1ccc(-c3c4nc(c(-c5cc(S(=O)(=O)[O-])ccc5F)c5ccc([nH]5)c(-c5cc(S(=O)(=O)[O-])ccc5F)c5nc(c(-c6cc(S(=O)(=O)[O-])ccc6F)c6ccc3[nH]6)C=C5)C=C4)cc1)[C@@H](C(F)(F)F)O2
REMARK SMILES IDX 19 1 18 2 17 3 16 4 15 5 13 6 14 7 12 9 4 10 5 11 9 12 6 13
REMARK SMILES IDX 8 14 10 15 7 16 93 17 11 18 88 19 3 20 2 21 1 22 89 23 90 24
REMARK SMILES IDX 91 25 92 26 20 27 21 28 22 29 23 30 24 32 25 33 26 34 87 35
REMARK SMILES IDX 27 36 86 37 28 38 29 39 30 40 80 41 31 42 85 43 79 44 81 45
REMARK SMILES IDX 32 46 84 47 78 48 77 49 33 51 65 52 45 53 64 54 46 55 49 56
REMARK SMILES IDX 63 57 82 58 47 59 48 60 62 62 83 63 50 64 34 65 35 66 43 67
REMARK SMILES IDX 36 68 42 69 44 70 41 71 37 72 38 73 39 74 40 75 66 76 67 77
REMARK SMILES IDX 75 78 68 79 74 80 76 81 73 82 69 83 70 84 71 85 72 86 51 87
REMARK SMILES IDX 52 88 60 89 53 90 59 91 61 92 58 93 54 94 55 95 56 96 57 97
REMARK H PARENT 15 8 22 31 81 50 49 61
REMARK Flexibility Score: inf
ROOT
ATOM      1  C   UNL A   1      35.091  21.793  24.640  1.00  0.00     0.002 C 
ENDROOT
BRANCH   1   2
ATOM      2  C   UNL A   1      34.002  22.150  23.618  1.00  0.00     0.002 C 
BRANCH   2   3
ATOM      3  C   UNL A   1      32.643  21.478  23.833  1.00  0.00     0.021 C 
BRANCH   3   4
ATOM      4  C   UNL A   1      31.498  22.448  24.113  1.00  0.00     0.116 C 
BRANCH   4   5
ATOM      5  N   UNL A   1      31.539  22.962  25.472  1.00  0.00    -0.352 N 
ATOM      6  C   UNL A   1      31.481  24.170  26.078  1.00  0.00     0.251 C 
ATOM      7  O   UNL A   1      31.516  24.138  27.313  1.00  0.00    -0.270 OA
ATOM      8  H   UNL A   1      31.635  22.234  26.129  1.00  0.00     0.163 HD
BRANCH   6   9
ATOM      9  C   UNL A   1      31.388  25.491  25.382  1.00  0.00     0.067 C 
ATOM     10  C   UNL A   1      29.634  29.621  23.040  1.00  0.00    -0.026 A 
ATOM     11  C   UNL A   1      30.854  29.256  23.628  1.00  0.00     0.052 A 
ATOM     12  C   UNL A   1      28.596  28.677  23.027  1.00  0.00     0.045 A 
ATOM     13  C   UNL A   1      31.019  28.004  24.212  1.00  0.00     0.128 A 
ATOM     14  C   UNL A   1      28.771  27.411  23.606  1.00  0.00     0.032 A 
ATOM     15  Cl  UNL A   1      27.056  29.029  22.328  1.00  0.00    -0.084 Cl
ATOM     16  C   UNL A   1      29.983  27.076  24.214  1.00  0.00     0.019 A 
ATOM     17  O   UNL A   1      32.216  27.790  24.824  1.00  0.00    -0.475 OA
ATOM     18  C   UNL A   1      30.169  25.806  24.904  1.00  0.00     0.025 C 
ATOM     19  C   UNL A   1      32.551  26.422  25.171  1.00  0.00     0.314 C 
BRANCH  10  20
ATOM     20  C   UNL A   1      29.496  31.030  22.517  1.00  0.00     0.037 C 
BRANCH  20  21
ATOM     21  C   UNL A   1      28.636  31.928  23.417  1.00  0.00     0.001 C 
ATOM     22  C   UNL A   1      28.778  33.417  23.119  1.00  0.00     0.004 C 
ENDBRANCH  20  21
ENDBRANCH  10  20
BRANCH  19  23
ATOM     23  C   UNL A   1      33.557  25.892  24.136  1.00  0.00     0.429 C 
ATOM     24  F   UNL A   1      34.510  25.140  24.738  1.00  0.00    -0.167 F 
ATOM     25  F   UNL A   1      32.976  25.099  23.205  1.00  0.00    -0.167 F 
ATOM     26  F   UNL A   1      34.182  26.889  23.470  1.00  0.00    -0.167 F 
ENDBRANCH  19  23
ENDBRANCH   6   9
ENDBRANCH   4   5
ENDBRANCH   3   4
ENDBRANCH   2   3
ENDBRANCH   1   2
BRANCH   1  27
ATOM     27  C   UNL A   1      36.536  21.990  24.174  1.00  0.00     0.021 C 
BRANCH  27  28
ATOM     28  C   UNL A   1      37.478  22.580  25.217  1.00  0.00     0.116 C 
BRANCH  28  29
ATOM     29  N   UNL A   1      38.418  21.603  25.741  1.00  0.00    -0.352 N 
ATOM     30  C   UNL A   1      39.547  21.809  26.501  1.00  0.00     0.251 C 
ATOM     31  H   UNL A   1      38.221  20.665  25.521  1.00  0.00     0.163 HD
ATOM     32  O   UNL A   1      40.307  20.873  26.731  1.00  0.00    -0.269 OA
BRANCH  30  33
ATOM     33  C   UNL A   1      39.852  23.167  27.002  1.00  0.00     0.039 A 
ATOM     34  C   UNL A   1      39.197  24.284  26.480  1.00  0.00     0.014 A 
ATOM     35  C   UNL A   1      40.830  23.325  27.989  1.00  0.00     0.014 A 
ATOM     36  C   UNL A   1      39.633  25.561  26.821  1.00  0.00     0.010 A 
ATOM     37  C   UNL A   1      41.210  24.608  28.389  1.00  0.00     0.010 A 
ATOM     38  C   UNL A   1      40.651  25.739  27.773  1.00  0.00    -0.014 A 
BRANCH  38  39
ATOM     39  C   UNL A   1      41.108  27.113  28.109  1.00  0.00     0.031 A 
ATOM     40  C   UNL A   1      40.143  28.139  28.637  1.00  0.00     0.074 A 
ATOM     41  C   UNL A   1      42.415  27.418  27.983  1.00  0.00     0.049 A 
ATOM     42  N   UNL A   1      40.378  29.369  29.018  1.00  0.00    -0.248 NA
ATOM     43  C   UNL A   1      38.732  27.737  28.754  1.00  0.00     0.031 C 
ATOM     44  C   UNL A   1      43.439  26.500  27.484  1.00  0.00     0.029 A 
ATOM     45  N   UNL A   1      43.110  28.563  28.283  1.00  0.00    -0.354 N 
ATOM     46  C   UNL A   1      39.148  29.892  29.404  1.00  0.00     0.074 A 
ATOM     47  C   UNL A   1      38.162  28.858  29.179  1.00  0.00     0.031 C 
ATOM     48  C   UNL A   1      44.637  27.095  27.562  1.00  0.00     0.029 A 
ATOM     49  C   UNL A   1      44.463  28.461  28.051  1.00  0.00     0.049 A 
ATOM     50  H   UNL A   1      42.682  29.379  28.629  1.00  0.00     0.167 HD
ATOM     51  C   UNL A   1      38.872  31.117  29.914  1.00  0.00     0.034 A 
ATOM     52  C   UNL A   1      45.455  29.363  28.206  1.00  0.00     0.034 A 
ATOM     53  C   UNL A   1      39.869  32.130  30.149  1.00  0.00     0.049 A 
ATOM     54  C   UNL A   1      45.117  30.726  28.753  1.00  0.00     0.074 A 
ATOM     55  C   UNL A   1      39.690  33.394  30.685  1.00  0.00     0.029 A 
ATOM     56  N   UNL A   1      41.224  32.002  29.876  1.00  0.00    -0.354 N 
ATOM     57  N   UNL A   1      43.956  31.187  29.152  1.00  0.00    -0.248 NA
ATOM     58  C   UNL A   1      46.217  31.692  28.872  1.00  0.00     0.031 C 
ATOM     59  C   UNL A   1      40.923  34.048  30.682  1.00  0.00     0.029 A 
ATOM     60  C   UNL A   1      41.886  33.171  30.210  1.00  0.00     0.049 A 
ATOM     61  H   UNL A   1      41.650  31.198  29.499  1.00  0.00     0.167 HD
ATOM     62  C   UNL A   1      44.188  32.489  29.587  1.00  0.00     0.074 A 
ATOM     63  C   UNL A   1      45.607  32.731  29.427  1.00  0.00     0.031 C 
ATOM     64  C   UNL A   1      43.304  33.400  30.065  1.00  0.00     0.034 A 
BRANCH  51  65
ATOM     65  C   UNL A   1      37.445  31.447  30.274  1.00  0.00     0.023 A 
ATOM     66  C   UNL A   1      36.601  32.055  29.325  1.00  0.00     0.031 A 
ATOM     67  C   UNL A   1      36.964  31.289  31.586  1.00  0.00     0.131 A 
ATOM     68  C   UNL A   1      35.334  32.511  29.710  1.00  0.00     0.055 A 
ATOM     69  C   UNL A   1      35.687  31.711  31.956  1.00  0.00     0.041 A 
ATOM     70  F   UNL A   1      37.732  30.715  32.527  1.00  0.00    -0.206 F 
ATOM     71  C   UNL A   1      34.871  32.337  31.019  1.00  0.00     0.022 A 
BRANCH  68  72
ATOM     72  S   UNL A   1      34.264  33.404  28.550  1.00  0.00     0.124 S 
ATOM     73  O   UNL A   1      35.235  33.943  27.601  1.00  0.00    -0.237 OA
ATOM     74  O   UNL A   1      33.414  32.335  28.032  1.00  0.00    -0.237 OA
ATOM     75  O   UNL A   1      33.593  34.397  29.382  1.00  0.00    -0.744 OA
ENDBRANCH  68  72
ENDBRANCH  51  65
BRANCH  52  76
ATOM     76  C   UNL A   1      46.855  28.964  27.879  1.00  0.00     0.023 A 
ATOM     77  C   UNL A   1      47.246  28.721  26.549  1.00  0.00     0.031 A 
ATOM     78  C   UNL A   1      47.786  28.705  28.899  1.00  0.00     0.131 A 
ATOM     79  C   UNL A   1      48.501  28.159  26.283  1.00  0.00     0.055 A 
ATOM     80  C   UNL A   1      49.064  28.217  28.623  1.00  0.00     0.041 A 
ATOM     81  F   UNL A   1      47.457  28.910  30.183  1.00  0.00    -0.206 F 
ATOM     82  C   UNL A   1      49.420  27.921  27.309  1.00  0.00     0.022 A 
BRANCH  79  83
ATOM     83  S   UNL A   1      48.921  27.575  24.617  1.00  0.00     0.124 S 
ATOM     84  O   UNL A   1      48.936  26.127  24.797  1.00  0.00    -0.237 OA
ATOM     85  O   UNL A   1      47.810  28.102  23.827  1.00  0.00    -0.237 OA
ATOM     86  O   UNL A   1      50.215  28.194  24.351  1.00  0.00    -0.744 OA
ENDBRANCH  79  83
ENDBRANCH  52  76
BRANCH  64  87
ATOM     87  C   UNL A   1      43.816  34.762  30.466  1.00  0.00     0.023 A 
ATOM     88  C   UNL A   1      44.070  35.047  31.822  1.00  0.00     0.031 A 
ATOM     89  C   UNL A   1      43.897  35.814  29.539  1.00  0.00     0.131 A 
ATOM     90  C   UNL A   1      44.350  36.360  32.218  1.00  0.00     0.055 A 
ATOM     91  C   UNL A   1      44.223  37.113  29.932  1.00  0.00     0.041 A 
ATOM     92  F   UNL A   1      43.653  35.595  28.237  1.00  0.00    -0.206 F 
ATOM     93  C   UNL A   1      44.435  37.394  31.279  1.00  0.00     0.022 A 
BRANCH  90  94
ATOM     94  S   UNL A   1      44.523  36.794  33.971  1.00  0.00     0.124 S 
ATOM     95  O   UNL A   1      44.003  38.159  33.997  1.00  0.00    -0.237 OA
ATOM     96  O   UNL A   1      43.679  35.793  34.620  1.00  0.00    -0.237 OA
ATOM     97  O   UNL A   1      45.954  36.669  34.226  1.00  0.00    -0.744 OA
ENDBRANCH  90  94
ENDBRANCH  64  87
ENDBRANCH  38  39
ENDBRANCH  30  33
ENDBRANCH  28  29
ENDBRANCH  27  28
ENDBRANCH   1  27
TORSDOF 19
ENDMDL
