MODEL 1
REMARK VINA RESULT:     -13.5      0.000      0.000
REMARK SMILES O=C(NCCCCCCNC(=O)c1ccn(-c2cc(-c3ccncc3)nc(-c3ccccc3F)n2)n1)c1ccc(-c2c3nc(c(-c4cc(S(=O)(=O)[O-])ccc4F)c4ccc([nH]4)c(-c4cc(S(=O)(=O)[O-])ccc4F)c4nc(c(-c5cc(S(=O)(=O)[O-])ccc5F)c5ccc2[nH]5)C=C4)C=C3)cc1
REMARK SMILES IDX 6 1 5 2 4 3 3 4 1 5 2 6 37 8 38 9 99 10 39 11 98 12 40 13
REMARK SMILES IDX 41 14 42 15 92 16 43 17 97 18 91 19 93 20 44 21 96 22 90 23
REMARK SMILES IDX 89 24 45 26 77 27 57 28 76 29 58 30 61 31 75 32 94 33 59 34
REMARK SMILES IDX 60 35 74 37 95 38 62 39 46 40 47 41 55 42 48 43 54 44 56 45
REMARK SMILES IDX 53 46 49 47 50 48 51 49 52 50 78 51 79 52 87 53 80 54 86 55
REMARK SMILES IDX 88 56 85 57 81 58 82 59 83 60 84 61 63 62 64 63 72 64 65 65
REMARK SMILES IDX 71 66 73 67 70 68 66 69 67 70 68 71 69 72 7 73 8 74 9 75
REMARK SMILES IDX 10 76 11 77 12 79 13 80 14 81 36 82 15 83 16 84 17 85 18 86
REMARK SMILES IDX 35 87 19 88 27 89 26 90 20 91 21 92 25 93 22 94 24 95 23 96
REMARK SMILES IDX 28 97 29 98 33 99 30 100 32 101 34 102 31 103
REMARK H PARENT 3 7 93 25 61 36 10 78
REMARK Flexibility Score: inf
ROOT
ATOM      1  C   UNL A   1      32.060  28.240  26.295  1.00  0.00     0.002 C 
ENDROOT
BRANCH   1   2
ATOM      2  C   UNL A   1      32.783  28.908  27.471  1.00  0.00     0.021 C 
BRANCH   2   3
ATOM      3  C   UNL A   1      34.061  29.652  27.093  1.00  0.00     0.116 C 
BRANCH   3   4
ATOM      4  N   UNL A   1      34.289  30.871  27.837  1.00  0.00    -0.352 N 
ATOM      5  O   UNL A   1      35.260  32.561  28.878  1.00  0.00    -0.269 OA
ATOM      6  C   UNL A   1      35.367  31.392  28.498  1.00  0.00     0.251 C 
ATOM      7  H   UNL A   1      33.495  31.452  27.877  1.00  0.00     0.163 HD
BRANCH   6   8
ATOM      8  C   UNL A   1      36.592  30.624  28.859  1.00  0.00     0.039 A 
ATOM      9  C   UNL A   1      36.658  29.253  29.112  1.00  0.00     0.014 A 
ATOM     10  C   UNL A   1      37.772  31.384  28.959  1.00  0.00     0.014 A 
ATOM     11  C   UNL A   1      37.849  28.674  29.550  1.00  0.00     0.010 A 
ATOM     12  C   UNL A   1      38.965  30.812  29.388  1.00  0.00     0.010 A 
ATOM     13  C   UNL A   1      38.998  29.458  29.712  1.00  0.00    -0.014 A 
BRANCH  13  14
ATOM     14  C   UNL A   1      40.286  28.785  29.910  1.00  0.00     0.031 A 
ATOM     15  C   UNL A   1      40.656  28.708  31.356  1.00  0.00     0.074 A 
ATOM     16  C   UNL A   1      40.974  28.138  28.942  1.00  0.00     0.049 A 
ATOM     17  N   UNL A   1      41.675  29.239  31.947  1.00  0.00    -0.248 NA
ATOM     18  C   UNL A   1      39.675  28.121  32.292  1.00  0.00     0.031 C 
ATOM     19  C   UNL A   1      40.574  27.950  27.546  1.00  0.00     0.029 A 
ATOM     20  N   UNL A   1      42.140  27.422  29.010  1.00  0.00    -0.354 N 
ATOM     21  C   UNL A   1      41.602  28.810  33.270  1.00  0.00     0.074 A 
ATOM     22  C   UNL A   1      40.262  28.334  33.469  1.00  0.00     0.031 C 
ATOM     23  C   UNL A   1      41.347  26.995  26.977  1.00  0.00     0.029 A 
ATOM     24  C   UNL A   1      42.370  26.572  27.920  1.00  0.00     0.049 A 
ATOM     25  H   UNL A   1      42.765  27.498  29.767  1.00  0.00     0.167 HD
ATOM     26  C   UNL A   1      42.732  28.581  33.992  1.00  0.00     0.034 A 
ATOM     27  C   UNL A   1      43.298  25.570  27.814  1.00  0.00     0.034 A 
ATOM     28  C   UNL A   1      43.851  29.320  33.460  1.00  0.00     0.049 A 
ATOM     29  C   UNL A   1      44.354  25.878  28.811  1.00  0.00     0.074 A 
ATOM     30  C   UNL A   1      44.078  30.654  33.174  1.00  0.00     0.029 A 
ATOM     31  N   UNL A   1      44.810  28.627  32.760  1.00  0.00    -0.354 N 
ATOM     32  N   UNL A   1      45.121  26.932  28.747  1.00  0.00    -0.248 NA
ATOM     33  C   UNL A   1      44.217  25.275  30.126  1.00  0.00     0.031 C 
ATOM     34  C   UNL A   1      44.789  30.647  31.939  1.00  0.00     0.029 A 
ATOM     35  C   UNL A   1      45.045  29.318  31.597  1.00  0.00     0.049 A 
ATOM     36  H   UNL A   1      45.248  27.791  33.039  1.00  0.00     0.167 HD
ATOM     37  C   UNL A   1      45.201  27.382  30.055  1.00  0.00     0.074 A 
ATOM     38  C   UNL A   1      44.673  26.285  30.869  1.00  0.00     0.031 C 
ATOM     39  C   UNL A   1      45.417  28.697  30.343  1.00  0.00     0.034 A 
BRANCH  26  40
ATOM     40  C   UNL A   1      42.901  27.374  34.891  1.00  0.00     0.023 A 
ATOM     41  C   UNL A   1      43.682  26.303  34.420  1.00  0.00     0.031 A 
ATOM     42  C   UNL A   1      42.108  27.102  36.033  1.00  0.00     0.131 A 
ATOM     43  C   UNL A   1      43.603  25.035  35.026  1.00  0.00     0.055 A 
ATOM     44  C   UNL A   1      42.082  25.858  36.668  1.00  0.00     0.041 A 
ATOM     45  F   UNL A   1      41.239  27.981  36.543  1.00  0.00    -0.206 F 
ATOM     46  C   UNL A   1      42.812  24.807  36.149  1.00  0.00     0.022 A 
BRANCH  43  47
ATOM     47  S   UNL A   1      44.449  23.643  34.236  1.00  0.00     0.124 S 
ATOM     48  O   UNL A   1      44.524  22.685  35.334  1.00  0.00    -0.237 OA
ATOM     49  O   UNL A   1      43.531  23.308  33.152  1.00  0.00    -0.237 OA
ATOM     50  O   UNL A   1      45.724  24.217  33.813  1.00  0.00    -0.744 OA
ENDBRANCH  43  47
ENDBRANCH  26  40
BRANCH  27  51
ATOM     51  C   UNL A   1      43.172  24.212  27.178  1.00  0.00     0.023 A 
ATOM     52  C   UNL A   1      43.992  23.790  26.095  1.00  0.00     0.031 A 
ATOM     53  C   UNL A   1      42.421  23.196  27.807  1.00  0.00     0.131 A 
ATOM     54  C   UNL A   1      44.042  22.424  25.708  1.00  0.00     0.055 A 
ATOM     55  C   UNL A   1      42.476  21.851  27.423  1.00  0.00     0.041 A 
ATOM     56  F   UNL A   1      41.666  23.449  28.886  1.00  0.00    -0.206 F 
ATOM     57  C   UNL A   1      43.296  21.456  26.381  1.00  0.00     0.022 A 
BRANCH  54  58
ATOM     58  S   UNL A   1      45.172  21.842  24.393  1.00  0.00     0.124 S 
ATOM     59  O   UNL A   1      46.404  21.595  25.134  1.00  0.00    -0.237 OA
ATOM     60  O   UNL A   1      44.482  20.668  23.872  1.00  0.00    -0.237 OA
ATOM     61  O   UNL A   1      45.229  22.975  23.468  1.00  0.00    -0.744 OA
ENDBRANCH  54  58
ENDBRANCH  27  51
BRANCH  39  62
ATOM     62  C   UNL A   1      45.921  29.628  29.263  1.00  0.00     0.023 A 
ATOM     63  C   UNL A   1      45.120  30.428  28.416  1.00  0.00     0.031 A 
ATOM     64  C   UNL A   1      47.312  29.839  29.247  1.00  0.00     0.131 A 
ATOM     65  C   UNL A   1      45.732  31.412  27.605  1.00  0.00     0.055 A 
ATOM     66  C   UNL A   1      47.906  30.823  28.464  1.00  0.00     0.041 A 
ATOM     67  F   UNL A   1      48.115  29.123  30.052  1.00  0.00    -0.206 F 
ATOM     68  C   UNL A   1      47.116  31.616  27.642  1.00  0.00     0.022 A 
BRANCH  65  69
ATOM     69  S   UNL A   1      44.735  32.492  26.523  1.00  0.00     0.124 S 
ATOM     70  O   UNL A   1      45.724  33.053  25.611  1.00  0.00    -0.237 OA
ATOM     71  O   UNL A   1      43.771  31.565  25.936  1.00  0.00    -0.237 OA
ATOM     72  O   UNL A   1      44.147  33.461  27.451  1.00  0.00    -0.744 OA
ENDBRANCH  65  69
ENDBRANCH  39  62
ENDBRANCH  13  14
ENDBRANCH   6   8
ENDBRANCH   3   4
ENDBRANCH   2   3
ENDBRANCH   1   2
BRANCH   1  73
ATOM     73  C   UNL A   1      31.278  29.187  25.377  1.00  0.00     0.002 C 
BRANCH  73  74
ATOM     74  C   UNL A   1      31.675  29.139  23.898  1.00  0.00     0.021 C 
BRANCH  74  75
ATOM     75  C   UNL A   1      32.341  27.832  23.467  1.00  0.00     0.116 C 
BRANCH  75  76
ATOM     76  N   UNL A   1      31.863  27.419  22.161  1.00  0.00    -0.351 N 
ATOM     77  C   UNL A   1      31.754  26.143  21.674  1.00  0.00     0.271 C 
ATOM     78  H   UNL A   1      31.583  28.140  21.552  1.00  0.00     0.163 HD
ATOM     79  O   UNL A   1      31.585  25.973  20.460  1.00  0.00    -0.267 OA
BRANCH  77  80
ATOM     80  C   UNL A   1      31.787  25.032  22.624  1.00  0.00     0.150 A 
ATOM     81  C   UNL A   1      30.664  24.366  23.183  1.00  0.00     0.056 A 
ATOM     82  N   UNL A   1      32.938  24.491  23.066  1.00  0.00    -0.161 NA
ATOM     83  C   UNL A   1      31.187  23.295  23.862  1.00  0.00     0.118 A 
ATOM     84  N   UNL A   1      32.552  23.372  23.726  1.00  0.00    -0.222 N 
BRANCH  84  85
ATOM     85  C   UNL A   1      33.488  22.403  24.175  1.00  0.00     0.158 A 
ATOM     86  C   UNL A   1      33.085  21.088  24.271  1.00  0.00     0.078 A 
ATOM     87  N   UNL A   1      34.733  22.823  24.483  1.00  0.00    -0.209 NA
ATOM     88  C   UNL A   1      34.056  20.192  24.665  1.00  0.00     0.077 A 
ATOM     89  C   UNL A   1      35.574  21.887  24.947  1.00  0.00     0.165 A 
ATOM     90  N   UNL A   1      35.289  20.578  25.050  1.00  0.00    -0.228 NA
BRANCH  88  91
ATOM     91  C   UNL A   1      33.830  18.745  24.632  1.00  0.00     0.003 A 
ATOM     92  C   UNL A   1      32.546  18.215  24.814  1.00  0.00     0.030 A 
ATOM     93  C   UNL A   1      34.879  17.853  24.392  1.00  0.00     0.030 A 
ATOM     94  C   UNL A   1      32.372  16.842  24.759  1.00  0.00     0.111 A 
ATOM     95  C   UNL A   1      34.608  16.495  24.365  1.00  0.00     0.111 A 
ATOM     96  N   UNL A   1      33.379  15.968  24.547  1.00  0.00    -0.265 NA
ENDBRANCH  88  91
BRANCH  89  97
ATOM     97  C   UNL A   1      36.846  22.351  25.481  1.00  0.00     0.055 A 
ATOM     98  C   UNL A   1      36.984  23.655  25.993  1.00  0.00     0.015 A 
ATOM     99  C   UNL A   1      37.968  21.518  25.499  1.00  0.00     0.134 A 
ATOM    100  C   UNL A   1      38.204  24.099  26.514  1.00  0.00     0.001 A 
ATOM    101  C   UNL A   1      39.190  21.958  26.007  1.00  0.00     0.040 A 
ATOM    102  F   UNL A   1      37.898  20.276  24.999  1.00  0.00    -0.206 F 
ATOM    103  C   UNL A   1      39.307  23.248  26.520  1.00  0.00     0.003 A 
ENDBRANCH  89  97
ENDBRANCH  84  85
ENDBRANCH  77  80
ENDBRANCH  75  76
ENDBRANCH  74  75
ENDBRANCH  73  74
ENDBRANCH   1  73
TORSDOF 19
ENDMDL
MODEL 2
REMARK VINA RESULT:     -13.3      3.479      9.883
REMARK SMILES O=C(NCCCCCCNC(=O)c1ccn(-c2cc(-c3ccncc3)nc(-c3ccccc3F)n2)n1)c1ccc(-c2c3nc(c(-c4cc(S(=O)(=O)[O-])ccc4F)c4ccc([nH]4)c(-c4cc(S(=O)(=O)[O-])ccc4F)c4nc(c(-c5cc(S(=O)(=O)[O-])ccc5F)c5ccc2[nH]5)C=C4)C=C3)cc1
REMARK SMILES IDX 6 1 5 2 4 3 3 4 1 5 2 6 37 8 38 9 99 10 39 11 98 12 40 13
REMARK SMILES IDX 41 14 42 15 92 16 43 17 97 18 91 19 93 20 44 21 96 22 90 23
REMARK SMILES IDX 89 24 45 26 77 27 57 28 76 29 58 30 61 31 75 32 94 33 59 34
REMARK SMILES IDX 60 35 74 37 95 38 62 39 46 40 47 41 55 42 48 43 54 44 56 45
REMARK SMILES IDX 53 46 49 47 50 48 51 49 52 50 78 51 79 52 87 53 80 54 86 55
REMARK SMILES IDX 88 56 85 57 81 58 82 59 83 60 84 61 63 62 64 63 72 64 65 65
REMARK SMILES IDX 71 66 73 67 70 68 66 69 67 70 68 71 69 72 7 73 8 74 9 75
REMARK SMILES IDX 10 76 11 77 12 79 13 80 14 81 36 82 15 83 16 84 17 85 18 86
REMARK SMILES IDX 35 87 19 88 27 89 26 90 20 91 21 92 25 93 22 94 24 95 23 96
REMARK SMILES IDX 28 97 29 98 33 99 30 100 32 101 34 102 31 103
REMARK H PARENT 3 7 93 25 61 36 10 78
REMARK Flexibility Score: inf
ROOT
ATOM      1  C   UNL A   1      36.896  20.796  25.026  1.00  0.00     0.002 C 
ENDROOT
BRANCH   1   2
ATOM      2  C   UNL A   1      37.148  22.281  24.740  1.00  0.00     0.021 C 
BRANCH   2   3
ATOM      3  C   UNL A   1      37.738  23.064  25.910  1.00  0.00     0.116 C 
BRANCH   3   4
ATOM      4  N   UNL A   1      38.986  22.538  26.416  1.00  0.00    -0.352 N 
ATOM      5  O   UNL A   1      40.814  22.222  27.618  1.00  0.00    -0.269 OA
ATOM      6  C   UNL A   1      39.951  23.026  27.254  1.00  0.00     0.251 C 
ATOM      7  H   UNL A   1      39.185  21.632  26.086  1.00  0.00     0.163 HD
BRANCH   6   8
ATOM      8  C   UNL A   1      40.074  24.453  27.665  1.00  0.00     0.039 A 
ATOM      9  C   UNL A   1      39.163  25.472  27.380  1.00  0.00     0.014 A 
ATOM     10  C   UNL A   1      41.234  24.772  28.395  1.00  0.00     0.014 A 
ATOM     11  C   UNL A   1      39.451  26.791  27.729  1.00  0.00     0.010 A 
ATOM     12  C   UNL A   1      41.523  26.085  28.753  1.00  0.00     0.010 A 
ATOM     13  C   UNL A   1      40.643  27.102  28.394  1.00  0.00    -0.014 A 
BRANCH  13  14
ATOM     14  C   UNL A   1      40.793  28.439  28.980  1.00  0.00     0.031 A 
ATOM     15  C   UNL A   1      41.981  29.158  28.428  1.00  0.00     0.074 A 
ATOM     16  C   UNL A   1      39.878  29.038  29.776  1.00  0.00     0.049 A 
ATOM     17  N   UNL A   1      43.031  29.566  29.061  1.00  0.00    -0.248 NA
ATOM     18  C   UNL A   1      42.097  29.277  26.960  1.00  0.00     0.031 C 
ATOM     19  C   UNL A   1      38.572  28.511  30.176  1.00  0.00     0.029 A 
ATOM     20  N   UNL A   1      39.867  30.293  30.326  1.00  0.00    -0.354 N 
ATOM     21  C   UNL A   1      43.799  30.237  28.112  1.00  0.00     0.074 A 
ATOM     22  C   UNL A   1      43.300  29.834  26.827  1.00  0.00     0.031 C 
ATOM     23  C   UNL A   1      37.819  29.509  30.696  1.00  0.00     0.029 A 
ATOM     24  C   UNL A   1      38.612  30.727  30.771  1.00  0.00     0.049 A 
ATOM     25  H   UNL A   1      40.678  30.846  30.401  1.00  0.00     0.167 HD
ATOM     26  C   UNL A   1      44.558  31.310  28.464  1.00  0.00     0.034 A 
ATOM     27  C   UNL A   1      38.237  31.994  31.132  1.00  0.00     0.034 A 
ATOM     28  C   UNL A   1      44.881  31.284  29.869  1.00  0.00     0.049 A 
ATOM     29  C   UNL A   1      39.489  32.710  31.483  1.00  0.00     0.074 A 
ATOM     30  C   UNL A   1      45.470  30.355  30.707  1.00  0.00     0.029 A 
ATOM     31  N   UNL A   1      44.227  32.163  30.700  1.00  0.00    -0.354 N 
ATOM     32  N   UNL A   1      40.250  32.382  32.491  1.00  0.00    -0.248 NA
ATOM     33  C   UNL A   1      40.134  33.469  30.424  1.00  0.00     0.031 C 
ATOM     34  C   UNL A   1      44.711  30.417  31.912  1.00  0.00     0.029 A 
ATOM     35  C   UNL A   1      43.777  31.446  31.780  1.00  0.00     0.049 A 
ATOM     36  H   UNL A   1      44.103  33.128  30.548  1.00  0.00     0.167 HD
ATOM     37  C   UNL A   1      41.541  32.496  32.002  1.00  0.00     0.074 A 
ATOM     38  C   UNL A   1      41.409  33.228  30.740  1.00  0.00     0.031 C 
ATOM     39  C   UNL A   1      42.562  31.748  32.508  1.00  0.00     0.034 A 
BRANCH  26  40
ATOM     40  C   UNL A   1      44.631  32.572  27.629  1.00  0.00     0.023 A 
ATOM     41  C   UNL A   1      43.894  33.691  28.056  1.00  0.00     0.031 A 
ATOM     42  C   UNL A   1      45.136  32.636  26.307  1.00  0.00     0.131 A 
ATOM     43  C   UNL A   1      43.633  34.758  27.177  1.00  0.00     0.055 A 
ATOM     44  C   UNL A   1      44.927  33.727  25.460  1.00  0.00     0.041 A 
ATOM     45  F   UNL A   1      45.772  31.617  25.719  1.00  0.00    -0.206 F 
ATOM     46  C   UNL A   1      44.148  34.786  25.884  1.00  0.00     0.022 A 
BRANCH  43  47
ATOM     47  S   UNL A   1      42.487  36.056  27.706  1.00  0.00     0.124 S 
ATOM     48  O   UNL A   1      42.722  37.083  26.697  1.00  0.00    -0.237 OA
ATOM     49  O   UNL A   1      41.201  35.369  27.637  1.00  0.00    -0.237 OA
ATOM     50  O   UNL A   1      42.943  36.383  29.054  1.00  0.00    -0.744 OA
ENDBRANCH  43  47
ENDBRANCH  26  40
BRANCH  27  51
ATOM     51  C   UNL A   1      36.947  32.723  30.867  1.00  0.00     0.023 A 
ATOM     52  C   UNL A   1      36.161  33.298  31.904  1.00  0.00     0.031 A 
ATOM     53  C   UNL A   1      36.600  33.107  29.554  1.00  0.00     0.131 A 
ATOM     54  C   UNL A   1      35.113  34.209  31.604  1.00  0.00     0.055 A 
ATOM     55  C   UNL A   1      35.568  34.007  29.265  1.00  0.00     0.041 A 
ATOM     56  F   UNL A   1      37.309  32.694  28.494  1.00  0.00    -0.206 F 
ATOM     57  C   UNL A   1      34.828  34.573  30.288  1.00  0.00     0.022 A 
BRANCH  54  58
ATOM     58  S   UNL A   1      34.164  35.045  32.926  1.00  0.00     0.124 S 
ATOM     59  O   UNL A   1      34.756  36.378  32.933  1.00  0.00    -0.237 OA
ATOM     60  O   UNL A   1      32.791  34.948  32.446  1.00  0.00    -0.237 OA
ATOM     61  O   UNL A   1      34.453  34.239  34.114  1.00  0.00    -0.744 OA
ENDBRANCH  54  58
ENDBRANCH  27  51
BRANCH  39  62
ATOM     62  C   UNL A   1      42.389  31.043  33.834  1.00  0.00     0.023 A 
ATOM     63  C   UNL A   1      42.337  29.643  34.030  1.00  0.00     0.031 A 
ATOM     64  C   UNL A   1      42.478  31.863  34.972  1.00  0.00     0.131 A 
ATOM     65  C   UNL A   1      42.393  29.121  35.343  1.00  0.00     0.055 A 
ATOM     66  C   UNL A   1      42.556  31.344  36.260  1.00  0.00     0.041 A 
ATOM     67  F   UNL A   1      42.557  33.199  34.841  1.00  0.00    -0.206 F 
ATOM     68  C   UNL A   1      42.517  29.969  36.450  1.00  0.00     0.022 A 
BRANCH  65  69
ATOM     69  S   UNL A   1      42.364  27.321  35.642  1.00  0.00     0.124 S 
ATOM     70  O   UNL A   1      40.994  26.950  35.308  1.00  0.00    -0.237 OA
ATOM     71  O   UNL A   1      43.402  26.824  34.742  1.00  0.00    -0.237 OA
ATOM     72  O   UNL A   1      42.696  27.202  37.064  1.00  0.00    -0.744 OA
ENDBRANCH  65  69
ENDBRANCH  39  62
ENDBRANCH  13  14
ENDBRANCH   6   8
ENDBRANCH   3   4
ENDBRANCH   2   3
ENDBRANCH   1   2
BRANCH   1  73
ATOM     73  C   UNL A   1      35.427  20.359  24.999  1.00  0.00     0.002 C 
BRANCH  73  74
ATOM     74  C   UNL A   1      34.411  21.460  25.322  1.00  0.00     0.021 C 
BRANCH  74  75
ATOM     75  C   UNL A   1      33.169  21.452  24.431  1.00  0.00     0.116 C 
BRANCH  75  76
ATOM     76  N   UNL A   1      31.964  21.344  25.233  1.00  0.00    -0.351 N 
ATOM     77  C   UNL A   1      31.051  22.327  25.507  1.00  0.00     0.271 C 
ATOM     78  H   UNL A   1      31.781  20.461  25.626  1.00  0.00     0.163 HD
ATOM     79  O   UNL A   1      30.229  22.152  26.417  1.00  0.00    -0.267 OA
BRANCH  77  80
ATOM     80  C   UNL A   1      31.050  23.529  24.672  1.00  0.00     0.150 A 
ATOM     81  C   UNL A   1      30.639  23.613  23.315  1.00  0.00     0.056 A 
ATOM     82  N   UNL A   1      31.437  24.732  25.135  1.00  0.00    -0.161 NA
ATOM     83  C   UNL A   1      30.645  24.953  23.024  1.00  0.00     0.118 A 
ATOM     84  N   UNL A   1      31.079  25.599  24.156  1.00  0.00    -0.222 N 
BRANCH  84  85
ATOM     85  C   UNL A   1      31.131  27.005  24.342  1.00  0.00     0.158 A 
ATOM     86  C   UNL A   1      30.355  27.809  23.533  1.00  0.00     0.078 A 
ATOM     87  N   UNL A   1      31.941  27.486  25.309  1.00  0.00    -0.209 NA
ATOM     88  C   UNL A   1      30.414  29.161  23.799  1.00  0.00     0.077 A 
ATOM     89  C   UNL A   1      31.998  28.821  25.422  1.00  0.00     0.165 A 
ATOM     90  N   UNL A   1      31.263  29.688  24.706  1.00  0.00    -0.228 NA
BRANCH  88  91
ATOM     91  C   UNL A   1      29.511  30.116  23.153  1.00  0.00     0.003 A 
ATOM     92  C   UNL A   1      29.197  29.999  21.792  1.00  0.00     0.030 A 
ATOM     93  C   UNL A   1      28.914  31.152  23.876  1.00  0.00     0.030 A 
ATOM     94  C   UNL A   1      28.324  30.912  21.224  1.00  0.00     0.111 A 
ATOM     95  C   UNL A   1      28.061  32.021  23.217  1.00  0.00     0.111 A 
ATOM     96  N   UNL A   1      27.756  31.928  21.905  1.00  0.00    -0.265 NA
ENDBRANCH  88  91
BRANCH  89  97
ATOM     97  C   UNL A   1      33.017  29.364  26.309  1.00  0.00     0.055 A 
ATOM     98  C   UNL A   1      32.879  30.649  26.868  1.00  0.00     0.015 A 
ATOM     99  C   UNL A   1      34.162  28.631  26.627  1.00  0.00     0.134 A 
ATOM    100  C   UNL A   1      33.854  31.169  27.726  1.00  0.00     0.001 A 
ATOM    101  C   UNL A   1      35.143  29.147  27.474  1.00  0.00     0.040 A 
ATOM    102  F   UNL A   1      34.355  27.413  26.100  1.00  0.00    -0.206 F 
ATOM    103  C   UNL A   1      34.986  30.416  28.028  1.00  0.00     0.003 A 
ENDBRANCH  89  97
ENDBRANCH  84  85
ENDBRANCH  77  80
ENDBRANCH  75  76
ENDBRANCH  74  75
ENDBRANCH  73  74
ENDBRANCH   1  73
TORSDOF 19
ENDMDL
MODEL 3
REMARK VINA RESULT:     -12.3      1.925      2.276
REMARK SMILES O=C(NCCCCCCNC(=O)c1ccn(-c2cc(-c3ccncc3)nc(-c3ccccc3F)n2)n1)c1ccc(-c2c3nc(c(-c4cc(S(=O)(=O)[O-])ccc4F)c4ccc([nH]4)c(-c4cc(S(=O)(=O)[O-])ccc4F)c4nc(c(-c5cc(S(=O)(=O)[O-])ccc5F)c5ccc2[nH]5)C=C4)C=C3)cc1
REMARK SMILES IDX 6 1 5 2 4 3 3 4 1 5 2 6 37 8 38 9 99 10 39 11 98 12 40 13
REMARK SMILES IDX 41 14 42 15 92 16 43 17 97 18 91 19 93 20 44 21 96 22 90 23
REMARK SMILES IDX 89 24 45 26 77 27 57 28 76 29 58 30 61 31 75 32 94 33 59 34
REMARK SMILES IDX 60 35 74 37 95 38 62 39 46 40 47 41 55 42 48 43 54 44 56 45
REMARK SMILES IDX 53 46 49 47 50 48 51 49 52 50 78 51 79 52 87 53 80 54 86 55
REMARK SMILES IDX 88 56 85 57 81 58 82 59 83 60 84 61 63 62 64 63 72 64 65 65
REMARK SMILES IDX 71 66 73 67 70 68 66 69 67 70 68 71 69 72 7 73 8 74 9 75
REMARK SMILES IDX 10 76 11 77 12 79 13 80 14 81 36 82 15 83 16 84 17 85 18 86
REMARK SMILES IDX 35 87 19 88 27 89 26 90 20 91 21 92 25 93 22 94 24 95 23 96
REMARK SMILES IDX 28 97 29 98 33 99 30 100 32 101 34 102 31 103
REMARK H PARENT 3 7 93 25 61 36 10 78
REMARK Flexibility Score: inf
ROOT
ATOM      1  C   UNL A   1      33.572  29.191  26.480  1.00  0.00     0.002 C 
ENDROOT
BRANCH   1   2
ATOM      2  C   UNL A   1      33.853  30.506  27.217  1.00  0.00     0.021 C 
BRANCH   2   3
ATOM      3  C   UNL A   1      35.207  30.566  27.919  1.00  0.00     0.116 C 
BRANCH   3   4
ATOM      4  N   UNL A   1      35.188  31.226  29.205  1.00  0.00    -0.352 N 
ATOM      5  O   UNL A   1      35.803  32.127  31.127  1.00  0.00    -0.269 OA
ATOM      6  C   UNL A   1      36.082  31.319  30.236  1.00  0.00     0.251 C 
ATOM      7  H   UNL A   1      34.349  31.712  29.377  1.00  0.00     0.163 HD
BRANCH   6   8
ATOM      8  C   UNL A   1      37.291  30.462  30.391  1.00  0.00     0.039 A 
ATOM      9  C   UNL A   1      37.313  29.066  30.402  1.00  0.00     0.014 A 
ATOM     10  C   UNL A   1      38.505  31.156  30.554  1.00  0.00     0.014 A 
ATOM     11  C   UNL A   1      38.500  28.383  30.667  1.00  0.00     0.010 A 
ATOM     12  C   UNL A   1      39.693  30.480  30.810  1.00  0.00     0.010 A 
ATOM     13  C   UNL A   1      39.686  29.090  30.896  1.00  0.00    -0.014 A 
BRANCH  13  14
ATOM     14  C   UNL A   1      40.954  28.353  30.903  1.00  0.00     0.031 A 
ATOM     15  C   UNL A   1      41.443  28.102  32.293  1.00  0.00     0.074 A 
ATOM     16  C   UNL A   1      41.526  27.792  29.813  1.00  0.00     0.049 A 
ATOM     17  N   UNL A   1      42.533  28.526  32.843  1.00  0.00    -0.248 NA
ATOM     18  C   UNL A   1      40.520  27.451  33.245  1.00  0.00     0.031 C 
ATOM     19  C   UNL A   1      40.999  27.775  28.447  1.00  0.00     0.029 A 
ATOM     20  N   UNL A   1      42.658  27.030  29.698  1.00  0.00    -0.354 N 
ATOM     21  C   UNL A   1      42.554  27.956  34.113  1.00  0.00     0.074 A 
ATOM     22  C   UNL A   1      41.215  27.510  34.380  1.00  0.00     0.031 C 
ATOM     23  C   UNL A   1      41.675  26.861  27.711  1.00  0.00     0.029 A 
ATOM     24  C   UNL A   1      42.754  26.299  28.507  1.00  0.00     0.049 A 
ATOM     25  H   UNL A   1      43.350  26.998  30.399  1.00  0.00     0.167 HD
ATOM     26  C   UNL A   1      43.730  27.607  34.701  1.00  0.00     0.034 A 
ATOM     27  C   UNL A   1      43.623  25.281  28.211  1.00  0.00     0.034 A 
ATOM     28  C   UNL A   1      44.832  28.358  34.152  1.00  0.00     0.049 A 
ATOM     29  C   UNL A   1      44.773  25.438  29.135  1.00  0.00     0.074 A 
ATOM     30  C   UNL A   1      45.096  29.707  33.992  1.00  0.00     0.029 A 
ATOM     31  N   UNL A   1      45.695  27.713  33.298  1.00  0.00    -0.354 N 
ATOM     32  N   UNL A   1      45.580  26.463  29.115  1.00  0.00    -0.248 NA
ATOM     33  C   UNL A   1      44.721  24.697  30.384  1.00  0.00     0.031 C 
ATOM     34  C   UNL A   1      45.697  29.810  32.704  1.00  0.00     0.029 A 
ATOM     35  C   UNL A   1      45.861  28.519  32.200  1.00  0.00     0.049 A 
ATOM     36  H   UNL A   1      46.115  26.835  33.446  1.00  0.00     0.167 HD
ATOM     37  C   UNL A   1      45.793  26.762  30.451  1.00  0.00     0.074 A 
ATOM     38  C   UNL A   1      45.286  25.602  31.188  1.00  0.00     0.031 C 
ATOM     39  C   UNL A   1      46.094  28.028  30.858  1.00  0.00     0.034 A 
BRANCH  26  40
ATOM     40  C   UNL A   1      43.919  26.301  35.446  1.00  0.00     0.023 A 
ATOM     41  C   UNL A   1      44.518  26.347  36.718  1.00  0.00     0.031 A 
ATOM     42  C   UNL A   1      43.818  25.015  34.860  1.00  0.00     0.131 A 
ATOM     43  C   UNL A   1      45.036  25.180  37.311  1.00  0.00     0.055 A 
ATOM     44  C   UNL A   1      44.278  23.853  35.481  1.00  0.00     0.041 A 
ATOM     45  F   UNL A   1      43.364  24.815  33.618  1.00  0.00    -0.206 F 
ATOM     46  C   UNL A   1      44.916  23.934  36.703  1.00  0.00     0.022 A 
BRANCH  43  47
ATOM     47  S   UNL A   1      45.999  25.338  38.836  1.00  0.00     0.124 S 
ATOM     48  O   UNL A   1      44.945  25.455  39.837  1.00  0.00    -0.237 OA
ATOM     49  O   UNL A   1      46.757  24.090  38.843  1.00  0.00    -0.237 OA
ATOM     50  O   UNL A   1      46.793  26.543  38.613  1.00  0.00    -0.744 OA
ENDBRANCH  43  47
ENDBRANCH  26  40
BRANCH  27  51
ATOM     51  C   UNL A   1      43.379  24.007  27.446  1.00  0.00     0.023 A 
ATOM     52  C   UNL A   1      44.142  23.637  26.304  1.00  0.00     0.031 A 
ATOM     53  C   UNL A   1      42.564  22.992  27.992  1.00  0.00     0.131 A 
ATOM     54  C   UNL A   1      44.078  22.318  25.782  1.00  0.00     0.055 A 
ATOM     55  C   UNL A   1      42.508  21.693  27.474  1.00  0.00     0.041 A 
ATOM     56  F   UNL A   1      41.854  23.191  29.111  1.00  0.00    -0.206 F 
ATOM     57  C   UNL A   1      43.274  21.345  26.376  1.00  0.00     0.022 A 
BRANCH  54  58
ATOM     58  S   UNL A   1      45.134  21.789  24.385  1.00  0.00     0.124 S 
ATOM     59  O   UNL A   1      45.075  22.948  23.501  1.00  0.00    -0.237 OA
ATOM     60  O   UNL A   1      46.415  21.530  25.029  1.00  0.00    -0.237 OA
ATOM     61  O   UNL A   1      44.454  20.596  23.878  1.00  0.00    -0.744 OA
ENDBRANCH  54  58
ENDBRANCH  27  51
BRANCH  39  62
ATOM     62  C   UNL A   1      46.546  29.053  29.843  1.00  0.00     0.023 A 
ATOM     63  C   UNL A   1      47.874  29.251  29.398  1.00  0.00     0.031 A 
ATOM     64  C   UNL A   1      45.516  29.727  29.163  1.00  0.00     0.131 A 
ATOM     65  C   UNL A   1      48.117  30.093  28.288  1.00  0.00     0.055 A 
ATOM     66  C   UNL A   1      45.759  30.537  28.058  1.00  0.00     0.041 A 
ATOM     67  F   UNL A   1      44.235  29.553  29.530  1.00  0.00    -0.206 F 
ATOM     68  C   UNL A   1      47.062  30.720  27.614  1.00  0.00     0.022 A 
BRANCH  65  69
ATOM     69  S   UNL A   1      49.810  30.350  27.656  1.00  0.00     0.124 S 
ATOM     70  O   UNL A   1      50.164  31.664  28.178  1.00  0.00    -0.237 OA
ATOM     71  O   UNL A   1      50.542  29.217  28.214  1.00  0.00    -0.237 OA
ATOM     72  O   UNL A   1      49.645  30.299  26.201  1.00  0.00    -0.744 OA
ENDBRANCH  65  69
ENDBRANCH  39  62
ENDBRANCH  13  14
ENDBRANCH   6   8
ENDBRANCH   3   4
ENDBRANCH   2   3
ENDBRANCH   1   2
BRANCH   1  73
ATOM     73  C   UNL A   1      33.300  29.322  24.977  1.00  0.00     0.002 C 
BRANCH  73  74
ATOM     74  C   UNL A   1      32.649  28.099  24.322  1.00  0.00     0.021 C 
BRANCH  74  75
ATOM     75  C   UNL A   1      33.407  27.555  23.111  1.00  0.00     0.116 C 
BRANCH  75  76
ATOM     76  N   UNL A   1      32.501  27.320  22.002  1.00  0.00    -0.351 N 
ATOM     77  C   UNL A   1      31.934  26.133  21.621  1.00  0.00     0.271 C 
ATOM     78  H   UNL A   1      32.267  28.106  21.459  1.00  0.00     0.163 HD
ATOM     79  O   UNL A   1      31.404  26.047  20.506  1.00  0.00    -0.267 OA
BRANCH  77  80
ATOM     80  C   UNL A   1      31.932  25.026  22.578  1.00  0.00     0.150 A 
ATOM     81  C   UNL A   1      30.788  24.385  23.124  1.00  0.00     0.056 A 
ATOM     82  N   UNL A   1      33.065  24.465  23.039  1.00  0.00    -0.161 NA
ATOM     83  C   UNL A   1      31.279  23.308  23.815  1.00  0.00     0.118 A 
ATOM     84  N   UNL A   1      32.647  23.357  23.699  1.00  0.00    -0.222 N 
BRANCH  84  85
ATOM     85  C   UNL A   1      33.557  22.373  24.166  1.00  0.00     0.158 A 
ATOM     86  C   UNL A   1      33.120  21.070  24.286  1.00  0.00     0.078 A 
ATOM     87  N   UNL A   1      34.813  22.765  24.468  1.00  0.00    -0.209 NA
ATOM     88  C   UNL A   1      34.067  20.156  24.697  1.00  0.00     0.077 A 
ATOM     89  C   UNL A   1      35.628  21.816  24.950  1.00  0.00     0.165 A 
ATOM     90  N   UNL A   1      35.309  20.517  25.077  1.00  0.00    -0.228 NA
BRANCH  88  91
ATOM     91  C   UNL A   1      33.803  18.715  24.690  1.00  0.00     0.003 A 
ATOM     92  C   UNL A   1      34.780  17.809  24.255  1.00  0.00     0.030 A 
ATOM     93  C   UNL A   1      32.586  18.199  25.142  1.00  0.00     0.030 A 
ATOM     94  C   UNL A   1      34.497  16.454  24.280  1.00  0.00     0.111 A 
ATOM     95  C   UNL A   1      32.393  16.828  25.121  1.00  0.00     0.111 A 
ATOM     96  N   UNL A   1      33.319  15.943  24.697  1.00  0.00    -0.265 NA
ENDBRANCH  88  91
BRANCH  89  97
ATOM     97  C   UNL A   1      36.912  22.255  25.478  1.00  0.00     0.055 A 
ATOM     98  C   UNL A   1      37.077  23.557  25.987  1.00  0.00     0.015 A 
ATOM     99  C   UNL A   1      38.017  21.402  25.490  1.00  0.00     0.134 A 
ATOM    100  C   UNL A   1      38.308  23.978  26.502  1.00  0.00     0.001 A 
ATOM    101  C   UNL A   1      39.251  21.819  25.992  1.00  0.00     0.040 A 
ATOM    102  F   UNL A   1      37.921  20.161  24.992  1.00  0.00    -0.206 F 
ATOM    103  C   UNL A   1      39.395  23.107  26.503  1.00  0.00     0.003 A 
ENDBRANCH  89  97
ENDBRANCH  84  85
ENDBRANCH  77  80
ENDBRANCH  75  76
ENDBRANCH  74  75
ENDBRANCH  73  74
ENDBRANCH   1  73
TORSDOF 19
ENDMDL
