MODEL 1
REMARK VINA RESULT:     -10.7      0.000      0.000
REMARK SMILES Cc1oc2c(C)c3oc(=O)c(CCC(=O)N[C@H](Cc4ccc(Cl)cc4)C(=O)NCCCCCCNC(=O)c4ccc(-c5c6nc(c(-c7cc(S(=O)(=O)[O-])ccc7F)c7ccc([nH]7)c(-c7cc(S(=O)(=O)[O-])ccc7F)c7nc(c(-c8cc(S(=O)(=O)[O-])ccc8F)c8ccc5[nH]8)C=C7)C=C6)cc4)c(C)c3cc2c1C
REMARK SMILES IDX 31 1 30 2 29 3 28 4 26 5 27 6 17 8 16 9 14 10 15 11 13 13
REMARK SMILES IDX 12 14 11 15 1 16 2 17 3 18 106 19 4 20 105 21 107 22 5 23
REMARK SMILES IDX 104 24 6 25 7 26 103 27 8 28 101 29 9 30 102 31 10 32 18 33
REMARK SMILES IDX 19 34 20 35 25 36 21 37 24 38 22 39 23 40 32 41 33 42 34 43
REMARK SMILES IDX 35 44 36 45 37 47 38 48 39 49 100 50 40 51 99 52 41 53 42 54
REMARK SMILES IDX 43 55 93 56 44 57 98 58 92 59 94 60 45 61 97 62 91 63 90 64
REMARK SMILES IDX 46 66 78 67 58 68 77 69 59 70 62 71 76 72 95 73 60 74 61 75
REMARK SMILES IDX 75 77 96 78 63 79 47 80 48 81 56 82 49 83 55 84 57 85 54 86
REMARK SMILES IDX 50 87 51 88 52 89 53 90 79 91 80 92 88 93 81 94 87 95 89 96
REMARK SMILES IDX 86 97 82 98 83 99 84 100 85 101 64 102 65 103 73 104 66 105
REMARK SMILES IDX 72 106 74 107 71 108 67 109 68 110 69 111 70 112
REMARK H PARENT 28 7 16 12 35 46 94 65 62 76
REMARK Flexibility Score: inf
ROOT
ATOM      1  C   UNL A   1      41.600  27.589  35.770  1.00  0.00     0.002 C 
ENDROOT
BRANCH   1   2
ATOM      2  C   UNL A   1      42.675  28.580  35.357  1.00  0.00     0.021 C 
BRANCH   2   3
ATOM      3  C   UNL A   1      43.547  29.004  36.518  1.00  0.00     0.116 C 
BRANCH   3   4
ATOM      4  N   UNL A   1      43.696  30.437  36.545  1.00  0.00    -0.354 N 
ATOM      5  C   UNL A   1      43.509  31.054  37.740  1.00  0.00     0.242 C 
ATOM      6  O   UNL A   1      44.041  30.590  38.754  1.00  0.00    -0.273 OA
ATOM      7  H   UNL A   1      43.923  30.947  35.734  1.00  0.00     0.163 HD
BRANCH   5   8
ATOM      8  C   UNL A   1      42.566  32.272  37.811  1.00  0.00     0.175 C 
BRANCH   8   9
ATOM      9  N   UNL A   1      42.111  32.418  36.417  1.00  0.00    -0.344 N 
ATOM     10  C   UNL A   1      40.920  31.951  35.931  1.00  0.00     0.220 C 
ATOM     11  O   UNL A   1      40.871  31.473  34.799  1.00  0.00    -0.275 OA
ATOM     12  H   UNL A   1      42.708  32.886  35.790  1.00  0.00     0.164 HD
BRANCH  10  13
ATOM     13  C   UNL A   1      39.667  32.141  36.765  1.00  0.00     0.105 C 
BRANCH  13  14
ATOM     14  C   UNL A   1      39.149  33.588  36.864  1.00  0.00     0.053 C 
BRANCH  14  15
ATOM     15  C   UNL A   1      38.134  33.943  35.788  1.00  0.00     0.042 A 
ATOM     16  C   UNL A   1      35.088  33.094  28.011  1.00  0.00     0.088 C 
ATOM     17  C   UNL A   1      35.680  33.455  29.318  1.00  0.00     0.105 A 
ATOM     18  O   UNL A   1      34.855  33.379  30.400  1.00  0.00    -0.461 OA
ATOM     19  C   UNL A   1      36.956  33.820  29.708  1.00  0.00    -0.002 A 
ATOM     20  C   UNL A   1      35.596  33.691  31.502  1.00  0.00     0.141 A 
ATOM     21  C   UNL A   1      36.889  34.015  31.122  1.00  0.00     0.025 A 
ATOM     22  C   UNL A   1      38.174  33.913  28.866  1.00  0.00     0.049 C 
ATOM     23  C   UNL A   1      35.147  33.635  32.824  1.00  0.00     0.036 A 
ATOM     24  C   UNL A   1      37.822  34.354  32.120  1.00  0.00     0.024 A 
ATOM     25  C   UNL A   1      33.756  33.203  33.165  1.00  0.00     0.052 C 
ATOM     26  C   UNL A   1      36.143  33.929  33.786  1.00  0.00     0.145 A 
ATOM     27  C   UNL A   1      37.460  34.298  33.476  1.00  0.00     0.022 A 
ATOM     28  O   UNL A   1      35.779  33.738  35.138  1.00  0.00    -0.422 OA
ATOM     29  C   UNL A   1      38.461  34.413  34.564  1.00  0.00    -0.030 A 
ATOM     30  C   UNL A   1      36.720  33.641  36.146  1.00  0.00     0.339 A 
ATOM     31  C   UNL A   1      39.867  34.858  34.247  1.00  0.00     0.046 C 
ATOM     32  O   UNL A   1      36.401  33.293  37.279  1.00  0.00    -0.246 OA
ENDBRANCH  14  15
ENDBRANCH  13  14
ENDBRANCH  10  13
ENDBRANCH   8   9
BRANCH   8  33
ATOM     33  C   UNL A   1      42.930  33.607  38.482  1.00  0.00     0.070 C 
BRANCH  33  34
ATOM     34  C   UNL A   1      41.888  34.654  38.776  1.00  0.00    -0.045 A 
ATOM     35  C   UNL A   1      40.983  34.455  39.838  1.00  0.00     0.005 A 
ATOM     36  C   UNL A   1      41.760  35.802  37.985  1.00  0.00     0.005 A 
ATOM     37  C   UNL A   1      39.997  35.402  40.125  1.00  0.00     0.021 A 
ATOM     38  C   UNL A   1      40.774  36.753  38.276  1.00  0.00     0.021 A 
ATOM     39  C   UNL A   1      39.907  36.555  39.351  1.00  0.00     0.041 A 
ATOM     40  Cl  UNL A   1      38.767  37.773  39.770  1.00  0.00    -0.084 Cl
ENDBRANCH  33  34
ENDBRANCH   8  33
ENDBRANCH   5   8
ENDBRANCH   3   4
ENDBRANCH   2   3
ENDBRANCH   1   2
BRANCH   1  41
ATOM     41  C   UNL A   1      41.870  26.174  35.261  1.00  0.00     0.002 C 
BRANCH  41  42
ATOM     42  C   UNL A   1      42.211  25.159  36.364  1.00  0.00     0.021 C 
BRANCH  42  43
ATOM     43  C   UNL A   1      43.546  25.421  37.069  1.00  0.00     0.116 C 
BRANCH  43  44
ATOM     44  N   UNL A   1      44.332  24.204  37.069  1.00  0.00    -0.352 N 
ATOM     45  C   UNL A   1      44.644  23.431  35.986  1.00  0.00     0.251 C 
ATOM     46  H   UNL A   1      44.677  23.902  37.941  1.00  0.00     0.163 HD
ATOM     47  O   UNL A   1      44.796  22.224  36.125  1.00  0.00    -0.269 OA
BRANCH  45  48
ATOM     48  C   UNL A   1      44.823  24.073  34.669  1.00  0.00     0.039 A 
ATOM     49  C   UNL A   1      45.683  25.166  34.580  1.00  0.00     0.014 A 
ATOM     50  C   UNL A   1      44.058  23.668  33.563  1.00  0.00     0.014 A 
ATOM     51  C   UNL A   1      45.774  25.859  33.381  1.00  0.00     0.010 A 
ATOM     52  C   UNL A   1      44.156  24.362  32.360  1.00  0.00     0.010 A 
ATOM     53  C   UNL A   1      45.009  25.465  32.269  1.00  0.00    -0.014 A 
BRANCH  53  54
ATOM     54  C   UNL A   1      45.148  26.283  31.056  1.00  0.00     0.031 A 
ATOM     55  C   UNL A   1      45.061  25.574  29.738  1.00  0.00     0.074 A 
ATOM     56  C   UNL A   1      44.707  27.555  31.112  1.00  0.00     0.049 A 
ATOM     57  N   UNL A   1      43.961  25.233  29.129  1.00  0.00    -0.248 NA
ATOM     58  C   UNL A   1      46.269  25.019  29.119  1.00  0.00     0.031 C 
ATOM     59  C   UNL A   1      43.422  27.971  31.685  1.00  0.00     0.029 A 
ATOM     60  N   UNL A   1      45.200  28.682  30.508  1.00  0.00    -0.354 N 
ATOM     61  C   UNL A   1      44.318  24.441  28.045  1.00  0.00     0.074 A 
ATOM     62  C   UNL A   1      45.758  24.317  28.098  1.00  0.00     0.031 C 
ATOM     63  C   UNL A   1      43.148  29.219  31.260  1.00  0.00     0.029 A 
ATOM     64  C   UNL A   1      44.275  29.721  30.480  1.00  0.00     0.049 A 
ATOM     65  H   UNL A   1      46.108  28.748  30.134  1.00  0.00     0.167 HD
ATOM     66  C   UNL A   1      43.433  23.951  27.136  1.00  0.00     0.034 A 
ATOM     67  C   UNL A   1      44.214  30.632  29.470  1.00  0.00     0.034 A 
ATOM     68  C   UNL A   1      42.076  24.370  27.309  1.00  0.00     0.049 A 
ATOM     69  C   UNL A   1      43.428  29.835  28.449  1.00  0.00     0.074 A 
ATOM     70  C   UNL A   1      40.939  23.899  27.927  1.00  0.00     0.029 A 
ATOM     71  N   UNL A   1      41.709  25.590  26.790  1.00  0.00    -0.354 N 
ATOM     72  N   UNL A   1      42.142  29.601  28.470  1.00  0.00    -0.248 NA
ATOM     73  C   UNL A   1      44.192  28.931  27.583  1.00  0.00     0.031 C 
ATOM     74  C   UNL A   1      40.126  25.055  28.151  1.00  0.00     0.029 A 
ATOM     75  C   UNL A   1      40.850  26.158  27.696  1.00  0.00     0.049 A 
ATOM     76  H   UNL A   1      42.005  25.981  25.936  1.00  0.00     0.167 HD
ATOM     77  C   UNL A   1      41.977  28.355  27.859  1.00  0.00     0.074 A 
ATOM     78  C   UNL A   1      43.272  28.017  27.303  1.00  0.00     0.031 C 
ATOM     79  C   UNL A   1      40.866  27.572  28.004  1.00  0.00     0.034 A 
BRANCH  66  80
ATOM     80  C   UNL A   1      43.795  23.176  25.927  1.00  0.00     0.023 A 
ATOM     81  C   UNL A   1      43.695  21.779  25.979  1.00  0.00     0.031 A 
ATOM     82  C   UNL A   1      44.437  23.758  24.825  1.00  0.00     0.131 A 
ATOM     83  C   UNL A   1      44.277  20.993  24.978  1.00  0.00     0.055 A 
ATOM     84  C   UNL A   1      45.000  22.968  23.815  1.00  0.00     0.041 A 
ATOM     85  F   UNL A   1      44.574  25.090  24.738  1.00  0.00    -0.206 F 
ATOM     86  C   UNL A   1      44.937  21.577  23.896  1.00  0.00     0.022 A 
BRANCH  83  87
ATOM     87  S   UNL A   1      44.230  19.193  25.178  1.00  0.00     0.124 S 
ATOM     88  O   UNL A   1      45.589  18.903  25.625  1.00  0.00    -0.237 OA
ATOM     89  O   UNL A   1      43.180  19.035  26.179  1.00  0.00    -0.237 OA
ATOM     90  O   UNL A   1      43.896  18.710  23.840  1.00  0.00    -0.744 OA
ENDBRANCH  83  87
ENDBRANCH  66  80
BRANCH  67  91
ATOM     91  C   UNL A   1      45.511  31.333  29.184  1.00  0.00     0.023 A 
ATOM     92  C   UNL A   1      46.564  31.164  30.113  1.00  0.00     0.031 A 
ATOM     93  C   UNL A   1      45.793  32.115  28.056  1.00  0.00     0.131 A 
ATOM     94  C   UNL A   1      47.857  31.632  29.840  1.00  0.00     0.055 A 
ATOM     95  C   UNL A   1      47.087  32.573  27.775  1.00  0.00     0.041 A 
ATOM     96  F   UNL A   1      44.836  32.434  27.173  1.00  0.00    -0.206 F 
ATOM     97  C   UNL A   1      48.133  32.310  28.655  1.00  0.00     0.022 A 
BRANCH  94  98
ATOM     98  S   UNL A   1      49.189  31.243  31.008  1.00  0.00     0.124 S 
ATOM     99  O   UNL A   1      49.327  32.496  31.742  1.00  0.00    -0.237 OA
ATOM    100  O   UNL A   1      48.634  30.120  31.757  1.00  0.00    -0.237 OA
ATOM    101  O   UNL A   1      50.313  30.901  30.137  1.00  0.00    -0.744 OA
ENDBRANCH  94  98
ENDBRANCH  67  91
BRANCH  79 102
ATOM    102  C   UNL A   1      39.716  28.172  28.747  1.00  0.00     0.023 A 
ATOM    103  C   UNL A   1      39.540  27.905  30.113  1.00  0.00     0.031 A 
ATOM    104  C   UNL A   1      38.832  29.071  28.124  1.00  0.00     0.131 A 
ATOM    105  C   UNL A   1      38.525  28.556  30.825  1.00  0.00     0.055 A 
ATOM    106  C   UNL A   1      37.842  29.742  28.843  1.00  0.00     0.041 A 
ATOM    107  F   UNL A   1      38.927  29.342  26.811  1.00  0.00    -0.206 F 
ATOM    108  C   UNL A   1      37.690  29.491  30.203  1.00  0.00     0.022 A 
BRANCH 105 109
ATOM    109  S   UNL A   1      38.336  28.216  32.594  1.00  0.00     0.124 S 
ATOM    110  O   UNL A   1      38.338  26.758  32.638  1.00  0.00    -0.237 OA
ATOM    111  O   UNL A   1      39.502  28.875  33.176  1.00  0.00    -0.237 OA
ATOM    112  O   UNL A   1      37.055  28.841  32.925  1.00  0.00    -0.744 OA
ENDBRANCH 105 109
ENDBRANCH  79 102
ENDBRANCH  53  54
ENDBRANCH  45  48
ENDBRANCH  43  44
ENDBRANCH  42  43
ENDBRANCH  41  42
ENDBRANCH   1  41
TORSDOF 22
ENDMDL
MODEL 2
REMARK VINA RESULT:     -10.6      1.820      3.368
REMARK SMILES Cc1oc2c(C)c3oc(=O)c(CCC(=O)N[C@H](Cc4ccc(Cl)cc4)C(=O)NCCCCCCNC(=O)c4ccc(-c5c6nc(c(-c7cc(S(=O)(=O)[O-])ccc7F)c7ccc([nH]7)c(-c7cc(S(=O)(=O)[O-])ccc7F)c7nc(c(-c8cc(S(=O)(=O)[O-])ccc8F)c8ccc5[nH]8)C=C7)C=C6)cc4)c(C)c3cc2c1C
REMARK SMILES IDX 31 1 30 2 29 3 28 4 26 5 27 6 17 8 16 9 14 10 15 11 13 13
REMARK SMILES IDX 12 14 11 15 1 16 2 17 3 18 106 19 4 20 105 21 107 22 5 23
REMARK SMILES IDX 104 24 6 25 7 26 103 27 8 28 101 29 9 30 102 31 10 32 18 33
REMARK SMILES IDX 19 34 20 35 25 36 21 37 24 38 22 39 23 40 32 41 33 42 34 43
REMARK SMILES IDX 35 44 36 45 37 47 38 48 39 49 100 50 40 51 99 52 41 53 42 54
REMARK SMILES IDX 43 55 93 56 44 57 98 58 92 59 94 60 45 61 97 62 91 63 90 64
REMARK SMILES IDX 46 66 78 67 58 68 77 69 59 70 62 71 76 72 95 73 60 74 61 75
REMARK SMILES IDX 75 77 96 78 63 79 47 80 48 81 56 82 49 83 55 84 57 85 54 86
REMARK SMILES IDX 50 87 51 88 52 89 53 90 79 91 80 92 88 93 81 94 87 95 89 96
REMARK SMILES IDX 86 97 82 98 83 99 84 100 85 101 64 102 65 103 73 104 66 105
REMARK SMILES IDX 72 106 74 107 71 108 67 109 68 110 69 111 70 112
REMARK H PARENT 28 7 16 12 35 46 94 65 62 76
REMARK Flexibility Score: inf
ROOT
ATOM      1  C   UNL A   1      42.728  27.481  35.789  1.00  0.00     0.002 C 
ENDROOT
BRANCH   1   2
ATOM      2  C   UNL A   1      43.892  28.026  34.980  1.00  0.00     0.021 C 
BRANCH   2   3
ATOM      3  C   UNL A   1      45.127  28.253  35.825  1.00  0.00     0.116 C 
BRANCH   3   4
ATOM      4  N   UNL A   1      45.698  29.548  35.553  1.00  0.00    -0.354 N 
ATOM      5  C   UNL A   1      45.102  30.619  36.135  1.00  0.00     0.242 C 
ATOM      6  O   UNL A   1      44.803  30.573  37.334  1.00  0.00    -0.273 OA
ATOM      7  H   UNL A   1      46.485  29.652  34.970  1.00  0.00     0.163 HD
BRANCH   5   8
ATOM      8  C   UNL A   1      44.739  31.838  35.262  1.00  0.00     0.175 C 
BRANCH   8   9
ATOM      9  N   UNL A   1      46.046  32.476  35.027  1.00  0.00    -0.344 N 
ATOM     10  C   UNL A   1      46.716  32.471  33.834  1.00  0.00     0.220 C 
ATOM     11  O   UNL A   1      47.940  32.356  33.824  1.00  0.00    -0.275 OA
ATOM     12  H   UNL A   1      46.468  32.940  35.786  1.00  0.00     0.164 HD
BRANCH  10  13
ATOM     13  C   UNL A   1      45.933  32.720  32.558  1.00  0.00     0.105 C 
BRANCH  13  14
ATOM     14  C   UNL A   1      45.790  34.197  32.145  1.00  0.00     0.053 C 
BRANCH  14  15
ATOM     15  C   UNL A   1      44.451  34.807  32.532  1.00  0.00     0.042 A 
ATOM     16  C   UNL A   1      36.413  34.008  34.820  1.00  0.00     0.088 C 
ATOM     17  C   UNL A   1      37.748  34.234  34.223  1.00  0.00     0.105 A 
ATOM     18  O   UNL A   1      38.587  35.062  34.907  1.00  0.00    -0.461 OA
ATOM     19  C   UNL A   1      38.378  33.730  33.099  1.00  0.00    -0.002 A 
ATOM     20  C   UNL A   1      39.771  35.094  34.232  1.00  0.00     0.141 A 
ATOM     21  C   UNL A   1      39.677  34.324  33.083  1.00  0.00     0.025 A 
ATOM     22  C   UNL A   1      37.862  32.719  32.144  1.00  0.00     0.049 C 
ATOM     23  C   UNL A   1      40.929  35.750  34.655  1.00  0.00     0.036 A 
ATOM     24  C   UNL A   1      40.806  34.214  32.249  1.00  0.00     0.024 A 
ATOM     25  C   UNL A   1      40.979  36.504  35.947  1.00  0.00     0.052 C 
ATOM     26  C   UNL A   1      42.047  35.557  33.808  1.00  0.00     0.145 A 
ATOM     27  C   UNL A   1      42.019  34.821  32.614  1.00  0.00     0.022 A 
ATOM     28  O   UNL A   1      43.277  36.073  34.272  1.00  0.00    -0.422 OA
ATOM     29  C   UNL A   1      43.287  34.540  31.899  1.00  0.00    -0.030 A 
ATOM     30  C   UNL A   1      44.490  35.667  33.747  1.00  0.00     0.339 A 
ATOM     31  C   UNL A   1      43.261  33.793  30.589  1.00  0.00     0.046 C 
ATOM     32  O   UNL A   1      45.549  35.983  34.281  1.00  0.00    -0.246 OA
ENDBRANCH  14  15
ENDBRANCH  13  14
ENDBRANCH  10  13
ENDBRANCH   8   9
BRANCH   8  33
ATOM     33  C   UNL A   1      43.618  32.836  35.597  1.00  0.00     0.070 C 
BRANCH  33  34
ATOM     34  C   UNL A   1      42.182  32.399  35.721  1.00  0.00    -0.045 A 
ATOM     35  C   UNL A   1      41.417  32.832  36.822  1.00  0.00     0.005 A 
ATOM     36  C   UNL A   1      41.600  31.526  34.794  1.00  0.00     0.005 A 
ATOM     37  C   UNL A   1      40.087  32.431  36.971  1.00  0.00     0.021 A 
ATOM     38  C   UNL A   1      40.266  31.128  34.942  1.00  0.00     0.021 A 
ATOM     39  C   UNL A   1      39.512  31.592  36.021  1.00  0.00     0.041 A 
ATOM     40  Cl  UNL A   1      37.846  31.186  36.142  1.00  0.00    -0.084 Cl
ENDBRANCH  33  34
ENDBRANCH   8  33
ENDBRANCH   5   8
ENDBRANCH   3   4
ENDBRANCH   2   3
ENDBRANCH   1   2
BRANCH   1  41
ATOM     41  C   UNL A   1      42.324  26.068  35.372  1.00  0.00     0.002 C 
BRANCH  41  42
ATOM     42  C   UNL A   1      42.635  24.986  36.418  1.00  0.00     0.021 C 
BRANCH  42  43
ATOM     43  C   UNL A   1      44.013  25.122  37.073  1.00  0.00     0.116 C 
BRANCH  43  44
ATOM     44  N   UNL A   1      44.706  23.852  36.997  1.00  0.00    -0.352 N 
ATOM     45  C   UNL A   1      44.901  23.092  35.877  1.00  0.00     0.251 C 
ATOM     46  H   UNL A   1      45.075  23.499  37.839  1.00  0.00     0.163 HD
ATOM     47  O   UNL A   1      44.971  21.874  35.975  1.00  0.00    -0.269 OA
BRANCH  45  48
ATOM     48  C   UNL A   1      45.055  23.760  34.569  1.00  0.00     0.039 A 
ATOM     49  C   UNL A   1      46.007  24.771  34.453  1.00  0.00     0.014 A 
ATOM     50  C   UNL A   1      44.185  23.467  33.508  1.00  0.00     0.014 A 
ATOM     51  C   UNL A   1      46.086  25.494  33.271  1.00  0.00     0.010 A 
ATOM     52  C   UNL A   1      44.270  24.190  32.321  1.00  0.00     0.010 A 
ATOM     53  C   UNL A   1      45.217  25.211  32.203  1.00  0.00    -0.014 A 
BRANCH  53  54
ATOM     54  C   UNL A   1      45.354  26.054  31.007  1.00  0.00     0.031 A 
ATOM     55  C   UNL A   1      45.238  25.377  29.674  1.00  0.00     0.074 A 
ATOM     56  C   UNL A   1      44.937  27.331  31.098  1.00  0.00     0.049 A 
ATOM     57  N   UNL A   1      44.124  25.069  29.073  1.00  0.00    -0.248 NA
ATOM     58  C   UNL A   1      46.427  24.815  29.027  1.00  0.00     0.031 C 
ATOM     59  C   UNL A   1      43.667  27.757  31.698  1.00  0.00     0.029 A 
ATOM     60  N   UNL A   1      45.442  28.463  30.512  1.00  0.00    -0.354 N 
ATOM     61  C   UNL A   1      44.452  24.296  27.967  1.00  0.00     0.074 A 
ATOM     62  C   UNL A   1      45.891  24.145  27.997  1.00  0.00     0.031 C 
ATOM     63  C   UNL A   1      43.410  29.019  31.304  1.00  0.00     0.029 A 
ATOM     64  C   UNL A   1      44.535  29.519  30.521  1.00  0.00     0.049 A 
ATOM     65  H   UNL A   1      46.346  28.522  30.128  1.00  0.00     0.167 HD
ATOM     66  C   UNL A   1      43.547  23.842  27.059  1.00  0.00     0.034 A 
ATOM     67  C   UNL A   1      44.476  30.454  29.532  1.00  0.00     0.034 A 
ATOM     68  C   UNL A   1      42.200  24.281  27.260  1.00  0.00     0.049 A 
ATOM     69  C   UNL A   1      43.663  29.694  28.505  1.00  0.00     0.074 A 
ATOM     70  C   UNL A   1      41.063  23.816  27.882  1.00  0.00     0.029 A 
ATOM     71  N   UNL A   1      41.848  25.519  26.774  1.00  0.00    -0.354 N 
ATOM     72  N   UNL A   1      42.373  29.481  28.538  1.00  0.00    -0.248 NA
ATOM     73  C   UNL A   1      44.400  28.797  27.608  1.00  0.00     0.031 C 
ATOM     74  C   UNL A   1      40.274  24.980  28.144  1.00  0.00     0.029 A 
ATOM     75  C   UNL A   1      41.011  26.080  27.704  1.00  0.00     0.049 A 
ATOM     76  H   UNL A   1      42.139  25.923  25.925  1.00  0.00     0.167 HD
ATOM     77  C   UNL A   1      42.179  28.253  27.901  1.00  0.00     0.074 A 
ATOM     78  C   UNL A   1      43.461  27.906  27.320  1.00  0.00     0.031 C 
ATOM     79  C   UNL A   1      41.056  27.486  28.044  1.00  0.00     0.034 A 
BRANCH  66  80
ATOM     80  C   UNL A   1      43.879  23.089  25.828  1.00  0.00     0.023 A 
ATOM     81  C   UNL A   1      43.749  21.693  25.848  1.00  0.00     0.031 A 
ATOM     82  C   UNL A   1      44.522  23.682  24.733  1.00  0.00     0.131 A 
ATOM     83  C   UNL A   1      44.303  20.919  24.822  1.00  0.00     0.055 A 
ATOM     84  C   UNL A   1      45.057  22.905  23.698  1.00  0.00     0.041 A 
ATOM     85  F   UNL A   1      44.687  25.013  24.676  1.00  0.00    -0.206 F 
ATOM     86  C   UNL A   1      44.964  21.514  23.748  1.00  0.00     0.022 A 
BRANCH  83  87
ATOM     87  S   UNL A   1      44.219  19.116  24.980  1.00  0.00     0.124 S 
ATOM     88  O   UNL A   1      45.262  18.850  25.966  1.00  0.00    -0.237 OA
ATOM     89  O   UNL A   1      42.845  18.924  25.434  1.00  0.00    -0.237 OA
ATOM     90  O   UNL A   1      44.503  18.643  23.628  1.00  0.00    -0.744 OA
ENDBRANCH  83  87
ENDBRANCH  66  80
BRANCH  67  91
ATOM     91  C   UNL A   1      45.782  31.138  29.245  1.00  0.00     0.023 A 
ATOM     92  C   UNL A   1      46.944  30.611  29.853  1.00  0.00     0.031 A 
ATOM     93  C   UNL A   1      45.966  32.237  28.394  1.00  0.00     0.131 A 
ATOM     94  C   UNL A   1      48.222  31.072  29.504  1.00  0.00     0.055 A 
ATOM     95  C   UNL A   1      47.242  32.691  28.034  1.00  0.00     0.041 A 
ATOM     96  F   UNL A   1      44.922  32.884  27.858  1.00  0.00    -0.206 F 
ATOM     97  C   UNL A   1      48.379  32.092  28.569  1.00  0.00     0.022 A 
BRANCH  94  98
ATOM     98  S   UNL A   1      49.672  30.242  30.211  1.00  0.00     0.124 S 
ATOM     99  O   UNL A   1      49.913  31.025  31.418  1.00  0.00    -0.237 OA
ATOM    100  O   UNL A   1      49.187  28.881  30.416  1.00  0.00    -0.237 OA
ATOM    101  O   UNL A   1      50.684  30.379  29.164  1.00  0.00    -0.744 OA
ENDBRANCH  94  98
ENDBRANCH  67  91
BRANCH  79 102
ATOM    102  C   UNL A   1      39.926  28.089  28.815  1.00  0.00     0.023 A 
ATOM    103  C   UNL A   1      39.806  27.853  30.192  1.00  0.00     0.031 A 
ATOM    104  C   UNL A   1      39.008  28.962  28.205  1.00  0.00     0.131 A 
ATOM    105  C   UNL A   1      38.809  28.507  30.927  1.00  0.00     0.055 A 
ATOM    106  C   UNL A   1      38.037  29.637  28.946  1.00  0.00     0.041 A 
ATOM    107  F   UNL A   1      39.050  29.203  26.884  1.00  0.00    -0.206 F 
ATOM    108  C   UNL A   1      37.939  29.416  30.316  1.00  0.00     0.022 A 
BRANCH 105 109
ATOM    109  S   UNL A   1      38.692  28.207  32.710  1.00  0.00     0.124 S 
ATOM    110  O   UNL A   1      40.083  28.291  33.137  1.00  0.00    -0.237 OA
ATOM    111  O   UNL A   1      37.816  29.285  33.162  1.00  0.00    -0.237 OA
ATOM    112  O   UNL A   1      38.101  26.870  32.790  1.00  0.00    -0.744 OA
ENDBRANCH 105 109
ENDBRANCH  79 102
ENDBRANCH  53  54
ENDBRANCH  45  48
ENDBRANCH  43  44
ENDBRANCH  42  43
ENDBRANCH  41  42
ENDBRANCH   1  41
TORSDOF 22
ENDMDL
MODEL 3
REMARK VINA RESULT:     -10.2      5.993     11.849
REMARK SMILES Cc1oc2c(C)c3oc(=O)c(CCC(=O)N[C@H](Cc4ccc(Cl)cc4)C(=O)NCCCCCCNC(=O)c4ccc(-c5c6nc(c(-c7cc(S(=O)(=O)[O-])ccc7F)c7ccc([nH]7)c(-c7cc(S(=O)(=O)[O-])ccc7F)c7nc(c(-c8cc(S(=O)(=O)[O-])ccc8F)c8ccc5[nH]8)C=C7)C=C6)cc4)c(C)c3cc2c1C
REMARK SMILES IDX 31 1 30 2 29 3 28 4 26 5 27 6 17 8 16 9 14 10 15 11 13 13
REMARK SMILES IDX 12 14 11 15 1 16 2 17 3 18 106 19 4 20 105 21 107 22 5 23
REMARK SMILES IDX 104 24 6 25 7 26 103 27 8 28 101 29 9 30 102 31 10 32 18 33
REMARK SMILES IDX 19 34 20 35 25 36 21 37 24 38 22 39 23 40 32 41 33 42 34 43
REMARK SMILES IDX 35 44 36 45 37 47 38 48 39 49 100 50 40 51 99 52 41 53 42 54
REMARK SMILES IDX 43 55 93 56 44 57 98 58 92 59 94 60 45 61 97 62 91 63 90 64
REMARK SMILES IDX 46 66 78 67 58 68 77 69 59 70 62 71 76 72 95 73 60 74 61 75
REMARK SMILES IDX 75 77 96 78 63 79 47 80 48 81 56 82 49 83 55 84 57 85 54 86
REMARK SMILES IDX 50 87 51 88 52 89 53 90 79 91 80 92 88 93 81 94 87 95 89 96
REMARK SMILES IDX 86 97 82 98 83 99 84 100 85 101 64 102 65 103 73 104 66 105
REMARK SMILES IDX 72 106 74 107 71 108 67 109 68 110 69 111 70 112
REMARK H PARENT 28 7 16 12 35 46 94 65 62 76
REMARK Flexibility Score: inf
ROOT
ATOM      1  C   UNL A   1      35.165  31.501  28.175  1.00  0.00     0.002 C 
ENDROOT
BRANCH   1   2
ATOM      2  C   UNL A   1      35.388  30.337  27.225  1.00  0.00     0.021 C 
BRANCH   2   3
ATOM      3  C   UNL A   1      34.123  29.546  26.974  1.00  0.00     0.116 C 
BRANCH   3   4
ATOM      4  N   UNL A   1      33.712  29.670  25.597  1.00  0.00    -0.354 N 
ATOM      5  C   UNL A   1      32.386  29.843  25.364  1.00  0.00     0.242 C 
ATOM      6  O   UNL A   1      31.753  30.667  26.032  1.00  0.00    -0.273 OA
ATOM      7  H   UNL A   1      34.362  29.630  24.859  1.00  0.00     0.163 HD
BRANCH   5   8
ATOM      8  C   UNL A   1      31.688  28.944  24.322  1.00  0.00     0.175 C 
BRANCH   8   9
ATOM      9  N   UNL A   1      32.484  29.173  23.104  1.00  0.00    -0.344 N 
ATOM     10  C   UNL A   1      33.282  28.236  22.504  1.00  0.00     0.220 C 
ATOM     11  O   UNL A   1      34.357  28.577  22.016  1.00  0.00    -0.275 OA
ATOM     12  H   UNL A   1      32.439  30.065  22.692  1.00  0.00     0.164 HD
BRANCH  10  13
ATOM     13  C   UNL A   1      32.760  26.819  22.361  1.00  0.00     0.105 C 
BRANCH  13  14
ATOM     14  C   UNL A   1      31.781  26.358  23.457  1.00  0.00     0.053 C 
BRANCH  14  15
ATOM     15  C   UNL A   1      32.241  25.108  24.194  1.00  0.00     0.042 A 
ATOM     16  C   UNL A   1      34.913  17.150  24.175  1.00  0.00     0.088 C 
ATOM     17  C   UNL A   1      34.253  18.470  24.275  1.00  0.00     0.105 A 
ATOM     18  O   UNL A   1      34.905  19.421  25.002  1.00  0.00    -0.461 OA
ATOM     19  C   UNL A   1      33.094  18.991  23.728  1.00  0.00    -0.002 A 
ATOM     20  C   UNL A   1      34.172  20.568  24.925  1.00  0.00     0.141 A 
ATOM     21  C   UNL A   1      33.021  20.341  24.187  1.00  0.00     0.025 A 
ATOM     22  C   UNL A   1      32.153  18.330  22.791  1.00  0.00     0.049 C 
ATOM     23  C   UNL A   1      34.546  21.807  25.453  1.00  0.00     0.036 A 
ATOM     24  C   UNL A   1      32.130  21.412  23.977  1.00  0.00     0.024 A 
ATOM     25  C   UNL A   1      35.843  21.995  26.176  1.00  0.00     0.052 C 
ATOM     26  C   UNL A   1      33.642  22.857  25.162  1.00  0.00     0.145 A 
ATOM     27  C   UNL A   1      32.443  22.697  24.452  1.00  0.00     0.022 A 
ATOM     28  O   UNL A   1      34.051  24.154  25.543  1.00  0.00    -0.422 OA
ATOM     29  C   UNL A   1      31.663  23.894  24.057  1.00  0.00    -0.030 A 
ATOM     30  C   UNL A   1      33.463  25.293  25.025  1.00  0.00     0.339 A 
ATOM     31  C   UNL A   1      30.347  23.730  23.338  1.00  0.00     0.046 C 
ATOM     32  O   UNL A   1      33.947  26.403  25.224  1.00  0.00    -0.246 OA
ENDBRANCH  14  15
ENDBRANCH  13  14
ENDBRANCH  10  13
ENDBRANCH   8   9
BRANCH   8  33
ATOM     33  C   UNL A   1      30.171  28.931  24.072  1.00  0.00     0.070 C 
BRANCH  33  34
ATOM     34  C   UNL A   1      29.503  29.972  23.211  1.00  0.00    -0.045 A 
ATOM     35  C   UNL A   1      29.206  31.237  23.755  1.00  0.00     0.005 A 
ATOM     36  C   UNL A   1      29.122  29.696  21.893  1.00  0.00     0.005 A 
ATOM     37  C   UNL A   1      28.575  32.217  22.985  1.00  0.00     0.021 A 
ATOM     38  C   UNL A   1      28.494  30.679  21.120  1.00  0.00     0.021 A 
ATOM     39  C   UNL A   1      28.235  31.938  21.664  1.00  0.00     0.041 A 
ATOM     40  Cl  UNL A   1      27.559  33.176  20.680  1.00  0.00    -0.084 Cl
ENDBRANCH  33  34
ENDBRANCH   8  33
ENDBRANCH   5   8
ENDBRANCH   3   4
ENDBRANCH   2   3
ENDBRANCH   1   2
BRANCH   1  41
ATOM     41  C   UNL A   1      36.469  32.103  28.695  1.00  0.00     0.002 C 
BRANCH  41  42
ATOM     42  C   UNL A   1      36.870  31.625  30.100  1.00  0.00     0.021 C 
BRANCH  42  43
ATOM     43  C   UNL A   1      36.486  30.174  30.404  1.00  0.00     0.116 C 
BRANCH  43  44
ATOM     44  N   UNL A   1      36.564  29.949  31.834  1.00  0.00    -0.352 N 
ATOM     45  C   UNL A   1      37.556  29.290  32.505  1.00  0.00     0.251 C 
ATOM     46  H   UNL A   1      35.825  30.306  32.378  1.00  0.00     0.163 HD
ATOM     47  O   UNL A   1      37.292  28.683  33.535  1.00  0.00    -0.269 OA
BRANCH  45  48
ATOM     48  C   UNL A   1      38.938  29.350  31.990  1.00  0.00     0.039 A 
ATOM     49  C   UNL A   1      39.463  28.214  31.377  1.00  0.00     0.014 A 
ATOM     50  C   UNL A   1      39.741  30.479  32.218  1.00  0.00     0.014 A 
ATOM     51  C   UNL A   1      40.797  28.206  30.994  1.00  0.00     0.010 A 
ATOM     52  C   UNL A   1      41.078  30.470  31.828  1.00  0.00     0.010 A 
ATOM     53  C   UNL A   1      41.610  29.329  31.222  1.00  0.00    -0.014 A 
BRANCH  53  54
ATOM     54  C   UNL A   1      43.017  29.212  30.813  1.00  0.00     0.031 A 
ATOM     55  C   UNL A   1      43.939  28.472  31.735  1.00  0.00     0.074 A 
ATOM     56  C   UNL A   1      43.277  29.158  29.492  1.00  0.00     0.049 A 
ATOM     57  N   UNL A   1      44.069  27.178  31.801  1.00  0.00    -0.248 NA
ATOM     58  C   UNL A   1      44.640  29.186  32.806  1.00  0.00     0.031 C 
ATOM     59  C   UNL A   1      42.549  28.323  28.530  1.00  0.00     0.029 A 
ATOM     60  N   UNL A   1      44.338  29.660  28.785  1.00  0.00    -0.354 N 
ATOM     61  C   UNL A   1      44.874  26.900  32.899  1.00  0.00     0.074 A 
ATOM     62  C   UNL A   1      45.180  28.177  33.504  1.00  0.00     0.031 C 
ATOM     63  C   UNL A   1      43.280  28.234  27.402  1.00  0.00     0.029 A 
ATOM     64  C   UNL A   1      44.462  29.082  27.525  1.00  0.00     0.049 A 
ATOM     65  H   UNL A   1      44.946  30.352  29.131  1.00  0.00     0.167 HD
ATOM     66  C   UNL A   1      45.283  25.649  33.246  1.00  0.00     0.034 A 
ATOM     67  C   UNL A   1      45.662  28.884  26.915  1.00  0.00     0.034 A 
ATOM     68  C   UNL A   1      44.896  24.604  32.350  1.00  0.00     0.049 A 
ATOM     69  C   UNL A   1      46.094  27.605  27.601  1.00  0.00     0.074 A 
ATOM     70  C   UNL A   1      43.868  23.695  32.233  1.00  0.00     0.029 A 
ATOM     71  N   UNL A   1      45.675  24.390  31.236  1.00  0.00    -0.354 N 
ATOM     72  N   UNL A   1      45.643  26.402  27.358  1.00  0.00    -0.248 NA
ATOM     73  C   UNL A   1      46.777  27.743  28.892  1.00  0.00     0.031 C 
ATOM     74  C   UNL A   1      43.835  23.340  30.847  1.00  0.00     0.029 A 
ATOM     75  C   UNL A   1      44.816  24.097  30.208  1.00  0.00     0.049 A 
ATOM     76  H   UNL A   1      46.657  24.439  31.187  1.00  0.00     0.167 HD
ATOM     77  C   UNL A   1      45.725  25.717  28.573  1.00  0.00     0.074 A 
ATOM     78  C   UNL A   1      46.466  26.588  29.464  1.00  0.00     0.031 C 
ATOM     79  C   UNL A   1      45.023  24.579  28.859  1.00  0.00     0.034 A 
BRANCH  66  80
ATOM     80  C   UNL A   1      46.208  25.334  34.359  1.00  0.00     0.023 A 
ATOM     81  C   UNL A   1      47.413  24.684  34.057  1.00  0.00     0.031 A 
ATOM     82  C   UNL A   1      45.834  25.454  35.704  1.00  0.00     0.131 A 
ATOM     83  C   UNL A   1      48.186  24.123  35.079  1.00  0.00     0.055 A 
ATOM     84  C   UNL A   1      46.622  24.909  36.726  1.00  0.00     0.041 A 
ATOM     85  F   UNL A   1      44.682  26.051  36.044  1.00  0.00    -0.206 F 
ATOM     86  C   UNL A   1      47.796  24.223  36.415  1.00  0.00     0.022 A 
BRANCH  83  87
ATOM     87  S   UNL A   1      49.659  23.180  34.608  1.00  0.00     0.124 S 
ATOM     88  O   UNL A   1      50.358  23.055  35.883  1.00  0.00    -0.237 OA
ATOM     89  O   UNL A   1      49.068  21.954  34.080  1.00  0.00    -0.237 OA
ATOM     90  O   UNL A   1      50.310  24.036  33.620  1.00  0.00    -0.744 OA
ENDBRANCH  83  87
ENDBRANCH  66  80
BRANCH  67  91
ATOM     91  C   UNL A   1      46.514  30.116  26.801  1.00  0.00     0.023 A 
ATOM     92  C   UNL A   1      45.859  31.341  26.534  1.00  0.00     0.031 A 
ATOM     93  C   UNL A   1      47.903  30.175  26.972  1.00  0.00     0.131 A 
ATOM     94  C   UNL A   1      46.548  32.561  26.587  1.00  0.00     0.055 A 
ATOM     95  C   UNL A   1      48.591  31.394  27.038  1.00  0.00     0.041 A 
ATOM     96  F   UNL A   1      48.635  29.061  27.115  1.00  0.00    -0.206 F 
ATOM     97  C   UNL A   1      47.910  32.597  26.872  1.00  0.00     0.022 A 
BRANCH  94  98
ATOM     98  S   UNL A   1      45.610  34.101  26.387  1.00  0.00     0.124 S 
ATOM     99  O   UNL A   1      46.060  34.564  25.079  1.00  0.00    -0.237 OA
ATOM    100  O   UNL A   1      44.227  33.639  26.462  1.00  0.00    -0.237 OA
ATOM    101  O   UNL A   1      46.046  34.912  27.522  1.00  0.00    -0.744 OA
ENDBRANCH  94  98
ENDBRANCH  67  91
BRANCH  79 102
ATOM    102  C   UNL A   1      44.243  23.973  27.738  1.00  0.00     0.023 A 
ATOM    103  C   UNL A   1      44.849  23.048  26.875  1.00  0.00     0.031 A 
ATOM    104  C   UNL A   1      42.875  24.252  27.564  1.00  0.00     0.131 A 
ATOM    105  C   UNL A   1      44.083  22.405  25.894  1.00  0.00     0.055 A 
ATOM    106  C   UNL A   1      42.109  23.585  26.608  1.00  0.00     0.041 A 
ATOM    107  F   UNL A   1      42.246  25.153  28.337  1.00  0.00    -0.206 F 
ATOM    108  C   UNL A   1      42.711  22.651  25.772  1.00  0.00     0.022 A 
BRANCH 105 109
ATOM    109  S   UNL A   1      44.882  21.193  24.810  1.00  0.00     0.124 S 
ATOM    110  O   UNL A   1      44.239  19.945  25.203  1.00  0.00    -0.237 OA
ATOM    111  O   UNL A   1      44.554  21.689  23.476  1.00  0.00    -0.237 OA
ATOM    112  O   UNL A   1      46.297  21.299  25.168  1.00  0.00    -0.744 OA
ENDBRANCH 105 109
ENDBRANCH  79 102
ENDBRANCH  53  54
ENDBRANCH  45  48
ENDBRANCH  43  44
ENDBRANCH  42  43
ENDBRANCH  41  42
ENDBRANCH   1  41
TORSDOF 22
ENDMDL
