MODEL 1
REMARK VINA RESULT:     -13.2      0.000      0.000
REMARK SMILES O=C(NCCCCCCNC(=O)c1ccc2c(c1)[C@@H]1C=CC[C@@H]1[C@H](c1ccncc1)N2)c1ccc(-c2c3nc(c(-c4cc(S(=O)(=O)[O-])ccc4F)c4ccc([nH]4)c(-c4cc(S(=O)(=O)[O-])ccc4F)c4nc(c(-c5cc(S(=O)(=O)[O-])ccc5F)c5ccc2[nH]5)C=C4)C=C3)cc1
REMARK SMILES IDX 5 1 4 2 3 3 1 4 2 5 32 7 33 8 94 9 34 10 93 11 35 12 36 13
REMARK SMILES IDX 37 14 87 15 38 16 92 17 86 18 88 19 39 20 91 21 85 22 84 23
REMARK SMILES IDX 40 25 72 26 52 27 71 28 53 29 56 30 70 31 89 32 54 33 55 34
REMARK SMILES IDX 69 36 90 37 57 38 41 39 42 40 50 41 43 42 49 43 51 44 48 45
REMARK SMILES IDX 44 46 45 47 46 48 47 49 73 50 74 51 82 52 75 53 81 54 83 55
REMARK SMILES IDX 80 56 76 57 77 58 78 59 79 60 58 61 59 62 67 63 60 64 66 65
REMARK SMILES IDX 68 66 65 67 61 68 62 69 63 70 64 71 6 72 7 73 8 74 9 75
REMARK SMILES IDX 10 76 11 77 12 79 13 80 14 81 18 82 15 83 17 84 16 85 19 86
REMARK SMILES IDX 31 87 20 88 23 89 24 90 21 92 22 93 25 94 26 95 30 96 27 97
REMARK SMILES IDX 29 98 28 99
REMARK H PARENT 3 6 88 24 56 35 10 78 31 91
REMARK Flexibility Score: inf
ROOT
ATOM      1  C   UNL A   1      31.666  31.739  26.614  1.00  0.00     0.021 C 
ENDROOT
BRANCH   1   2
ATOM      2  C   UNL A   1      32.863  32.418  27.267  1.00  0.00     0.116 C 
BRANCH   2   3
ATOM      3  N   UNL A   1      32.581  33.796  27.633  1.00  0.00    -0.352 N 
ATOM      4  O   UNL A   1      32.676  35.642  28.924  1.00  0.00    -0.269 OA
ATOM      5  C   UNL A   1      33.160  34.555  28.618  1.00  0.00     0.251 C 
ATOM      6  H   UNL A   1      31.881  34.244  27.105  1.00  0.00     0.163 HD
BRANCH   5   7
ATOM      7  C   UNL A   1      34.364  34.050  29.314  1.00  0.00     0.039 A 
ATOM      8  C   UNL A   1      34.240  33.131  30.361  1.00  0.00     0.014 A 
ATOM      9  C   UNL A   1      35.626  34.480  28.899  1.00  0.00     0.014 A 
ATOM     10  C   UNL A   1      35.371  32.718  31.057  1.00  0.00     0.010 A 
ATOM     11  C   UNL A   1      36.767  34.002  29.549  1.00  0.00     0.010 A 
ATOM     12  C   UNL A   1      36.647  33.119  30.634  1.00  0.00    -0.014 A 
BRANCH  12  13
ATOM     13  C   UNL A   1      37.847  32.499  31.251  1.00  0.00     0.031 A 
ATOM     14  C   UNL A   1      38.559  31.352  30.593  1.00  0.00     0.074 A 
ATOM     15  C   UNL A   1      38.270  32.982  32.437  1.00  0.00     0.049 A 
ATOM     16  N   UNL A   1      39.585  30.667  31.027  1.00  0.00    -0.248 NA
ATOM     17  C   UNL A   1      38.054  30.912  29.283  1.00  0.00     0.031 C 
ATOM     18  C   UNL A   1      37.639  34.092  33.162  1.00  0.00     0.029 A 
ATOM     19  N   UNL A   1      39.311  32.612  33.246  1.00  0.00    -0.354 N 
ATOM     20  C   UNL A   1      39.838  29.701  30.061  1.00  0.00     0.074 A 
ATOM     21  C   UNL A   1      38.848  29.881  29.020  1.00  0.00     0.031 C 
ATOM     22  C   UNL A   1      38.317  34.320  34.295  1.00  0.00     0.029 A 
ATOM     23  C   UNL A   1      39.374  33.327  34.421  1.00  0.00     0.049 A 
ATOM     24  H   UNL A   1      39.952  31.903  33.010  1.00  0.00     0.167 HD
ATOM     25  C   UNL A   1      40.807  28.753  30.056  1.00  0.00     0.034 A 
ATOM     26  C   UNL A   1      40.161  33.169  35.503  1.00  0.00     0.034 A 
ATOM     27  C   UNL A   1      41.788  28.603  31.107  1.00  0.00     0.049 A 
ATOM     28  C   UNL A   1      41.186  32.068  35.490  1.00  0.00     0.074 A 
ATOM     29  C   UNL A   1      42.865  27.734  31.158  1.00  0.00     0.029 A 
ATOM     30  N   UNL A   1      41.797  29.315  32.298  1.00  0.00    -0.354 N 
ATOM     31  N   UNL A   1      41.457  31.207  34.534  1.00  0.00    -0.248 NA
ATOM     32  C   UNL A   1      42.009  31.910  36.695  1.00  0.00     0.031 C 
ATOM     33  C   UNL A   1      43.468  27.858  32.413  1.00  0.00     0.029 A 
ATOM     34  C   UNL A   1      42.823  28.863  33.115  1.00  0.00     0.049 A 
ATOM     35  H   UNL A   1      41.168  30.036  32.529  1.00  0.00     0.167 HD
ATOM     36  C   UNL A   1      42.491  30.415  35.023  1.00  0.00     0.074 A 
ATOM     37  C   UNL A   1      42.814  30.920  36.342  1.00  0.00     0.031 C 
ATOM     38  C   UNL A   1      43.115  29.363  34.437  1.00  0.00     0.034 A 
BRANCH  25  39
ATOM     39  C   UNL A   1      40.836  27.765  28.916  1.00  0.00     0.023 A 
ATOM     40  C   UNL A   1      41.759  27.863  27.862  1.00  0.00     0.031 A 
ATOM     41  C   UNL A   1      39.944  26.676  28.914  1.00  0.00     0.131 A 
ATOM     42  C   UNL A   1      41.747  26.908  26.831  1.00  0.00     0.055 A 
ATOM     43  C   UNL A   1      39.979  25.695  27.921  1.00  0.00     0.041 A 
ATOM     44  F   UNL A   1      39.028  26.543  29.886  1.00  0.00    -0.206 F 
ATOM     45  C   UNL A   1      40.880  25.812  26.868  1.00  0.00     0.022 A 
BRANCH  42  46
ATOM     46  S   UNL A   1      42.822  27.163  25.392  1.00  0.00     0.124 S 
ATOM     47  O   UNL A   1      42.701  25.883  24.700  1.00  0.00    -0.237 OA
ATOM     48  O   UNL A   1      42.201  28.306  24.733  1.00  0.00    -0.237 OA
ATOM     49  O   UNL A   1      44.133  27.421  25.984  1.00  0.00    -0.744 OA
ENDBRANCH  42  46
ENDBRANCH  25  39
BRANCH  26  50
ATOM     50  C   UNL A   1      39.962  34.019  36.712  1.00  0.00     0.023 A 
ATOM     51  C   UNL A   1      39.375  33.503  37.875  1.00  0.00     0.031 A 
ATOM     52  C   UNL A   1      40.306  35.385  36.699  1.00  0.00     0.131 A 
ATOM     53  C   UNL A   1      39.095  34.355  38.954  1.00  0.00     0.055 A 
ATOM     54  C   UNL A   1      40.089  36.213  37.801  1.00  0.00     0.041 A 
ATOM     55  F   UNL A   1      40.868  35.936  35.612  1.00  0.00    -0.206 F 
ATOM     56  C   UNL A   1      39.463  35.702  38.933  1.00  0.00     0.022 A 
BRANCH  53  57
ATOM     57  S   UNL A   1      38.126  33.703  40.342  1.00  0.00     0.124 S 
ATOM     58  O   UNL A   1      37.787  34.924  41.066  1.00  0.00    -0.237 OA
ATOM     59  O   UNL A   1      37.024  33.038  39.655  1.00  0.00    -0.237 OA
ATOM     60  O   UNL A   1      39.064  32.814  41.023  1.00  0.00    -0.744 OA
ENDBRANCH  53  57
ENDBRANCH  26  50
BRANCH  38  61
ATOM     61  C   UNL A   1      44.223  28.708  35.221  1.00  0.00     0.023 A 
ATOM     62  C   UNL A   1      43.965  27.648  36.108  1.00  0.00     0.031 A 
ATOM     63  C   UNL A   1      45.550  29.152  35.085  1.00  0.00     0.131 A 
ATOM     64  C   UNL A   1      45.013  27.098  36.859  1.00  0.00     0.055 A 
ATOM     65  C   UNL A   1      46.598  28.559  35.790  1.00  0.00     0.041 A 
ATOM     66  F   UNL A   1      45.850  30.165  34.256  1.00  0.00    -0.206 F 
ATOM     67  C   UNL A   1      46.330  27.533  36.691  1.00  0.00     0.022 A 
BRANCH  64  68
ATOM     68  S   UNL A   1      44.622  25.850  38.116  1.00  0.00     0.124 S 
ATOM     69  O   UNL A   1      43.688  26.570  38.976  1.00  0.00    -0.237 OA
ATOM     70  O   UNL A   1      44.051  24.769  37.318  1.00  0.00    -0.237 OA
ATOM     71  O   UNL A   1      45.919  25.553  38.719  1.00  0.00    -0.744 OA
ENDBRANCH  64  68
ENDBRANCH  38  61
ENDBRANCH  12  13
ENDBRANCH   5   7
ENDBRANCH   2   3
ENDBRANCH   1   2
BRANCH   1  72
ATOM     72  C   UNL A   1      31.800  30.225  26.452  1.00  0.00     0.002 C 
BRANCH  72  73
ATOM     73  C   UNL A   1      32.045  29.739  25.021  1.00  0.00     0.002 C 
BRANCH  73  74
ATOM     74  C   UNL A   1      30.786  29.419  24.211  1.00  0.00     0.021 C 
BRANCH  74  75
ATOM     75  C   UNL A   1      31.042  28.848  22.820  1.00  0.00     0.116 C 
BRANCH  75  76
ATOM     76  N   UNL A   1      32.413  29.063  22.384  1.00  0.00    -0.352 N 
ATOM     77  C   UNL A   1      33.448  28.163  22.322  1.00  0.00     0.251 C 
ATOM     78  H   UNL A   1      32.629  29.979  22.095  1.00  0.00     0.163 HD
ATOM     79  O   UNL A   1      34.593  28.542  22.099  1.00  0.00    -0.269 OA
BRANCH  77  80
ATOM     80  C   UNL A   1      33.175  26.729  22.541  1.00  0.00     0.040 A 
ATOM     81  C   UNL A   1      32.616  25.979  21.509  1.00  0.00     0.016 A 
ATOM     82  C   UNL A   1      33.495  26.122  23.756  1.00  0.00     0.020 A 
ATOM     83  C   UNL A   1      32.405  24.611  21.694  1.00  0.00     0.027 A 
ATOM     84  C   UNL A   1      33.351  24.735  23.917  1.00  0.00    -0.017 A 
ATOM     85  C   UNL A   1      32.742  23.980  22.901  1.00  0.00     0.038 A 
ATOM     86  C   UNL A   1      33.877  24.076  25.171  1.00  0.00     0.049 C 
ATOM     87  N   UNL A   1      32.545  22.611  23.032  1.00  0.00    -0.378 N 
ATOM     88  C   UNL A   1      35.353  24.315  25.376  1.00  0.00    -0.023 C 
ATOM     89  C   UNL A   1      33.845  22.537  25.130  1.00  0.00     0.031 C 
ATOM     90  C   UNL A   1      32.640  22.002  24.352  1.00  0.00     0.114 C 
ATOM     91  H   UNL A   1      32.343  22.060  22.242  1.00  0.00     0.161 HD
ATOM     92  C   UNL A   1      36.088  23.241  25.065  1.00  0.00    -0.030 C 
ATOM     93  C   UNL A   1      35.227  22.107  24.610  1.00  0.00     0.034 C 
BRANCH  90  94
ATOM     94  C   UNL A   1      32.623  20.482  24.287  1.00  0.00    -0.022 A 
ATOM     95  C   UNL A   1      32.836  19.743  25.461  1.00  0.00     0.026 A 
ATOM     96  C   UNL A   1      32.419  19.763  23.102  1.00  0.00     0.026 A 
ATOM     97  C   UNL A   1      32.824  18.358  25.402  1.00  0.00     0.111 A 
ATOM     98  C   UNL A   1      32.406  18.377  23.148  1.00  0.00     0.111 A 
ATOM     99  N   UNL A   1      32.595  17.658  24.273  1.00  0.00    -0.265 NA
ENDBRANCH  90  94
ENDBRANCH  77  80
ENDBRANCH  75  76
ENDBRANCH  74  75
ENDBRANCH  73  74
ENDBRANCH  72  73
ENDBRANCH   1  72
TORSDOF 17
ENDMDL
MODEL 2
REMARK VINA RESULT:     -13.0      1.499      2.120
REMARK SMILES O=C(NCCCCCCNC(=O)c1ccc2c(c1)[C@@H]1C=CC[C@@H]1[C@H](c1ccncc1)N2)c1ccc(-c2c3nc(c(-c4cc(S(=O)(=O)[O-])ccc4F)c4ccc([nH]4)c(-c4cc(S(=O)(=O)[O-])ccc4F)c4nc(c(-c5cc(S(=O)(=O)[O-])ccc5F)c5ccc2[nH]5)C=C4)C=C3)cc1
REMARK SMILES IDX 5 1 4 2 3 3 1 4 2 5 32 7 33 8 94 9 34 10 93 11 35 12 36 13
REMARK SMILES IDX 37 14 87 15 38 16 92 17 86 18 88 19 39 20 91 21 85 22 84 23
REMARK SMILES IDX 40 25 72 26 52 27 71 28 53 29 56 30 70 31 89 32 54 33 55 34
REMARK SMILES IDX 69 36 90 37 57 38 41 39 42 40 50 41 43 42 49 43 51 44 48 45
REMARK SMILES IDX 44 46 45 47 46 48 47 49 73 50 74 51 82 52 75 53 81 54 83 55
REMARK SMILES IDX 80 56 76 57 77 58 78 59 79 60 58 61 59 62 67 63 60 64 66 65
REMARK SMILES IDX 68 66 65 67 61 68 62 69 63 70 64 71 6 72 7 73 8 74 9 75
REMARK SMILES IDX 10 76 11 77 12 79 13 80 14 81 18 82 15 83 17 84 16 85 19 86
REMARK SMILES IDX 31 87 20 88 23 89 24 90 21 92 22 93 25 94 26 95 30 96 27 97
REMARK SMILES IDX 29 98 28 99
REMARK H PARENT 3 6 88 24 56 35 10 78 31 91
REMARK Flexibility Score: inf
ROOT
ATOM      1  C   UNL A   1      31.621  31.890  26.680  1.00  0.00     0.021 C 
ENDROOT
BRANCH   1   2
ATOM      2  C   UNL A   1      32.834  32.610  27.254  1.00  0.00     0.116 C 
BRANCH   2   3
ATOM      3  N   UNL A   1      32.519  33.965  27.675  1.00  0.00    -0.352 N 
ATOM      4  O   UNL A   1      32.562  35.755  29.045  1.00  0.00    -0.269 OA
ATOM      5  C   UNL A   1      33.071  34.692  28.699  1.00  0.00     0.251 C 
ATOM      6  H   UNL A   1      31.817  34.421  27.158  1.00  0.00     0.163 HD
BRANCH   5   7
ATOM      7  C   UNL A   1      34.276  34.181  29.388  1.00  0.00     0.039 A 
ATOM      8  C   UNL A   1      34.153  33.414  30.552  1.00  0.00     0.014 A 
ATOM      9  C   UNL A   1      35.538  34.450  28.853  1.00  0.00     0.014 A 
ATOM     10  C   UNL A   1      35.292  33.000  31.233  1.00  0.00     0.010 A 
ATOM     11  C   UNL A   1      36.680  33.965  29.496  1.00  0.00     0.010 A 
ATOM     12  C   UNL A   1      36.564  33.239  30.692  1.00  0.00    -0.014 A 
BRANCH  12  13
ATOM     13  C   UNL A   1      37.752  32.604  31.318  1.00  0.00     0.031 A 
ATOM     14  C   UNL A   1      38.469  31.464  30.656  1.00  0.00     0.074 A 
ATOM     15  C   UNL A   1      38.159  33.069  32.517  1.00  0.00     0.049 A 
ATOM     16  N   UNL A   1      39.485  30.768  31.095  1.00  0.00    -0.248 NA
ATOM     17  C   UNL A   1      37.982  31.044  29.332  1.00  0.00     0.031 C 
ATOM     18  C   UNL A   1      37.523  34.172  33.248  1.00  0.00     0.029 A 
ATOM     19  N   UNL A   1      39.186  32.683  33.337  1.00  0.00    -0.354 N 
ATOM     20  C   UNL A   1      39.749  29.814  30.119  1.00  0.00     0.074 A 
ATOM     21  C   UNL A   1      38.775  30.013  29.066  1.00  0.00     0.031 C 
ATOM     22  C   UNL A   1      38.185  34.381  34.395  1.00  0.00     0.029 A 
ATOM     23  C   UNL A   1      39.235  33.381  34.522  1.00  0.00     0.049 A 
ATOM     24  H   UNL A   1      39.828  31.974  33.100  1.00  0.00     0.167 HD
ATOM     25  C   UNL A   1      40.713  28.861  30.116  1.00  0.00     0.034 A 
ATOM     26  C   UNL A   1      40.004  33.204  35.614  1.00  0.00     0.034 A 
ATOM     27  C   UNL A   1      41.678  28.692  31.179  1.00  0.00     0.049 A 
ATOM     28  C   UNL A   1      41.025  32.098  35.600  1.00  0.00     0.074 A 
ATOM     29  C   UNL A   1      42.749  27.817  31.234  1.00  0.00     0.029 A 
ATOM     30  N   UNL A   1      41.671  29.388  32.380  1.00  0.00    -0.354 N 
ATOM     31  N   UNL A   1      41.306  31.250  34.637  1.00  0.00    -0.248 NA
ATOM     32  C   UNL A   1      41.828  31.920  36.816  1.00  0.00     0.031 C 
ATOM     33  C   UNL A   1      43.334  27.922  32.500  1.00  0.00     0.029 A 
ATOM     34  C   UNL A   1      42.683  28.919  33.206  1.00  0.00     0.049 A 
ATOM     35  H   UNL A   1      41.042  30.108  32.612  1.00  0.00     0.167 HD
ATOM     36  C   UNL A   1      42.328  30.446  35.130  1.00  0.00     0.074 A 
ATOM     37  C   UNL A   1      42.634  30.931  36.461  1.00  0.00     0.031 C 
ATOM     38  C   UNL A   1      42.957  29.400  34.539  1.00  0.00     0.034 A 
BRANCH  25  39
ATOM     39  C   UNL A   1      40.755  27.890  28.962  1.00  0.00     0.023 A 
ATOM     40  C   UNL A   1      41.688  28.003  27.919  1.00  0.00     0.031 A 
ATOM     41  C   UNL A   1      39.864  26.800  28.936  1.00  0.00     0.131 A 
ATOM     42  C   UNL A   1      41.688  27.062  26.876  1.00  0.00     0.055 A 
ATOM     43  C   UNL A   1      39.910  25.833  27.930  1.00  0.00     0.041 A 
ATOM     44  F   UNL A   1      38.938  26.652  29.896  1.00  0.00    -0.206 F 
ATOM     45  C   UNL A   1      40.822  25.965  26.888  1.00  0.00     0.022 A 
BRANCH  42  46
ATOM     46  S   UNL A   1      42.777  27.338  25.451  1.00  0.00     0.124 S 
ATOM     47  O   UNL A   1      44.052  27.627  26.104  1.00  0.00    -0.237 OA
ATOM     48  O   UNL A   1      42.698  26.068  24.742  1.00  0.00    -0.237 OA
ATOM     49  O   UNL A   1      42.166  28.475  24.766  1.00  0.00    -0.744 OA
ENDBRANCH  42  46
ENDBRANCH  25  39
BRANCH  26  50
ATOM     50  C   UNL A   1      39.791  34.039  36.832  1.00  0.00     0.023 A 
ATOM     51  C   UNL A   1      39.257  33.488  38.005  1.00  0.00     0.031 A 
ATOM     52  C   UNL A   1      40.066  35.420  36.818  1.00  0.00     0.131 A 
ATOM     53  C   UNL A   1      38.959  34.321  39.094  1.00  0.00     0.055 A 
ATOM     54  C   UNL A   1      39.833  36.231  37.929  1.00  0.00     0.041 A 
ATOM     55  F   UNL A   1      40.575  36.002  35.721  1.00  0.00    -0.206 F 
ATOM     56  C   UNL A   1      39.260  35.685  39.072  1.00  0.00     0.022 A 
BRANCH  53  57
ATOM     57  S   UNL A   1      38.057  33.616  40.500  1.00  0.00     0.124 S 
ATOM     58  O   UNL A   1      38.066  34.728  41.446  1.00  0.00    -0.237 OA
ATOM     59  O   UNL A   1      36.766  33.295  39.901  1.00  0.00    -0.237 OA
ATOM     60  O   UNL A   1      38.870  32.465  40.883  1.00  0.00    -0.744 OA
ENDBRANCH  53  57
ENDBRANCH  26  50
BRANCH  38  61
ATOM     61  C   UNL A   1      44.049  28.729  35.331  1.00  0.00     0.023 A 
ATOM     62  C   UNL A   1      43.777  27.644  36.183  1.00  0.00     0.031 A 
ATOM     63  C   UNL A   1      45.378  29.181  35.236  1.00  0.00     0.131 A 
ATOM     64  C   UNL A   1      44.810  27.078  36.943  1.00  0.00     0.055 A 
ATOM     65  C   UNL A   1      46.412  28.574  35.949  1.00  0.00     0.041 A 
ATOM     66  F   UNL A   1      45.691  30.217  34.442  1.00  0.00    -0.206 F 
ATOM     67  C   UNL A   1      46.129  27.523  36.817  1.00  0.00     0.022 A 
BRANCH  64  68
ATOM     68  S   UNL A   1      44.397  25.795  38.157  1.00  0.00     0.124 S 
ATOM     69  O   UNL A   1      45.673  25.103  38.311  1.00  0.00    -0.237 OA
ATOM     70  O   UNL A   1      43.954  26.580  39.305  1.00  0.00    -0.237 OA
ATOM     71  O   UNL A   1      43.348  25.023  37.495  1.00  0.00    -0.744 OA
ENDBRANCH  64  68
ENDBRANCH  38  61
ENDBRANCH  12  13
ENDBRANCH   5   7
ENDBRANCH   2   3
ENDBRANCH   1   2
BRANCH   1  72
ATOM     72  C   UNL A   1      31.903  30.485  26.149  1.00  0.00     0.002 C 
BRANCH  72  73
ATOM     73  C   UNL A   1      32.103  29.408  27.219  1.00  0.00     0.002 C 
BRANCH  73  74
ATOM     74  C   UNL A   1      33.154  28.344  26.892  1.00  0.00     0.021 C 
BRANCH  74  75
ATOM     75  C   UNL A   1      32.596  26.952  26.612  1.00  0.00     0.116 C 
BRANCH  75  76
ATOM     76  N   UNL A   1      31.265  27.003  26.028  1.00  0.00    -0.352 N 
ATOM     77  C   UNL A   1      30.538  25.991  25.450  1.00  0.00     0.251 C 
ATOM     78  H   UNL A   1      30.825  27.883  26.049  1.00  0.00     0.163 HD
ATOM     79  O   UNL A   1      29.500  26.235  24.844  1.00  0.00    -0.269 OA
BRANCH  77  80
ATOM     80  C   UNL A   1      31.024  24.601  25.552  1.00  0.00     0.040 A 
ATOM     81  C   UNL A   1      30.550  23.789  26.579  1.00  0.00     0.016 A 
ATOM     82  C   UNL A   1      31.929  24.095  24.618  1.00  0.00     0.020 A 
ATOM     83  C   UNL A   1      30.967  22.458  26.647  1.00  0.00     0.027 A 
ATOM     84  C   UNL A   1      32.291  22.739  24.642  1.00  0.00    -0.017 A 
ATOM     85  C   UNL A   1      31.858  21.927  25.702  1.00  0.00     0.038 A 
ATOM     86  C   UNL A   1      33.122  22.174  23.514  1.00  0.00     0.049 C 
ATOM     87  N   UNL A   1      32.222  20.589  25.789  1.00  0.00    -0.378 N 
ATOM     88  C   UNL A   1      32.467  22.351  22.166  1.00  0.00    -0.023 C 
ATOM     89  C   UNL A   1      33.273  20.642  23.555  1.00  0.00     0.031 C 
ATOM     90  C   UNL A   1      33.337  20.103  24.985  1.00  0.00     0.114 C 
ATOM     91  H   UNL A   1      31.734  19.977  26.385  1.00  0.00     0.161 HD
ATOM     92  C   UNL A   1      31.926  21.214  21.713  1.00  0.00    -0.030 C 
ATOM     93  C   UNL A   1      32.137  20.090  22.677  1.00  0.00     0.034 C 
BRANCH  90  94
ATOM     94  C   UNL A   1      33.456  18.586  25.026  1.00  0.00    -0.022 A 
ATOM     95  C   UNL A   1      34.514  17.964  24.344  1.00  0.00     0.026 A 
ATOM     96  C   UNL A   1      32.552  17.759  25.703  1.00  0.00     0.026 A 
ATOM     97  C   UNL A   1      34.622  16.582  24.378  1.00  0.00     0.111 A 
ATOM     98  C   UNL A   1      32.755  16.387  25.695  1.00  0.00     0.111 A 
ATOM     99  N   UNL A   1      33.775  15.780  25.055  1.00  0.00    -0.265 NA
ENDBRANCH  90  94
ENDBRANCH  77  80
ENDBRANCH  75  76
ENDBRANCH  74  75
ENDBRANCH  73  74
ENDBRANCH  72  73
ENDBRANCH   1  72
TORSDOF 17
ENDMDL
MODEL 3
REMARK VINA RESULT:     -13.0      2.572      5.065
REMARK SMILES O=C(NCCCCCCNC(=O)c1ccc2c(c1)[C@@H]1C=CC[C@@H]1[C@H](c1ccncc1)N2)c1ccc(-c2c3nc(c(-c4cc(S(=O)(=O)[O-])ccc4F)c4ccc([nH]4)c(-c4cc(S(=O)(=O)[O-])ccc4F)c4nc(c(-c5cc(S(=O)(=O)[O-])ccc5F)c5ccc2[nH]5)C=C4)C=C3)cc1
REMARK SMILES IDX 5 1 4 2 3 3 1 4 2 5 32 7 33 8 94 9 34 10 93 11 35 12 36 13
REMARK SMILES IDX 37 14 87 15 38 16 92 17 86 18 88 19 39 20 91 21 85 22 84 23
REMARK SMILES IDX 40 25 72 26 52 27 71 28 53 29 56 30 70 31 89 32 54 33 55 34
REMARK SMILES IDX 69 36 90 37 57 38 41 39 42 40 50 41 43 42 49 43 51 44 48 45
REMARK SMILES IDX 44 46 45 47 46 48 47 49 73 50 74 51 82 52 75 53 81 54 83 55
REMARK SMILES IDX 80 56 76 57 77 58 78 59 79 60 58 61 59 62 67 63 60 64 66 65
REMARK SMILES IDX 68 66 65 67 61 68 62 69 63 70 64 71 6 72 7 73 8 74 9 75
REMARK SMILES IDX 10 76 11 77 12 79 13 80 14 81 18 82 15 83 17 84 16 85 19 86
REMARK SMILES IDX 31 87 20 88 23 89 24 90 21 92 22 93 25 94 26 95 30 96 27 97
REMARK SMILES IDX 29 98 28 99
REMARK H PARENT 3 6 88 24 56 35 10 78 31 91
REMARK Flexibility Score: inf
ROOT
ATOM      1  C   UNL A   1      32.594  28.303  25.984  1.00  0.00     0.021 C 
ENDROOT
BRANCH   1   2
ATOM      2  C   UNL A   1      33.630  29.390  25.729  1.00  0.00     0.116 C 
BRANCH   2   3
ATOM      3  N   UNL A   1      33.195  30.688  26.217  1.00  0.00    -0.352 N 
ATOM      4  O   UNL A   1      33.107  32.420  27.660  1.00  0.00    -0.269 OA
ATOM      5  C   UNL A   1      33.709  31.429  27.252  1.00  0.00     0.251 C 
ATOM      6  H   UNL A   1      32.431  31.089  25.744  1.00  0.00     0.163 HD
BRANCH   5   7
ATOM      7  C   UNL A   1      34.986  31.020  27.877  1.00  0.00     0.039 A 
ATOM      8  C   UNL A   1      36.035  31.935  28.001  1.00  0.00     0.014 A 
ATOM      9  C   UNL A   1      35.125  29.718  28.363  1.00  0.00     0.014 A 
ATOM     10  C   UNL A   1      37.256  31.523  28.523  1.00  0.00     0.010 A 
ATOM     11  C   UNL A   1      36.326  29.328  28.960  1.00  0.00     0.010 A 
ATOM     12  C   UNL A   1      37.401  30.227  29.041  1.00  0.00    -0.014 A 
BRANCH  12  13
ATOM     13  C   UNL A   1      38.636  29.876  29.787  1.00  0.00     0.031 A 
ATOM     14  C   UNL A   1      39.596  28.844  29.269  1.00  0.00     0.074 A 
ATOM     15  C   UNL A   1      38.863  30.496  30.963  1.00  0.00     0.049 A 
ATOM     16  N   UNL A   1      40.688  28.387  29.824  1.00  0.00    -0.248 NA
ATOM     17  C   UNL A   1      39.292  28.244  27.960  1.00  0.00     0.031 C 
ATOM     18  C   UNL A   1      37.984  31.510  31.558  1.00  0.00     0.029 A 
ATOM     19  N   UNL A   1      39.881  30.372  31.872  1.00  0.00    -0.354 N 
ATOM     20  C   UNL A   1      41.192  27.430  28.951  1.00  0.00     0.074 A 
ATOM     21  C   UNL A   1      40.278  27.363  27.831  1.00  0.00     0.031 C 
ATOM     22  C   UNL A   1      38.511  31.924  32.719  1.00  0.00     0.029 A 
ATOM     23  C   UNL A   1      39.715  31.152  32.993  1.00  0.00     0.049 A 
ATOM     24  H   UNL A   1      40.657  29.781  31.735  1.00  0.00     0.167 HD
ATOM     25  C   UNL A   1      42.312  26.678  29.086  1.00  0.00     0.034 A 
ATOM     26  C   UNL A   1      40.421  31.205  34.138  1.00  0.00     0.034 A 
ATOM     27  C   UNL A   1      43.211  26.773  30.214  1.00  0.00     0.049 A 
ATOM     28  C   UNL A   1      41.625  30.313  34.280  1.00  0.00     0.074 A 
ATOM     29  C   UNL A   1      44.417  26.122  30.406  1.00  0.00     0.029 A 
ATOM     30  N   UNL A   1      42.989  27.541  31.349  1.00  0.00    -0.354 N 
ATOM     31  N   UNL A   1      42.126  29.463  33.411  1.00  0.00    -0.248 NA
ATOM     32  C   UNL A   1      42.357  30.379  35.551  1.00  0.00     0.031 C 
ATOM     33  C   UNL A   1      44.879  26.427  31.690  1.00  0.00     0.029 A 
ATOM     34  C   UNL A   1      44.007  27.334  32.269  1.00  0.00     0.049 A 
ATOM     35  H   UNL A   1      42.224  28.146  31.481  1.00  0.00     0.167 HD
ATOM     36  C   UNL A   1      43.240  28.905  34.030  1.00  0.00     0.074 A 
ATOM     37  C   UNL A   1      43.353  29.536  35.330  1.00  0.00     0.031 C 
ATOM     38  C   UNL A   1      44.091  27.955  33.569  1.00  0.00     0.034 A 
BRANCH  25  39
ATOM     39  C   UNL A   1      42.614  25.649  28.025  1.00  0.00     0.023 A 
ATOM     40  C   UNL A   1      41.938  24.420  27.958  1.00  0.00     0.031 A 
ATOM     41  C   UNL A   1      43.571  25.932  27.033  1.00  0.00     0.131 A 
ATOM     42  C   UNL A   1      42.253  23.504  26.940  1.00  0.00     0.055 A 
ATOM     43  C   UNL A   1      43.835  25.044  25.988  1.00  0.00     0.041 A 
ATOM     44  F   UNL A   1      44.262  27.082  27.058  1.00  0.00    -0.206 F 
ATOM     45  C   UNL A   1      43.179  23.819  25.941  1.00  0.00     0.022 A 
BRANCH  42  46
ATOM     46  S   UNL A   1      41.501  21.854  26.988  1.00  0.00     0.124 S 
ATOM     47  O   UNL A   1      40.128  22.164  27.379  1.00  0.00    -0.237 OA
ATOM     48  O   UNL A   1      41.684  21.383  25.621  1.00  0.00    -0.237 OA
ATOM     49  O   UNL A   1      42.283  21.148  28.001  1.00  0.00    -0.744 OA
ENDBRANCH  42  46
ENDBRANCH  25  39
BRANCH  26  50
ATOM     50  C   UNL A   1      39.971  32.072  35.266  1.00  0.00     0.023 A 
ATOM     51  C   UNL A   1      39.150  31.571  36.285  1.00  0.00     0.031 A 
ATOM     52  C   UNL A   1      40.311  33.438  35.306  1.00  0.00     0.131 A 
ATOM     53  C   UNL A   1      38.647  32.438  37.267  1.00  0.00     0.055 A 
ATOM     54  C   UNL A   1      39.866  34.281  36.324  1.00  0.00     0.041 A 
ATOM     55  F   UNL A   1      41.092  33.974  34.355  1.00  0.00    -0.206 F 
ATOM     56  C   UNL A   1      39.013  33.785  37.305  1.00  0.00     0.022 A 
BRANCH  53  57
ATOM     57  S   UNL A   1      37.406  31.804  38.427  1.00  0.00     0.124 S 
ATOM     58  O   UNL A   1      37.208  30.444  37.934  1.00  0.00    -0.237 OA
ATOM     59  O   UNL A   1      38.096  31.928  39.706  1.00  0.00    -0.237 OA
ATOM     60  O   UNL A   1      36.273  32.706  38.239  1.00  0.00    -0.744 OA
ENDBRANCH  53  57
ENDBRANCH  26  50
BRANCH  38  61
ATOM     61  C   UNL A   1      45.227  27.562  34.477  1.00  0.00     0.023 A 
ATOM     62  C   UNL A   1      45.113  26.479  35.367  1.00  0.00     0.031 A 
ATOM     63  C   UNL A   1      46.435  28.280  34.458  1.00  0.00     0.131 A 
ATOM     64  C   UNL A   1      46.172  26.175  36.234  1.00  0.00     0.055 A 
ATOM     65  C   UNL A   1      47.508  27.934  35.280  1.00  0.00     0.041 A 
ATOM     66  F   UNL A   1      46.594  29.327  33.631  1.00  0.00    -0.206 F 
ATOM     67  C   UNL A   1      47.376  26.883  36.182  1.00  0.00     0.022 A 
BRANCH  64  68
ATOM     68  S   UNL A   1      45.931  24.883  37.484  1.00  0.00     0.124 S 
ATOM     69  O   UNL A   1      47.300  24.635  37.929  1.00  0.00    -0.237 OA
ATOM     70  O   UNL A   1      45.057  25.540  38.450  1.00  0.00    -0.237 OA
ATOM     71  O   UNL A   1      45.314  23.792  36.735  1.00  0.00    -0.744 OA
ENDBRANCH  64  68
ENDBRANCH  38  61
ENDBRANCH  12  13
ENDBRANCH   5   7
ENDBRANCH   2   3
ENDBRANCH   1   2
BRANCH   1  72
ATOM     72  C   UNL A   1      33.162  26.996  26.538  1.00  0.00     0.002 C 
BRANCH  72  73
ATOM     73  C   UNL A   1      33.967  26.158  25.542  1.00  0.00     0.002 C 
BRANCH  73  74
ATOM     74  C   UNL A   1      34.234  24.711  25.966  1.00  0.00     0.021 C 
BRANCH  74  75
ATOM     75  C   UNL A   1      34.121  23.680  24.846  1.00  0.00     0.116 C 
BRANCH  75  76
ATOM     76  N   UNL A   1      33.121  22.665  25.136  1.00  0.00    -0.352 N 
ATOM     77  C   UNL A   1      31.761  22.806  25.260  1.00  0.00     0.251 C 
ATOM     78  H   UNL A   1      33.466  21.752  25.262  1.00  0.00     0.163 HD
ATOM     79  O   UNL A   1      31.072  21.883  25.682  1.00  0.00    -0.269 OA
BRANCH  77  80
ATOM     80  C   UNL A   1      31.129  24.089  24.892  1.00  0.00     0.040 A 
ATOM     81  C   UNL A   1      30.281  24.715  25.803  1.00  0.00     0.016 A 
ATOM     82  C   UNL A   1      31.394  24.683  23.657  1.00  0.00     0.020 A 
ATOM     83  C   UNL A   1      29.723  25.953  25.479  1.00  0.00     0.027 A 
ATOM     84  C   UNL A   1      30.893  25.961  23.362  1.00  0.00    -0.017 A 
ATOM     85  C   UNL A   1      29.999  26.576  24.252  1.00  0.00     0.038 A 
ATOM     86  C   UNL A   1      31.346  26.660  22.101  1.00  0.00     0.049 C 
ATOM     87  N   UNL A   1      29.447  27.822  23.984  1.00  0.00    -0.378 N 
ATOM     88  C   UNL A   1      32.844  26.834  22.040  1.00  0.00    -0.023 C 
ATOM     89  C   UNL A   1      30.888  28.128  22.002  1.00  0.00     0.031 C 
ATOM     90  C   UNL A   1      29.509  28.349  22.626  1.00  0.00     0.114 C 
ATOM     91  H   UNL A   1      29.022  28.343  24.702  1.00  0.00     0.161 HD
ATOM     92  C   UNL A   1      33.219  28.089  22.313  1.00  0.00    -0.030 C 
ATOM     93  C   UNL A   1      32.037  28.961  22.592  1.00  0.00     0.034 C 
BRANCH  90  94
ATOM     94  C   UNL A   1      29.069  29.805  22.554  1.00  0.00    -0.022 A 
ATOM     95  C   UNL A   1      28.586  30.314  21.338  1.00  0.00     0.026 A 
ATOM     96  C   UNL A   1      29.132  30.684  23.641  1.00  0.00     0.026 A 
ATOM     97  C   UNL A   1      28.187  31.640  21.270  1.00  0.00     0.111 A 
ATOM     98  C   UNL A   1      28.692  31.990  23.479  1.00  0.00     0.111 A 
ATOM     99  N   UNL A   1      28.213  32.485  22.320  1.00  0.00    -0.265 NA
ENDBRANCH  90  94
ENDBRANCH  77  80
ENDBRANCH  75  76
ENDBRANCH  74  75
ENDBRANCH  73  74
ENDBRANCH  72  73
ENDBRANCH   1  72
TORSDOF 17
ENDMDL
