MODEL 1
REMARK VINA RESULT:     -11.5      0.000      0.000
REMARK SMILES CS(=O)(=O)c1ccc(C2=NN(c3ccc(C(=O)NCCCCCCNC(=O)c4ccc(-c5c6nc(c(-c7cc(S(=O)(=O)[O-])ccc7F)c7ccc([nH]7)c(-c7cc(S(=O)(=O)[O-])ccc7F)c7nc(c(-c8cc(S(=O)(=O)[O-])ccc8F)c8ccc5[nH]8)C=C7)C=C6)cc4)cc3)[C@H](c3ccc(F)cc3)C2)cc1
REMARK SMILES IDX 21 1 20 2 19 3 18 4 16 5 17 6 15 8 12 9 13 10 92 11 14 12
REMARK SMILES IDX 91 13 11 14 9 15 10 16 101 17 93 18 8 19 5 20 6 21 103 22
REMARK SMILES IDX 7 23 102 24 2 25 1 26 3 27 4 28 94 29 95 30 100 31 96 32
REMARK SMILES IDX 99 33 97 34 98 35 22 36 23 37 24 38 25 39 26 40 27 42 28 43
REMARK SMILES IDX 29 44 90 45 30 46 89 47 31 48 32 49 33 50 83 51 34 52 88 53
REMARK SMILES IDX 82 54 84 55 35 56 87 57 81 58 80 59 36 61 68 62 48 63 67 64
REMARK SMILES IDX 49 65 52 66 66 67 85 68 50 69 51 70 65 72 86 73 53 74 37 75
REMARK SMILES IDX 38 76 46 77 39 78 45 79 47 80 44 81 40 82 41 83 42 84 43 85
REMARK SMILES IDX 69 86 70 87 78 88 71 89 77 90 79 91 76 92 72 93 73 94 74 95
REMARK SMILES IDX 75 96 54 97 55 98 63 99 56 100 62 101 64 102 61 103 57 104
REMARK SMILES IDX 58 105 59 106 60 107
REMARK H PARENT 18 7 25 41 84 60 52 71
REMARK Flexibility Score: inf
ROOT
ATOM      1  C   UNL A   1      40.077  26.037  28.605  1.00  0.00     0.002 C 
ENDROOT
BRANCH   1   2
ATOM      2  C   UNL A   1      40.227  24.648  27.971  1.00  0.00     0.021 C 
BRANCH   2   3
ATOM      3  C   UNL A   1      39.365  24.462  26.721  1.00  0.00     0.116 C 
BRANCH   3   4
ATOM      4  N   UNL A   1      39.434  23.082  26.271  1.00  0.00    -0.352 N 
ATOM      5  C   UNL A   1      38.484  22.262  25.720  1.00  0.00     0.251 C 
ATOM      6  O   UNL A   1      38.805  21.119  25.396  1.00  0.00    -0.269 OA
ATOM      7  H   UNL A   1      40.318  22.663  26.380  1.00  0.00     0.163 HD
BRANCH   5   8
ATOM      8  C   UNL A   1      37.112  22.746  25.422  1.00  0.00     0.039 A 
ATOM      9  C   UNL A   1      34.414  23.393  24.975  1.00  0.00     0.060 A 
ATOM     10  C   UNL A   1      34.884  23.180  26.273  1.00  0.00     0.029 A 
ATOM     11  C   UNL A   1      35.331  23.383  23.919  1.00  0.00     0.029 A 
ATOM     12  C   UNL A   1      36.225  22.861  26.498  1.00  0.00     0.016 A 
ATOM     13  C   UNL A   1      36.674  23.078  24.139  1.00  0.00     0.016 A 
BRANCH   9  14
ATOM     14  N   UNL A   1      33.075  23.606  24.721  1.00  0.00    -0.257 N 
ATOM     15  C   UNL A   1      31.380  24.800  24.308  1.00  0.00     0.071 C 
ATOM     16  N   UNL A   1      32.674  24.798  24.236  1.00  0.00    -0.176 NA
ATOM     17  C   UNL A   1      30.762  23.575  24.932  1.00  0.00     0.091 C 
ATOM     18  C   UNL A   1      31.996  22.652  24.984  1.00  0.00     0.144 C 
BRANCH  15  19
ATOM     19  C   UNL A   1      30.588  25.950  23.846  1.00  0.00    -0.002 A 
ATOM     20  C   UNL A   1      29.203  28.237  23.077  1.00  0.00     0.067 A 
ATOM     21  C   UNL A   1      30.579  28.149  22.843  1.00  0.00     0.021 A 
ATOM     22  C   UNL A   1      28.514  27.185  23.690  1.00  0.00     0.021 A 
ATOM     23  C   UNL A   1      31.271  27.008  23.238  1.00  0.00     0.011 A 
ATOM     24  C   UNL A   1      29.211  26.031  24.069  1.00  0.00     0.011 A 
BRANCH  20  25
ATOM     25  S   UNL A   1      28.406  29.745  22.579  1.00  0.00     0.175 S 
ATOM     26  C   UNL A   1      29.072  31.052  23.564  1.00  0.00     0.163 C 
ATOM     27  O   UNL A   1      27.006  29.606  22.939  1.00  0.00    -0.224 OA
ATOM     28  O   UNL A   1      28.810  29.991  21.208  1.00  0.00    -0.224 OA
ENDBRANCH  20  25
ENDBRANCH  15  19
BRANCH  18  29
ATOM     29  C   UNL A   1      32.051  21.476  24.007  1.00  0.00    -0.023 A 
ATOM     30  C   UNL A   1      31.848  21.591  22.622  1.00  0.00     0.009 A 
ATOM     31  C   UNL A   1      32.353  20.195  24.520  1.00  0.00     0.009 A 
ATOM     32  C   UNL A   1      31.931  20.468  21.788  1.00  0.00     0.039 A 
ATOM     33  C   UNL A   1      32.466  19.081  23.684  1.00  0.00     0.039 A 
ATOM     34  C   UNL A   1      32.246  19.228  22.325  1.00  0.00     0.123 A 
ATOM     35  F   UNL A   1      32.343  18.162  21.521  1.00  0.00    -0.207 F 
ENDBRANCH  18  29
ENDBRANCH   9  14
ENDBRANCH   5   8
ENDBRANCH   3   4
ENDBRANCH   2   3
ENDBRANCH   1   2
BRANCH   1  36
ATOM     36  C   UNL A   1      39.989  27.190  27.599  1.00  0.00     0.002 C 
BRANCH  36  37
ATOM     37  C   UNL A   1      41.267  27.437  26.791  1.00  0.00     0.021 C 
BRANCH  37  38
ATOM     38  C   UNL A   1      42.542  26.949  27.472  1.00  0.00     0.116 C 
BRANCH  38  39
ATOM     39  N   UNL A   1      43.668  26.943  26.552  1.00  0.00    -0.352 N 
ATOM     40  C   UNL A   1      44.514  27.967  26.208  1.00  0.00     0.251 C 
ATOM     41  H   UNL A   1      43.849  26.081  26.112  1.00  0.00     0.163 HD
ATOM     42  O   UNL A   1      45.238  27.854  25.223  1.00  0.00    -0.269 OA
BRANCH  40  43
ATOM     43  C   UNL A   1      44.537  29.207  27.014  1.00  0.00     0.039 A 
ATOM     44  C   UNL A   1      43.730  30.280  26.632  1.00  0.00     0.014 A 
ATOM     45  C   UNL A   1      45.364  29.315  28.138  1.00  0.00     0.014 A 
ATOM     46  C   UNL A   1      43.716  31.444  27.403  1.00  0.00     0.010 A 
ATOM     47  C   UNL A   1      45.290  30.444  28.948  1.00  0.00     0.010 A 
ATOM     48  C   UNL A   1      44.471  31.524  28.586  1.00  0.00    -0.014 A 
BRANCH  48  49
ATOM     49  C   UNL A   1      44.415  32.734  29.448  1.00  0.00     0.031 A 
ATOM     50  C   UNL A   1      43.438  32.809  30.588  1.00  0.00     0.074 A 
ATOM     51  C   UNL A   1      45.213  33.784  29.168  1.00  0.00     0.049 A 
ATOM     52  N   UNL A   1      43.210  33.792  31.421  1.00  0.00    -0.248 NA
ATOM     53  C   UNL A   1      42.580  31.634  30.799  1.00  0.00     0.031 C 
ATOM     54  C   UNL A   1      46.167  33.846  28.058  1.00  0.00     0.029 A 
ATOM     55  N   UNL A   1      45.346  35.001  29.787  1.00  0.00    -0.354 N 
ATOM     56  C   UNL A   1      42.177  33.360  32.247  1.00  0.00     0.074 A 
ATOM     57  C   UNL A   1      41.781  32.054  31.769  1.00  0.00     0.031 C 
ATOM     58  C   UNL A   1      46.806  35.026  28.093  1.00  0.00     0.029 A 
ATOM     59  C   UNL A   1      46.276  35.825  29.193  1.00  0.00     0.049 A 
ATOM     60  H   UNL A   1      44.826  35.262  30.580  1.00  0.00     0.167 HD
ATOM     61  C   UNL A   1      41.627  33.987  33.317  1.00  0.00     0.034 A 
ATOM     62  C   UNL A   1      46.650  37.085  29.490  1.00  0.00     0.034 A 
ATOM     63  C   UNL A   1      42.042  35.291  33.779  1.00  0.00     0.049 A 
ATOM     64  C   UNL A   1      46.012  37.770  30.671  1.00  0.00     0.074 A 
ATOM     65  C   UNL A   1      41.601  35.993  34.888  1.00  0.00     0.029 A 
ATOM     66  N   UNL A   1      42.984  36.097  33.152  1.00  0.00    -0.354 N 
ATOM     67  N   UNL A   1      45.082  37.323  31.484  1.00  0.00    -0.248 NA
ATOM     68  C   UNL A   1      46.484  39.124  30.983  1.00  0.00     0.031 C 
ATOM     69  C   UNL A   1      42.212  37.251  34.883  1.00  0.00     0.029 A 
ATOM     70  C   UNL A   1      43.107  37.304  33.826  1.00  0.00     0.049 A 
ATOM     71  H   UNL A   1      43.492  35.848  32.346  1.00  0.00     0.167 HD
ATOM     72  C   UNL A   1      44.877  38.333  32.420  1.00  0.00     0.074 A 
ATOM     73  C   UNL A   1      45.797  39.400  32.082  1.00  0.00     0.031 C 
ATOM     74  C   UNL A   1      44.013  38.372  33.467  1.00  0.00     0.034 A 
BRANCH  61  75
ATOM     75  C   UNL A   1      40.495  33.283  34.031  1.00  0.00     0.023 A 
ATOM     76  C   UNL A   1      39.147  33.573  33.754  1.00  0.00     0.031 A 
ATOM     77  C   UNL A   1      40.767  32.331  35.030  1.00  0.00     0.131 A 
ATOM     78  C   UNL A   1      38.130  32.985  34.521  1.00  0.00     0.055 A 
ATOM     79  C   UNL A   1      39.747  31.680  35.728  1.00  0.00     0.041 A 
ATOM     80  F   UNL A   1      42.033  32.025  35.358  1.00  0.00    -0.206 F 
ATOM     81  C   UNL A   1      38.419  32.020  35.488  1.00  0.00     0.022 A 
BRANCH  78  82
ATOM     82  S   UNL A   1      36.440  33.620  34.350  1.00  0.00     0.124 S 
ATOM     83  O   UNL A   1      36.677  34.941  33.772  1.00  0.00    -0.237 OA
ATOM     84  O   UNL A   1      35.821  32.638  33.468  1.00  0.00    -0.237 OA
ATOM     85  O   UNL A   1      35.937  33.631  35.723  1.00  0.00    -0.744 OA
ENDBRANCH  78  82
ENDBRANCH  61  75
BRANCH  62  86
ATOM     86  C   UNL A   1      47.667  37.785  28.653  1.00  0.00     0.023 A 
ATOM     87  C   UNL A   1      49.033  37.726  28.967  1.00  0.00     0.031 A 
ATOM     88  C   UNL A   1      47.279  38.548  27.537  1.00  0.00     0.131 A 
ATOM     89  C   UNL A   1      49.959  38.451  28.199  1.00  0.00     0.055 A 
ATOM     90  C   UNL A   1      48.209  39.221  26.744  1.00  0.00     0.041 A 
ATOM     91  F   UNL A   1      45.986  38.635  27.191  1.00  0.00    -0.206 F 
ATOM     92  C   UNL A   1      49.557  39.185  27.081  1.00  0.00     0.022 A 
BRANCH  89  93
ATOM     93  S   UNL A   1      51.694  38.487  28.731  1.00  0.00     0.124 S 
ATOM     94  O   UNL A   1      52.082  37.090  28.573  1.00  0.00    -0.237 OA
ATOM     95  O   UNL A   1      52.281  39.428  27.784  1.00  0.00    -0.237 OA
ATOM     96  O   UNL A   1      51.615  38.961  30.111  1.00  0.00    -0.744 OA
ENDBRANCH  89  93
ENDBRANCH  62  86
BRANCH  74  97
ATOM     97  C   UNL A   1      44.054  39.601  34.345  1.00  0.00     0.023 A 
ATOM     98  C   UNL A   1      43.351  40.774  34.014  1.00  0.00     0.031 A 
ATOM     99  C   UNL A   1      44.826  39.606  35.521  1.00  0.00     0.131 A 
ATOM    100  C   UNL A   1      43.488  41.921  34.811  1.00  0.00     0.055 A 
ATOM    101  C   UNL A   1      44.900  40.727  36.349  1.00  0.00     0.041 A 
ATOM    102  F   UNL A   1      45.523  38.518  35.885  1.00  0.00    -0.206 F 
ATOM    103  C   UNL A   1      44.242  41.898  35.987  1.00  0.00     0.022 A 
BRANCH 100 104
ATOM    104  S   UNL A   1      42.761  43.478  34.229  1.00  0.00     0.124 S 
ATOM    105  O   UNL A   1      41.648  43.658  35.155  1.00  0.00    -0.237 OA
ATOM    106  O   UNL A   1      43.871  44.415  34.376  1.00  0.00    -0.237 OA
ATOM    107  O   UNL A   1      42.378  43.183  32.849  1.00  0.00    -0.744 OA
ENDBRANCH 100 104
ENDBRANCH  74  97
ENDBRANCH  48  49
ENDBRANCH  40  43
ENDBRANCH  38  39
ENDBRANCH  37  38
ENDBRANCH  36  37
ENDBRANCH   1  36
TORSDOF 20
ENDMDL
MODEL 2
REMARK VINA RESULT:     -11.5      8.424     16.760
REMARK SMILES CS(=O)(=O)c1ccc(C2=NN(c3ccc(C(=O)NCCCCCCNC(=O)c4ccc(-c5c6nc(c(-c7cc(S(=O)(=O)[O-])ccc7F)c7ccc([nH]7)c(-c7cc(S(=O)(=O)[O-])ccc7F)c7nc(c(-c8cc(S(=O)(=O)[O-])ccc8F)c8ccc5[nH]8)C=C7)C=C6)cc4)cc3)[C@H](c3ccc(F)cc3)C2)cc1
REMARK SMILES IDX 21 1 20 2 19 3 18 4 16 5 17 6 15 8 12 9 13 10 92 11 14 12
REMARK SMILES IDX 91 13 11 14 9 15 10 16 101 17 93 18 8 19 5 20 6 21 103 22
REMARK SMILES IDX 7 23 102 24 2 25 1 26 3 27 4 28 94 29 95 30 100 31 96 32
REMARK SMILES IDX 99 33 97 34 98 35 22 36 23 37 24 38 25 39 26 40 27 42 28 43
REMARK SMILES IDX 29 44 90 45 30 46 89 47 31 48 32 49 33 50 83 51 34 52 88 53
REMARK SMILES IDX 82 54 84 55 35 56 87 57 81 58 80 59 36 61 68 62 48 63 67 64
REMARK SMILES IDX 49 65 52 66 66 67 85 68 50 69 51 70 65 72 86 73 53 74 37 75
REMARK SMILES IDX 38 76 46 77 39 78 45 79 47 80 44 81 40 82 41 83 42 84 43 85
REMARK SMILES IDX 69 86 70 87 78 88 71 89 77 90 79 91 76 92 72 93 73 94 74 95
REMARK SMILES IDX 75 96 54 97 55 98 63 99 56 100 62 101 64 102 61 103 57 104
REMARK SMILES IDX 58 105 59 106 60 107
REMARK H PARENT 18 7 25 41 84 60 52 71
REMARK Flexibility Score: inf
ROOT
ATOM      1  C   UNL A   1      39.937  30.938  42.412  1.00  0.00     0.002 C 
ENDROOT
BRANCH   1   2
ATOM      2  C   UNL A   1      41.225  30.410  43.056  1.00  0.00     0.021 C 
BRANCH   2   3
ATOM      3  C   UNL A   1      42.491  31.037  42.468  1.00  0.00     0.116 C 
BRANCH   3   4
ATOM      4  N   UNL A   1      43.190  31.794  43.493  1.00  0.00    -0.352 N 
ATOM      5  C   UNL A   1      43.260  33.143  43.732  1.00  0.00     0.251 C 
ATOM      6  O   UNL A   1      43.913  33.539  44.696  1.00  0.00    -0.269 OA
ATOM      7  H   UNL A   1      43.704  31.243  44.126  1.00  0.00     0.163 HD
BRANCH   5   8
ATOM      8  C   UNL A   1      42.495  34.121  42.918  1.00  0.00     0.039 A 
ATOM      9  C   UNL A   1      41.202  36.195  41.529  1.00  0.00     0.060 A 
ATOM     10  C   UNL A   1      42.586  36.033  41.430  1.00  0.00     0.029 A 
ATOM     11  C   UNL A   1      40.466  35.244  42.243  1.00  0.00     0.029 A 
ATOM     12  C   UNL A   1      43.231  35.002  42.117  1.00  0.00     0.016 A 
ATOM     13  C   UNL A   1      41.102  34.204  42.920  1.00  0.00     0.016 A 
BRANCH   9  14
ATOM     14  N   UNL A   1      40.560  37.266  40.944  1.00  0.00    -0.257 N 
ATOM     15  C   UNL A   1      39.815  39.244  40.891  1.00  0.00     0.071 C 
ATOM     16  N   UNL A   1      40.682  38.492  41.493  1.00  0.00    -0.176 NA
ATOM     17  C   UNL A   1      38.948  38.549  39.873  1.00  0.00     0.091 C 
ATOM     18  C   UNL A   1      39.684  37.198  39.774  1.00  0.00     0.144 C 
BRANCH  15  19
ATOM     19  C   UNL A   1      39.674  40.668  41.225  1.00  0.00    -0.002 A 
ATOM     20  C   UNL A   1      39.586  43.391  41.792  1.00  0.00     0.067 A 
ATOM     21  C   UNL A   1      39.851  42.964  40.487  1.00  0.00     0.021 A 
ATOM     22  C   UNL A   1      39.359  42.464  42.815  1.00  0.00     0.021 A 
ATOM     23  C   UNL A   1      39.905  41.601  40.209  1.00  0.00     0.011 A 
ATOM     24  C   UNL A   1      39.397  41.094  42.527  1.00  0.00     0.011 A 
BRANCH  20  25
ATOM     25  S   UNL A   1      39.575  45.147  42.068  1.00  0.00     0.175 S 
ATOM     26  C   UNL A   1      39.742  45.415  43.806  1.00  0.00     0.163 C 
ATOM     27  O   UNL A   1      38.254  45.613  41.686  1.00  0.00    -0.224 OA
ATOM     28  O   UNL A   1      40.771  45.670  41.436  1.00  0.00    -0.224 OA
ENDBRANCH  20  25
ENDBRANCH  15  19
BRANCH  18  29
ATOM     29  C   UNL A   1      40.485  36.913  38.502  1.00  0.00    -0.023 A 
ATOM     30  C   UNL A   1      39.919  36.460  37.298  1.00  0.00     0.009 A 
ATOM     31  C   UNL A   1      41.879  37.143  38.524  1.00  0.00     0.009 A 
ATOM     32  C   UNL A   1      40.718  36.235  36.169  1.00  0.00     0.039 A 
ATOM     33  C   UNL A   1      42.670  36.948  37.389  1.00  0.00     0.039 A 
ATOM     34  C   UNL A   1      42.080  36.489  36.222  1.00  0.00     0.123 A 
ATOM     35  F   UNL A   1      42.836  36.291  35.134  1.00  0.00    -0.207 F 
ENDBRANCH  18  29
ENDBRANCH   9  14
ENDBRANCH   5   8
ENDBRANCH   3   4
ENDBRANCH   2   3
ENDBRANCH   1   2
BRANCH   1  36
ATOM     36  C   UNL A   1      38.701  30.060  42.647  1.00  0.00     0.002 C 
BRANCH  36  37
ATOM     37  C   UNL A   1      37.982  30.307  43.976  1.00  0.00     0.021 C 
BRANCH  37  38
ATOM     38  C   UNL A   1      37.702  31.777  44.273  1.00  0.00     0.116 C 
BRANCH  38  39
ATOM     39  N   UNL A   1      36.289  32.089  44.126  1.00  0.00    -0.352 N 
ATOM     40  C   UNL A   1      35.634  32.676  43.073  1.00  0.00     0.251 C 
ATOM     41  H   UNL A   1      35.721  31.845  44.893  1.00  0.00     0.163 HD
ATOM     42  O   UNL A   1      34.493  33.103  43.228  1.00  0.00    -0.269 OA
BRANCH  40  43
ATOM     43  C   UNL A   1      36.310  32.806  41.764  1.00  0.00     0.039 A 
ATOM     44  C   UNL A   1      37.052  33.958  41.496  1.00  0.00     0.014 A 
ATOM     45  C   UNL A   1      36.200  31.801  40.798  1.00  0.00     0.014 A 
ATOM     46  C   UNL A   1      37.725  34.079  40.278  1.00  0.00     0.010 A 
ATOM     47  C   UNL A   1      36.933  31.888  39.618  1.00  0.00     0.010 A 
ATOM     48  C   UNL A   1      37.697  33.031  39.342  1.00  0.00    -0.014 A 
BRANCH  48  49
ATOM     49  C   UNL A   1      38.459  33.124  38.068  1.00  0.00     0.031 A 
ATOM     50  C   UNL A   1      39.958  33.003  38.071  1.00  0.00     0.074 A 
ATOM     51  C   UNL A   1      37.800  33.368  36.918  1.00  0.00     0.049 A 
ATOM     52  N   UNL A   1      40.799  33.100  37.074  1.00  0.00    -0.248 NA
ATOM     53  C   UNL A   1      40.599  32.775  39.375  1.00  0.00     0.031 C 
ATOM     54  C   UNL A   1      36.352  33.552  36.798  1.00  0.00     0.029 A 
ATOM     55  N   UNL A   1      38.259  33.509  35.633  1.00  0.00    -0.354 N 
ATOM     56  C   UNL A   1      42.067  32.956  37.629  1.00  0.00     0.074 A 
ATOM     57  C   UNL A   1      41.884  32.833  39.058  1.00  0.00     0.031 C 
ATOM     58  C   UNL A   1      36.040  33.752  35.509  1.00  0.00     0.029 A 
ATOM     59  C   UNL A   1      37.265  33.762  34.715  1.00  0.00     0.049 A 
ATOM     60  H   UNL A   1      39.210  33.437  35.388  1.00  0.00     0.167 HD
ATOM     61  C   UNL A   1      43.268  32.910  37.000  1.00  0.00     0.034 A 
ATOM     62  C   UNL A   1      37.331  33.989  33.388  1.00  0.00     0.034 A 
ATOM     63  C   UNL A   1      43.427  33.030  35.570  1.00  0.00     0.049 A 
ATOM     64  C   UNL A   1      38.678  33.953  32.713  1.00  0.00     0.074 A 
ATOM     65  C   UNL A   1      44.587  32.933  34.821  1.00  0.00     0.029 A 
ATOM     66  N   UNL A   1      42.398  33.288  34.672  1.00  0.00    -0.354 N 
ATOM     67  N   UNL A   1      39.863  33.750  33.243  1.00  0.00    -0.248 NA
ATOM     68  C   UNL A   1      38.694  34.162  31.261  1.00  0.00     0.031 C 
ATOM     69  C   UNL A   1      44.273  33.215  33.487  1.00  0.00     0.029 A 
ATOM     70  C   UNL A   1      42.903  33.396  33.384  1.00  0.00     0.049 A 
ATOM     71  H   UNL A   1      41.448  33.382  34.915  1.00  0.00     0.167 HD
ATOM     72  C   UNL A   1      40.764  33.781  32.182  1.00  0.00     0.074 A 
ATOM     73  C   UNL A   1      39.980  34.000  30.983  1.00  0.00     0.031 C 
ATOM     74  C   UNL A   1      42.114  33.636  32.197  1.00  0.00     0.034 A 
BRANCH  61  75
ATOM     75  C   UNL A   1      44.501  32.757  37.863  1.00  0.00     0.023 A 
ATOM     76  C   UNL A   1      44.898  31.510  38.377  1.00  0.00     0.031 A 
ATOM     77  C   UNL A   1      45.274  33.881  38.207  1.00  0.00     0.131 A 
ATOM     78  C   UNL A   1      45.978  31.429  39.270  1.00  0.00     0.055 A 
ATOM     79  C   UNL A   1      46.403  33.780  39.023  1.00  0.00     0.041 A 
ATOM     80  F   UNL A   1      44.936  35.104  37.767  1.00  0.00    -0.206 F 
ATOM     81  C   UNL A   1      46.750  32.551  39.575  1.00  0.00     0.022 A 
BRANCH  78  82
ATOM     82  S   UNL A   1      46.255  29.869  40.154  1.00  0.00     0.124 S 
ATOM     83  O   UNL A   1      46.672  30.346  41.471  1.00  0.00    -0.237 OA
ATOM     84  O   UNL A   1      44.945  29.233  40.090  1.00  0.00    -0.237 OA
ATOM     85  O   UNL A   1      47.306  29.216  39.375  1.00  0.00    -0.744 OA
ENDBRANCH  78  82
ENDBRANCH  61  75
BRANCH  62  86
ATOM     86  C   UNL A   1      36.091  34.284  32.613  1.00  0.00     0.023 A 
ATOM     87  C   UNL A   1      35.405  35.498  32.771  1.00  0.00     0.031 A 
ATOM     88  C   UNL A   1      35.559  33.337  31.719  1.00  0.00     0.131 A 
ATOM     89  C   UNL A   1      34.204  35.718  32.077  1.00  0.00     0.055 A 
ATOM     90  C   UNL A   1      34.395  33.584  30.991  1.00  0.00     0.041 A 
ATOM     91  F   UNL A   1      36.176  32.161  31.528  1.00  0.00    -0.206 F 
ATOM     92  C   UNL A   1      33.703  34.776  31.177  1.00  0.00     0.022 A 
BRANCH  89  93
ATOM     93  S   UNL A   1      33.259  37.227  32.430  1.00  0.00     0.124 S 
ATOM     94  O   UNL A   1      32.005  36.680  32.935  1.00  0.00    -0.237 OA
ATOM     95  O   UNL A   1      34.109  37.894  33.410  1.00  0.00    -0.237 OA
ATOM     96  O   UNL A   1      33.174  37.886  31.129  1.00  0.00    -0.744 OA
ENDBRANCH  89  93
ENDBRANCH  62  86
BRANCH  74  97
ATOM     97  C   UNL A   1      42.822  33.672  30.861  1.00  0.00     0.023 A 
ATOM     98  C   UNL A   1      42.995  32.513  30.082  1.00  0.00     0.031 A 
ATOM     99  C   UNL A   1      43.350  34.880  30.372  1.00  0.00     0.131 A 
ATOM    100  C   UNL A   1      43.735  32.576  28.891  1.00  0.00     0.055 A 
ATOM    101  C   UNL A   1      44.022  34.949  29.151  1.00  0.00     0.041 A 
ATOM    102  F   UNL A   1      43.220  36.017  31.074  1.00  0.00    -0.206 F 
ATOM    103  C   UNL A   1      44.232  33.790  28.411  1.00  0.00     0.022 A 
BRANCH 100 104
ATOM    104  S   UNL A   1      44.141  31.027  28.036  1.00  0.00     0.124 S 
ATOM    105  O   UNL A   1      45.512  30.790  28.474  1.00  0.00    -0.237 OA
ATOM    106  O   UNL A   1      43.136  30.109  28.561  1.00  0.00    -0.237 OA
ATOM    107  O   UNL A   1      43.991  31.368  26.622  1.00  0.00    -0.744 OA
ENDBRANCH 100 104
ENDBRANCH  74  97
ENDBRANCH  48  49
ENDBRANCH  40  43
ENDBRANCH  38  39
ENDBRANCH  37  38
ENDBRANCH  36  37
ENDBRANCH   1  36
TORSDOF 20
ENDMDL
MODEL 3
REMARK VINA RESULT:     -11.1      8.440     16.265
REMARK SMILES CS(=O)(=O)c1ccc(C2=NN(c3ccc(C(=O)NCCCCCCNC(=O)c4ccc(-c5c6nc(c(-c7cc(S(=O)(=O)[O-])ccc7F)c7ccc([nH]7)c(-c7cc(S(=O)(=O)[O-])ccc7F)c7nc(c(-c8cc(S(=O)(=O)[O-])ccc8F)c8ccc5[nH]8)C=C7)C=C6)cc4)cc3)[C@H](c3ccc(F)cc3)C2)cc1
REMARK SMILES IDX 21 1 20 2 19 3 18 4 16 5 17 6 15 8 12 9 13 10 92 11 14 12
REMARK SMILES IDX 91 13 11 14 9 15 10 16 101 17 93 18 8 19 5 20 6 21 103 22
REMARK SMILES IDX 7 23 102 24 2 25 1 26 3 27 4 28 94 29 95 30 100 31 96 32
REMARK SMILES IDX 99 33 97 34 98 35 22 36 23 37 24 38 25 39 26 40 27 42 28 43
REMARK SMILES IDX 29 44 90 45 30 46 89 47 31 48 32 49 33 50 83 51 34 52 88 53
REMARK SMILES IDX 82 54 84 55 35 56 87 57 81 58 80 59 36 61 68 62 48 63 67 64
REMARK SMILES IDX 49 65 52 66 66 67 85 68 50 69 51 70 65 72 86 73 53 74 37 75
REMARK SMILES IDX 38 76 46 77 39 78 45 79 47 80 44 81 40 82 41 83 42 84 43 85
REMARK SMILES IDX 69 86 70 87 78 88 71 89 77 90 79 91 76 92 72 93 73 94 74 95
REMARK SMILES IDX 75 96 54 97 55 98 63 99 56 100 62 101 64 102 61 103 57 104
REMARK SMILES IDX 58 105 59 106 60 107
REMARK H PARENT 18 7 25 41 84 60 52 71
REMARK Flexibility Score: inf
ROOT
ATOM      1  C   UNL A   1      39.654  30.820  42.570  1.00  0.00     0.002 C 
ENDROOT
BRANCH   1   2
ATOM      2  C   UNL A   1      40.919  30.482  43.370  1.00  0.00     0.021 C 
BRANCH   2   3
ATOM      3  C   UNL A   1      42.205  30.941  42.682  1.00  0.00     0.116 C 
BRANCH   3   4
ATOM      4  N   UNL A   1      43.028  31.690  43.617  1.00  0.00    -0.352 N 
ATOM      5  C   UNL A   1      43.203  33.039  43.788  1.00  0.00     0.251 C 
ATOM      6  O   UNL A   1      43.951  33.429  44.684  1.00  0.00    -0.269 OA
ATOM      7  H   UNL A   1      43.551  31.131  44.236  1.00  0.00     0.163 HD
BRANCH   5   8
ATOM      8  C   UNL A   1      42.444  34.033  42.988  1.00  0.00     0.039 A 
ATOM      9  C   UNL A   1      41.193  36.131  41.598  1.00  0.00     0.060 A 
ATOM     10  C   UNL A   1      42.545  35.851  41.388  1.00  0.00     0.029 A 
ATOM     11  C   UNL A   1      40.454  35.283  42.429  1.00  0.00     0.029 A 
ATOM     12  C   UNL A   1      43.169  34.807  42.075  1.00  0.00     0.016 A 
ATOM     13  C   UNL A   1      41.068  34.230  43.108  1.00  0.00     0.016 A 
BRANCH   9  14
ATOM     14  N   UNL A   1      40.584  37.220  41.009  1.00  0.00    -0.257 N 
ATOM     15  C   UNL A   1      39.851  39.202  40.969  1.00  0.00     0.071 C 
ATOM     16  N   UNL A   1      40.685  38.431  41.593  1.00  0.00    -0.176 NA
ATOM     17  C   UNL A   1      39.032  38.538  39.893  1.00  0.00     0.091 C 
ATOM     18  C   UNL A   1      39.766  37.186  39.797  1.00  0.00     0.144 C 
BRANCH  15  19
ATOM     19  C   UNL A   1      39.700  40.619  41.331  1.00  0.00    -0.002 A 
ATOM     20  C   UNL A   1      39.229  43.266  42.050  1.00  0.00     0.067 A 
ATOM     21  C   UNL A   1      38.940  42.240  42.956  1.00  0.00     0.021 A 
ATOM     22  C   UNL A   1      39.758  42.976  40.788  1.00  0.00     0.021 A 
ATOM     23  C   UNL A   1      39.167  40.917  42.589  1.00  0.00     0.011 A 
ATOM     24  C   UNL A   1      40.001  41.644  40.430  1.00  0.00     0.011 A 
BRANCH  20  25
ATOM     25  S   UNL A   1      38.872  44.923  42.584  1.00  0.00     0.175 S 
ATOM     26  C   UNL A   1      37.418  44.858  43.587  1.00  0.00     0.163 C 
ATOM     27  O   UNL A   1      38.536  45.673  41.387  1.00  0.00    -0.224 OA
ATOM     28  O   UNL A   1      39.969  45.324  43.443  1.00  0.00    -0.224 OA
ENDBRANCH  20  25
ENDBRANCH  15  19
BRANCH  18  29
ATOM     29  C   UNL A   1      40.627  36.927  38.559  1.00  0.00    -0.023 A 
ATOM     30  C   UNL A   1      40.125  36.454  37.334  1.00  0.00     0.009 A 
ATOM     31  C   UNL A   1      42.010  37.205  38.635  1.00  0.00     0.009 A 
ATOM     32  C   UNL A   1      40.976  36.256  36.238  1.00  0.00     0.039 A 
ATOM     33  C   UNL A   1      42.851  37.037  37.533  1.00  0.00     0.039 A 
ATOM     34  C   UNL A   1      42.326  36.556  36.345  1.00  0.00     0.123 A 
ATOM     35  F   UNL A   1      43.131  36.385  35.289  1.00  0.00    -0.207 F 
ENDBRANCH  18  29
ENDBRANCH   9  14
ENDBRANCH   5   8
ENDBRANCH   3   4
ENDBRANCH   2   3
ENDBRANCH   1   2
BRANCH   1  36
ATOM     36  C   UNL A   1      38.493  29.839  42.768  1.00  0.00     0.002 C 
BRANCH  36  37
ATOM     37  C   UNL A   1      37.707  30.030  44.069  1.00  0.00     0.021 C 
BRANCH  37  38
ATOM     38  C   UNL A   1      37.399  31.485  44.407  1.00  0.00     0.116 C 
BRANCH  38  39
ATOM     39  N   UNL A   1      35.998  31.800  44.175  1.00  0.00    -0.352 N 
ATOM     40  C   UNL A   1      35.416  32.438  43.109  1.00  0.00     0.251 C 
ATOM     41  H   UNL A   1      35.379  31.516  44.886  1.00  0.00     0.163 HD
ATOM     42  O   UNL A   1      34.264  32.852  43.203  1.00  0.00    -0.269 OA
BRANCH  40  43
ATOM     43  C   UNL A   1      36.183  32.636  41.860  1.00  0.00     0.039 A 
ATOM     44  C   UNL A   1      36.920  33.810  41.696  1.00  0.00     0.014 A 
ATOM     45  C   UNL A   1      36.163  31.672  40.846  1.00  0.00     0.014 A 
ATOM     46  C   UNL A   1      37.677  33.995  40.537  1.00  0.00     0.010 A 
ATOM     47  C   UNL A   1      36.979  31.823  39.728  1.00  0.00     0.010 A 
ATOM     48  C   UNL A   1      37.738  32.989  39.558  1.00  0.00    -0.014 A 
BRANCH  48  49
ATOM     49  C   UNL A   1      38.589  33.150  38.349  1.00  0.00     0.031 A 
ATOM     50  C   UNL A   1      37.961  33.419  37.009  1.00  0.00     0.074 A 
ATOM     51  C   UNL A   1      39.925  33.002  38.455  1.00  0.00     0.049 A 
ATOM     52  N   UNL A   1      38.530  33.545  35.838  1.00  0.00    -0.248 NA
ATOM     53  C   UNL A   1      36.495  33.529  36.979  1.00  0.00     0.031 C 
ATOM     54  C   UNL A   1      40.644  32.691  39.692  1.00  0.00     0.029 A 
ATOM     55  N   UNL A   1      40.915  33.085  37.509  1.00  0.00    -0.354 N 
ATOM     56  C   UNL A   1      37.493  33.738  34.930  1.00  0.00     0.074 A 
ATOM     57  C   UNL A   1      36.260  33.644  35.681  1.00  0.00     0.031 C 
ATOM     58  C   UNL A   1      41.960  32.640  39.435  1.00  0.00     0.029 A 
ATOM     59  C   UNL A   1      42.178  32.862  38.010  1.00  0.00     0.049 A 
ATOM     60  H   UNL A   1      40.740  33.286  36.561  1.00  0.00     0.167 HD
ATOM     61  C   UNL A   1      37.566  33.991  33.599  1.00  0.00     0.034 A 
ATOM     62  C   UNL A   1      43.375  32.827  37.391  1.00  0.00     0.034 A 
ATOM     63  C   UNL A   1      38.810  34.085  32.871  1.00  0.00     0.049 A 
ATOM     64  C   UNL A   1      43.431  33.091  35.908  1.00  0.00     0.074 A 
ATOM     65  C   UNL A   1      39.005  34.400  31.538  1.00  0.00     0.029 A 
ATOM     66  N   UNL A   1      40.069  33.851  33.410  1.00  0.00    -0.354 N 
ATOM     67  N   UNL A   1      42.446  33.337  35.073  1.00  0.00    -0.248 NA
ATOM     68  C   UNL A   1      44.761  33.087  35.287  1.00  0.00     0.031 C 
ATOM     69  C   UNL A   1      40.369  34.274  31.252  1.00  0.00     0.029 A 
ATOM     70  C   UNL A   1      41.041  33.973  32.427  1.00  0.00     0.049 A 
ATOM     71  H   UNL A   1      40.247  33.630  34.353  1.00  0.00     0.167 HD
ATOM     72  C   UNL A   1      43.043  33.543  33.832  1.00  0.00     0.074 A 
ATOM     73  C   UNL A   1      44.472  33.414  34.035  1.00  0.00     0.031 C 
ATOM     74  C   UNL A   1      42.463  33.820  32.636  1.00  0.00     0.034 A 
BRANCH  61  75
ATOM     75  C   UNL A   1      36.264  34.146  32.847  1.00  0.00     0.023 A 
ATOM     76  C   UNL A   1      35.570  35.369  32.806  1.00  0.00     0.031 A 
ATOM     77  C   UNL A   1      35.687  33.047  32.186  1.00  0.00     0.131 A 
ATOM     78  C   UNL A   1      34.308  35.442  32.198  1.00  0.00     0.055 A 
ATOM     79  C   UNL A   1      34.473  33.148  31.504  1.00  0.00     0.041 A 
ATOM     80  F   UNL A   1      36.287  31.845  32.205  1.00  0.00    -0.206 F 
ATOM     81  C   UNL A   1      33.766  34.347  31.523  1.00  0.00     0.022 A 
BRANCH  78  82
ATOM     82  S   UNL A   1      33.312  36.938  32.445  1.00  0.00     0.124 S 
ATOM     83  O   UNL A   1      33.469  37.613  31.159  1.00  0.00    -0.237 OA
ATOM     84  O   UNL A   1      31.989  36.393  32.723  1.00  0.00    -0.237 OA
ATOM     85  O   UNL A   1      33.964  37.602  33.573  1.00  0.00    -0.744 OA
ENDBRANCH  78  82
ENDBRANCH  61  75
BRANCH  62  86
ATOM     86  C   UNL A   1      44.612  32.519  38.164  1.00  0.00     0.023 A 
ATOM     87  C   UNL A   1      44.921  31.206  38.550  1.00  0.00     0.031 A 
ATOM     88  C   UNL A   1      45.494  33.545  38.550  1.00  0.00     0.131 A 
ATOM     89  C   UNL A   1      46.058  30.957  39.335  1.00  0.00     0.055 A 
ATOM     90  C   UNL A   1      46.652  33.285  39.284  1.00  0.00     0.041 A 
ATOM     91  F   UNL A   1      45.248  34.818  38.205  1.00  0.00    -0.206 F 
ATOM     92  C   UNL A   1      46.934  31.985  39.691  1.00  0.00     0.022 A 
BRANCH  89  93
ATOM     93  S   UNL A   1      46.337  29.275  39.956  1.00  0.00     0.124 S 
ATOM     94  O   UNL A   1      45.607  29.300  41.219  1.00  0.00    -0.237 OA
ATOM     95  O   UNL A   1      45.755  28.460  38.894  1.00  0.00    -0.237 OA
ATOM     96  O   UNL A   1      47.790  29.193  40.077  1.00  0.00    -0.744 OA
ENDBRANCH  89  93
ENDBRANCH  62  86
BRANCH  74  97
ATOM     97  C   UNL A   1      43.387  34.040  31.460  1.00  0.00     0.023 A 
ATOM     98  C   UNL A   1      43.758  32.989  30.601  1.00  0.00     0.031 A 
ATOM     99  C   UNL A   1      43.922  35.316  31.208  1.00  0.00     0.131 A 
ATOM    100  C   UNL A   1      44.688  33.219  29.575  1.00  0.00     0.055 A 
ATOM    101  C   UNL A   1      44.789  35.554  30.142  1.00  0.00     0.041 A 
ATOM    102  F   UNL A   1      43.608  36.356  31.998  1.00  0.00    -0.206 F 
ATOM    103  C   UNL A   1      45.190  34.500  29.328  1.00  0.00     0.022 A 
BRANCH 100 104
ATOM    104  S   UNL A   1      45.322  31.800  28.640  1.00  0.00     0.124 S 
ATOM    105  O   UNL A   1      44.174  31.445  27.813  1.00  0.00    -0.237 OA
ATOM    106  O   UNL A   1      46.463  32.375  27.935  1.00  0.00    -0.237 OA
ATOM    107  O   UNL A   1      45.662  30.829  29.679  1.00  0.00    -0.744 OA
ENDBRANCH 100 104
ENDBRANCH  74  97
ENDBRANCH  48  49
ENDBRANCH  40  43
ENDBRANCH  38  39
ENDBRANCH  37  38
ENDBRANCH  36  37
ENDBRANCH   1  36
TORSDOF 20
ENDMDL
