MODEL 1
REMARK VINA RESULT:     -11.6      0.000      0.000
REMARK SMILES O=C(Cc1ccn(-c2ccccc2F)c1)NCCCCCCNC(=O)c1ccc(-c2c3nc(c(-c4cc(S(=O)(=O)[O-])ccc4F)c4ccc([nH]4)c(-c4cc(S(=O)(=O)[O-])ccc4F)c4nc(c(-c5cc(S(=O)(=O)[O-])ccc5F)c5ccc2[nH]5)C=C4)C=C3)cc1
REMARK SMILES IDX 20 1 19 2 18 3 17 4 16 5 1 6 2 7 3 9 4 10 5 11 15 12 6 13
REMARK SMILES IDX 7 14 8 15 9 16 13 17 10 18 12 19 14 20 11 21 21 22 22 23
REMARK SMILES IDX 23 24 24 25 25 27 26 28 27 29 88 30 28 31 87 32 29 33 30 34
REMARK SMILES IDX 31 35 81 36 32 37 86 38 80 39 82 40 33 41 85 42 79 43 78 44
REMARK SMILES IDX 34 46 66 47 46 48 65 49 47 50 50 51 64 52 83 53 48 54 49 55
REMARK SMILES IDX 63 57 84 58 51 59 35 60 36 61 44 62 37 63 43 64 45 65 42 66
REMARK SMILES IDX 38 67 39 68 40 69 41 70 67 71 68 72 76 73 69 74 75 75 77 76
REMARK SMILES IDX 74 77 70 78 71 79 72 80 73 81 52 82 53 83 61 84 54 85 60 86
REMARK SMILES IDX 62 87 59 88 55 89 56 90 57 91 58 92
REMARK H PARENT 16 8 23 26 82 45 50 56
REMARK Flexibility Score: inf
ROOT
ATOM      1  C   UNL A   1      33.228  27.878  26.799  1.00  0.00     0.002 C 
ENDROOT
BRANCH   1   2
ATOM      2  C   UNL A   1      31.973  27.655  25.950  1.00  0.00     0.002 C 
BRANCH   2   3
ATOM      3  C   UNL A   1      31.293  28.933  25.434  1.00  0.00     0.021 C 
BRANCH   3   4
ATOM      4  C   UNL A   1      31.468  29.192  23.937  1.00  0.00     0.116 C 
BRANCH   4   5
ATOM      5  N   UNL A   1      32.071  28.053  23.281  1.00  0.00    -0.356 N 
ATOM      6  O   UNL A   1      30.349  27.607  21.823  1.00  0.00    -0.275 OA
ATOM      7  C   UNL A   1      31.455  27.331  22.281  1.00  0.00     0.224 C 
ATOM      8  H   UNL A   1      32.973  27.777  23.564  1.00  0.00     0.163 HD
BRANCH   7   9
ATOM      9  C   UNL A   1      32.236  26.105  21.842  1.00  0.00     0.137 C 
BRANCH   9  10
ATOM     10  C   UNL A   1      32.046  24.929  22.747  1.00  0.00    -0.021 A 
ATOM     11  C   UNL A   1      30.979  24.704  23.659  1.00  0.00     0.024 A 
ATOM     12  C   UNL A   1      32.861  23.814  22.827  1.00  0.00     0.095 A 
ATOM     13  C   UNL A   1      31.164  23.460  24.219  1.00  0.00     0.091 A 
ATOM     14  N   UNL A   1      32.315  22.900  23.703  1.00  0.00    -0.321 N 
BRANCH  14  15
ATOM     15  C   UNL A   1      32.807  21.602  23.989  1.00  0.00     0.081 A 
ATOM     16  C   UNL A   1      32.188  20.481  23.416  1.00  0.00     0.030 A 
ATOM     17  C   UNL A   1      33.914  21.421  24.820  1.00  0.00     0.147 A 
ATOM     18  C   UNL A   1      32.691  19.201  23.666  1.00  0.00     0.002 A 
ATOM     19  C   UNL A   1      34.394  20.142  25.094  1.00  0.00     0.041 A 
ATOM     20  F   UNL A   1      34.508  22.454  25.436  1.00  0.00    -0.205 F 
ATOM     21  C   UNL A   1      33.788  19.031  24.511  1.00  0.00     0.003 A 
ENDBRANCH  14  15
ENDBRANCH   9  10
ENDBRANCH   7   9
ENDBRANCH   4   5
ENDBRANCH   3   4
ENDBRANCH   2   3
ENDBRANCH   1   2
BRANCH   1  22
ATOM     22  C   UNL A   1      33.729  29.329  26.854  1.00  0.00     0.021 C 
BRANCH  22  23
ATOM     23  C   UNL A   1      35.251  29.460  26.963  1.00  0.00     0.116 C 
BRANCH  23  24
ATOM     24  N   UNL A   1      35.614  30.690  27.643  1.00  0.00    -0.352 N 
ATOM     25  C   UNL A   1      36.541  30.922  28.627  1.00  0.00     0.251 C 
ATOM     26  H   UNL A   1      35.113  31.487  27.351  1.00  0.00     0.163 HD
ATOM     27  O   UNL A   1      36.412  31.927  29.319  1.00  0.00    -0.269 OA
BRANCH  25  28
ATOM     28  C   UNL A   1      37.676  30.003  28.879  1.00  0.00     0.039 A 
ATOM     29  C   UNL A   1      38.814  30.148  28.075  1.00  0.00     0.014 A 
ATOM     30  C   UNL A   1      37.600  28.946  29.794  1.00  0.00     0.014 A 
ATOM     31  C   UNL A   1      39.892  29.279  28.223  1.00  0.00     0.010 A 
ATOM     32  C   UNL A   1      38.683  28.075  29.951  1.00  0.00     0.010 A 
ATOM     33  C   UNL A   1      39.838  28.257  29.181  1.00  0.00    -0.014 A 
BRANCH  33  34
ATOM     34  C   UNL A   1      41.102  27.558  29.523  1.00  0.00     0.031 A 
ATOM     35  C   UNL A   1      41.378  26.401  28.515  1.00  0.00     0.074 A 
ATOM     36  C   UNL A   1      41.774  27.976  30.644  1.00  0.00     0.049 A 
ATOM     37  N   UNL A   1      42.025  25.285  28.662  1.00  0.00    -0.248 NA
ATOM     38  C   UNL A   1      40.766  26.466  27.153  1.00  0.00     0.031 C 
ATOM     39  C   UNL A   1      41.404  29.145  31.480  1.00  0.00     0.029 A 
ATOM     40  N   UNL A   1      42.895  27.525  31.317  1.00  0.00    -0.354 N 
ATOM     41  C   UNL A   1      42.085  24.642  27.398  1.00  0.00     0.074 A 
ATOM     42  C   UNL A   1      41.191  25.357  26.545  1.00  0.00     0.031 C 
ATOM     43  C   UNL A   1      42.208  29.251  32.566  1.00  0.00     0.029 A 
ATOM     44  C   UNL A   1      43.191  28.185  32.549  1.00  0.00     0.049 A 
ATOM     45  H   UNL A   1      43.454  26.794  30.969  1.00  0.00     0.167 HD
ATOM     46  C   UNL A   1      42.962  23.632  27.104  1.00  0.00     0.034 A 
ATOM     47  C   UNL A   1      44.132  27.866  33.499  1.00  0.00     0.034 A 
ATOM     48  C   UNL A   1      43.704  23.297  28.269  1.00  0.00     0.049 A 
ATOM     49  C   UNL A   1      44.910  26.779  32.885  1.00  0.00     0.074 A 
ATOM     50  C   UNL A   1      43.366  22.670  29.437  1.00  0.00     0.029 A 
ATOM     51  N   UNL A   1      44.910  23.934  28.429  1.00  0.00    -0.354 N 
ATOM     52  N   UNL A   1      45.761  26.924  31.916  1.00  0.00    -0.248 NA
ATOM     53  C   UNL A   1      44.667  25.407  33.351  1.00  0.00     0.031 C 
ATOM     54  C   UNL A   1      44.103  23.386  30.401  1.00  0.00     0.029 A 
ATOM     55  C   UNL A   1      45.011  24.238  29.760  1.00  0.00     0.049 A 
ATOM     56  H   UNL A   1      45.570  24.133  27.727  1.00  0.00     0.167 HD
ATOM     57  C   UNL A   1      45.901  25.640  31.457  1.00  0.00     0.074 A 
ATOM     58  C   UNL A   1      45.487  24.761  32.528  1.00  0.00     0.031 C 
ATOM     59  C   UNL A   1      45.801  25.385  30.131  1.00  0.00     0.034 A 
BRANCH  46  60
ATOM     60  C   UNL A   1      43.433  23.000  25.815  1.00  0.00     0.023 A 
ATOM     61  C   UNL A   1      43.546  21.583  25.808  1.00  0.00     0.031 A 
ATOM     62  C   UNL A   1      44.070  23.675  24.768  1.00  0.00     0.131 A 
ATOM     63  C   UNL A   1      44.369  20.911  24.894  1.00  0.00     0.055 A 
ATOM     64  C   UNL A   1      44.847  22.993  23.814  1.00  0.00     0.041 A 
ATOM     65  F   UNL A   1      44.043  25.010  24.674  1.00  0.00    -0.206 F 
ATOM     66  C   UNL A   1      45.030  21.613  23.895  1.00  0.00     0.022 A 
BRANCH  63  67
ATOM     67  S   UNL A   1      44.674  19.136  25.148  1.00  0.00     0.124 S 
ATOM     68  O   UNL A   1      44.580  18.609  23.792  1.00  0.00    -0.237 OA
ATOM     69  O   UNL A   1      46.009  19.138  25.741  1.00  0.00    -0.237 OA
ATOM     70  O   UNL A   1      43.598  18.733  26.051  1.00  0.00    -0.744 OA
ENDBRANCH  63  67
ENDBRANCH  46  60
BRANCH  47  71
ATOM     71  C   UNL A   1      44.530  28.211  34.935  1.00  0.00     0.023 A 
ATOM     72  C   UNL A   1      44.404  27.392  36.070  1.00  0.00     0.031 A 
ATOM     73  C   UNL A   1      45.209  29.453  35.182  1.00  0.00     0.131 A 
ATOM     74  C   UNL A   1      45.010  27.776  37.305  1.00  0.00     0.055 A 
ATOM     75  C   UNL A   1      45.881  29.776  36.360  1.00  0.00     0.041 A 
ATOM     76  F   UNL A   1      45.265  30.430  34.265  1.00  0.00    -0.206 F 
ATOM     77  C   UNL A   1      45.798  28.924  37.432  1.00  0.00     0.022 A 
BRANCH  74  78
ATOM     78  S   UNL A   1      44.821  26.789  38.822  1.00  0.00     0.124 S 
ATOM     79  O   UNL A   1      45.091  27.781  39.859  1.00  0.00    -0.237 OA
ATOM     80  O   UNL A   1      43.447  26.309  38.739  1.00  0.00    -0.237 OA
ATOM     81  O   UNL A   1      45.846  25.756  38.671  1.00  0.00    -0.744 OA
ENDBRANCH  74  78
ENDBRANCH  47  71
BRANCH  59  82
ATOM     82  C   UNL A   1      46.195  26.527  29.215  1.00  0.00     0.023 A 
ATOM     83  C   UNL A   1      45.191  27.258  28.564  1.00  0.00     0.031 A 
ATOM     84  C   UNL A   1      47.524  26.874  28.910  1.00  0.00     0.131 A 
ATOM     85  C   UNL A   1      45.521  28.286  27.663  1.00  0.00     0.055 A 
ATOM     86  C   UNL A   1      47.856  27.900  28.016  1.00  0.00     0.041 A 
ATOM     87  F   UNL A   1      48.546  26.216  29.456  1.00  0.00    -0.206 F 
ATOM     88  C   UNL A   1      46.850  28.618  27.387  1.00  0.00     0.022 A 
BRANCH  85  89
ATOM     89  S   UNL A   1      44.185  29.235  26.887  1.00  0.00     0.124 S 
ATOM     90  O   UNL A   1      43.363  29.614  28.030  1.00  0.00    -0.237 OA
ATOM     91  O   UNL A   1      44.907  30.320  26.232  1.00  0.00    -0.237 OA
ATOM     92  O   UNL A   1      43.569  28.271  25.975  1.00  0.00    -0.744 OA
ENDBRANCH  85  89
ENDBRANCH  59  82
ENDBRANCH  33  34
ENDBRANCH  25  28
ENDBRANCH  23  24
ENDBRANCH  22  23
ENDBRANCH   1  22
TORSDOF 18
ENDMDL
MODEL 2
REMARK VINA RESULT:     -11.5      1.517      2.044
REMARK SMILES O=C(Cc1ccn(-c2ccccc2F)c1)NCCCCCCNC(=O)c1ccc(-c2c3nc(c(-c4cc(S(=O)(=O)[O-])ccc4F)c4ccc([nH]4)c(-c4cc(S(=O)(=O)[O-])ccc4F)c4nc(c(-c5cc(S(=O)(=O)[O-])ccc5F)c5ccc2[nH]5)C=C4)C=C3)cc1
REMARK SMILES IDX 20 1 19 2 18 3 17 4 16 5 1 6 2 7 3 9 4 10 5 11 15 12 6 13
REMARK SMILES IDX 7 14 8 15 9 16 13 17 10 18 12 19 14 20 11 21 21 22 22 23
REMARK SMILES IDX 23 24 24 25 25 27 26 28 27 29 88 30 28 31 87 32 29 33 30 34
REMARK SMILES IDX 31 35 81 36 32 37 86 38 80 39 82 40 33 41 85 42 79 43 78 44
REMARK SMILES IDX 34 46 66 47 46 48 65 49 47 50 50 51 64 52 83 53 48 54 49 55
REMARK SMILES IDX 63 57 84 58 51 59 35 60 36 61 44 62 37 63 43 64 45 65 42 66
REMARK SMILES IDX 38 67 39 68 40 69 41 70 67 71 68 72 76 73 69 74 75 75 77 76
REMARK SMILES IDX 74 77 70 78 71 79 72 80 73 81 52 82 53 83 61 84 54 85 60 86
REMARK SMILES IDX 62 87 59 88 55 89 56 90 57 91 58 92
REMARK H PARENT 16 8 23 26 82 45 50 56
REMARK Flexibility Score: inf
ROOT
ATOM      1  C   UNL A   1      32.323  29.536  26.306  1.00  0.00     0.002 C 
ENDROOT
BRANCH   1   2
ATOM      2  C   UNL A   1      31.399  29.722  25.098  1.00  0.00     0.002 C 
BRANCH   2   3
ATOM      3  C   UNL A   1      31.877  29.058  23.797  1.00  0.00     0.021 C 
BRANCH   3   4
ATOM      4  C   UNL A   1      31.098  27.805  23.394  1.00  0.00     0.116 C 
BRANCH   4   5
ATOM      5  N   UNL A   1      31.252  26.759  24.381  1.00  0.00    -0.356 N 
ATOM      6  O   UNL A   1      29.038  26.152  24.516  1.00  0.00    -0.275 OA
ATOM      7  C   UNL A   1      30.202  26.021  24.884  1.00  0.00     0.224 C 
ATOM      8  H   UNL A   1      32.158  26.564  24.714  1.00  0.00     0.163 HD
BRANCH   7   9
ATOM      9  C   UNL A   1      30.602  25.073  26.001  1.00  0.00     0.137 C 
BRANCH   9  10
ATOM     10  C   UNL A   1      31.590  24.035  25.570  1.00  0.00    -0.021 A 
ATOM     11  C   UNL A   1      31.346  22.895  24.758  1.00  0.00     0.024 A 
ATOM     12  C   UNL A   1      32.944  24.024  25.851  1.00  0.00     0.095 A 
ATOM     13  C   UNL A   1      32.552  22.266  24.546  1.00  0.00     0.091 A 
ATOM     14  N   UNL A   1      33.545  22.963  25.206  1.00  0.00    -0.321 N 
BRANCH  14  15
ATOM     15  C   UNL A   1      34.929  22.663  25.178  1.00  0.00     0.081 A 
ATOM     16  C   UNL A   1      35.868  23.697  25.310  1.00  0.00     0.030 A 
ATOM     17  C   UNL A   1      35.376  21.348  25.036  1.00  0.00     0.147 A 
ATOM     18  C   UNL A   1      37.235  23.403  25.318  1.00  0.00     0.002 A 
ATOM     19  C   UNL A   1      36.740  21.061  25.012  1.00  0.00     0.041 A 
ATOM     20  F   UNL A   1      34.522  20.331  24.851  1.00  0.00    -0.205 F 
ATOM     21  C   UNL A   1      37.671  22.088  25.161  1.00  0.00     0.003 A 
ENDBRANCH  14  15
ENDBRANCH   9  10
ENDBRANCH   7   9
ENDBRANCH   4   5
ENDBRANCH   3   4
ENDBRANCH   2   3
ENDBRANCH   1   2
BRANCH   1  22
ATOM     22  C   UNL A   1      33.706  28.952  25.986  1.00  0.00     0.021 C 
BRANCH  22  23
ATOM     23  C   UNL A   1      34.697  29.017  27.152  1.00  0.00     0.116 C 
BRANCH  23  24
ATOM     24  N   UNL A   1      35.227  30.361  27.300  1.00  0.00    -0.352 N 
ATOM     25  C   UNL A   1      36.337  30.809  27.971  1.00  0.00     0.251 C 
ATOM     26  H   UNL A   1      34.707  31.063  26.847  1.00  0.00     0.163 HD
ATOM     27  O   UNL A   1      36.380  31.992  28.291  1.00  0.00    -0.269 OA
BRANCH  25  28
ATOM     28  C   UNL A   1      37.467  29.916  28.319  1.00  0.00     0.039 A 
ATOM     29  C   UNL A   1      38.582  29.926  27.470  1.00  0.00     0.014 A 
ATOM     30  C   UNL A   1      37.407  29.002  29.377  1.00  0.00     0.014 A 
ATOM     31  C   UNL A   1      39.653  29.069  27.709  1.00  0.00     0.010 A 
ATOM     32  C   UNL A   1      38.482  28.144  29.625  1.00  0.00     0.010 A 
ATOM     33  C   UNL A   1      39.616  28.196  28.804  1.00  0.00    -0.014 A 
BRANCH  33  34
ATOM     34  C   UNL A   1      40.881  27.531  29.207  1.00  0.00     0.031 A 
ATOM     35  C   UNL A   1      41.198  26.336  28.256  1.00  0.00     0.074 A 
ATOM     36  C   UNL A   1      41.519  28.006  30.325  1.00  0.00     0.049 A 
ATOM     37  N   UNL A   1      41.857  25.238  28.467  1.00  0.00    -0.248 NA
ATOM     38  C   UNL A   1      40.619  26.334  26.879  1.00  0.00     0.031 C 
ATOM     39  C   UNL A   1      41.111  29.205  31.100  1.00  0.00     0.029 A 
ATOM     40  N   UNL A   1      42.629  27.602  31.043  1.00  0.00    -0.354 N 
ATOM     41  C   UNL A   1      41.958  24.543  27.234  1.00  0.00     0.074 A 
ATOM     42  C   UNL A   1      41.075  25.207  26.329  1.00  0.00     0.031 C 
ATOM     43  C   UNL A   1      41.887  29.370  32.199  1.00  0.00     0.029 A 
ATOM     44  C   UNL A   1      42.885  28.319  32.252  1.00  0.00     0.049 A 
ATOM     45  H   UNL A   1      43.208  26.865  30.741  1.00  0.00     0.167 HD
ATOM     46  C   UNL A   1      42.856  23.535  27.005  1.00  0.00     0.034 A 
ATOM     47  C   UNL A   1      43.807  28.055  33.238  1.00  0.00     0.034 A 
ATOM     48  C   UNL A   1      43.574  23.261  28.200  1.00  0.00     0.049 A 
ATOM     49  C   UNL A   1      44.615  26.955  32.690  1.00  0.00     0.074 A 
ATOM     50  C   UNL A   1      43.217  22.679  29.386  1.00  0.00     0.029 A 
ATOM     51  N   UNL A   1      44.767  23.923  28.362  1.00  0.00    -0.354 N 
ATOM     52  N   UNL A   1      45.488  27.071  31.736  1.00  0.00    -0.248 NA
ATOM     53  C   UNL A   1      44.381  25.601  33.208  1.00  0.00     0.031 C 
ATOM     54  C   UNL A   1      43.919  23.447  30.336  1.00  0.00     0.029 A 
ATOM     55  C   UNL A   1      44.830  24.284  29.681  1.00  0.00     0.049 A 
ATOM     56  H   UNL A   1      45.440  24.101  27.668  1.00  0.00     0.167 HD
ATOM     57  C   UNL A   1      45.658  25.771  31.336  1.00  0.00     0.074 A 
ATOM     58  C   UNL A   1      45.230  24.933  32.434  1.00  0.00     0.031 C 
ATOM     59  C   UNL A   1      45.594  25.459  30.020  1.00  0.00     0.034 A 
BRANCH  46  60
ATOM     60  C   UNL A   1      43.368  22.855  25.755  1.00  0.00     0.023 A 
ATOM     61  C   UNL A   1      43.450  21.437  25.794  1.00  0.00     0.031 A 
ATOM     62  C   UNL A   1      44.064  23.486  24.718  1.00  0.00     0.131 A 
ATOM     63  C   UNL A   1      44.296  20.721  24.936  1.00  0.00     0.055 A 
ATOM     64  C   UNL A   1      44.865  22.761  23.818  1.00  0.00     0.041 A 
ATOM     65  F   UNL A   1      44.069  24.818  24.586  1.00  0.00    -0.206 F 
ATOM     66  C   UNL A   1      45.015  21.380  23.947  1.00  0.00     0.022 A 
BRANCH  63  67
ATOM     67  S   UNL A   1      44.551  18.949  25.253  1.00  0.00     0.124 S 
ATOM     68  O   UNL A   1      45.965  18.898  25.605  1.00  0.00    -0.237 OA
ATOM     69  O   UNL A   1      43.613  18.696  26.344  1.00  0.00    -0.237 OA
ATOM     70  O   UNL A   1      44.200  18.323  23.980  1.00  0.00    -0.744 OA
ENDBRANCH  63  67
ENDBRANCH  46  60
BRANCH  47  71
ATOM     71  C   UNL A   1      44.165  28.467  34.667  1.00  0.00     0.023 A 
ATOM     72  C   UNL A   1      45.448  28.714  35.182  1.00  0.00     0.031 A 
ATOM     73  C   UNL A   1      43.100  28.749  35.589  1.00  0.00     0.131 A 
ATOM     74  C   UNL A   1      45.604  29.290  36.480  1.00  0.00     0.055 A 
ATOM     75  C   UNL A   1      43.253  29.400  36.812  1.00  0.00     0.041 A 
ATOM     76  F   UNL A   1      41.828  28.408  35.336  1.00  0.00    -0.206 F 
ATOM     77  C   UNL A   1      44.517  29.692  37.260  1.00  0.00     0.022 A 
BRANCH  74  78
ATOM     78  S   UNL A   1      47.242  29.566  37.224  1.00  0.00     0.124 S 
ATOM     79  O   UNL A   1      47.554  30.916  36.764  1.00  0.00    -0.237 OA
ATOM     80  O   UNL A   1      46.989  29.419  38.652  1.00  0.00    -0.237 OA
ATOM     81  O   UNL A   1      48.055  28.505  36.628  1.00  0.00    -0.744 OA
ENDBRANCH  74  78
ENDBRANCH  47  71
BRANCH  59  82
ATOM     82  C   UNL A   1      45.994  26.567  29.066  1.00  0.00     0.023 A 
ATOM     83  C   UNL A   1      44.996  27.366  28.491  1.00  0.00     0.031 A 
ATOM     84  C   UNL A   1      47.315  26.815  28.652  1.00  0.00     0.131 A 
ATOM     85  C   UNL A   1      45.325  28.365  27.557  1.00  0.00     0.055 A 
ATOM     86  C   UNL A   1      47.648  27.813  27.726  1.00  0.00     0.041 A 
ATOM     87  F   UNL A   1      48.328  26.087  29.121  1.00  0.00    -0.206 F 
ATOM     88  C   UNL A   1      46.648  28.599  27.173  1.00  0.00     0.022 A 
BRANCH  85  89
ATOM     89  S   UNL A   1      44.003  29.405  26.883  1.00  0.00     0.124 S 
ATOM     90  O   UNL A   1      44.747  30.468  26.215  1.00  0.00    -0.237 OA
ATOM     91  O   UNL A   1      43.288  28.481  26.010  1.00  0.00    -0.237 OA
ATOM     92  O   UNL A   1      43.260  29.824  28.071  1.00  0.00    -0.744 OA
ENDBRANCH  85  89
ENDBRANCH  59  82
ENDBRANCH  33  34
ENDBRANCH  25  28
ENDBRANCH  23  24
ENDBRANCH  22  23
ENDBRANCH   1  22
TORSDOF 18
ENDMDL
MODEL 3
REMARK VINA RESULT:     -11.5      1.812      2.505
REMARK SMILES O=C(Cc1ccn(-c2ccccc2F)c1)NCCCCCCNC(=O)c1ccc(-c2c3nc(c(-c4cc(S(=O)(=O)[O-])ccc4F)c4ccc([nH]4)c(-c4cc(S(=O)(=O)[O-])ccc4F)c4nc(c(-c5cc(S(=O)(=O)[O-])ccc5F)c5ccc2[nH]5)C=C4)C=C3)cc1
REMARK SMILES IDX 20 1 19 2 18 3 17 4 16 5 1 6 2 7 3 9 4 10 5 11 15 12 6 13
REMARK SMILES IDX 7 14 8 15 9 16 13 17 10 18 12 19 14 20 11 21 21 22 22 23
REMARK SMILES IDX 23 24 24 25 25 27 26 28 27 29 88 30 28 31 87 32 29 33 30 34
REMARK SMILES IDX 31 35 81 36 32 37 86 38 80 39 82 40 33 41 85 42 79 43 78 44
REMARK SMILES IDX 34 46 66 47 46 48 65 49 47 50 50 51 64 52 83 53 48 54 49 55
REMARK SMILES IDX 63 57 84 58 51 59 35 60 36 61 44 62 37 63 43 64 45 65 42 66
REMARK SMILES IDX 38 67 39 68 40 69 41 70 67 71 68 72 76 73 69 74 75 75 77 76
REMARK SMILES IDX 74 77 70 78 71 79 72 80 73 81 52 82 53 83 61 84 54 85 60 86
REMARK SMILES IDX 62 87 59 88 55 89 56 90 57 91 58 92
REMARK H PARENT 16 8 23 26 82 45 50 56
REMARK Flexibility Score: inf
ROOT
ATOM      1  C   UNL A   1      33.260  27.592  26.449  1.00  0.00     0.002 C 
ENDROOT
BRANCH   1   2
ATOM      2  C   UNL A   1      31.932  27.089  27.024  1.00  0.00     0.002 C 
BRANCH   2   3
ATOM      3  C   UNL A   1      30.841  26.782  25.987  1.00  0.00     0.021 C 
BRANCH   3   4
ATOM      4  C   UNL A   1      31.085  25.523  25.154  1.00  0.00     0.116 C 
BRANCH   4   5
ATOM      5  N   UNL A   1      31.990  24.621  25.830  1.00  0.00    -0.356 N 
ATOM      6  O   UNL A   1      30.437  23.609  27.191  1.00  0.00    -0.275 OA
ATOM      7  C   UNL A   1      31.600  23.741  26.816  1.00  0.00     0.224 C 
ATOM      8  H   UNL A   1      32.940  24.637  25.573  1.00  0.00     0.163 HD
BRANCH   7   9
ATOM      9  C   UNL A   1      32.754  22.994  27.461  1.00  0.00     0.137 C 
BRANCH   9  10
ATOM     10  C   UNL A   1      33.488  22.105  26.508  1.00  0.00    -0.021 A 
ATOM     11  C   UNL A   1      34.832  22.235  26.065  1.00  0.00     0.024 A 
ATOM     12  C   UNL A   1      32.998  20.955  25.915  1.00  0.00     0.095 A 
ATOM     13  C   UNL A   1      35.114  21.153  25.263  1.00  0.00     0.091 A 
ATOM     14  N   UNL A   1      33.993  20.353  25.175  1.00  0.00    -0.321 N 
BRANCH  14  15
ATOM     15  C   UNL A   1      33.907  19.115  24.489  1.00  0.00     0.081 A 
ATOM     16  C   UNL A   1      34.824  18.094  24.779  1.00  0.00     0.030 A 
ATOM     17  C   UNL A   1      32.910  18.889  23.539  1.00  0.00     0.147 A 
ATOM     18  C   UNL A   1      34.723  16.859  24.131  1.00  0.00     0.002 A 
ATOM     19  C   UNL A   1      32.831  17.669  22.871  1.00  0.00     0.041 A 
ATOM     20  F   UNL A   1      32.044  19.850  23.185  1.00  0.00    -0.205 F 
ATOM     21  C   UNL A   1      33.732  16.649  23.173  1.00  0.00     0.003 A 
ENDBRANCH  14  15
ENDBRANCH   9  10
ENDBRANCH   7   9
ENDBRANCH   4   5
ENDBRANCH   3   4
ENDBRANCH   2   3
ENDBRANCH   1   2
BRANCH   1  22
ATOM     22  C   UNL A   1      33.639  29.028  26.842  1.00  0.00     0.021 C 
BRANCH  22  23
ATOM     23  C   UNL A   1      35.144  29.308  26.809  1.00  0.00     0.116 C 
BRANCH  23  24
ATOM     24  N   UNL A   1      35.455  30.529  27.532  1.00  0.00    -0.352 N 
ATOM     25  C   UNL A   1      36.362  30.760  28.535  1.00  0.00     0.251 C 
ATOM     26  H   UNL A   1      34.932  31.316  27.258  1.00  0.00     0.163 HD
ATOM     27  O   UNL A   1      36.189  31.738  29.255  1.00  0.00    -0.269 OA
BRANCH  25  28
ATOM     28  C   UNL A   1      37.524  29.873  28.774  1.00  0.00     0.039 A 
ATOM     29  C   UNL A   1      38.648  30.047  27.955  1.00  0.00     0.014 A 
ATOM     30  C   UNL A   1      37.489  28.816  29.692  1.00  0.00     0.014 A 
ATOM     31  C   UNL A   1      39.750  29.208  28.090  1.00  0.00     0.010 A 
ATOM     32  C   UNL A   1      38.597  27.976  29.836  1.00  0.00     0.010 A 
ATOM     33  C   UNL A   1      39.737  28.187  29.050  1.00  0.00    -0.014 A 
BRANCH  33  34
ATOM     34  C   UNL A   1      41.023  27.523  29.378  1.00  0.00     0.031 A 
ATOM     35  C   UNL A   1      41.310  26.362  28.377  1.00  0.00     0.074 A 
ATOM     36  C   UNL A   1      41.705  27.970  30.482  1.00  0.00     0.049 A 
ATOM     37  N   UNL A   1      41.987  25.264  28.525  1.00  0.00    -0.248 NA
ATOM     38  C   UNL A   1      40.672  26.396  27.026  1.00  0.00     0.031 C 
ATOM     39  C   UNL A   1      41.320  29.140  31.311  1.00  0.00     0.029 A 
ATOM     40  N   UNL A   1      42.848  27.555  31.140  1.00  0.00    -0.354 N 
ATOM     41  C   UNL A   1      42.041  24.608  27.268  1.00  0.00     0.074 A 
ATOM     42  C   UNL A   1      41.114  25.291  26.423  1.00  0.00     0.031 C 
ATOM     43  C   UNL A   1      42.141  29.278  32.381  1.00  0.00     0.029 A 
ATOM     44  C   UNL A   1      43.149  28.236  32.358  1.00  0.00     0.049 A 
ATOM     45  H   UNL A   1      43.419  26.833  30.790  1.00  0.00     0.167 HD
ATOM     46  C   UNL A   1      42.936  23.617  26.969  1.00  0.00     0.034 A 
ATOM     47  C   UNL A   1      44.115  27.951  33.295  1.00  0.00     0.034 A 
ATOM     48  C   UNL A   1      43.707  23.313  28.124  1.00  0.00     0.049 A 
ATOM     49  C   UNL A   1      44.908  26.876  32.679  1.00  0.00     0.074 A 
ATOM     50  C   UNL A   1      43.406  22.691  29.305  1.00  0.00     0.029 A 
ATOM     51  N   UNL A   1      44.900  23.982  28.255  1.00  0.00    -0.354 N 
ATOM     52  N   UNL A   1      45.738  27.031  31.693  1.00  0.00    -0.248 NA
ATOM     53  C   UNL A   1      44.708  25.504  33.164  1.00  0.00     0.031 C 
ATOM     54  C   UNL A   1      44.142  23.437  30.247  1.00  0.00     0.029 A 
ATOM     55  C   UNL A   1      45.017  24.303  29.581  1.00  0.00     0.049 A 
ATOM     56  H   UNL A   1      45.542  24.188  27.539  1.00  0.00     0.167 HD
ATOM     57  C   UNL A   1      45.902  25.745  31.246  1.00  0.00     0.074 A 
ATOM     58  C   UNL A   1      45.529  24.869  32.334  1.00  0.00     0.031 C 
ATOM     59  C   UNL A   1      45.784  25.474  29.924  1.00  0.00     0.034 A 
BRANCH  46  60
ATOM     60  C   UNL A   1      43.401  22.982  25.678  1.00  0.00     0.023 A 
ATOM     61  C   UNL A   1      43.368  21.562  25.624  1.00  0.00     0.031 A 
ATOM     62  C   UNL A   1      44.151  23.620  24.685  1.00  0.00     0.131 A 
ATOM     63  C   UNL A   1      44.160  20.838  24.722  1.00  0.00     0.055 A 
ATOM     64  C   UNL A   1      44.897  22.894  23.741  1.00  0.00     0.041 A 
ATOM     65  F   UNL A   1      44.265  24.954  24.641  1.00  0.00    -0.206 F 
ATOM     66  C   UNL A   1      44.935  21.500  23.778  1.00  0.00     0.022 A 
BRANCH  63  67
ATOM     67  S   UNL A   1      44.270  19.034  24.922  1.00  0.00     0.124 S 
ATOM     68  O   UNL A   1      42.916  18.686  25.336  1.00  0.00    -0.237 OA
ATOM     69  O   UNL A   1      44.658  18.601  23.581  1.00  0.00    -0.237 OA
ATOM     70  O   UNL A   1      45.299  18.868  25.945  1.00  0.00    -0.744 OA
ENDBRANCH  63  67
ENDBRANCH  46  60
BRANCH  47  71
ATOM     71  C   UNL A   1      44.530  28.322  34.719  1.00  0.00     0.023 A 
ATOM     72  C   UNL A   1      45.449  29.313  35.104  1.00  0.00     0.031 A 
ATOM     73  C   UNL A   1      43.855  27.690  35.819  1.00  0.00     0.131 A 
ATOM     74  C   UNL A   1      45.577  29.680  36.479  1.00  0.00     0.055 A 
ATOM     75  C   UNL A   1      43.912  28.119  37.145  1.00  0.00     0.041 A 
ATOM     76  F   UNL A   1      43.081  26.608  35.655  1.00  0.00    -0.206 F 
ATOM     77  C   UNL A   1      44.769  29.137  37.481  1.00  0.00     0.022 A 
BRANCH  74  78
ATOM     78  S   UNL A   1      46.798  30.907  37.041  1.00  0.00     0.124 S 
ATOM     79  O   UNL A   1      47.419  30.215  38.167  1.00  0.00    -0.237 OA
ATOM     80  O   UNL A   1      47.640  31.102  35.867  1.00  0.00    -0.237 OA
ATOM     81  O   UNL A   1      45.967  32.056  37.402  1.00  0.00    -0.744 OA
ENDBRANCH  74  78
ENDBRANCH  47  71
BRANCH  59  82
ATOM     82  C   UNL A   1      46.134  26.614  28.990  1.00  0.00     0.023 A 
ATOM     83  C   UNL A   1      45.101  27.390  28.444  1.00  0.00     0.031 A 
ATOM     84  C   UNL A   1      47.441  26.917  28.565  1.00  0.00     0.131 A 
ATOM     85  C   UNL A   1      45.384  28.420  27.528  1.00  0.00     0.055 A 
ATOM     86  C   UNL A   1      47.726  27.945  27.656  1.00  0.00     0.041 A 
ATOM     87  F   UNL A   1      48.484  26.214  29.005  1.00  0.00    -0.206 F 
ATOM     88  C   UNL A   1      46.693  28.707  27.133  1.00  0.00     0.022 A 
BRANCH  85  89
ATOM     89  S   UNL A   1      44.018  29.428  26.892  1.00  0.00     0.124 S 
ATOM     90  O   UNL A   1      44.716  30.530  26.240  1.00  0.00    -0.237 OA
ATOM     91  O   UNL A   1      43.326  28.498  26.006  1.00  0.00    -0.237 OA
ATOM     92  O   UNL A   1      43.275  29.793  28.098  1.00  0.00    -0.744 OA
ENDBRANCH  85  89
ENDBRANCH  59  82
ENDBRANCH  33  34
ENDBRANCH  25  28
ENDBRANCH  23  24
ENDBRANCH  22  23
ENDBRANCH   1  22
TORSDOF 18
ENDMDL
