MODEL 1
REMARK VINA RESULT:     -11.1      0.000      0.000
REMARK SMILES C[C@@H](C(=O)NCCCCCCNC(=O)c1ccc(-c2c3nc(c(-c4cc(S(=O)(=O)[O-])ccc4F)c4ccc([nH]4)c(-c4cc(S(=O)(=O)[O-])ccc4F)c4nc(c(-c5cc(S(=O)(=O)[O-])ccc5F)c5ccc2[nH]5)C=C4)C=C3)cc1)c1ccc(C[C@@H]2CCC[C@@H]2O)cc1F
REMARK SMILES IDX 8 1 7 2 6 3 5 4 3 5 4 6 2 8 1 9 78 10 79 11 90 12 80 13
REMARK SMILES IDX 89 14 91 15 81 16 82 17 83 18 84 19 87 20 85 21 86 22 88 23
REMARK SMILES IDX 9 25 10 26 11 27 12 28 13 29 14 31 15 32 16 33 77 34 17 35
REMARK SMILES IDX 76 36 18 37 19 38 20 39 70 40 21 41 75 42 69 43 71 44 22 45
REMARK SMILES IDX 74 46 68 47 67 48 23 50 55 51 35 52 54 53 36 54 39 55 53 56
REMARK SMILES IDX 72 57 37 58 38 59 52 61 73 62 40 63 24 64 25 65 33 66 26 67
REMARK SMILES IDX 32 68 34 69 31 70 27 71 28 72 29 73 30 74 56 75 57 76 65 77
REMARK SMILES IDX 58 78 64 79 66 80 63 81 59 82 60 83 61 84 62 85 41 86 42 87
REMARK SMILES IDX 50 88 43 89 49 90 51 91 48 92 44 93 45 94 46 95 47 96
REMARK H PARENT 5 7 88 24 12 30 71 49 39 60
REMARK Flexibility Score: inf
ROOT
ATOM      1  C   UNL A   1      34.046  24.733  25.505  1.00  0.00     0.002 C 
ENDROOT
BRANCH   1   2
ATOM      2  C   UNL A   1      33.929  26.153  26.074  1.00  0.00     0.021 C 
BRANCH   2   3
ATOM      3  C   UNL A   1      32.719  26.931  25.555  1.00  0.00     0.116 C 
BRANCH   3   4
ATOM      4  N   UNL A   1      33.100  27.814  24.474  1.00  0.00    -0.356 N 
ATOM      5  C   UNL A   1      32.533  28.014  23.253  1.00  0.00     0.227 C 
ATOM      6  O   UNL A   1      33.050  28.888  22.552  1.00  0.00    -0.274 OA
ATOM      7  H   UNL A   1      33.901  28.359  24.651  1.00  0.00     0.163 HD
BRANCH   5   8
ATOM      8  C   UNL A   1      31.257  27.251  22.863  1.00  0.00     0.108 C 
ATOM      9  C   UNL A   1      30.066  27.456  23.808  1.00  0.00     0.023 C 
BRANCH   8  10
ATOM     10  C   UNL A   1      31.489  25.754  22.731  1.00  0.00    -0.000 A 
ATOM     11  C   UNL A   1      30.742  24.848  23.494  1.00  0.00     0.008 A 
ATOM     12  C   UNL A   1      32.510  25.255  21.914  1.00  0.00     0.127 A 
ATOM     13  C   UNL A   1      31.047  23.484  23.470  1.00  0.00     0.004 A 
ATOM     14  C   UNL A   1      32.808  23.900  21.879  1.00  0.00     0.043 A 
ATOM     15  F   UNL A   1      33.272  26.091  21.194  1.00  0.00    -0.207 F 
ATOM     16  C   UNL A   1      32.109  23.004  22.693  1.00  0.00    -0.045 A 
BRANCH  16  17
ATOM     17  C   UNL A   1      32.554  21.569  22.777  1.00  0.00     0.041 C 
BRANCH  17  18
ATOM     18  C   UNL A   1      32.289  20.823  24.106  1.00  0.00     0.022 C 
ATOM     19  C   UNL A   1      33.118  21.322  25.295  1.00  0.00     0.007 C 
ATOM     20  C   UNL A   1      32.534  19.309  24.141  1.00  0.00     0.117 C 
ATOM     21  C   UNL A   1      34.263  20.325  25.490  1.00  0.00     0.003 C 
ATOM     22  C   UNL A   1      33.993  19.153  24.553  1.00  0.00     0.032 C 
BRANCH  20  23
ATOM     23  O   UNL A   1      32.252  18.644  22.929  1.00  0.00    -0.393 OA
ATOM     24  H   UNL A   1      32.945  18.846  22.281  1.00  0.00     0.210 HD
ENDBRANCH  20  23
ENDBRANCH  17  18
ENDBRANCH  16  17
ENDBRANCH   8  10
ENDBRANCH   5   8
ENDBRANCH   3   4
ENDBRANCH   2   3
ENDBRANCH   1   2
BRANCH   1  25
ATOM     25  C   UNL A   1      35.076  24.571  24.383  1.00  0.00     0.002 C 
BRANCH  25  26
ATOM     26  C   UNL A   1      36.073  23.431  24.590  1.00  0.00     0.021 C 
BRANCH  26  27
ATOM     27  C   UNL A   1      36.578  23.295  26.019  1.00  0.00     0.116 C 
BRANCH  27  28
ATOM     28  N   UNL A   1      37.673  22.345  26.115  1.00  0.00    -0.352 N 
ATOM     29  C   UNL A   1      38.998  22.584  26.374  1.00  0.00     0.251 C 
ATOM     30  H   UNL A   1      37.431  21.401  25.975  1.00  0.00     0.163 HD
ATOM     31  O   UNL A   1      39.827  21.695  26.185  1.00  0.00    -0.269 OA
BRANCH  29  32
ATOM     32  C   UNL A   1      39.422  23.914  26.860  1.00  0.00     0.039 A 
ATOM     33  C   UNL A   1      39.977  24.822  25.956  1.00  0.00     0.014 A 
ATOM     34  C   UNL A   1      39.287  24.260  28.209  1.00  0.00     0.014 A 
ATOM     35  C   UNL A   1      40.370  26.086  26.400  1.00  0.00     0.010 A 
ATOM     36  C   UNL A   1      39.595  25.549  28.630  1.00  0.00     0.010 A 
ATOM     37  C   UNL A   1      40.167  26.467  27.736  1.00  0.00    -0.014 A 
BRANCH  37  38
ATOM     38  C   UNL A   1      40.606  27.798  28.231  1.00  0.00     0.031 A 
ATOM     39  C   UNL A   1      42.075  28.136  28.260  1.00  0.00     0.074 A 
ATOM     40  C   UNL A   1      39.698  28.682  28.685  1.00  0.00     0.049 A 
ATOM     41  N   UNL A   1      42.669  29.219  28.688  1.00  0.00    -0.248 NA
ATOM     42  C   UNL A   1      42.999  27.099  27.775  1.00  0.00     0.031 C 
ATOM     43  C   UNL A   1      38.251  28.456  28.737  1.00  0.00     0.029 A 
ATOM     44  N   UNL A   1      39.852  29.951  29.185  1.00  0.00    -0.354 N 
ATOM     45  C   UNL A   1      44.033  28.987  28.543  1.00  0.00     0.074 A 
ATOM     46  C   UNL A   1      44.177  27.632  28.056  1.00  0.00     0.031 C 
ATOM     47  C   UNL A   1      37.651  29.564  29.200  1.00  0.00     0.029 A 
ATOM     48  C   UNL A   1      38.667  30.561  29.524  1.00  0.00     0.049 A 
ATOM     49  H   UNL A   1      40.731  30.383  29.292  1.00  0.00     0.167 HD
ATOM     50  C   UNL A   1      45.069  29.833  28.769  1.00  0.00     0.034 A 
ATOM     51  C   UNL A   1      38.428  31.783  30.038  1.00  0.00     0.034 A 
ATOM     52  C   UNL A   1      44.903  31.188  29.237  1.00  0.00     0.049 A 
ATOM     53  C   UNL A   1      39.598  32.701  30.302  1.00  0.00     0.074 A 
ATOM     54  C   UNL A   1      45.872  32.153  29.445  1.00  0.00     0.029 A 
ATOM     55  N   UNL A   1      43.687  31.769  29.578  1.00  0.00    -0.354 N 
ATOM     56  N   UNL A   1      40.880  32.486  30.110  1.00  0.00    -0.248 NA
ATOM     57  C   UNL A   1      39.283  34.031  30.835  1.00  0.00     0.031 C 
ATOM     58  C   UNL A   1      45.255  33.286  29.987  1.00  0.00     0.029 A 
ATOM     59  C   UNL A   1      43.887  33.065  30.027  1.00  0.00     0.049 A 
ATOM     60  H   UNL A   1      42.811  31.324  29.511  1.00  0.00     0.167 HD
ATOM     61  C   UNL A   1      41.518  33.676  30.455  1.00  0.00     0.074 A 
ATOM     62  C   UNL A   1      40.479  34.600  30.858  1.00  0.00     0.031 C 
ATOM     63  C   UNL A   1      42.842  33.979  30.430  1.00  0.00     0.034 A 
BRANCH  50  64
ATOM     64  C   UNL A   1      46.467  29.298  28.548  1.00  0.00     0.023 A 
ATOM     65  C   UNL A   1      46.978  29.060  27.258  1.00  0.00     0.031 A 
ATOM     66  C   UNL A   1      47.288  28.981  29.644  1.00  0.00     0.131 A 
ATOM     67  C   UNL A   1      48.225  28.437  27.102  1.00  0.00     0.055 A 
ATOM     68  C   UNL A   1      48.569  28.450  29.479  1.00  0.00     0.041 A 
ATOM     69  F   UNL A   1      46.852  29.163  30.901  1.00  0.00    -0.206 F 
ATOM     70  C   UNL A   1      49.037  28.156  28.202  1.00  0.00     0.022 A 
BRANCH  67  71
ATOM     71  S   UNL A   1      48.692  27.839  25.453  1.00  0.00     0.124 S 
ATOM     72  O   UNL A   1      48.842  26.405  25.692  1.00  0.00    -0.237 OA
ATOM     73  O   UNL A   1      47.550  28.236  24.638  1.00  0.00    -0.237 OA
ATOM     74  O   UNL A   1      49.938  28.549  25.172  1.00  0.00    -0.744 OA
ENDBRANCH  67  71
ENDBRANCH  50  64
BRANCH  51  75
ATOM     75  C   UNL A   1      37.034  32.227  30.327  1.00  0.00     0.023 A 
ATOM     76  C   UNL A   1      36.189  32.663  29.293  1.00  0.00     0.031 A 
ATOM     77  C   UNL A   1      36.538  32.264  31.641  1.00  0.00     0.131 A 
ATOM     78  C   UNL A   1      34.915  33.168  29.596  1.00  0.00     0.055 A 
ATOM     79  C   UNL A   1      35.248  32.713  31.931  1.00  0.00     0.041 A 
ATOM     80  F   UNL A   1      37.302  31.854  32.667  1.00  0.00    -0.206 F 
ATOM     81  C   UNL A   1      34.433  33.183  30.907  1.00  0.00     0.022 A 
BRANCH  78  82
ATOM     82  S   UNL A   1      33.929  33.896  28.258  1.00  0.00     0.124 S 
ATOM     83  O   UNL A   1      33.273  32.718  27.700  1.00  0.00    -0.237 OA
ATOM     84  O   UNL A   1      33.071  34.825  28.985  1.00  0.00    -0.237 OA
ATOM     85  O   UNL A   1      34.932  34.518  27.397  1.00  0.00    -0.744 OA
ENDBRANCH  78  82
ENDBRANCH  51  75
BRANCH  63  86
ATOM     86  C   UNL A   1      43.231  35.396  30.783  1.00  0.00     0.023 A 
ATOM     87  C   UNL A   1      43.352  35.830  32.114  1.00  0.00     0.031 A 
ATOM     88  C   UNL A   1      43.464  36.334  29.760  1.00  0.00     0.131 A 
ATOM     89  C   UNL A   1      43.627  37.178  32.388  1.00  0.00     0.055 A 
ATOM     90  C   UNL A   1      43.810  37.658  30.038  1.00  0.00     0.041 A 
ATOM     91  F   UNL A   1      43.359  35.980  28.469  1.00  0.00    -0.206 F 
ATOM     92  C   UNL A   1      43.877  38.090  31.359  1.00  0.00     0.022 A 
BRANCH  89  93
ATOM     93  S   UNL A   1      43.534  37.754  34.106  1.00  0.00     0.124 S 
ATOM     94  O   UNL A   1      44.935  37.732  34.511  1.00  0.00    -0.237 OA
ATOM     95  O   UNL A   1      42.934  39.077  33.958  1.00  0.00    -0.237 OA
ATOM     96  O   UNL A   1      42.684  36.759  34.756  1.00  0.00    -0.744 OA
ENDBRANCH  89  93
ENDBRANCH  63  86
ENDBRANCH  37  38
ENDBRANCH  29  32
ENDBRANCH  27  28
ENDBRANCH  26  27
ENDBRANCH  25  26
ENDBRANCH   1  25
TORSDOF 20
ENDMDL
MODEL 2
REMARK VINA RESULT:     -11.1      4.506      9.781
REMARK SMILES C[C@@H](C(=O)NCCCCCCNC(=O)c1ccc(-c2c3nc(c(-c4cc(S(=O)(=O)[O-])ccc4F)c4ccc([nH]4)c(-c4cc(S(=O)(=O)[O-])ccc4F)c4nc(c(-c5cc(S(=O)(=O)[O-])ccc5F)c5ccc2[nH]5)C=C4)C=C3)cc1)c1ccc(C[C@@H]2CCC[C@@H]2O)cc1F
REMARK SMILES IDX 8 1 7 2 6 3 5 4 3 5 4 6 2 8 1 9 78 10 79 11 90 12 80 13
REMARK SMILES IDX 89 14 91 15 81 16 82 17 83 18 84 19 87 20 85 21 86 22 88 23
REMARK SMILES IDX 9 25 10 26 11 27 12 28 13 29 14 31 15 32 16 33 77 34 17 35
REMARK SMILES IDX 76 36 18 37 19 38 20 39 70 40 21 41 75 42 69 43 71 44 22 45
REMARK SMILES IDX 74 46 68 47 67 48 23 50 55 51 35 52 54 53 36 54 39 55 53 56
REMARK SMILES IDX 72 57 37 58 38 59 52 61 73 62 40 63 24 64 25 65 33 66 26 67
REMARK SMILES IDX 32 68 34 69 31 70 27 71 28 72 29 73 30 74 56 75 57 76 65 77
REMARK SMILES IDX 58 78 64 79 66 80 63 81 59 82 60 83 61 84 62 85 41 86 42 87
REMARK SMILES IDX 50 88 43 89 49 90 51 91 48 92 44 93 45 94 46 95 47 96
REMARK H PARENT 5 7 88 24 12 30 71 49 39 60
REMARK Flexibility Score: inf
ROOT
ATOM      1  C   UNL A   1      31.968  26.122  26.592  1.00  0.00     0.002 C 
ENDROOT
BRANCH   1   2
ATOM      2  C   UNL A   1      30.796  25.170  26.322  1.00  0.00     0.021 C 
BRANCH   2   3
ATOM      3  C   UNL A   1      31.220  23.795  25.805  1.00  0.00     0.116 C 
BRANCH   3   4
ATOM      4  N   UNL A   1      32.617  23.794  25.430  1.00  0.00    -0.356 N 
ATOM      5  C   UNL A   1      33.209  23.991  24.220  1.00  0.00     0.227 C 
ATOM      6  O   UNL A   1      34.443  23.991  24.214  1.00  0.00    -0.274 OA
ATOM      7  H   UNL A   1      33.241  23.622  26.171  1.00  0.00     0.163 HD
BRANCH   5   8
ATOM      8  C   UNL A   1      32.350  24.304  22.984  1.00  0.00     0.108 C 
ATOM      9  C   UNL A   1      33.016  23.991  21.638  1.00  0.00     0.023 C 
BRANCH   8  10
ATOM     10  C   UNL A   1      31.887  25.752  22.946  1.00  0.00    -0.000 A 
ATOM     11  C   UNL A   1      30.525  26.066  23.028  1.00  0.00     0.008 A 
ATOM     12  C   UNL A   1      32.801  26.792  22.740  1.00  0.00     0.127 A 
ATOM     13  C   UNL A   1      30.093  27.385  22.860  1.00  0.00     0.004 A 
ATOM     14  C   UNL A   1      32.377  28.103  22.584  1.00  0.00     0.043 A 
ATOM     15  F   UNL A   1      34.111  26.530  22.619  1.00  0.00    -0.207 F 
ATOM     16  C   UNL A   1      31.012  28.408  22.595  1.00  0.00    -0.045 A 
BRANCH  16  17
ATOM     17  C   UNL A   1      30.555  29.802  22.253  1.00  0.00     0.041 C 
BRANCH  17  18
ATOM     18  C   UNL A   1      29.100  30.177  22.617  1.00  0.00     0.022 C 
ATOM     19  C   UNL A   1      28.200  30.483  21.413  1.00  0.00     0.007 C 
ATOM     20  C   UNL A   1      28.876  31.398  23.518  1.00  0.00     0.117 C 
ATOM     21  C   UNL A   1      28.090  32.008  21.315  1.00  0.00     0.003 C 
ATOM     22  C   UNL A   1      28.754  32.579  22.564  1.00  0.00     0.032 C 
BRANCH  20  23
ATOM     23  O   UNL A   1      29.884  31.600  24.485  1.00  0.00    -0.393 OA
ATOM     24  H   UNL A   1      30.500  30.851  24.471  1.00  0.00     0.210 HD
ENDBRANCH  20  23
ENDBRANCH  17  18
ENDBRANCH  16  17
ENDBRANCH   8  10
ENDBRANCH   5   8
ENDBRANCH   3   4
ENDBRANCH   2   3
ENDBRANCH   1   2
BRANCH   1  25
ATOM     25  C   UNL A   1      31.681  27.598  26.296  1.00  0.00     0.002 C 
BRANCH  25  26
ATOM     26  C   UNL A   1      32.337  28.583  27.264  1.00  0.00     0.021 C 
BRANCH  26  27
ATOM     27  C   UNL A   1      33.519  29.341  26.677  1.00  0.00     0.116 C 
BRANCH  27  28
ATOM     28  N   UNL A   1      33.456  30.759  26.987  1.00  0.00    -0.352 N 
ATOM     29  C   UNL A   1      34.253  31.491  27.829  1.00  0.00     0.251 C 
ATOM     30  H   UNL A   1      32.744  31.263  26.531  1.00  0.00     0.163 HD
ATOM     31  O   UNL A   1      33.913  32.628  28.156  1.00  0.00    -0.269 OA
BRANCH  29  32
ATOM     32  C   UNL A   1      35.503  30.902  28.353  1.00  0.00     0.039 A 
ATOM     33  C   UNL A   1      36.728  31.411  27.916  1.00  0.00     0.014 A 
ATOM     34  C   UNL A   1      35.468  29.838  29.260  1.00  0.00     0.014 A 
ATOM     35  C   UNL A   1      37.916  30.871  28.412  1.00  0.00     0.010 A 
ATOM     36  C   UNL A   1      36.650  29.364  29.820  1.00  0.00     0.010 A 
ATOM     37  C   UNL A   1      37.888  29.855  29.381  1.00  0.00    -0.014 A 
BRANCH  37  38
ATOM     38  C   UNL A   1      39.144  29.250  29.897  1.00  0.00     0.031 A 
ATOM     39  C   UNL A   1      39.772  29.795  31.154  1.00  0.00     0.074 A 
ATOM     40  C   UNL A   1      39.734  28.244  29.224  1.00  0.00     0.049 A 
ATOM     41  N   UNL A   1      40.881  29.439  31.749  1.00  0.00    -0.248 NA
ATOM     42  C   UNL A   1      39.076  30.915  31.806  1.00  0.00     0.031 C 
ATOM     43  C   UNL A   1      39.237  27.654  27.979  1.00  0.00     0.029 A 
ATOM     44  N   UNL A   1      40.878  27.535  29.493  1.00  0.00    -0.354 N 
ATOM     45  C   UNL A   1      41.025  30.302  32.831  1.00  0.00     0.074 A 
ATOM     46  C   UNL A   1      39.928  31.242  32.764  1.00  0.00     0.031 C 
ATOM     47  C   UNL A   1      40.048  26.648  27.616  1.00  0.00     0.029 A 
ATOM     48  C   UNL A   1      41.147  26.549  28.572  1.00  0.00     0.049 A 
ATOM     49  H   UNL A   1      41.453  27.716  30.271  1.00  0.00     0.167 HD
ATOM     50  C   UNL A   1      41.969  30.295  33.805  1.00  0.00     0.034 A 
ATOM     51  C   UNL A   1      42.165  25.667  28.508  1.00  0.00     0.034 A 
ATOM     52  C   UNL A   1      43.045  29.334  33.864  1.00  0.00     0.049 A 
ATOM     53  C   UNL A   1      43.216  25.691  29.591  1.00  0.00     0.074 A 
ATOM     54  C   UNL A   1      44.023  29.194  34.833  1.00  0.00     0.029 A 
ATOM     55  N   UNL A   1      43.291  28.355  32.909  1.00  0.00    -0.354 N 
ATOM     56  N   UNL A   1      43.310  26.479  30.637  1.00  0.00    -0.248 NA
ATOM     57  C   UNL A   1      44.287  24.693  29.490  1.00  0.00     0.031 C 
ATOM     58  C   UNL A   1      44.904  28.187  34.424  1.00  0.00     0.029 A 
ATOM     59  C   UNL A   1      44.424  27.631  33.248  1.00  0.00     0.049 A 
ATOM     60  H   UNL A   1      42.741  28.198  32.108  1.00  0.00     0.167 HD
ATOM     61  C   UNL A   1      44.427  26.037  31.345  1.00  0.00     0.074 A 
ATOM     62  C   UNL A   1      44.963  24.912  30.608  1.00  0.00     0.031 C 
ATOM     63  C   UNL A   1      44.953  26.511  32.504  1.00  0.00     0.034 A 
BRANCH  50  64
ATOM     64  C   UNL A   1      41.894  31.379  34.857  1.00  0.00     0.023 A 
ATOM     65  C   UNL A   1      40.873  31.408  35.825  1.00  0.00     0.031 A 
ATOM     66  C   UNL A   1      42.833  32.425  34.867  1.00  0.00     0.131 A 
ATOM     67  C   UNL A   1      40.762  32.504  36.694  1.00  0.00     0.055 A 
ATOM     68  C   UNL A   1      42.773  33.465  35.797  1.00  0.00     0.041 A 
ATOM     69  F   UNL A   1      43.818  32.469  33.955  1.00  0.00    -0.206 F 
ATOM     70  C   UNL A   1      41.721  33.518  36.708  1.00  0.00     0.022 A 
BRANCH  67  71
ATOM     71  S   UNL A   1      39.251  32.672  37.685  1.00  0.00     0.124 S 
ATOM     72  O   UNL A   1      38.742  33.963  37.229  1.00  0.00    -0.237 OA
ATOM     73  O   UNL A   1      38.478  31.502  37.284  1.00  0.00    -0.237 OA
ATOM     74  O   UNL A   1      39.741  32.656  39.062  1.00  0.00    -0.744 OA
ENDBRANCH  67  71
ENDBRANCH  50  64
BRANCH  51  75
ATOM     75  C   UNL A   1      42.242  24.678  27.394  1.00  0.00     0.023 A 
ATOM     76  C   UNL A   1      41.506  23.483  27.441  1.00  0.00     0.031 A 
ATOM     77  C   UNL A   1      43.084  24.888  26.289  1.00  0.00     0.131 A 
ATOM     78  C   UNL A   1      41.666  22.521  26.432  1.00  0.00     0.055 A 
ATOM     79  C   UNL A   1      43.197  23.953  25.258  1.00  0.00     0.041 A 
ATOM     80  F   UNL A   1      43.807  26.016  26.191  1.00  0.00    -0.206 F 
ATOM     81  C   UNL A   1      42.496  22.754  25.333  1.00  0.00     0.022 A 
BRANCH  78  82
ATOM     82  S   UNL A   1      40.845  20.914  26.625  1.00  0.00     0.124 S 
ATOM     83  O   UNL A   1      41.771  20.024  25.935  1.00  0.00    -0.237 OA
ATOM     84  O   UNL A   1      40.783  20.779  28.076  1.00  0.00    -0.237 OA
ATOM     85  O   UNL A   1      39.557  21.110  25.963  1.00  0.00    -0.744 OA
ENDBRANCH  78  82
ENDBRANCH  51  75
BRANCH  63  86
ATOM     86  C   UNL A   1      46.132  25.763  33.082  1.00  0.00     0.023 A 
ATOM     87  C   UNL A   1      45.973  24.620  33.884  1.00  0.00     0.031 A 
ATOM     88  C   UNL A   1      47.440  26.221  32.839  1.00  0.00     0.131 A 
ATOM     89  C   UNL A   1      47.096  24.016  34.470  1.00  0.00     0.055 A 
ATOM     90  C   UNL A   1      48.558  25.573  33.364  1.00  0.00     0.041 A 
ATOM     91  F   UNL A   1      47.654  27.311  32.084  1.00  0.00    -0.206 F 
ATOM     92  C   UNL A   1      48.388  24.473  34.200  1.00  0.00     0.022 A 
BRANCH  89  93
ATOM     93  S   UNL A   1      46.838  22.699  35.692  1.00  0.00     0.124 S 
ATOM     94  O   UNL A   1      45.741  23.235  36.490  1.00  0.00    -0.237 OA
ATOM     95  O   UNL A   1      46.512  21.553  34.849  1.00  0.00    -0.237 OA
ATOM     96  O   UNL A   1      48.124  22.614  36.382  1.00  0.00    -0.744 OA
ENDBRANCH  89  93
ENDBRANCH  63  86
ENDBRANCH  37  38
ENDBRANCH  29  32
ENDBRANCH  27  28
ENDBRANCH  26  27
ENDBRANCH  25  26
ENDBRANCH   1  25
TORSDOF 20
ENDMDL
MODEL 3
REMARK VINA RESULT:     -11.0      4.802      9.921
REMARK SMILES C[C@@H](C(=O)NCCCCCCNC(=O)c1ccc(-c2c3nc(c(-c4cc(S(=O)(=O)[O-])ccc4F)c4ccc([nH]4)c(-c4cc(S(=O)(=O)[O-])ccc4F)c4nc(c(-c5cc(S(=O)(=O)[O-])ccc5F)c5ccc2[nH]5)C=C4)C=C3)cc1)c1ccc(C[C@@H]2CCC[C@@H]2O)cc1F
REMARK SMILES IDX 8 1 7 2 6 3 5 4 3 5 4 6 2 8 1 9 78 10 79 11 90 12 80 13
REMARK SMILES IDX 89 14 91 15 81 16 82 17 83 18 84 19 87 20 85 21 86 22 88 23
REMARK SMILES IDX 9 25 10 26 11 27 12 28 13 29 14 31 15 32 16 33 77 34 17 35
REMARK SMILES IDX 76 36 18 37 19 38 20 39 70 40 21 41 75 42 69 43 71 44 22 45
REMARK SMILES IDX 74 46 68 47 67 48 23 50 55 51 35 52 54 53 36 54 39 55 53 56
REMARK SMILES IDX 72 57 37 58 38 59 52 61 73 62 40 63 24 64 25 65 33 66 26 67
REMARK SMILES IDX 32 68 34 69 31 70 27 71 28 72 29 73 30 74 56 75 57 76 65 77
REMARK SMILES IDX 58 78 64 79 66 80 63 81 59 82 60 83 61 84 62 85 41 86 42 87
REMARK SMILES IDX 50 88 43 89 49 90 51 91 48 92 44 93 45 94 46 95 47 96
REMARK H PARENT 5 7 88 24 12 30 71 49 39 60
REMARK Flexibility Score: inf
ROOT
ATOM      1  C   UNL A   1      31.094  26.738  27.107  1.00  0.00     0.002 C 
ENDROOT
BRANCH   1   2
ATOM      2  C   UNL A   1      30.435  25.754  26.132  1.00  0.00     0.021 C 
BRANCH   2   3
ATOM      3  C   UNL A   1      31.065  24.361  26.135  1.00  0.00     0.116 C 
BRANCH   3   4
ATOM      4  N   UNL A   1      32.483  24.436  25.857  1.00  0.00    -0.356 N 
ATOM      5  C   UNL A   1      33.148  24.582  24.679  1.00  0.00     0.227 C 
ATOM      6  O   UNL A   1      34.375  24.674  24.757  1.00  0.00    -0.274 OA
ATOM      7  H   UNL A   1      33.061  24.370  26.652  1.00  0.00     0.163 HD
BRANCH   5   8
ATOM      8  C   UNL A   1      32.362  24.731  23.365  1.00  0.00     0.108 C 
ATOM      9  C   UNL A   1      33.137  24.337  22.101  1.00  0.00     0.023 C 
BRANCH   8  10
ATOM     10  C   UNL A   1      31.829  26.140  23.161  1.00  0.00    -0.000 A 
ATOM     11  C   UNL A   1      30.450  26.381  23.120  1.00  0.00     0.008 A 
ATOM     12  C   UNL A   1      32.700  27.209  22.922  1.00  0.00     0.127 A 
ATOM     13  C   UNL A   1      29.963  27.651  22.801  1.00  0.00     0.004 A 
ATOM     14  C   UNL A   1      32.221  28.475  22.615  1.00  0.00     0.043 A 
ATOM     15  F   UNL A   1      34.027  27.015  22.915  1.00  0.00    -0.207 F 
ATOM     16  C   UNL A   1      30.845  28.699  22.505  1.00  0.00    -0.045 A 
BRANCH  16  17
ATOM     17  C   UNL A   1      30.343  30.027  22.005  1.00  0.00     0.041 C 
BRANCH  17  18
ATOM     18  C   UNL A   1      28.932  30.467  22.461  1.00  0.00     0.022 C 
ATOM     19  C   UNL A   1      28.025  30.973  21.333  1.00  0.00     0.007 C 
ATOM     20  C   UNL A   1      28.831  31.591  23.500  1.00  0.00     0.117 C 
ATOM     21  C   UNL A   1      28.031  32.503  21.409  1.00  0.00     0.003 C 
ATOM     22  C   UNL A   1      28.774  32.878  22.687  1.00  0.00     0.032 C 
BRANCH  20  23
ATOM     23  O   UNL A   1      29.878  31.607  24.445  1.00  0.00    -0.393 OA
ATOM     24  H   UNL A   1      30.151  32.523  24.608  1.00  0.00     0.210 HD
ENDBRANCH  20  23
ENDBRANCH  17  18
ENDBRANCH  16  17
ENDBRANCH   8  10
ENDBRANCH   5   8
ENDBRANCH   3   4
ENDBRANCH   2   3
ENDBRANCH   1   2
BRANCH   1  25
ATOM     25  C   UNL A   1      32.156  27.649  26.484  1.00  0.00     0.002 C 
BRANCH  25  26
ATOM     26  C   UNL A   1      31.715  29.100  26.282  1.00  0.00     0.021 C 
BRANCH  26  27
ATOM     27  C   UNL A   1      32.833  30.038  25.851  1.00  0.00     0.116 C 
BRANCH  27  28
ATOM     28  N   UNL A   1      32.561  31.411  26.237  1.00  0.00    -0.352 N 
ATOM     29  C   UNL A   1      33.122  32.146  27.250  1.00  0.00     0.251 C 
ATOM     30  H   UNL A   1      31.882  31.878  25.698  1.00  0.00     0.163 HD
ATOM     31  O   UNL A   1      32.608  33.213  27.586  1.00  0.00    -0.269 OA
BRANCH  29  32
ATOM     32  C   UNL A   1      34.327  31.643  27.941  1.00  0.00     0.039 A 
ATOM     33  C   UNL A   1      35.404  32.508  28.146  1.00  0.00     0.014 A 
ATOM     34  C   UNL A   1      34.402  30.315  28.374  1.00  0.00     0.014 A 
ATOM     35  C   UNL A   1      36.543  32.048  28.809  1.00  0.00     0.010 A 
ATOM     36  C   UNL A   1      35.500  29.885  29.112  1.00  0.00     0.010 A 
ATOM     37  C   UNL A   1      36.595  30.739  29.313  1.00  0.00    -0.014 A 
BRANCH  37  38
ATOM     38  C   UNL A   1      37.811  30.225  29.995  1.00  0.00     0.031 A 
ATOM     39  C   UNL A   1      38.085  30.614  31.425  1.00  0.00     0.074 A 
ATOM     40  C   UNL A   1      38.682  29.446  29.325  1.00  0.00     0.049 A 
ATOM     41  N   UNL A   1      39.103  30.310  32.188  1.00  0.00    -0.248 NA
ATOM     42  C   UNL A   1      37.097  31.494  32.068  1.00  0.00     0.031 C 
ATOM     43  C   UNL A   1      38.541  29.028  27.928  1.00  0.00     0.029 A 
ATOM     44  N   UNL A   1      39.856  28.860  29.729  1.00  0.00    -0.354 N 
ATOM     45  C   UNL A   1      38.888  30.975  33.391  1.00  0.00     0.074 A 
ATOM     46  C   UNL A   1      37.681  31.756  33.227  1.00  0.00     0.031 C 
ATOM     47  C   UNL A   1      39.564  28.221  27.606  1.00  0.00     0.029 A 
ATOM     48  C   UNL A   1      40.459  28.101  28.753  1.00  0.00     0.049 A 
ATOM     49  H   UNL A   1      40.231  28.974  30.632  1.00  0.00     0.167 HD
ATOM     50  C   UNL A   1      39.614  30.919  34.535  1.00  0.00     0.034 A 
ATOM     51  C   UNL A   1      41.604  27.390  28.782  1.00  0.00     0.034 A 
ATOM     52  C   UNL A   1      40.805  30.118  34.684  1.00  0.00     0.049 A 
ATOM     53  C   UNL A   1      42.408  27.360  30.059  1.00  0.00     0.074 A 
ATOM     54  C   UNL A   1      41.588  29.938  35.811  1.00  0.00     0.029 A 
ATOM     55  N   UNL A   1      41.392  29.368  33.671  1.00  0.00    -0.354 N 
ATOM     56  N   UNL A   1      42.165  27.952  31.206  1.00  0.00    -0.248 NA
ATOM     57  C   UNL A   1      43.631  26.549  30.047  1.00  0.00     0.031 C 
ATOM     58  C   UNL A   1      42.688  29.149  35.459  1.00  0.00     0.029 A 
ATOM     59  C   UNL A   1      42.544  28.754  34.138  1.00  0.00     0.049 A 
ATOM     60  H   UNL A   1      41.041  29.286  32.755  1.00  0.00     0.167 HD
ATOM     61  C   UNL A   1      43.182  27.543  32.066  1.00  0.00     0.074 A 
ATOM     62  C   UNL A   1      44.033  26.652  31.306  1.00  0.00     0.031 C 
ATOM     63  C   UNL A   1      43.388  27.867  33.370  1.00  0.00     0.034 A 
BRANCH  50  64
ATOM     64  C   UNL A   1      39.156  31.777  35.694  1.00  0.00     0.023 A 
ATOM     65  C   UNL A   1      38.492  31.230  36.808  1.00  0.00     0.031 A 
ATOM     66  C   UNL A   1      39.348  33.169  35.667  1.00  0.00     0.131 A 
ATOM     67  C   UNL A   1      37.964  32.077  37.794  1.00  0.00     0.055 A 
ATOM     68  C   UNL A   1      38.904  33.997  36.700  1.00  0.00     0.041 A 
ATOM     69  F   UNL A   1      39.954  33.756  34.622  1.00  0.00    -0.206 F 
ATOM     70  C   UNL A   1      38.190  33.454  37.764  1.00  0.00     0.022 A 
BRANCH  67  71
ATOM     71  S   UNL A   1      36.829  31.371  39.022  1.00  0.00     0.124 S 
ATOM     72  O   UNL A   1      37.654  31.388  40.229  1.00  0.00    -0.237 OA
ATOM     73  O   UNL A   1      35.714  32.309  38.999  1.00  0.00    -0.237 OA
ATOM     74  O   UNL A   1      36.538  30.039  38.495  1.00  0.00    -0.744 OA
ENDBRANCH  67  71
ENDBRANCH  50  64
BRANCH  51  75
ATOM     75  C   UNL A   1      42.060  26.637  27.578  1.00  0.00     0.023 A 
ATOM     76  C   UNL A   1      41.789  25.265  27.442  1.00  0.00     0.031 A 
ATOM     77  C   UNL A   1      42.811  27.262  26.567  1.00  0.00     0.131 A 
ATOM     78  C   UNL A   1      42.310  24.553  26.350  1.00  0.00     0.055 A 
ATOM     79  C   UNL A   1      43.278  26.561  25.454  1.00  0.00     0.041 A 
ATOM     80  F   UNL A   1      43.095  28.572  26.645  1.00  0.00    -0.206 F 
ATOM     81  C   UNL A   1      43.041  25.194  25.348  1.00  0.00     0.022 A 
BRANCH  78  82
ATOM     82  S   UNL A   1      42.098  22.752  26.309  1.00  0.00     0.124 S 
ATOM     83  O   UNL A   1      40.652  22.621  26.445  1.00  0.00    -0.237 OA
ATOM     84  O   UNL A   1      42.653  22.412  25.003  1.00  0.00    -0.237 OA
ATOM     85  O   UNL A   1      42.878  22.292  27.455  1.00  0.00    -0.744 OA
ENDBRANCH  78  82
ENDBRANCH  51  75
BRANCH  63  86
ATOM     86  C   UNL A   1      44.542  27.193  34.073  1.00  0.00     0.023 A 
ATOM     87  C   UNL A   1      44.430  25.911  34.637  1.00  0.00     0.031 A 
ATOM     88  C   UNL A   1      45.774  27.862  34.198  1.00  0.00     0.131 A 
ATOM     89  C   UNL A   1      45.504  25.367  35.358  1.00  0.00     0.055 A 
ATOM     90  C   UNL A   1      46.864  27.286  34.853  1.00  0.00     0.041 A 
ATOM     91  F   UNL A   1      45.940  29.092  33.684  1.00  0.00    -0.206 F 
ATOM     92  C   UNL A   1      46.726  26.038  35.453  1.00  0.00     0.022 A 
BRANCH  89  93
ATOM     93  S   UNL A   1      45.244  23.825  36.277  1.00  0.00     0.124 S 
ATOM     94  O   UNL A   1      46.583  23.244  36.282  1.00  0.00    -0.237 OA
ATOM     95  O   UNL A   1      44.755  24.309  37.565  1.00  0.00    -0.237 OA
ATOM     96  O   UNL A   1      44.259  23.106  35.471  1.00  0.00    -0.744 OA
ENDBRANCH  89  93
ENDBRANCH  63  86
ENDBRANCH  37  38
ENDBRANCH  29  32
ENDBRANCH  27  28
ENDBRANCH  26  27
ENDBRANCH  25  26
ENDBRANCH   1  25
TORSDOF 20
ENDMDL
