MODEL 1
REMARK VINA RESULT:     -12.3      0.000      0.000
REMARK SMILES O=C(NCCCCCCNC(=O)c1ccc(-c2c3nc(c(-c4cc(S(=O)(=O)[O-])ccc4F)c4ccc([nH]4)c(-c4cc(S(=O)(=O)[O-])ccc4F)c4nc(c(-c5cc(S(=O)(=O)[O-])ccc5F)c5ccc2[nH]5)C=C4)C=C3)cc1)C1=Cc2cc(S(F)(F)(F)(F)F)cc(Br)c2O[C@@H]1C(F)(F)F
REMARK SMILES IDX 7 1 6 2 5 3 4 4 3 5 1 6 2 7 76 9 77 10 92 11 78 12 91 13
REMARK SMILES IDX 79 14 90 15 80 16 88 17 87 18 89 19 93 20 94 21 95 22 96 23
REMARK SMILES IDX 81 24 82 25 83 26 84 27 85 28 86 29 8 30 9 31 10 32 11 33
REMARK SMILES IDX 12 35 13 36 14 37 75 38 15 39 74 40 16 41 17 42 18 43 68 44
REMARK SMILES IDX 19 45 73 46 67 47 69 48 20 49 72 50 66 51 65 52 21 54 53 55
REMARK SMILES IDX 33 56 52 57 34 58 37 59 51 60 70 61 35 62 36 63 50 65 71 66
REMARK SMILES IDX 38 67 22 68 23 69 31 70 24 71 30 72 32 73 29 74 25 75 26 76
REMARK SMILES IDX 27 77 28 78 54 79 55 80 63 81 56 82 62 83 64 84 61 85 57 86
REMARK SMILES IDX 58 87 59 88 60 89 39 90 40 91 48 92 41 93 47 94 49 95 46 96
REMARK SMILES IDX 42 97 43 98 44 99 45 100
REMARK H PARENT 3 8 10 34 69 53 37 64
REMARK Flexibility Score: inf
ROOT
ATOM      1  C   UNL A   1      31.735  30.416  25.906  1.00  0.00     0.002 C 
ENDROOT
BRANCH   1   2
ATOM      2  C   UNL A   1      33.095  29.954  26.402  1.00  0.00     0.002 C 
BRANCH   2   3
ATOM      3  C   UNL A   1      33.656  28.915  25.446  1.00  0.00     0.021 C 
BRANCH   3   4
ATOM      4  C   UNL A   1      33.823  27.592  26.175  1.00  0.00     0.116 C 
BRANCH   4   5
ATOM      5  N   UNL A   1      34.438  26.609  25.271  1.00  0.00    -0.352 N 
ATOM      6  O   UNL A   1      34.450  24.386  24.433  1.00  0.00    -0.270 OA
ATOM      7  C   UNL A   1      33.918  25.236  25.215  1.00  0.00     0.251 C 
ATOM      8  H   UNL A   1      35.199  26.870  24.704  1.00  0.00     0.163 HD
BRANCH   7   9
ATOM      9  C   UNL A   1      32.743  24.831  26.090  1.00  0.00     0.067 C 
ATOM     10  C   UNL A   1      31.487  25.253  25.780  1.00  0.00     0.025 C 
ATOM     11  C   UNL A   1      32.971  23.957  27.312  1.00  0.00     0.314 C 
ATOM     12  C   UNL A   1      31.260  26.128  24.558  1.00  0.00     0.020 A 
ATOM     13  O   UNL A   1      32.807  24.762  23.379  1.00  0.00    -0.474 OA
ATOM     14  C   UNL A   1      30.442  27.241  24.662  1.00  0.00     0.036 A 
ATOM     15  C   UNL A   1      31.852  25.813  23.413  1.00  0.00     0.142 A 
ATOM     16  C   UNL A   1      30.077  27.803  23.416  1.00  0.00     0.109 A 
ATOM     17  C   UNL A   1      31.549  26.493  22.257  1.00  0.00     0.062 A 
ATOM     18  C   UNL A   1      30.702  27.568  22.276  1.00  0.00     0.044 A 
ATOM     19  Br  UNL A   1      32.341  25.917  20.560  1.00  0.00    -0.047 Br
BRANCH  11  20
ATOM     20  C   UNL A   1      32.176  22.670  27.170  1.00  0.00     0.429 C 
ATOM     21  F   UNL A   1      32.639  21.765  28.029  1.00  0.00    -0.167 F 
ATOM     22  F   UNL A   1      30.894  22.909  27.427  1.00  0.00    -0.167 F 
ATOM     23  F   UNL A   1      32.300  22.207  25.929  1.00  0.00    -0.167 F 
ENDBRANCH  11  20
BRANCH  16  24
ATOM     24  S   UNL A   1      28.656  28.923  23.380  1.00  0.00     0.310 S 
ATOM     25  F   UNL A   1      28.736  29.073  21.803  1.00  0.00    -0.094 F 
ATOM     26  F   UNL A   1      29.649  30.142  23.478  1.00  0.00    -0.094 F 
ATOM     27  F   UNL A   1      27.434  29.884  23.349  1.00  0.00    -0.094 F 
ATOM     28  F   UNL A   1      27.688  27.697  23.141  1.00  0.00    -0.094 F 
ATOM     29  F   UNL A   1      29.893  27.943  23.297  1.00  0.00    -0.094 F 
ENDBRANCH  16  24
ENDBRANCH   7   9
ENDBRANCH   4   5
ENDBRANCH   3   4
ENDBRANCH   2   3
ENDBRANCH   1   2
BRANCH   1  30
ATOM     30  C   UNL A   1      31.406  31.769  26.517  1.00  0.00     0.021 C 
BRANCH  30  31
ATOM     31  C   UNL A   1      32.661  32.365  27.133  1.00  0.00     0.116 C 
BRANCH  31  32
ATOM     32  N   UNL A   1      32.424  33.779  27.458  1.00  0.00    -0.352 N 
ATOM     33  C   UNL A   1      33.331  34.485  28.374  1.00  0.00     0.251 C 
ATOM     34  H   UNL A   1      31.657  34.254  27.063  1.00  0.00     0.163 HD
ATOM     35  O   UNL A   1      33.125  35.707  28.655  1.00  0.00    -0.269 OA
BRANCH  33  36
ATOM     36  C   UNL A   1      34.515  33.752  28.986  1.00  0.00     0.039 A 
ATOM     37  C   UNL A   1      35.798  34.216  28.746  1.00  0.00     0.014 A 
ATOM     38  C   UNL A   1      34.298  32.680  29.738  1.00  0.00     0.014 A 
ATOM     39  C   UNL A   1      36.815  33.303  29.112  1.00  0.00     0.010 A 
ATOM     40  C   UNL A   1      35.349  31.909  30.176  1.00  0.00     0.010 A 
ATOM     41  C   UNL A   1      36.642  32.276  29.925  1.00  0.00    -0.014 A 
BRANCH  41  42
ATOM     42  C   UNL A   1      37.818  31.540  30.547  1.00  0.00     0.031 A 
ATOM     43  C   UNL A   1      38.469  30.576  29.777  1.00  0.00     0.074 A 
ATOM     44  C   UNL A   1      38.176  31.867  31.843  1.00  0.00     0.049 A 
ATOM     45  N   UNL A   1      39.534  29.847  30.116  1.00  0.00    -0.248 NA
ATOM     46  C   UNL A   1      38.070  30.202  28.412  1.00  0.00     0.031 C 
ATOM     47  C   UNL A   1      37.529  32.845  32.624  1.00  0.00     0.029 A 
ATOM     48  N   UNL A   1      39.193  31.329  32.601  1.00  0.00    -0.354 N 
ATOM     49  C   UNL A   1      39.884  29.044  29.109  1.00  0.00     0.074 A 
ATOM     50  C   UNL A   1      38.943  29.257  28.001  1.00  0.00     0.031 C 
ATOM     51  C   UNL A   1      38.138  32.887  33.838  1.00  0.00     0.029 A 
ATOM     52  C   UNL A   1      39.177  31.937  33.837  1.00  0.00     0.049 A 
ATOM     53  H   UNL A   1      39.821  30.630  32.310  1.00  0.00     0.167 HD
ATOM     54  C   UNL A   1      40.950  28.145  29.070  1.00  0.00     0.034 A 
ATOM     55  C   UNL A   1      40.012  31.690  34.915  1.00  0.00     0.034 A 
ATOM     56  C   UNL A   1      41.812  27.928  30.134  1.00  0.00     0.049 A 
ATOM     57  C   UNL A   1      41.043  30.747  34.897  1.00  0.00     0.074 A 
ATOM     58  C   UNL A   1      42.897  27.032  30.109  1.00  0.00     0.029 A 
ATOM     59  N   UNL A   1      41.780  28.519  31.378  1.00  0.00    -0.354 N 
ATOM     60  N   UNL A   1      41.417  29.974  33.877  1.00  0.00    -0.248 NA
ATOM     61  C   UNL A   1      41.913  30.454  36.044  1.00  0.00     0.031 C 
ATOM     62  C   UNL A   1      43.506  27.073  31.323  1.00  0.00     0.029 A 
ATOM     63  C   UNL A   1      42.811  27.996  32.128  1.00  0.00     0.049 A 
ATOM     64  H   UNL A   1      41.134  29.198  31.679  1.00  0.00     0.167 HD
ATOM     65  C   UNL A   1      42.455  29.215  34.231  1.00  0.00     0.074 A 
ATOM     66  C   UNL A   1      42.785  29.507  35.633  1.00  0.00     0.031 C 
ATOM     67  C   UNL A   1      43.143  28.293  33.441  1.00  0.00     0.034 A 
BRANCH  54  68
ATOM     68  C   UNL A   1      41.180  27.358  27.790  1.00  0.00     0.023 A 
ATOM     69  C   UNL A   1      40.722  26.051  27.754  1.00  0.00     0.031 A 
ATOM     70  C   UNL A   1      41.785  27.905  26.743  1.00  0.00     0.131 A 
ATOM     71  C   UNL A   1      41.209  25.303  26.656  1.00  0.00     0.055 A 
ATOM     72  C   UNL A   1      42.110  27.144  25.646  1.00  0.00     0.041 A 
ATOM     73  F   UNL A   1      42.078  29.203  26.755  1.00  0.00    -0.206 F 
ATOM     74  C   UNL A   1      41.740  25.829  25.568  1.00  0.00     0.022 A 
BRANCH  71  75
ATOM     75  S   UNL A   1      41.096  23.499  26.750  1.00  0.00     0.124 S 
ATOM     76  O   UNL A   1      39.653  23.064  26.483  1.00  0.00    -0.237 OA
ATOM     77  O   UNL A   1      42.019  22.875  25.702  1.00  0.00    -0.237 OA
ATOM     78  O   UNL A   1      41.570  22.979  28.308  1.00  0.00    -0.744 OA
ENDBRANCH  71  75
ENDBRANCH  54  68
BRANCH  55  79
ATOM     79  C   UNL A   1      39.792  32.488  36.190  1.00  0.00     0.023 A 
ATOM     80  C   UNL A   1      39.012  31.985  37.218  1.00  0.00     0.031 A 
ATOM     81  C   UNL A   1      40.345  33.693  36.271  1.00  0.00     0.131 A 
ATOM     82  C   UNL A   1      38.635  32.952  38.179  1.00  0.00     0.055 A 
ATOM     83  C   UNL A   1      40.035  34.536  37.311  1.00  0.00     0.041 A 
ATOM     84  F   UNL A   1      41.208  34.087  35.339  1.00  0.00    -0.206 F 
ATOM     85  C   UNL A   1      39.223  34.124  38.332  1.00  0.00     0.022 A 
BRANCH  82  86
ATOM     86  S   UNL A   1      37.249  32.556  39.272  1.00  0.00     0.124 S 
ATOM     87  O   UNL A   1      37.348  33.396  40.548  1.00  0.00    -0.237 OA
ATOM     88  O   UNL A   1      35.931  32.867  38.558  1.00  0.00    -0.237 OA
ATOM     89  O   UNL A   1      37.299  30.896  39.678  1.00  0.00    -0.744 OA
ENDBRANCH  82  86
ENDBRANCH  55  79
BRANCH  67  90
ATOM     90  C   UNL A   1      44.330  27.569  34.057  1.00  0.00     0.023 A 
ATOM     91  C   UNL A   1      44.147  26.310  34.605  1.00  0.00     0.031 A 
ATOM     92  C   UNL A   1      45.520  28.156  34.061  1.00  0.00     0.131 A 
ATOM     93  C   UNL A   1      45.232  25.868  35.398  1.00  0.00     0.055 A 
ATOM     94  C   UNL A   1      46.573  27.597  34.745  1.00  0.00     0.041 A 
ATOM     95  F   UNL A   1      45.696  29.295  33.397  1.00  0.00    -0.206 F 
ATOM     96  C   UNL A   1      46.448  26.383  35.359  1.00  0.00     0.022 A 
BRANCH  93  97
ATOM     97  S   UNL A   1      44.935  24.499  36.545  1.00  0.00     0.124 S 
ATOM     98  O   UNL A   1      44.191  25.020  37.777  1.00  0.00    -0.237 OA
ATOM     99  O   UNL A   1      44.088  23.429  35.853  1.00  0.00    -0.237 OA
ATOM    100  O   UNL A   1      46.429  23.822  37.025  1.00  0.00    -0.744 OA
ENDBRANCH  93  97
ENDBRANCH  67  90
ENDBRANCH  41  42
ENDBRANCH  33  36
ENDBRANCH  31  32
ENDBRANCH  30  31
ENDBRANCH   1  30
TORSDOF 18
ENDMDL
MODEL 2
REMARK VINA RESULT:     -12.3      5.631     10.991
REMARK SMILES O=C(NCCCCCCNC(=O)c1ccc(-c2c3nc(c(-c4cc(S(=O)(=O)[O-])ccc4F)c4ccc([nH]4)c(-c4cc(S(=O)(=O)[O-])ccc4F)c4nc(c(-c5cc(S(=O)(=O)[O-])ccc5F)c5ccc2[nH]5)C=C4)C=C3)cc1)C1=Cc2cc(S(F)(F)(F)(F)F)cc(Br)c2O[C@@H]1C(F)(F)F
REMARK SMILES IDX 7 1 6 2 5 3 4 4 3 5 1 6 2 7 76 9 77 10 92 11 78 12 91 13
REMARK SMILES IDX 79 14 90 15 80 16 88 17 87 18 89 19 93 20 94 21 95 22 96 23
REMARK SMILES IDX 81 24 82 25 83 26 84 27 85 28 86 29 8 30 9 31 10 32 11 33
REMARK SMILES IDX 12 35 13 36 14 37 75 38 15 39 74 40 16 41 17 42 18 43 68 44
REMARK SMILES IDX 19 45 73 46 67 47 69 48 20 49 72 50 66 51 65 52 21 54 53 55
REMARK SMILES IDX 33 56 52 57 34 58 37 59 51 60 70 61 35 62 36 63 50 65 71 66
REMARK SMILES IDX 38 67 22 68 23 69 31 70 24 71 30 72 32 73 29 74 25 75 26 76
REMARK SMILES IDX 27 77 28 78 54 79 55 80 63 81 56 82 62 83 64 84 61 85 57 86
REMARK SMILES IDX 58 87 59 88 60 89 39 90 40 91 48 92 41 93 47 94 49 95 46 96
REMARK SMILES IDX 42 97 43 98 44 99 45 100
REMARK H PARENT 3 8 10 34 69 53 37 64
REMARK Flexibility Score: inf
ROOT
ATOM      1  C   UNL A   1      36.762  20.191  25.127  1.00  0.00     0.002 C 
ENDROOT
BRANCH   1   2
ATOM      2  C   UNL A   1      36.627  21.705  25.110  1.00  0.00     0.002 C 
BRANCH   2   3
ATOM      3  C   UNL A   1      37.136  22.243  23.783  1.00  0.00     0.021 C 
BRANCH   3   4
ATOM      4  C   UNL A   1      36.110  23.199  23.195  1.00  0.00     0.116 C 
BRANCH   4   5
ATOM      5  N   UNL A   1      35.669  24.142  24.233  1.00  0.00    -0.352 N 
ATOM      6  O   UNL A   1      33.976  25.611  25.020  1.00  0.00    -0.270 OA
ATOM      7  C   UNL A   1      34.357  24.795  24.123  1.00  0.00     0.251 C 
ATOM      8  H   UNL A   1      36.252  24.336  25.003  1.00  0.00     0.163 HD
BRANCH   7   9
ATOM      9  C   UNL A   1      33.456  24.495  22.936  1.00  0.00     0.067 C 
ATOM     10  C   UNL A   1      32.848  23.283  22.833  1.00  0.00     0.025 C 
ATOM     11  C   UNL A   1      33.236  25.550  21.863  1.00  0.00     0.314 C 
ATOM     12  C   UNL A   1      33.069  22.229  23.905  1.00  0.00     0.020 A 
ATOM     13  O   UNL A   1      32.900  23.952  25.534  1.00  0.00    -0.474 OA
ATOM     14  C   UNL A   1      33.331  20.922  23.529  1.00  0.00     0.036 A 
ATOM     15  C   UNL A   1      33.011  22.579  25.184  1.00  0.00     0.142 A 
ATOM     16  C   UNL A   1      33.232  19.990  24.588  1.00  0.00     0.109 A 
ATOM     17  C   UNL A   1      33.056  21.626  26.174  1.00  0.00     0.062 A 
ATOM     18  C   UNL A   1      33.254  20.307  25.871  1.00  0.00     0.044 A 
ATOM     19  Br  UNL A   1      32.835  22.166  28.044  1.00  0.00    -0.047 Br
BRANCH  11  20
ATOM     20  C   UNL A   1      31.757  25.887  21.780  1.00  0.00     0.429 C 
ATOM     21  F   UNL A   1      31.379  25.916  20.505  1.00  0.00    -0.167 F 
ATOM     22  F   UNL A   1      31.054  24.964  22.429  1.00  0.00    -0.167 F 
ATOM     23  F   UNL A   1      31.542  27.077  22.333  1.00  0.00    -0.167 F 
ENDBRANCH  11  20
BRANCH  16  24
ATOM     24  S   UNL A   1      33.064  18.240  24.159  1.00  0.00     0.310 S 
ATOM     25  F   UNL A   1      32.927  18.568  22.613  1.00  0.00    -0.094 F 
ATOM     26  F   UNL A   1      31.499  18.393  24.260  1.00  0.00    -0.094 F 
ATOM     27  F   UNL A   1      32.921  16.736  23.790  1.00  0.00    -0.094 F 
ATOM     28  F   UNL A   1      34.624  18.141  23.925  1.00  0.00    -0.094 F 
ATOM     29  F   UNL A   1      33.217  19.791  24.422  1.00  0.00    -0.094 F 
ENDBRANCH  16  24
ENDBRANCH   7   9
ENDBRANCH   4   5
ENDBRANCH   3   4
ENDBRANCH   2   3
ENDBRANCH   1   2
BRANCH   1  30
ATOM     30  C   UNL A   1      38.174  19.805  24.715  1.00  0.00     0.021 C 
BRANCH  30  31
ATOM     31  C   UNL A   1      39.134  20.100  25.855  1.00  0.00     0.116 C 
BRANCH  31  32
ATOM     32  N   UNL A   1      40.176  19.065  25.900  1.00  0.00    -0.352 N 
ATOM     33  C   UNL A   1      41.556  19.426  26.255  1.00  0.00     0.251 C 
ATOM     34  H   UNL A   1      39.951  18.129  25.691  1.00  0.00     0.163 HD
ATOM     35  O   UNL A   1      42.457  18.531  26.293  1.00  0.00    -0.269 OA
BRANCH  33  36
ATOM     36  C   UNL A   1      41.905  20.871  26.576  1.00  0.00     0.039 A 
ATOM     37  C   UNL A   1      42.007  21.267  27.899  1.00  0.00     0.014 A 
ATOM     38  C   UNL A   1      42.105  21.728  25.582  1.00  0.00     0.014 A 
ATOM     39  C   UNL A   1      42.043  22.671  28.076  1.00  0.00     0.010 A 
ATOM     40  C   UNL A   1      42.268  23.069  25.837  1.00  0.00     0.010 A 
ATOM     41  C   UNL A   1      42.320  23.539  27.121  1.00  0.00    -0.014 A 
BRANCH  41  42
ATOM     42  C   UNL A   1      42.677  24.984  27.431  1.00  0.00     0.031 A 
ATOM     43  C   UNL A   1      41.699  25.789  28.018  1.00  0.00     0.074 A 
ATOM     44  C   UNL A   1      43.950  25.421  27.111  1.00  0.00     0.049 A 
ATOM     45  N   UNL A   1      41.815  27.062  28.399  1.00  0.00    -0.248 NA
ATOM     46  C   UNL A   1      40.335  25.336  28.327  1.00  0.00     0.031 C 
ATOM     47  C   UNL A   1      44.945  24.613  26.525  1.00  0.00     0.029 A 
ATOM     48  N   UNL A   1      44.483  26.679  27.293  1.00  0.00    -0.354 N 
ATOM     49  C   UNL A   1      40.671  27.488  28.940  1.00  0.00     0.074 A 
ATOM     50  C   UNL A   1      39.701  26.385  28.896  1.00  0.00     0.031 C 
ATOM     51  C   UNL A   1      46.056  25.375  26.345  1.00  0.00     0.029 A 
ATOM     52  C   UNL A   1      45.775  26.672  26.816  1.00  0.00     0.049 A 
ATOM     53  H   UNL A   1      44.020  27.449  27.693  1.00  0.00     0.167 HD
ATOM     54  C   UNL A   1      40.400  28.750  29.469  1.00  0.00     0.034 A 
ATOM     55  C   UNL A   1      46.673  27.727  26.783  1.00  0.00     0.034 A 
ATOM     56  C   UNL A   1      41.313  29.793  29.476  1.00  0.00     0.049 A 
ATOM     57  C   UNL A   1      46.383  29.007  27.260  1.00  0.00     0.074 A 
ATOM     58  C   UNL A   1      41.059  31.069  30.013  1.00  0.00     0.029 A 
ATOM     59  N   UNL A   1      42.597  29.792  28.977  1.00  0.00    -0.354 N 
ATOM     60  N   UNL A   1      45.254  29.421  27.837  1.00  0.00    -0.248 NA
ATOM     61  C   UNL A   1      47.315  30.140  27.201  1.00  0.00     0.031 C 
ATOM     62  C   UNL A   1      42.170  31.831  29.833  1.00  0.00     0.029 A 
ATOM     63  C   UNL A   1      43.137  31.044  29.179  1.00  0.00     0.049 A 
ATOM     64  H   UNL A   1      43.051  29.030  28.551  1.00  0.00     0.167 HD
ATOM     65  C   UNL A   1      45.356  30.706  28.179  1.00  0.00     0.074 A 
ATOM     66  C   UNL A   1      46.680  31.191  27.768  1.00  0.00     0.031 C 
ATOM     67  C   UNL A   1      44.398  31.494  28.821  1.00  0.00     0.034 A 
BRANCH  54  68
ATOM     68  C   UNL A   1      39.027  28.996  30.073  1.00  0.00     0.023 A 
ATOM     69  C   UNL A   1      38.087  29.634  29.280  1.00  0.00     0.031 A 
ATOM     70  C   UNL A   1      38.735  28.603  31.307  1.00  0.00     0.131 A 
ATOM     71  C   UNL A   1      36.943  30.073  29.988  1.00  0.00     0.055 A 
ATOM     72  C   UNL A   1      37.540  28.954  31.888  1.00  0.00     0.041 A 
ATOM     73  F   UNL A   1      39.606  27.862  31.987  1.00  0.00    -0.206 F 
ATOM     74  C   UNL A   1      36.588  29.636  31.182  1.00  0.00     0.022 A 
BRANCH  71  75
ATOM     75  S   UNL A   1      35.894  31.320  29.202  1.00  0.00     0.124 S 
ATOM     76  O   UNL A   1      35.129  30.684  28.039  1.00  0.00    -0.237 OA
ATOM     77  O   UNL A   1      34.900  31.870  30.227  1.00  0.00    -0.237 OA
ATOM     78  O   UNL A   1      36.868  32.596  28.613  1.00  0.00    -0.744 OA
ENDBRANCH  71  75
ENDBRANCH  54  68
BRANCH  55  79
ATOM     79  C   UNL A   1      48.052  27.476  26.195  1.00  0.00     0.023 A 
ATOM     80  C   UNL A   1      48.337  27.817  24.883  1.00  0.00     0.031 A 
ATOM     81  C   UNL A   1      48.961  26.894  26.968  1.00  0.00     0.131 A 
ATOM     82  C   UNL A   1      49.527  27.237  24.385  1.00  0.00     0.055 A 
ATOM     83  C   UNL A   1      50.160  26.474  26.444  1.00  0.00     0.041 A 
ATOM     84  F   UNL A   1      48.711  26.717  28.262  1.00  0.00    -0.206 F 
ATOM     85  C   UNL A   1      50.483  26.725  25.139  1.00  0.00     0.022 A 
BRANCH  82  86
ATOM     86  S   UNL A   1      49.756  27.193  22.590  1.00  0.00     0.124 S 
ATOM     87  O   UNL A   1      48.779  26.188  21.976  1.00  0.00    -0.237 OA
ATOM     88  O   UNL A   1      49.491  28.583  22.008  1.00  0.00    -0.237 OA
ATOM     89  O   UNL A   1      51.359  26.721  22.231  1.00  0.00    -0.744 OA
ENDBRANCH  82  86
ENDBRANCH  55  79
BRANCH  67  90
ATOM     90  C   UNL A   1      44.760  32.934  29.145  1.00  0.00     0.023 A 
ATOM     91  C   UNL A   1      44.396  33.941  28.267  1.00  0.00     0.031 A 
ATOM     92  C   UNL A   1      45.419  33.204  30.265  1.00  0.00     0.131 A 
ATOM     93  C   UNL A   1      45.031  35.180  28.519  1.00  0.00     0.055 A 
ATOM     94  C   UNL A   1      45.895  34.469  30.511  1.00  0.00     0.041 A 
ATOM     95  F   UNL A   1      45.622  32.239  31.159  1.00  0.00    -0.206 F 
ATOM     96  C   UNL A   1      45.623  35.501  29.656  1.00  0.00     0.022 A 
BRANCH  93  97
ATOM     97  S   UNL A   1      45.032  36.412  27.193  1.00  0.00     0.124 S 
ATOM     98  O   UNL A   1      45.978  35.959  26.077  1.00  0.00    -0.237 OA
ATOM     99  O   UNL A   1      43.617  36.560  26.633  1.00  0.00    -0.237 OA
ATOM    100  O   UNL A   1      45.561  37.915  27.812  1.00  0.00    -0.744 OA
ENDBRANCH  93  97
ENDBRANCH  67  90
ENDBRANCH  41  42
ENDBRANCH  33  36
ENDBRANCH  31  32
ENDBRANCH  30  31
ENDBRANCH   1  30
TORSDOF 18
ENDMDL
MODEL 3
REMARK VINA RESULT:     -12.3      2.571      8.324
REMARK SMILES O=C(NCCCCCCNC(=O)c1ccc(-c2c3nc(c(-c4cc(S(=O)(=O)[O-])ccc4F)c4ccc([nH]4)c(-c4cc(S(=O)(=O)[O-])ccc4F)c4nc(c(-c5cc(S(=O)(=O)[O-])ccc5F)c5ccc2[nH]5)C=C4)C=C3)cc1)C1=Cc2cc(S(F)(F)(F)(F)F)cc(Br)c2O[C@@H]1C(F)(F)F
REMARK SMILES IDX 7 1 6 2 5 3 4 4 3 5 1 6 2 7 76 9 77 10 92 11 78 12 91 13
REMARK SMILES IDX 79 14 90 15 80 16 88 17 87 18 89 19 93 20 94 21 95 22 96 23
REMARK SMILES IDX 81 24 82 25 83 26 84 27 85 28 86 29 8 30 9 31 10 32 11 33
REMARK SMILES IDX 12 35 13 36 14 37 75 38 15 39 74 40 16 41 17 42 18 43 68 44
REMARK SMILES IDX 19 45 73 46 67 47 69 48 20 49 72 50 66 51 65 52 21 54 53 55
REMARK SMILES IDX 33 56 52 57 34 58 37 59 51 60 70 61 35 62 36 63 50 65 71 66
REMARK SMILES IDX 38 67 22 68 23 69 31 70 24 71 30 72 32 73 29 74 25 75 26 76
REMARK SMILES IDX 27 77 28 78 54 79 55 80 63 81 56 82 62 83 64 84 61 85 57 86
REMARK SMILES IDX 58 87 59 88 60 89 39 90 40 91 48 92 41 93 47 94 49 95 46 96
REMARK SMILES IDX 42 97 43 98 44 99 45 100
REMARK H PARENT 3 8 10 34 69 53 37 64
REMARK Flexibility Score: inf
ROOT
ATOM      1  C   UNL A   1      32.353  28.002  26.881  1.00  0.00     0.002 C 
ENDROOT
BRANCH   1   2
ATOM      2  C   UNL A   1      33.695  27.754  26.213  1.00  0.00     0.002 C 
BRANCH   2   3
ATOM      3  C   UNL A   1      33.492  26.909  24.966  1.00  0.00     0.021 C 
BRANCH   3   4
ATOM      4  C   UNL A   1      33.608  25.436  25.326  1.00  0.00     0.116 C 
BRANCH   4   5
ATOM      5  N   UNL A   1      34.003  24.671  24.135  1.00  0.00    -0.352 N 
ATOM      6  O   UNL A   1      33.546  22.853  22.676  1.00  0.00    -0.270 OA
ATOM      7  C   UNL A   1      33.204  23.514  23.706  1.00  0.00     0.251 C 
ATOM      8  H   UNL A   1      34.803  24.932  23.624  1.00  0.00     0.163 HD
BRANCH   7   9
ATOM      9  C   UNL A   1      31.968  23.111  24.493  1.00  0.00     0.067 C 
ATOM     10  C   UNL A   1      31.865  21.853  24.999  1.00  0.00     0.025 C 
ATOM     11  C   UNL A   1      30.846  24.113  24.714  1.00  0.00     0.314 C 
ATOM     12  C   UNL A   1      32.987  20.850  24.778  1.00  0.00     0.020 A 
ATOM     13  O   UNL A   1      34.538  22.602  25.194  1.00  0.00    -0.474 OA
ATOM     14  C   UNL A   1      32.676  19.557  24.392  1.00  0.00     0.036 A 
ATOM     15  C   UNL A   1      34.245  21.233  24.955  1.00  0.00     0.142 A 
ATOM     16  C   UNL A   1      33.758  18.652  24.497  1.00  0.00     0.109 A 
ATOM     17  C   UNL A   1      35.269  20.316  24.910  1.00  0.00     0.062 A 
ATOM     18  C   UNL A   1      35.027  19.008  24.592  1.00  0.00     0.044 A 
ATOM     19  Br  UNL A   1      37.099  20.892  25.306  1.00  0.00    -0.047 Br
BRANCH  11  20
ATOM     20  C   UNL A   1      30.648  24.332  26.204  1.00  0.00     0.429 C 
ATOM     21  F   UNL A   1      31.834  24.372  26.807  1.00  0.00    -0.167 F 
ATOM     22  F   UNL A   1      30.012  25.482  26.403  1.00  0.00    -0.167 F 
ATOM     23  F   UNL A   1      29.928  23.334  26.707  1.00  0.00    -0.167 F 
ENDBRANCH  11  20
BRANCH  16  24
ATOM     24  S   UNL A   1      33.379  16.882  24.501  1.00  0.00     0.310 S 
ATOM     25  F   UNL A   1      34.904  16.493  24.698  1.00  0.00    -0.094 F 
ATOM     26  F   UNL A   1      33.642  16.850  22.948  1.00  0.00    -0.094 F 
ATOM     27  F   UNL A   1      33.054  15.362  24.506  1.00  0.00    -0.094 F 
ATOM     28  F   UNL A   1      33.258  16.905  26.076  1.00  0.00    -0.094 F 
ATOM     29  F   UNL A   1      33.817  18.401  24.527  1.00  0.00    -0.094 F 
ENDBRANCH  16  24
ENDBRANCH   7   9
ENDBRANCH   4   5
ENDBRANCH   3   4
ENDBRANCH   2   3
ENDBRANCH   1   2
BRANCH   1  30
ATOM     30  C   UNL A   1      31.692  29.218  26.252  1.00  0.00     0.021 C 
BRANCH  30  31
ATOM     31  C   UNL A   1      32.731  30.308  26.044  1.00  0.00     0.116 C 
BRANCH  31  32
ATOM     32  N   UNL A   1      32.131  31.619  26.331  1.00  0.00    -0.352 N 
ATOM     33  C   UNL A   1      32.793  32.542  27.263  1.00  0.00     0.251 C 
ATOM     34  H   UNL A   1      31.285  31.879  25.899  1.00  0.00     0.163 HD
ATOM     35  O   UNL A   1      32.274  33.675  27.512  1.00  0.00    -0.269 OA
BRANCH  33  36
ATOM     36  C   UNL A   1      34.099  32.141  27.931  1.00  0.00     0.039 A 
ATOM     37  C   UNL A   1      35.121  33.069  28.036  1.00  0.00     0.014 A 
ATOM     38  C   UNL A   1      34.237  30.906  28.401  1.00  0.00     0.014 A 
ATOM     39  C   UNL A   1      36.369  32.509  28.401  1.00  0.00     0.010 A 
ATOM     40  C   UNL A   1      35.453  30.468  28.868  1.00  0.00     0.010 A 
ATOM     41  C   UNL A   1      36.524  31.316  28.946  1.00  0.00    -0.014 A 
BRANCH  41  42
ATOM     42  C   UNL A   1      37.822  30.907  29.622  1.00  0.00     0.031 A 
ATOM     43  C   UNL A   1      38.091  31.423  30.890  1.00  0.00     0.074 A 
ATOM     44  C   UNL A   1      38.665  30.046  28.940  1.00  0.00     0.049 A 
ATOM     45  N   UNL A   1      39.146  31.166  31.665  1.00  0.00    -0.248 NA
ATOM     46  C   UNL A   1      37.214  32.364  31.601  1.00  0.00     0.031 C 
ATOM     47  C   UNL A   1      38.397  29.515  27.663  1.00  0.00     0.029 A 
ATOM     48  N   UNL A   1      39.884  29.554  29.353  1.00  0.00    -0.354 N 
ATOM     49  C   UNL A   1      39.044  31.831  32.819  1.00  0.00     0.074 A 
ATOM     50  C   UNL A   1      37.802  32.615  32.791  1.00  0.00     0.031 C 
ATOM     51  C   UNL A   1      39.443  28.725  27.307  1.00  0.00     0.029 A 
ATOM     52  C   UNL A   1      40.384  28.748  28.355  1.00  0.00     0.049 A 
ATOM     53  H   UNL A   1      40.323  29.747  30.213  1.00  0.00     0.167 HD
ATOM     54  C   UNL A   1      39.936  31.812  33.892  1.00  0.00     0.034 A 
ATOM     55  C   UNL A   1      41.589  28.064  28.339  1.00  0.00     0.034 A 
ATOM     56  C   UNL A   1      41.121  31.093  33.893  1.00  0.00     0.049 A 
ATOM     57  C   UNL A   1      42.510  28.092  29.389  1.00  0.00     0.074 A 
ATOM     58  C   UNL A   1      42.027  31.056  34.970  1.00  0.00     0.029 A 
ATOM     59  N   UNL A   1      41.632  30.306  32.885  1.00  0.00    -0.354 N 
ATOM     60  N   UNL A   1      42.388  28.723  30.557  1.00  0.00    -0.248 NA
ATOM     61  C   UNL A   1      43.803  27.397  29.370  1.00  0.00     0.031 C 
ATOM     62  C   UNL A   1      43.074  30.266  34.613  1.00  0.00     0.029 A 
ATOM     63  C   UNL A   1      42.840  29.797  33.307  1.00  0.00     0.049 A 
ATOM     64  H   UNL A   1      41.206  30.136  32.014  1.00  0.00     0.167 HD
ATOM     65  C   UNL A   1      43.463  28.500  31.315  1.00  0.00     0.074 A 
ATOM     66  C   UNL A   1      44.393  27.650  30.560  1.00  0.00     0.031 C 
ATOM     67  C   UNL A   1      43.705  28.969  32.608  1.00  0.00     0.034 A 
BRANCH  54  68
ATOM     68  C   UNL A   1      39.589  32.624  35.128  1.00  0.00     0.023 A 
ATOM     69  C   UNL A   1      39.070  31.939  36.216  1.00  0.00     0.031 A 
ATOM     70  C   UNL A   1      39.785  33.936  35.171  1.00  0.00     0.131 A 
ATOM     71  C   UNL A   1      38.518  32.779  37.212  1.00  0.00     0.055 A 
ATOM     72  C   UNL A   1      39.339  34.676  36.239  1.00  0.00     0.041 A 
ATOM     73  F   UNL A   1      40.421  34.540  34.171  1.00  0.00    -0.206 F 
ATOM     74  C   UNL A   1      38.764  34.071  37.323  1.00  0.00     0.022 A 
BRANCH  71  75
ATOM     75  S   UNL A   1      37.396  32.029  38.417  1.00  0.00     0.124 S 
ATOM     76  O   UNL A   1      37.986  32.172  39.822  1.00  0.00    -0.237 OA
ATOM     77  O   UNL A   1      36.040  32.735  38.360  1.00  0.00    -0.237 OA
ATOM     78  O   UNL A   1      37.190  30.372  38.052  1.00  0.00    -0.744 OA
ENDBRANCH  71  75
ENDBRANCH  54  68
BRANCH  55  79
ATOM     79  C   UNL A   1      41.929  27.238  27.109  1.00  0.00     0.023 A 
ATOM     80  C   UNL A   1      41.647  25.883  27.063  1.00  0.00     0.031 A 
ATOM     81  C   UNL A   1      42.530  27.851  26.096  1.00  0.00     0.131 A 
ATOM     82  C   UNL A   1      42.302  25.196  26.015  1.00  0.00     0.055 A 
ATOM     83  C   UNL A   1      43.027  27.130  25.037  1.00  0.00     0.041 A 
ATOM     84  F   UNL A   1      42.651  29.176  26.104  1.00  0.00    -0.206 F 
ATOM     85  C   UNL A   1      42.837  25.778  24.957  1.00  0.00     0.022 A 
BRANCH  82  86
ATOM     86  S   UNL A   1      42.418  23.393  26.132  1.00  0.00     0.124 S 
ATOM     87  O   UNL A   1      43.261  23.014  27.352  1.00  0.00    -0.237 OA
ATOM     88  O   UNL A   1      41.015  22.801  26.277  1.00  0.00    -0.237 OA
ATOM     89  O   UNL A   1      43.153  22.776  24.718  1.00  0.00    -0.744 OA
ENDBRANCH  82  86
ENDBRANCH  55  79
BRANCH  67  90
ATOM     90  C   UNL A   1      44.996  28.546  33.291  1.00  0.00     0.023 A 
ATOM     91  C   UNL A   1      45.023  27.370  34.022  1.00  0.00     0.031 A 
ATOM     92  C   UNL A   1      46.075  29.310  33.175  1.00  0.00     0.131 A 
ATOM     93  C   UNL A   1      46.168  27.231  34.841  1.00  0.00     0.055 A 
ATOM     94  C   UNL A   1      47.207  29.037  33.903  1.00  0.00     0.041 A 
ATOM     95  F   UNL A   1      46.060  30.351  32.346  1.00  0.00    -0.206 F 
ATOM     96  C   UNL A   1      47.284  27.923  34.693  1.00  0.00     0.022 A 
BRANCH  93  97
ATOM     97  S   UNL A   1      46.102  26.019  36.184  1.00  0.00     0.124 S 
ATOM     98  O   UNL A   1      47.494  25.418  36.396  1.00  0.00    -0.237 OA
ATOM     99  O   UNL A   1      45.643  26.708  37.470  1.00  0.00    -0.237 OA
ATOM    100  O   UNL A   1      45.001  24.776  35.777  1.00  0.00    -0.744 OA
ENDBRANCH  93  97
ENDBRANCH  67  90
ENDBRANCH  41  42
ENDBRANCH  33  36
ENDBRANCH  31  32
ENDBRANCH  30  31
ENDBRANCH   1  30
TORSDOF 18
ENDMDL
