MODEL 1
REMARK VINA RESULT:     -10.8      0.000      0.000
REMARK SMILES COc1cc(/C=C2/S/C(=[NH+]\C(C)=O)NC2=O)cc(Br)c1OCC(=O)NCCCCCCNC(=O)c1ccc(-c2c3nc(c(-c4cc(S(=O)(=O)[O-])ccc4F)c4ccc([nH]4)c(-c4cc(S(=O)(=O)[O-])ccc4F)c4nc(c(-c5cc(S(=O)(=O)[O-])ccc5F)c5ccc2[nH]5)C=C4)C=C3)cc1
REMARK SMILES IDX 28 1 27 2 26 3 25 4 23 5 24 6 22 8 21 9 20 10 3 11 4 12 5 13
REMARK SMILES IDX 18 14 17 15 19 16 2 17 1 18 6 19 7 20 8 21 15 22 9 23 14 24
REMARK SMILES IDX 16 25 10 26 11 28 12 30 13 31 29 32 30 33 31 34 32 35 33 36
REMARK SMILES IDX 34 38 35 39 36 40 97 41 37 42 96 43 38 44 39 45 40 46 90 47
REMARK SMILES IDX 41 48 95 49 89 50 91 51 42 52 94 53 88 54 87 55 43 57 75 58
REMARK SMILES IDX 55 59 74 60 56 61 59 62 73 63 92 64 57 65 58 66 72 68 93 69
REMARK SMILES IDX 60 70 44 71 45 72 53 73 46 74 52 75 54 76 51 77 47 78 48 79
REMARK SMILES IDX 49 80 50 81 76 82 77 83 85 84 78 85 84 86 86 87 83 88 79 89
REMARK SMILES IDX 80 90 81 91 82 92 61 93 62 94 70 95 63 96 69 97 71 98 68 99
REMARK SMILES IDX 64 100 65 101 66 102 67 103
REMARK H PARENT 25 7 14 27 10 29 32 37 91 56 59 67
REMARK Flexibility Score: inf
ROOT
ATOM      1  C   UNL A   1      35.333  30.530  28.511  1.00  0.00     0.002 C 
ENDROOT
BRANCH   1   2
ATOM      2  C   UNL A   1      35.485  29.278  27.636  1.00  0.00     0.021 C 
BRANCH   2   3
ATOM      3  C   UNL A   1      34.340  29.036  26.655  1.00  0.00     0.116 C 
BRANCH   3   4
ATOM      4  N   UNL A   1      33.411  28.045  27.156  1.00  0.00    -0.353 N 
ATOM      5  C   UNL A   1      32.126  27.810  26.771  1.00  0.00     0.257 C 
ATOM      6  O   UNL A   1      31.525  26.868  27.291  1.00  0.00    -0.271 OA
ATOM      7  H   UNL A   1      33.755  27.462  27.871  1.00  0.00     0.163 HD
BRANCH   5   8
ATOM      8  C   UNL A   1      31.503  28.653  25.645  1.00  0.00     0.329 C 
BRANCH   8   9
ATOM      9  O   UNL A   1      30.978  28.070  24.469  1.00  0.00    -0.479 OA
BRANCH   9  10
ATOM     10  C   UNL A   1      31.317  26.797  24.092  1.00  0.00     0.176 A 
ATOM     11  C   UNL A   1      30.245  25.870  24.161  1.00  0.00     0.162 A 
ATOM     12  C   UNL A   1      30.421  24.539  23.761  1.00  0.00     0.058 A 
ATOM     13  C   UNL A   1      31.665  24.099  23.316  1.00  0.00    -0.019 A 
ATOM     14  C   UNL A   1      32.543  26.359  23.573  1.00  0.00     0.064 A 
ATOM     15  C   UNL A   1      32.716  25.011  23.217  1.00  0.00     0.028 A 
ATOM     16  Br  UNL A   1      34.017  27.476  23.132  1.00  0.00    -0.047 Br
BRANCH  11  17
ATOM     17  O   UNL A   1      29.036  26.365  24.601  1.00  0.00    -0.493 OA
ATOM     18  C   UNL A   1      28.189  26.965  23.624  1.00  0.00     0.278 C 
ENDBRANCH  11  17
BRANCH  13  19
ATOM     19  C   UNL A   1      31.852  22.693  22.940  1.00  0.00     0.032 C 
ATOM     20  C   UNL A   1      31.968  21.690  23.819  1.00  0.00     0.110 C 
ATOM     21  S   UNL A   1      32.325  20.052  23.375  1.00  0.00     0.007 SA
ATOM     22  C   UNL A   1      31.910  21.786  25.307  1.00  0.00     0.346 C 
ATOM     23  C   UNL A   1      32.744  19.614  25.003  1.00  0.00     0.324 C 
ATOM     24  N   UNL A   1      32.385  20.622  25.841  1.00  0.00    -0.199 N 
ATOM     25  O   UNL A   1      31.519  22.733  25.960  1.00  0.00    -0.240 OA
ATOM     26  N   UNL A   1      33.296  18.585  25.525  1.00  0.00    -0.204 N 
ATOM     27  H   UNL A   1      32.466  20.515  26.816  1.00  0.00     0.316 HD
ATOM     28  C   UNL A   1      33.724  17.425  24.937  1.00  0.00     0.304 C 
ATOM     29  H   UNL A   1      33.435  18.634  26.499  1.00  0.00     0.316 HD
ATOM     30  C   UNL A   1      34.115  17.329  23.489  1.00  0.00     0.144 C 
ATOM     31  O   UNL A   1      33.864  16.413  25.625  1.00  0.00    -0.247 OA
ENDBRANCH  13  19
ENDBRANCH   9  10
ENDBRANCH   8   9
ENDBRANCH   5   8
ENDBRANCH   3   4
ENDBRANCH   2   3
ENDBRANCH   1   2
BRANCH   1  32
ATOM     32  C   UNL A   1      35.241  31.859  27.755  1.00  0.00     0.002 C 
BRANCH  32  33
ATOM     33  C   UNL A   1      33.943  32.642  27.966  1.00  0.00     0.021 C 
BRANCH  33  34
ATOM     34  C   UNL A   1      34.123  34.147  28.138  1.00  0.00     0.116 C 
BRANCH  34  35
ATOM     35  N   UNL A   1      33.555  34.627  29.385  1.00  0.00    -0.352 N 
ATOM     36  C   UNL A   1      33.936  34.366  30.677  1.00  0.00     0.251 C 
ATOM     37  H   UNL A   1      32.782  35.230  29.289  1.00  0.00     0.163 HD
ATOM     38  O   UNL A   1      33.199  34.701  31.601  1.00  0.00    -0.269 OA
BRANCH  36  39
ATOM     39  C   UNL A   1      35.211  33.666  30.958  1.00  0.00     0.039 A 
ATOM     40  C   UNL A   1      35.176  32.472  31.681  1.00  0.00     0.014 A 
ATOM     41  C   UNL A   1      36.438  34.194  30.541  1.00  0.00     0.014 A 
ATOM     42  C   UNL A   1      36.364  31.789  31.950  1.00  0.00     0.010 A 
ATOM     43  C   UNL A   1      37.612  33.468  30.737  1.00  0.00     0.010 A 
ATOM     44  C   UNL A   1      37.591  32.265  31.457  1.00  0.00    -0.014 A 
BRANCH  44  45
ATOM     45  C   UNL A   1      38.853  31.520  31.714  1.00  0.00     0.031 A 
ATOM     46  C   UNL A   1      39.676  31.820  32.939  1.00  0.00     0.074 A 
ATOM     47  C   UNL A   1      39.269  30.589  30.832  1.00  0.00     0.049 A 
ATOM     48  N   UNL A   1      40.804  31.283  33.332  1.00  0.00    -0.248 NA
ATOM     49  C   UNL A   1      39.180  32.883  33.828  1.00  0.00     0.031 C 
ATOM     50  C   UNL A   1      38.579  30.240  29.587  1.00  0.00     0.029 A 
ATOM     51  N   UNL A   1      40.363  29.762  30.846  1.00  0.00    -0.354 N 
ATOM     52  C   UNL A   1      41.153  31.944  34.505  1.00  0.00     0.074 A 
ATOM     53  C   UNL A   1      40.155  32.970  34.718  1.00  0.00     0.031 C 
ATOM     54  C   UNL A   1      39.244  29.246  28.980  1.00  0.00     0.029 A 
ATOM     55  C   UNL A   1      40.432  28.917  29.761  1.00  0.00     0.049 A 
ATOM     56  H   UNL A   1      41.037  29.773  31.564  1.00  0.00     0.167 HD
ATOM     57  C   UNL A   1      42.194  31.700  35.341  1.00  0.00     0.034 A 
ATOM     58  C   UNL A   1      41.349  27.986  29.432  1.00  0.00     0.034 A 
ATOM     59  C   UNL A   1      43.178  30.670  35.114  1.00  0.00     0.049 A 
ATOM     60  C   UNL A   1      42.513  27.752  30.363  1.00  0.00     0.074 A 
ATOM     61  C   UNL A   1      44.246  30.304  35.917  1.00  0.00     0.029 A 
ATOM     62  N   UNL A   1      43.224  29.842  33.998  1.00  0.00    -0.354 N 
ATOM     63  N   UNL A   1      42.797  28.349  31.498  1.00  0.00    -0.248 NA
ATOM     64  C   UNL A   1      43.467  26.706  29.976  1.00  0.00     0.031 C 
ATOM     65  C   UNL A   1      44.980  29.318  35.252  1.00  0.00     0.029 A 
ATOM     66  C   UNL A   1      44.322  28.995  34.075  1.00  0.00     0.049 A 
ATOM     67  H   UNL A   1      42.574  29.855  33.260  1.00  0.00     0.167 HD
ATOM     68  C   UNL A   1      43.947  27.725  31.975  1.00  0.00     0.074 A 
ATOM     69  C   UNL A   1      44.285  26.693  31.017  1.00  0.00     0.031 C 
ATOM     70  C   UNL A   1      44.660  27.981  33.105  1.00  0.00     0.034 A 
BRANCH  57  71
ATOM     71  C   UNL A   1      42.331  32.587  36.560  1.00  0.00     0.023 A 
ATOM     72  C   UNL A   1      41.772  32.232  37.801  1.00  0.00     0.031 A 
ATOM     73  C   UNL A   1      43.010  33.815  36.475  1.00  0.00     0.131 A 
ATOM     74  C   UNL A   1      41.832  33.129  38.879  1.00  0.00     0.055 A 
ATOM     75  C   UNL A   1      43.144  34.662  37.577  1.00  0.00     0.041 A 
ATOM     76  F   UNL A   1      43.546  34.223  35.313  1.00  0.00    -0.206 F 
ATOM     77  C   UNL A   1      42.539  34.328  38.785  1.00  0.00     0.022 A 
BRANCH  74  78
ATOM     78  S   UNL A   1      40.837  32.775  40.354  1.00  0.00     0.124 S 
ATOM     79  O   UNL A   1      40.916  34.043  41.074  1.00  0.00    -0.237 OA
ATOM     80  O   UNL A   1      39.536  32.442  39.785  1.00  0.00    -0.237 OA
ATOM     81  O   UNL A   1      41.545  31.664  40.986  1.00  0.00    -0.744 OA
ENDBRANCH  74  78
ENDBRANCH  57  71
BRANCH  58  82
ATOM     82  C   UNL A   1      41.218  27.208  28.165  1.00  0.00     0.023 A 
ATOM     83  C   UNL A   1      40.823  25.860  28.178  1.00  0.00     0.031 A 
ATOM     84  C   UNL A   1      41.534  27.789  26.924  1.00  0.00     0.131 A 
ATOM     85  C   UNL A   1      40.808  25.124  26.983  1.00  0.00     0.055 A 
ATOM     86  C   UNL A   1      41.457  27.068  25.730  1.00  0.00     0.041 A 
ATOM     87  F   UNL A   1      41.916  29.074  26.852  1.00  0.00    -0.206 F 
ATOM     88  C   UNL A   1      41.107  25.723  25.757  1.00  0.00     0.022 A 
BRANCH  85  89
ATOM     89  S   UNL A   1      40.486  23.340  27.065  1.00  0.00     0.124 S 
ATOM     90  O   UNL A   1      40.756  23.056  28.470  1.00  0.00    -0.237 OA
ATOM     91  O   UNL A   1      39.089  23.265  26.651  1.00  0.00    -0.237 OA
ATOM     92  O   UNL A   1      41.446  22.778  26.118  1.00  0.00    -0.744 OA
ENDBRANCH  85  89
ENDBRANCH  58  82
BRANCH  70  93
ATOM     93  C   UNL A   1      45.852  27.092  33.376  1.00  0.00     0.023 A 
ATOM     94  C   UNL A   1      45.729  25.878  34.075  1.00  0.00     0.031 A 
ATOM     95  C   UNL A   1      47.139  27.485  32.963  1.00  0.00     0.131 A 
ATOM     96  C   UNL A   1      46.876  25.142  34.410  1.00  0.00     0.055 A 
ATOM     97  C   UNL A   1      48.267  26.709  33.232  1.00  0.00     0.041 A 
ATOM     98  F   UNL A   1      47.322  28.636  32.297  1.00  0.00    -0.206 F 
ATOM     99  C   UNL A   1      48.142  25.540  33.976  1.00  0.00     0.022 A 
BRANCH  96 100
ATOM    100  S   UNL A   1      46.704  23.732  35.538  1.00  0.00     0.124 S 
ATOM    101  O   UNL A   1      45.814  22.851  34.788  1.00  0.00    -0.237 OA
ATOM    102  O   UNL A   1      48.083  23.276  35.680  1.00  0.00    -0.237 OA
ATOM    103  O   UNL A   1      46.120  24.326  36.741  1.00  0.00    -0.744 OA
ENDBRANCH  96 100
ENDBRANCH  70  93
ENDBRANCH  44  45
ENDBRANCH  36  39
ENDBRANCH  34  35
ENDBRANCH  33  34
ENDBRANCH  32  33
ENDBRANCH   1  32
TORSDOF 20
ENDMDL
MODEL 2
REMARK VINA RESULT:     -10.6      8.785     15.243
REMARK SMILES COc1cc(/C=C2/S/C(=[NH+]\C(C)=O)NC2=O)cc(Br)c1OCC(=O)NCCCCCCNC(=O)c1ccc(-c2c3nc(c(-c4cc(S(=O)(=O)[O-])ccc4F)c4ccc([nH]4)c(-c4cc(S(=O)(=O)[O-])ccc4F)c4nc(c(-c5cc(S(=O)(=O)[O-])ccc5F)c5ccc2[nH]5)C=C4)C=C3)cc1
REMARK SMILES IDX 28 1 27 2 26 3 25 4 23 5 24 6 22 8 21 9 20 10 3 11 4 12 5 13
REMARK SMILES IDX 18 14 17 15 19 16 2 17 1 18 6 19 7 20 8 21 15 22 9 23 14 24
REMARK SMILES IDX 16 25 10 26 11 28 12 30 13 31 29 32 30 33 31 34 32 35 33 36
REMARK SMILES IDX 34 38 35 39 36 40 97 41 37 42 96 43 38 44 39 45 40 46 90 47
REMARK SMILES IDX 41 48 95 49 89 50 91 51 42 52 94 53 88 54 87 55 43 57 75 58
REMARK SMILES IDX 55 59 74 60 56 61 59 62 73 63 92 64 57 65 58 66 72 68 93 69
REMARK SMILES IDX 60 70 44 71 45 72 53 73 46 74 52 75 54 76 51 77 47 78 48 79
REMARK SMILES IDX 49 80 50 81 76 82 77 83 85 84 78 85 84 86 86 87 83 88 79 89
REMARK SMILES IDX 80 90 81 91 82 92 61 93 62 94 70 95 63 96 69 97 71 98 68 99
REMARK SMILES IDX 64 100 65 101 66 102 67 103
REMARK H PARENT 25 7 14 27 10 29 32 37 91 56 59 67
REMARK Flexibility Score: inf
ROOT
ATOM      1  C   UNL A   1      45.844  38.405  28.653  1.00  0.00     0.002 C 
ENDROOT
BRANCH   1   2
ATOM      2  C   UNL A   1      44.865  38.249  29.824  1.00  0.00     0.021 C 
BRANCH   2   3
ATOM      3  C   UNL A   1      44.044  39.495  30.147  1.00  0.00     0.116 C 
BRANCH   3   4
ATOM      4  N   UNL A   1      44.859  40.525  30.756  1.00  0.00    -0.353 N 
ATOM      5  C   UNL A   1      45.128  41.779  30.299  1.00  0.00     0.257 C 
ATOM      6  O   UNL A   1      45.805  42.525  31.010  1.00  0.00    -0.271 OA
ATOM      7  H   UNL A   1      45.274  40.286  31.616  1.00  0.00     0.163 HD
BRANCH   5   8
ATOM      8  C   UNL A   1      44.510  42.256  28.974  1.00  0.00     0.329 C 
BRANCH   8   9
ATOM      9  O   UNL A   1      45.054  41.904  27.718  1.00  0.00    -0.479 OA
BRANCH   9  10
ATOM     10  C   UNL A   1      44.446  42.276  26.548  1.00  0.00     0.176 A 
ATOM     11  C   UNL A   1      43.427  41.384  26.120  1.00  0.00     0.162 A 
ATOM     12  C   UNL A   1      42.678  41.651  24.967  1.00  0.00     0.058 A 
ATOM     13  C   UNL A   1      42.944  42.786  24.205  1.00  0.00    -0.019 A 
ATOM     14  C   UNL A   1      44.654  43.450  25.812  1.00  0.00     0.064 A 
ATOM     15  C   UNL A   1      43.923  43.683  24.634  1.00  0.00     0.028 A 
ATOM     16  Br  UNL A   1      45.755  44.905  26.346  1.00  0.00    -0.047 Br
BRANCH  11  17
ATOM     17  O   UNL A   1      43.203  40.284  26.919  1.00  0.00    -0.493 OA
ATOM     18  C   UNL A   1      42.044  39.505  26.638  1.00  0.00     0.278 C 
ENDBRANCH  11  17
BRANCH  13  19
ATOM     19  C   UNL A   1      42.185  43.036  22.975  1.00  0.00     0.032 C 
ATOM     20  C   UNL A   1      42.696  42.929  21.742  1.00  0.00     0.110 C 
ATOM     21  S   UNL A   1      41.835  43.358  20.299  1.00  0.00     0.007 SA
ATOM     22  C   UNL A   1      44.084  42.526  21.376  1.00  0.00     0.346 C 
ATOM     23  C   UNL A   1      43.284  43.377  19.341  1.00  0.00     0.324 C 
ATOM     24  N   UNL A   1      44.303  42.846  20.066  1.00  0.00    -0.199 N 
ATOM     25  O   UNL A   1      44.907  42.006  22.103  1.00  0.00    -0.240 OA
ATOM     26  N   UNL A   1      43.552  43.777  18.156  1.00  0.00    -0.204 N 
ATOM     27  H   UNL A   1      45.184  42.696  19.655  1.00  0.00     0.316 HD
ATOM     28  C   UNL A   1      42.729  44.315  17.203  1.00  0.00     0.304 C 
ATOM     29  H   UNL A   1      44.495  43.686  17.888  1.00  0.00     0.316 HD
ATOM     30  C   UNL A   1      41.449  45.033  17.529  1.00  0.00     0.144 C 
ATOM     31  O   UNL A   1      43.067  44.275  16.019  1.00  0.00    -0.247 OA
ENDBRANCH  13  19
ENDBRANCH   9  10
ENDBRANCH   8   9
ENDBRANCH   5   8
ENDBRANCH   3   4
ENDBRANCH   2   3
ENDBRANCH   1   2
BRANCH   1  32
ATOM     32  C   UNL A   1      46.395  37.099  28.071  1.00  0.00     0.002 C 
BRANCH  32  33
ATOM     33  C   UNL A   1      46.435  37.030  26.543  1.00  0.00     0.021 C 
BRANCH  33  34
ATOM     34  C   UNL A   1      46.746  35.651  25.972  1.00  0.00     0.116 C 
BRANCH  34  35
ATOM     35  N   UNL A   1      45.719  35.195  25.051  1.00  0.00    -0.352 N 
ATOM     36  C   UNL A   1      44.500  34.622  25.316  1.00  0.00     0.251 C 
ATOM     37  H   UNL A   1      45.928  35.313  24.096  1.00  0.00     0.163 HD
ATOM     38  O   UNL A   1      43.862  34.114  24.397  1.00  0.00    -0.269 OA
BRANCH  36  39
ATOM     39  C   UNL A   1      43.967  34.596  26.697  1.00  0.00     0.039 A 
ATOM     40  C   UNL A   1      43.210  35.681  27.145  1.00  0.00     0.014 A 
ATOM     41  C   UNL A   1      44.232  33.527  27.561  1.00  0.00     0.014 A 
ATOM     42  C   UNL A   1      42.688  35.675  28.441  1.00  0.00     0.010 A 
ATOM     43  C   UNL A   1      43.640  33.486  28.821  1.00  0.00     0.010 A 
ATOM     44  C   UNL A   1      42.874  34.566  29.283  1.00  0.00    -0.014 A 
BRANCH  44  45
ATOM     45  C   UNL A   1      42.290  34.545  30.651  1.00  0.00     0.031 A 
ATOM     46  C   UNL A   1      40.805  34.381  30.840  1.00  0.00     0.074 A 
ATOM     47  C   UNL A   1      43.096  34.697  31.721  1.00  0.00     0.049 A 
ATOM     48  N   UNL A   1      40.111  34.344  31.950  1.00  0.00    -0.248 NA
ATOM     49  C   UNL A   1      39.989  34.270  29.621  1.00  0.00     0.031 C 
ATOM     50  C   UNL A   1      44.545  34.906  31.663  1.00  0.00     0.029 A 
ATOM     51  N   UNL A   1      42.817  34.693  33.065  1.00  0.00    -0.354 N 
ATOM     52  C   UNL A   1      38.781  34.213  31.563  1.00  0.00     0.074 A 
ATOM     53  C   UNL A   1      38.762  34.249  30.117  1.00  0.00     0.031 C 
ATOM     54  C   UNL A   1      45.031  34.969  32.912  1.00  0.00     0.029 A 
ATOM     55  C   UNL A   1      43.928  34.855  33.861  1.00  0.00     0.049 A 
ATOM     56  H   UNL A   1      41.907  34.584  33.425  1.00  0.00     0.167 HD
ATOM     57  C   UNL A   1      37.681  34.048  32.341  1.00  0.00     0.034 A 
ATOM     58  C   UNL A   1      44.045  34.910  35.203  1.00  0.00     0.034 A 
ATOM     59  C   UNL A   1      37.719  34.009  33.783  1.00  0.00     0.049 A 
ATOM     60  C   UNL A   1      42.804  34.752  36.046  1.00  0.00     0.074 A 
ATOM     61  C   UNL A   1      36.675  33.801  34.669  1.00  0.00     0.029 A 
ATOM     62  N   UNL A   1      38.860  34.191  34.556  1.00  0.00    -0.354 N 
ATOM     63  N   UNL A   1      41.561  34.572  35.663  1.00  0.00    -0.248 NA
ATOM     64  C   UNL A   1      42.988  34.788  37.502  1.00  0.00     0.031 C 
ATOM     65  C   UNL A   1      37.168  33.938  35.971  1.00  0.00     0.029 A 
ATOM     66  C   UNL A   1      38.538  34.138  35.906  1.00  0.00     0.049 A 
ATOM     67  H   UNL A   1      39.766  34.338  34.199  1.00  0.00     0.167 HD
ATOM     68  C   UNL A   1      40.820  34.440  36.835  1.00  0.00     0.074 A 
ATOM     69  C   UNL A   1      41.762  34.537  37.932  1.00  0.00     0.031 C 
ATOM     70  C   UNL A   1      39.482  34.254  36.992  1.00  0.00     0.034 A 
BRANCH  57  71
ATOM     71  C   UNL A   1      36.345  33.928  31.642  1.00  0.00     0.023 A 
ATOM     72  C   UNL A   1      35.417  34.985  31.630  1.00  0.00     0.031 A 
ATOM     73  C   UNL A   1      35.983  32.732  30.997  1.00  0.00     0.131 A 
ATOM     74  C   UNL A   1      34.147  34.798  31.060  1.00  0.00     0.055 A 
ATOM     75  C   UNL A   1      34.753  32.584  30.352  1.00  0.00     0.041 A 
ATOM     76  F   UNL A   1      36.814  31.677  30.992  1.00  0.00    -0.206 F 
ATOM     77  C   UNL A   1      33.820  33.616  30.396  1.00  0.00     0.022 A 
BRANCH  74  78
ATOM     78  S   UNL A   1      32.879  36.064  31.341  1.00  0.00     0.124 S 
ATOM     79  O   UNL A   1      31.987  35.385  32.277  1.00  0.00    -0.237 OA
ATOM     80  O   UNL A   1      33.654  37.173  31.885  1.00  0.00    -0.237 OA
ATOM     81  O   UNL A   1      32.319  36.288  30.010  1.00  0.00    -0.744 OA
ENDBRANCH  74  78
ENDBRANCH  57  71
BRANCH  58  82
ATOM     82  C   UNL A   1      45.377  35.131  35.839  1.00  0.00     0.023 A 
ATOM     83  C   UNL A   1      46.197  34.049  36.200  1.00  0.00     0.031 A 
ATOM     84  C   UNL A   1      45.828  36.428  36.141  1.00  0.00     0.131 A 
ATOM     85  C   UNL A   1      47.397  34.281  36.890  1.00  0.00     0.055 A 
ATOM     86  C   UNL A   1      47.053  36.656  36.771  1.00  0.00     0.041 A 
ATOM     87  F   UNL A   1      45.086  37.499  35.816  1.00  0.00    -0.206 F 
ATOM     88  C   UNL A   1      47.838  35.578  37.164  1.00  0.00     0.022 A 
BRANCH  85  89
ATOM     89  S   UNL A   1      48.330  32.855  37.515  1.00  0.00     0.124 S 
ATOM     90  O   UNL A   1      47.314  32.155  38.292  1.00  0.00    -0.237 OA
ATOM     91  O   UNL A   1      48.755  32.207  36.279  1.00  0.00    -0.237 OA
ATOM     92  O   UNL A   1      49.403  33.468  38.296  1.00  0.00    -0.744 OA
ENDBRANCH  85  89
ENDBRANCH  58  82
BRANCH  70  93
ATOM     93  C   UNL A   1      38.975  34.100  38.408  1.00  0.00     0.023 A 
ATOM     94  C   UNL A   1      38.575  32.854  38.922  1.00  0.00     0.031 A 
ATOM     95  C   UNL A   1      38.853  35.225  39.244  1.00  0.00     0.131 A 
ATOM     96  C   UNL A   1      37.998  32.774  40.198  1.00  0.00     0.055 A 
ATOM     97  C   UNL A   1      38.352  35.127  40.543  1.00  0.00     0.041 A 
ATOM     98  F   UNL A   1      39.214  36.443  38.809  1.00  0.00    -0.206 F 
ATOM     99  C   UNL A   1      37.903  33.900  41.019  1.00  0.00     0.022 A 
BRANCH  96 100
ATOM    100  S   UNL A   1      37.249  31.205  40.717  1.00  0.00     0.124 S 
ATOM    101  O   UNL A   1      38.263  30.671  41.621  1.00  0.00    -0.237 OA
ATOM    102  O   UNL A   1      36.006  31.645  41.341  1.00  0.00    -0.237 OA
ATOM    103  O   UNL A   1      37.088  30.472  39.462  1.00  0.00    -0.744 OA
ENDBRANCH  96 100
ENDBRANCH  70  93
ENDBRANCH  44  45
ENDBRANCH  36  39
ENDBRANCH  34  35
ENDBRANCH  33  34
ENDBRANCH  32  33
ENDBRANCH   1  32
TORSDOF 20
ENDMDL
MODEL 3
REMARK VINA RESULT:     -10.6      9.100     14.418
REMARK SMILES COc1cc(/C=C2/S/C(=[NH+]\C(C)=O)NC2=O)cc(Br)c1OCC(=O)NCCCCCCNC(=O)c1ccc(-c2c3nc(c(-c4cc(S(=O)(=O)[O-])ccc4F)c4ccc([nH]4)c(-c4cc(S(=O)(=O)[O-])ccc4F)c4nc(c(-c5cc(S(=O)(=O)[O-])ccc5F)c5ccc2[nH]5)C=C4)C=C3)cc1
REMARK SMILES IDX 28 1 27 2 26 3 25 4 23 5 24 6 22 8 21 9 20 10 3 11 4 12 5 13
REMARK SMILES IDX 18 14 17 15 19 16 2 17 1 18 6 19 7 20 8 21 15 22 9 23 14 24
REMARK SMILES IDX 16 25 10 26 11 28 12 30 13 31 29 32 30 33 31 34 32 35 33 36
REMARK SMILES IDX 34 38 35 39 36 40 97 41 37 42 96 43 38 44 39 45 40 46 90 47
REMARK SMILES IDX 41 48 95 49 89 50 91 51 42 52 94 53 88 54 87 55 43 57 75 58
REMARK SMILES IDX 55 59 74 60 56 61 59 62 73 63 92 64 57 65 58 66 72 68 93 69
REMARK SMILES IDX 60 70 44 71 45 72 53 73 46 74 52 75 54 76 51 77 47 78 48 79
REMARK SMILES IDX 49 80 50 81 76 82 77 83 85 84 78 85 84 86 86 87 83 88 79 89
REMARK SMILES IDX 80 90 81 91 82 92 61 93 62 94 70 95 63 96 69 97 71 98 68 99
REMARK SMILES IDX 64 100 65 101 66 102 67 103
REMARK H PARENT 25 7 14 27 10 29 32 37 91 56 59 67
REMARK Flexibility Score: inf
ROOT
ATOM      1  C   UNL A   1      43.830  40.875  31.783  1.00  0.00     0.002 C 
ENDROOT
BRANCH   1   2
ATOM      2  C   UNL A   1      44.384  42.026  32.632  1.00  0.00     0.021 C 
BRANCH   2   3
ATOM      3  C   UNL A   1      44.576  43.343  31.884  1.00  0.00     0.116 C 
BRANCH   3   4
ATOM      4  N   UNL A   1      45.838  43.372  31.175  1.00  0.00    -0.353 N 
ATOM      5  C   UNL A   1      46.073  43.185  29.846  1.00  0.00     0.257 C 
ATOM      6  O   UNL A   1      47.228  43.312  29.435  1.00  0.00    -0.271 OA
ATOM      7  H   UNL A   1      46.633  43.552  31.726  1.00  0.00     0.163 HD
BRANCH   5   8
ATOM      8  C   UNL A   1      44.894  42.919  28.895  1.00  0.00     0.329 C 
BRANCH   8   9
ATOM      9  O   UNL A   1      45.019  42.096  27.752  1.00  0.00    -0.479 OA
BRANCH   9  10
ATOM     10  C   UNL A   1      44.456  42.450  26.554  1.00  0.00     0.176 A 
ATOM     11  C   UNL A   1      43.412  41.587  26.129  1.00  0.00     0.162 A 
ATOM     12  C   UNL A   1      42.705  41.844  24.948  1.00  0.00     0.058 A 
ATOM     13  C   UNL A   1      43.038  42.939  24.155  1.00  0.00    -0.019 A 
ATOM     14  C   UNL A   1      44.732  43.589  25.784  1.00  0.00     0.064 A 
ATOM     15  C   UNL A   1      44.042  43.809  24.580  1.00  0.00     0.028 A 
ATOM     16  Br  UNL A   1      45.880  45.015  26.297  1.00  0.00    -0.047 Br
BRANCH  11  17
ATOM     17  O   UNL A   1      43.122  40.526  26.959  1.00  0.00    -0.493 OA
ATOM     18  C   UNL A   1      42.028  39.693  26.586  1.00  0.00     0.278 C 
ENDBRANCH  11  17
BRANCH  13  19
ATOM     19  C   UNL A   1      42.321  43.177  22.898  1.00  0.00     0.032 C 
ATOM     20  C   UNL A   1      42.851  42.985  21.683  1.00  0.00     0.110 C 
ATOM     21  S   UNL A   1      42.049  43.396  20.202  1.00  0.00     0.007 SA
ATOM     22  C   UNL A   1      44.221  42.485  21.369  1.00  0.00     0.346 C 
ATOM     23  C   UNL A   1      43.516  43.288  19.279  1.00  0.00     0.324 C 
ATOM     24  N   UNL A   1      44.487  42.732  20.051  1.00  0.00    -0.199 N 
ATOM     25  O   UNL A   1      44.996  41.952  22.138  1.00  0.00    -0.240 OA
ATOM     26  N   UNL A   1      43.833  43.618  18.085  1.00  0.00    -0.204 N 
ATOM     27  H   UNL A   1      45.366  42.512  19.669  1.00  0.00     0.316 HD
ATOM     28  C   UNL A   1      43.064  44.158  17.090  1.00  0.00     0.304 C 
ATOM     29  H   UNL A   1      44.775  43.459  17.843  1.00  0.00     0.316 HD
ATOM     30  C   UNL A   1      41.822  44.963  17.352  1.00  0.00     0.144 C 
ATOM     31  O   UNL A   1      43.424  44.045  15.917  1.00  0.00    -0.247 OA
ENDBRANCH  13  19
ENDBRANCH   9  10
ENDBRANCH   8   9
ENDBRANCH   5   8
ENDBRANCH   3   4
ENDBRANCH   2   3
ENDBRANCH   1   2
BRANCH   1  32
ATOM     32  C   UNL A   1      43.430  39.614  32.556  1.00  0.00     0.002 C 
BRANCH  32  33
ATOM     33  C   UNL A   1      44.389  38.430  32.417  1.00  0.00     0.021 C 
BRANCH  33  34
ATOM     34  C   UNL A   1      44.327  37.709  31.075  1.00  0.00     0.116 C 
BRANCH  34  35
ATOM     35  N   UNL A   1      45.526  37.921  30.283  1.00  0.00    -0.352 N 
ATOM     36  C   UNL A   1      46.246  37.027  29.530  1.00  0.00     0.251 C 
ATOM     37  H   UNL A   1      45.874  38.842  30.287  1.00  0.00     0.163 HD
ATOM     38  O   UNL A   1      47.349  37.353  29.101  1.00  0.00    -0.269 OA
BRANCH  36  39
ATOM     39  C   UNL A   1      45.710  35.674  29.255  1.00  0.00     0.039 A 
ATOM     40  C   UNL A   1      46.046  34.630  30.120  1.00  0.00     0.014 A 
ATOM     41  C   UNL A   1      44.906  35.422  28.138  1.00  0.00     0.014 A 
ATOM     42  C   UNL A   1      45.546  33.347  29.887  1.00  0.00     0.010 A 
ATOM     43  C   UNL A   1      44.340  34.162  27.956  1.00  0.00     0.010 A 
ATOM     44  C   UNL A   1      44.665  33.105  28.819  1.00  0.00    -0.014 A 
BRANCH  44  45
ATOM     45  C   UNL A   1      44.105  31.746  28.590  1.00  0.00     0.031 A 
ATOM     46  C   UNL A   1      42.779  31.360  29.190  1.00  0.00     0.074 A 
ATOM     47  C   UNL A   1      44.803  30.853  27.860  1.00  0.00     0.049 A 
ATOM     48  N   UNL A   1      42.132  30.225  29.108  1.00  0.00    -0.248 NA
ATOM     49  C   UNL A   1      42.103  32.375  30.014  1.00  0.00     0.031 C 
ATOM     50  C   UNL A   1      46.118  31.096  27.262  1.00  0.00     0.029 A 
ATOM     51  N   UNL A   1      44.505  29.566  27.490  1.00  0.00    -0.354 N 
ATOM     52  C   UNL A   1      40.980  30.387  29.871  1.00  0.00     0.074 A 
ATOM     53  C   UNL A   1      41.055  31.704  30.466  1.00  0.00     0.031 C 
ATOM     54  C   UNL A   1      46.493  30.010  26.569  1.00  0.00     0.029 A 
ATOM     55  C   UNL A   1      45.474  28.976  26.709  1.00  0.00     0.049 A 
ATOM     56  H   UNL A   1      43.676  29.107  27.758  1.00  0.00     0.167 HD
ATOM     57  C   UNL A   1      39.942  29.528  30.038  1.00  0.00     0.034 A 
ATOM     58  C   UNL A   1      45.535  27.742  26.171  1.00  0.00     0.034 A 
ATOM     59  C   UNL A   1      39.881  28.219  29.433  1.00  0.00     0.049 A 
ATOM     60  C   UNL A   1      44.382  26.795  26.394  1.00  0.00     0.074 A 
ATOM     61  C   UNL A   1      38.860  27.286  29.496  1.00  0.00     0.029 A 
ATOM     62  N   UNL A   1      40.887  27.650  28.661  1.00  0.00    -0.354 N 
ATOM     63  N   UNL A   1      43.274  26.986  27.072  1.00  0.00    -0.248 NA
ATOM     64  C   UNL A   1      44.483  25.474  25.762  1.00  0.00     0.031 C 
ATOM     65  C   UNL A   1      39.280  26.128  28.834  1.00  0.00     0.029 A 
ATOM     66  C   UNL A   1      40.525  26.366  28.274  1.00  0.00     0.049 A 
ATOM     67  H   UNL A   1      41.734  28.092  28.423  1.00  0.00     0.167 HD
ATOM     68  C   UNL A   1      42.532  25.817  26.920  1.00  0.00     0.074 A 
ATOM     69  C   UNL A   1      43.309  24.943  26.065  1.00  0.00     0.031 C 
ATOM     70  C   UNL A   1      41.316  25.495  27.437  1.00  0.00     0.034 A 
BRANCH  57  71
ATOM     71  C   UNL A   1      38.806  29.973  30.934  1.00  0.00     0.023 A 
ATOM     72  C   UNL A   1      37.727  30.730  30.442  1.00  0.00     0.031 A 
ATOM     73  C   UNL A   1      38.814  29.657  32.303  1.00  0.00     0.131 A 
ATOM     74  C   UNL A   1      36.748  31.211  31.325  1.00  0.00     0.055 A 
ATOM     75  C   UNL A   1      37.788  30.062  33.160  1.00  0.00     0.041 A 
ATOM     76  F   UNL A   1      39.827  28.957  32.840  1.00  0.00    -0.206 F 
ATOM     77  C   UNL A   1      36.755  30.858  32.675  1.00  0.00     0.022 A 
BRANCH  74  78
ATOM     78  S   UNL A   1      35.556  32.434  30.712  1.00  0.00     0.124 S 
ATOM     79  O   UNL A   1      36.389  33.629  30.607  1.00  0.00    -0.237 OA
ATOM     80  O   UNL A   1      35.121  31.845  29.451  1.00  0.00    -0.237 OA
ATOM     81  O   UNL A   1      34.542  32.480  31.763  1.00  0.00    -0.744 OA
ENDBRANCH  74  78
ENDBRANCH  57  71
BRANCH  58  82
ATOM     82  C   UNL A   1      46.727  27.319  25.378  1.00  0.00     0.023 A 
ATOM     83  C   UNL A   1      46.947  27.811  24.081  1.00  0.00     0.031 A 
ATOM     84  C   UNL A   1      47.639  26.378  25.888  1.00  0.00     0.131 A 
ATOM     85  C   UNL A   1      48.018  27.319  23.318  1.00  0.00     0.055 A 
ATOM     86  C   UNL A   1      48.738  25.939  25.148  1.00  0.00     0.041 A 
ATOM     87  F   UNL A   1      47.479  25.876  27.123  1.00  0.00    -0.206 F 
ATOM     88  C   UNL A   1      48.924  26.398  23.849  1.00  0.00     0.022 A 
BRANCH  85  89
ATOM     89  S   UNL A   1      48.154  27.827  21.581  1.00  0.00     0.124 S 
ATOM     90  O   UNL A   1      48.383  26.549  20.917  1.00  0.00    -0.237 OA
ATOM     91  O   UNL A   1      46.856  28.451  21.346  1.00  0.00    -0.237 OA
ATOM     92  O   UNL A   1      49.292  28.743  21.584  1.00  0.00    -0.744 OA
ENDBRANCH  85  89
ENDBRANCH  58  82
BRANCH  70  93
ATOM     93  C   UNL A   1      40.742  24.152  27.049  1.00  0.00     0.023 A 
ATOM     94  C   UNL A   1      41.509  22.975  27.098  1.00  0.00     0.031 A 
ATOM     95  C   UNL A   1      39.417  24.054  26.584  1.00  0.00     0.131 A 
ATOM     96  C   UNL A   1      40.976  21.769  26.616  1.00  0.00     0.055 A 
ATOM     97  C   UNL A   1      38.866  22.837  26.179  1.00  0.00     0.041 A 
ATOM     98  F   UNL A   1      38.636  25.144  26.509  1.00  0.00    -0.206 F 
ATOM     99  C   UNL A   1      39.653  21.690  26.176  1.00  0.00     0.022 A 
BRANCH  96 100
ATOM    100  S   UNL A   1      42.079  20.339  26.445  1.00  0.00     0.124 S 
ATOM    101  O   UNL A   1      42.513  20.125  27.822  1.00  0.00    -0.237 OA
ATOM    102  O   UNL A   1      41.188  19.324  25.892  1.00  0.00    -0.237 OA
ATOM    103  O   UNL A   1      43.118  20.816  25.533  1.00  0.00    -0.744 OA
ENDBRANCH  96 100
ENDBRANCH  70  93
ENDBRANCH  44  45
ENDBRANCH  36  39
ENDBRANCH  34  35
ENDBRANCH  33  34
ENDBRANCH  32  33
ENDBRANCH   1  32
TORSDOF 20
ENDMDL
