MODEL 1
REMARK VINA RESULT:     -11.0      0.000      0.000
REMARK SMILES C[C@@H](C(=O)NCCCCCCNC(=O)c1ccc(-c2c3nc(c(-c4cc(S(=O)(=O)[O-])ccc4F)c4ccc([nH]4)c(-c4cc(S(=O)(=O)[O-])ccc4F)c4nc(c(-c5cc(S(=O)(=O)[O-])ccc5F)c5ccc2[nH]5)C=C4)C=C3)cc1)c1ccn(C(F)F)c(=O)c1
REMARK SMILES IDX 9 1 8 2 7 3 6 4 5 5 3 6 4 7 2 9 1 10 78 11 79 12 87 13 80 14
REMARK SMILES IDX 85 15 81 16 86 17 82 18 83 19 84 20 10 21 11 22 12 23 13 24
REMARK SMILES IDX 14 26 15 27 16 28 77 29 17 30 76 31 18 32 19 33 20 34 70 35
REMARK SMILES IDX 21 36 75 37 69 38 71 39 22 40 74 41 68 42 67 43 23 45 55 46
REMARK SMILES IDX 35 47 54 48 36 49 39 50 53 51 72 52 37 53 38 54 52 56 73 57
REMARK SMILES IDX 40 58 24 59 25 60 33 61 26 62 32 63 34 64 31 65 27 66 28 67
REMARK SMILES IDX 29 68 30 69 56 70 57 71 65 72 58 73 64 74 66 75 63 76 59 77
REMARK SMILES IDX 60 78 61 79 62 80 41 81 42 82 50 83 43 84 49 85 51 86 48 87
REMARK SMILES IDX 44 88 45 89 46 90 47 91
REMARK H PARENT 5 8 12 25 71 44 39 55
REMARK Flexibility Score: inf
ROOT
ATOM      1  C   UNL A   1      36.805  20.242  24.982  1.00  0.00     0.002 C 
ENDROOT
BRANCH   1   2
ATOM      2  C   UNL A   1      36.769  21.733  25.327  1.00  0.00     0.002 C 
BRANCH   2   3
ATOM      3  C   UNL A   1      35.762  22.124  26.418  1.00  0.00     0.021 C 
BRANCH   3   4
ATOM      4  C   UNL A   1      34.843  23.293  26.042  1.00  0.00     0.116 C 
BRANCH   4   5
ATOM      5  N   UNL A   1      33.464  22.962  26.342  1.00  0.00    -0.356 N 
ATOM      6  C   UNL A   1      32.456  22.577  25.510  1.00  0.00     0.227 C 
ATOM      7  O   UNL A   1      31.306  22.698  25.938  1.00  0.00    -0.274 OA
ATOM      8  H   UNL A   1      33.218  23.024  27.293  1.00  0.00     0.163 HD
BRANCH   6   9
ATOM      9  C   UNL A   1      32.778  21.998  24.109  1.00  0.00     0.105 C 
ATOM     10  C   UNL A   1      31.829  22.646  23.089  1.00  0.00     0.023 C 
BRANCH   9  11
ATOM     11  C   UNL A   1      32.739  20.459  24.106  1.00  0.00    -0.029 A 
ATOM     12  C   UNL A   1      33.101  19.720  25.306  1.00  0.00     0.023 A 
ATOM     13  C   UNL A   1      32.408  19.740  23.013  1.00  0.00     0.076 A 
ATOM     14  C   UNL A   1      33.255  18.391  25.279  1.00  0.00     0.095 A 
ATOM     15  C   UNL A   1      32.543  18.256  22.971  1.00  0.00     0.255 A 
ATOM     16  N   UNL A   1      33.017  17.666  24.129  1.00  0.00    -0.258 N 
ATOM     17  O   UNL A   1      32.251  17.661  21.936  1.00  0.00    -0.269 OA
BRANCH  16  18
ATOM     18  C   UNL A   1      33.277  16.253  24.089  1.00  0.00     0.451 C 
ATOM     19  F   UNL A   1      34.572  15.976  24.374  1.00  0.00    -0.185 F 
ATOM     20  F   UNL A   1      32.499  15.588  24.979  1.00  0.00    -0.185 F 
ENDBRANCH  16  18
ENDBRANCH   9  11
ENDBRANCH   6   9
ENDBRANCH   4   5
ENDBRANCH   3   4
ENDBRANCH   2   3
ENDBRANCH   1   2
BRANCH   1  21
ATOM     21  C   UNL A   1      38.204  19.618  24.957  1.00  0.00     0.021 C 
BRANCH  21  22
ATOM     22  C   UNL A   1      39.186  20.194  25.975  1.00  0.00     0.116 C 
BRANCH  22  23
ATOM     23  N   UNL A   1      40.348  19.342  26.155  1.00  0.00    -0.352 N 
ATOM     24  C   UNL A   1      41.670  19.681  26.298  1.00  0.00     0.251 C 
ATOM     25  H   UNL A   1      40.160  18.376  26.176  1.00  0.00     0.163 HD
ATOM     26  O   UNL A   1      42.525  18.799  26.230  1.00  0.00    -0.269 OA
BRANCH  24  27
ATOM     27  C   UNL A   1      42.073  21.090  26.508  1.00  0.00     0.039 A 
ATOM     28  C   UNL A   1      42.274  21.540  27.816  1.00  0.00     0.014 A 
ATOM     29  C   UNL A   1      42.217  21.978  25.437  1.00  0.00     0.014 A 
ATOM     30  C   UNL A   1      42.670  22.860  28.045  1.00  0.00     0.010 A 
ATOM     31  C   UNL A   1      42.678  23.276  25.662  1.00  0.00     0.010 A 
ATOM     32  C   UNL A   1      42.907  23.732  26.969  1.00  0.00    -0.014 A 
BRANCH  32  33
ATOM     33  C   UNL A   1      43.405  25.112  27.212  1.00  0.00     0.031 A 
ATOM     34  C   UNL A   1      42.485  26.175  27.754  1.00  0.00     0.074 A 
ATOM     35  C   UNL A   1      44.686  25.413  26.923  1.00  0.00     0.049 A 
ATOM     36  N   UNL A   1      42.740  27.430  28.023  1.00  0.00    -0.248 NA
ATOM     37  C   UNL A   1      41.092  25.779  28.005  1.00  0.00     0.031 C 
ATOM     38  C   UNL A   1      45.660  24.481  26.347  1.00  0.00     0.029 A 
ATOM     39  N   UNL A   1      45.393  26.579  27.068  1.00  0.00    -0.354 N 
ATOM     40  C   UNL A   1      41.545  27.972  28.481  1.00  0.00     0.074 A 
ATOM     41  C   UNL A   1      40.549  26.925  28.387  1.00  0.00     0.031 C 
ATOM     42  C   UNL A   1      46.841  25.105  26.213  1.00  0.00     0.029 A 
ATOM     43  C   UNL A   1      46.704  26.488  26.656  1.00  0.00     0.049 A 
ATOM     44  H   UNL A   1      45.000  27.405  27.434  1.00  0.00     0.167 HD
ATOM     45  C   UNL A   1      41.305  29.219  28.963  1.00  0.00     0.034 A 
ATOM     46  C   UNL A   1      47.682  27.415  26.633  1.00  0.00     0.034 A 
ATOM     47  C   UNL A   1      42.307  30.255  29.049  1.00  0.00     0.049 A 
ATOM     48  C   UNL A   1      47.387  28.796  27.162  1.00  0.00     0.074 A 
ATOM     49  C   UNL A   1      42.178  31.542  29.543  1.00  0.00     0.029 A 
ATOM     50  N   UNL A   1      43.625  30.124  28.631  1.00  0.00    -0.354 N 
ATOM     51  N   UNL A   1      46.260  29.277  27.636  1.00  0.00    -0.248 NA
ATOM     52  C   UNL A   1      48.500  29.754  27.169  1.00  0.00     0.031 C 
ATOM     53  C   UNL A   1      43.397  32.206  29.369  1.00  0.00     0.029 A 
ATOM     54  C   UNL A   1      44.311  31.314  28.834  1.00  0.00     0.049 A 
ATOM     55  H   UNL A   1      44.016  29.307  28.245  1.00  0.00     0.167 HD
ATOM     56  C   UNL A   1      46.539  30.585  28.021  1.00  0.00     0.074 A 
ATOM     57  C   UNL A   1      47.945  30.804  27.753  1.00  0.00     0.031 C 
ATOM     58  C   UNL A   1      45.710  31.524  28.544  1.00  0.00     0.034 A 
BRANCH  45  59
ATOM     59  C   UNL A   1      39.899  29.529  29.421  1.00  0.00     0.023 A 
ATOM     60  C   UNL A   1      39.574  29.610  30.786  1.00  0.00     0.031 A 
ATOM     61  C   UNL A   1      38.871  29.742  28.487  1.00  0.00     0.131 A 
ATOM     62  C   UNL A   1      38.246  29.832  31.180  1.00  0.00     0.055 A 
ATOM     63  C   UNL A   1      37.565  30.038  28.885  1.00  0.00     0.041 A 
ATOM     64  F   UNL A   1      39.115  29.658  27.170  1.00  0.00    -0.206 F 
ATOM     65  C   UNL A   1      37.243  30.073  30.239  1.00  0.00     0.022 A 
BRANCH  62  66
ATOM     66  S   UNL A   1      37.825  29.681  32.938  1.00  0.00     0.124 S 
ATOM     67  O   UNL A   1      36.747  30.659  33.066  1.00  0.00    -0.237 OA
ATOM     68  O   UNL A   1      37.435  28.280  33.052  1.00  0.00    -0.237 OA
ATOM     69  O   UNL A   1      39.067  30.041  33.620  1.00  0.00    -0.744 OA
ENDBRANCH  62  66
ENDBRANCH  45  59
BRANCH  46  70
ATOM     70  C   UNL A   1      49.028  27.084  26.080  1.00  0.00     0.023 A 
ATOM     71  C   UNL A   1      49.405  27.490  24.790  1.00  0.00     0.031 A 
ATOM     72  C   UNL A   1      49.936  26.299  26.814  1.00  0.00     0.131 A 
ATOM     73  C   UNL A   1      50.626  27.061  24.250  1.00  0.00     0.055 A 
ATOM     74  C   UNL A   1      51.177  25.926  26.296  1.00  0.00     0.041 A 
ATOM     75  F   UNL A   1      49.630  25.888  28.056  1.00  0.00    -0.206 F 
ATOM     76  C   UNL A   1      51.521  26.292  24.998  1.00  0.00     0.022 A 
BRANCH  73  77
ATOM     77  S   UNL A   1      50.984  27.430  22.510  1.00  0.00     0.124 S 
ATOM     78  O   UNL A   1      49.919  26.704  21.827  1.00  0.00    -0.237 OA
ATOM     79  O   UNL A   1      50.887  28.886  22.485  1.00  0.00    -0.237 OA
ATOM     80  O   UNL A   1      52.330  26.893  22.319  1.00  0.00    -0.744 OA
ENDBRANCH  73  77
ENDBRANCH  46  70
BRANCH  58  81
ATOM     81  C   UNL A   1      46.326  32.860  28.882  1.00  0.00     0.023 A 
ATOM     82  C   UNL A   1      46.338  33.919  27.958  1.00  0.00     0.031 A 
ATOM     83  C   UNL A   1      46.943  33.064  30.129  1.00  0.00     0.131 A 
ATOM     84  C   UNL A   1      47.022  35.106  28.263  1.00  0.00     0.055 A 
ATOM     85  C   UNL A   1      47.563  34.271  30.453  1.00  0.00     0.041 A 
ATOM     86  F   UNL A   1      46.961  32.088  31.052  1.00  0.00    -0.206 F 
ATOM     87  C   UNL A   1      47.621  35.294  29.511  1.00  0.00     0.022 A 
BRANCH  84  88
ATOM     88  S   UNL A   1      47.218  36.355  26.961  1.00  0.00     0.124 S 
ATOM     89  O   UNL A   1      46.297  37.398  27.399  1.00  0.00    -0.237 OA
ATOM     90  O   UNL A   1      48.638  36.679  27.053  1.00  0.00    -0.237 OA
ATOM     91  O   UNL A   1      46.822  35.647  25.746  1.00  0.00    -0.744 OA
ENDBRANCH  84  88
ENDBRANCH  58  81
ENDBRANCH  32  33
ENDBRANCH  24  27
ENDBRANCH  22  23
ENDBRANCH  21  22
ENDBRANCH   1  21
TORSDOF 18
ENDMDL
MODEL 2
REMARK VINA RESULT:     -10.8      3.283      8.835
REMARK SMILES C[C@@H](C(=O)NCCCCCCNC(=O)c1ccc(-c2c3nc(c(-c4cc(S(=O)(=O)[O-])ccc4F)c4ccc([nH]4)c(-c4cc(S(=O)(=O)[O-])ccc4F)c4nc(c(-c5cc(S(=O)(=O)[O-])ccc5F)c5ccc2[nH]5)C=C4)C=C3)cc1)c1ccn(C(F)F)c(=O)c1
REMARK SMILES IDX 9 1 8 2 7 3 6 4 5 5 3 6 4 7 2 9 1 10 78 11 79 12 87 13 80 14
REMARK SMILES IDX 85 15 81 16 86 17 82 18 83 19 84 20 10 21 11 22 12 23 13 24
REMARK SMILES IDX 14 26 15 27 16 28 77 29 17 30 76 31 18 32 19 33 20 34 70 35
REMARK SMILES IDX 21 36 75 37 69 38 71 39 22 40 74 41 68 42 67 43 23 45 55 46
REMARK SMILES IDX 35 47 54 48 36 49 39 50 53 51 72 52 37 53 38 54 52 56 73 57
REMARK SMILES IDX 40 58 24 59 25 60 33 61 26 62 32 63 34 64 31 65 27 66 28 67
REMARK SMILES IDX 29 68 30 69 56 70 57 71 65 72 58 73 64 74 66 75 63 76 59 77
REMARK SMILES IDX 60 78 61 79 62 80 41 81 42 82 50 83 43 84 49 85 51 86 48 87
REMARK SMILES IDX 44 88 45 89 46 90 47 91
REMARK H PARENT 5 8 12 25 71 44 39 55
REMARK Flexibility Score: inf
ROOT
ATOM      1  C   UNL A   1      34.887  22.503  25.369  1.00  0.00     0.002 C 
ENDROOT
BRANCH   1   2
ATOM      2  C   UNL A   1      35.262  23.666  24.447  1.00  0.00     0.002 C 
BRANCH   2   3
ATOM      3  C   UNL A   1      34.530  23.689  23.098  1.00  0.00     0.021 C 
BRANCH   3   4
ATOM      4  C   UNL A   1      33.395  22.663  22.976  1.00  0.00     0.116 C 
BRANCH   4   5
ATOM      5  N   UNL A   1      32.142  23.336  22.694  1.00  0.00    -0.356 N 
ATOM      6  C   UNL A   1      31.212  23.847  23.549  1.00  0.00     0.227 C 
ATOM      7  O   UNL A   1      30.085  24.044  23.089  1.00  0.00    -0.274 OA
ATOM      8  H   UNL A   1      31.931  23.439  21.738  1.00  0.00     0.163 HD
BRANCH   6   9
ATOM      9  C   UNL A   1      31.595  24.174  25.015  1.00  0.00     0.105 C 
ATOM     10  C   UNL A   1      30.722  23.318  25.945  1.00  0.00     0.023 C 
BRANCH   9  11
ATOM     11  C   UNL A   1      31.514  25.685  25.300  1.00  0.00    -0.029 A 
ATOM     12  C   UNL A   1      31.650  26.640  24.210  1.00  0.00     0.023 A 
ATOM     13  C   UNL A   1      31.348  26.184  26.543  1.00  0.00     0.076 A 
ATOM     14  C   UNL A   1      31.769  27.951  24.452  1.00  0.00     0.095 A 
ATOM     15  C   UNL A   1      31.447  27.644  26.829  1.00  0.00     0.255 A 
ATOM     16  N   UNL A   1      31.706  28.451  25.736  1.00  0.00    -0.258 N 
ATOM     17  O   UNL A   1      31.314  28.033  27.988  1.00  0.00    -0.269 OA
BRANCH  16  18
ATOM     18  C   UNL A   1      31.928  29.848  25.987  1.00  0.00     0.451 C 
ATOM     19  F   UNL A   1      33.195  30.216  25.677  1.00  0.00    -0.185 F 
ATOM     20  F   UNL A   1      31.078  30.617  25.262  1.00  0.00    -0.185 F 
ENDBRANCH  16  18
ENDBRANCH   9  11
ENDBRANCH   6   9
ENDBRANCH   4   5
ENDBRANCH   3   4
ENDBRANCH   2   3
ENDBRANCH   1   2
BRANCH   1  21
ATOM     21  C   UNL A   1      35.742  21.243  25.202  1.00  0.00     0.021 C 
BRANCH  21  22
ATOM     22  C   UNL A   1      37.191  21.497  24.792  1.00  0.00     0.116 C 
BRANCH  22  23
ATOM     23  N   UNL A   1      38.089  20.473  25.298  1.00  0.00    -0.352 N 
ATOM     24  C   UNL A   1      39.315  20.602  25.899  1.00  0.00     0.251 C 
ATOM     25  H   UNL A   1      37.770  19.548  25.193  1.00  0.00     0.163 HD
ATOM     26  O   UNL A   1      40.008  19.600  26.067  1.00  0.00    -0.269 OA
BRANCH  24  27
ATOM     27  C   UNL A   1      39.817  21.930  26.322  1.00  0.00     0.039 A 
ATOM     28  C   UNL A   1      41.038  21.999  26.997  1.00  0.00     0.014 A 
ATOM     29  C   UNL A   1      39.081  23.098  26.092  1.00  0.00     0.014 A 
ATOM     30  C   UNL A   1      41.545  23.239  27.393  1.00  0.00     0.010 A 
ATOM     31  C   UNL A   1      39.620  24.341  26.430  1.00  0.00     0.010 A 
ATOM     32  C   UNL A   1      40.857  24.424  27.086  1.00  0.00    -0.014 A 
BRANCH  32  33
ATOM     33  C   UNL A   1      41.437  25.748  27.440  1.00  0.00     0.031 A 
ATOM     34  C   UNL A   1      42.816  26.130  26.971  1.00  0.00     0.074 A 
ATOM     35  C   UNL A   1      40.724  26.598  28.204  1.00  0.00     0.049 A 
ATOM     36  N   UNL A   1      43.485  27.234  27.186  1.00  0.00    -0.248 NA
ATOM     37  C   UNL A   1      43.545  25.131  26.176  1.00  0.00     0.031 C 
ATOM     38  C   UNL A   1      39.397  26.321  28.760  1.00  0.00     0.029 A 
ATOM     39  N   UNL A   1      41.009  27.864  28.650  1.00  0.00    -0.354 N 
ATOM     40  C   UNL A   1      44.710  27.068  26.548  1.00  0.00     0.074 A 
ATOM     41  C   UNL A   1      44.715  25.728  25.998  1.00  0.00     0.031 C 
ATOM     42  C   UNL A   1      38.974  27.393  29.449  1.00  0.00     0.029 A 
ATOM     43  C   UNL A   1      40.010  28.419  29.417  1.00  0.00     0.049 A 
ATOM     44  H   UNL A   1      41.849  28.333  28.439  1.00  0.00     0.167 HD
ATOM     45  C   UNL A   1      45.724  27.959  26.408  1.00  0.00     0.034 A 
ATOM     46  C   UNL A   1      39.938  29.617  30.031  1.00  0.00     0.034 A 
ATOM     47  C   UNL A   1      45.707  29.292  26.964  1.00  0.00     0.049 A 
ATOM     48  C   UNL A   1      41.085  30.584  29.872  1.00  0.00     0.074 A 
ATOM     49  C   UNL A   1      46.670  30.282  26.861  1.00  0.00     0.029 A 
ATOM     50  N   UNL A   1      44.676  29.823  27.728  1.00  0.00    -0.354 N 
ATOM     51  N   UNL A   1      42.216  30.426  29.223  1.00  0.00    -0.248 NA
ATOM     52  C   UNL A   1      40.936  31.898  30.511  1.00  0.00     0.031 C 
ATOM     53  C   UNL A   1      46.248  31.386  27.610  1.00  0.00     0.029 A 
ATOM     54  C   UNL A   1      44.990  31.116  28.122  1.00  0.00     0.049 A 
ATOM     55  H   UNL A   1      43.843  29.350  27.958  1.00  0.00     0.167 HD
ATOM     56  C   UNL A   1      42.900  31.630  29.357  1.00  0.00     0.074 A 
ATOM     57  C   UNL A   1      42.041  32.512  30.119  1.00  0.00     0.031 C 
ATOM     58  C   UNL A   1      44.130  31.978  28.898  1.00  0.00     0.034 A 
BRANCH  45  59
ATOM     59  C   UNL A   1      46.941  27.511  25.633  1.00  0.00     0.023 A 
ATOM     60  C   UNL A   1      47.130  27.876  24.289  1.00  0.00     0.031 A 
ATOM     61  C   UNL A   1      47.923  26.708  26.240  1.00  0.00     0.131 A 
ATOM     62  C   UNL A   1      48.236  27.388  23.577  1.00  0.00     0.055 A 
ATOM     63  C   UNL A   1      49.061  26.288  25.548  1.00  0.00     0.041 A 
ATOM     64  F   UNL A   1      47.789  26.311  27.515  1.00  0.00    -0.206 F 
ATOM     65  C   UNL A   1      49.217  26.618  24.205  1.00  0.00     0.022 A 
BRANCH  62  66
ATOM     66  S   UNL A   1      48.311  27.674  21.788  1.00  0.00     0.124 S 
ATOM     67  O   UNL A   1      49.489  28.531  21.677  1.00  0.00    -0.237 OA
ATOM     68  O   UNL A   1      48.452  26.323  21.256  1.00  0.00    -0.237 OA
ATOM     69  O   UNL A   1      47.040  28.332  21.492  1.00  0.00    -0.744 OA
ENDBRANCH  62  66
ENDBRANCH  45  59
BRANCH  46  70
ATOM     70  C   UNL A   1      38.754  29.973  30.865  1.00  0.00     0.023 A 
ATOM     71  C   UNL A   1      37.728  30.789  30.363  1.00  0.00     0.031 A 
ATOM     72  C   UNL A   1      38.661  29.550  32.204  1.00  0.00     0.131 A 
ATOM     73  C   UNL A   1      36.689  31.207  31.207  1.00  0.00     0.055 A 
ATOM     74  C   UNL A   1      37.593  29.918  33.023  1.00  0.00     0.041 A 
ATOM     75  F   UNL A   1      39.611  28.763  32.735  1.00  0.00    -0.206 F 
ATOM     76  C   UNL A   1      36.607  30.767  32.530  1.00  0.00     0.022 A 
BRANCH  73  77
ATOM     77  S   UNL A   1      35.500  32.428  30.583  1.00  0.00     0.124 S 
ATOM     78  O   UNL A   1      35.323  31.992  29.202  1.00  0.00    -0.237 OA
ATOM     79  O   UNL A   1      34.361  32.219  31.472  1.00  0.00    -0.237 OA
ATOM     80  O   UNL A   1      36.198  33.700  30.753  1.00  0.00    -0.744 OA
ENDBRANCH  73  77
ENDBRANCH  46  70
BRANCH  58  81
ATOM     81  C   UNL A   1      44.591  33.385  29.191  1.00  0.00     0.023 A 
ATOM     82  C   UNL A   1      44.196  34.471  28.389  1.00  0.00     0.031 A 
ATOM     83  C   UNL A   1      45.469  33.638  30.259  1.00  0.00     0.131 A 
ATOM     84  C   UNL A   1      44.737  35.745  28.620  1.00  0.00     0.055 A 
ATOM     85  C   UNL A   1      45.952  34.920  30.526  1.00  0.00     0.041 A 
ATOM     86  F   UNL A   1      45.880  32.639  31.058  1.00  0.00    -0.206 F 
ATOM     87  C   UNL A   1      45.600  35.979  29.694  1.00  0.00     0.022 A 
BRANCH  84  88
ATOM     88  S   UNL A   1      44.388  37.066  27.427  1.00  0.00     0.124 S 
ATOM     89  O   UNL A   1      45.691  37.258  26.797  1.00  0.00    -0.237 OA
ATOM     90  O   UNL A   1      43.358  36.463  26.588  1.00  0.00    -0.237 OA
ATOM     91  O   UNL A   1      43.935  38.174  28.265  1.00  0.00    -0.744 OA
ENDBRANCH  84  88
ENDBRANCH  58  81
ENDBRANCH  32  33
ENDBRANCH  24  27
ENDBRANCH  22  23
ENDBRANCH  21  22
ENDBRANCH   1  21
TORSDOF 18
ENDMDL
MODEL 3
REMARK VINA RESULT:     -10.8      6.405     12.175
REMARK SMILES C[C@@H](C(=O)NCCCCCCNC(=O)c1ccc(-c2c3nc(c(-c4cc(S(=O)(=O)[O-])ccc4F)c4ccc([nH]4)c(-c4cc(S(=O)(=O)[O-])ccc4F)c4nc(c(-c5cc(S(=O)(=O)[O-])ccc5F)c5ccc2[nH]5)C=C4)C=C3)cc1)c1ccn(C(F)F)c(=O)c1
REMARK SMILES IDX 9 1 8 2 7 3 6 4 5 5 3 6 4 7 2 9 1 10 78 11 79 12 87 13 80 14
REMARK SMILES IDX 85 15 81 16 86 17 82 18 83 19 84 20 10 21 11 22 12 23 13 24
REMARK SMILES IDX 14 26 15 27 16 28 77 29 17 30 76 31 18 32 19 33 20 34 70 35
REMARK SMILES IDX 21 36 75 37 69 38 71 39 22 40 74 41 68 42 67 43 23 45 55 46
REMARK SMILES IDX 35 47 54 48 36 49 39 50 53 51 72 52 37 53 38 54 52 56 73 57
REMARK SMILES IDX 40 58 24 59 25 60 33 61 26 62 32 63 34 64 31 65 27 66 28 67
REMARK SMILES IDX 29 68 30 69 56 70 57 71 65 72 58 73 64 74 66 75 63 76 59 77
REMARK SMILES IDX 60 78 61 79 62 80 41 81 42 82 50 83 43 84 49 85 51 86 48 87
REMARK SMILES IDX 44 88 45 89 46 90 47 91
REMARK H PARENT 5 8 12 25 71 44 39 55
REMARK Flexibility Score: inf
ROOT
ATOM      1  C   UNL A   1      31.685  30.387  26.074  1.00  0.00     0.002 C 
ENDROOT
BRANCH   1   2
ATOM      2  C   UNL A   1      32.240  28.968  26.218  1.00  0.00     0.002 C 
BRANCH   2   3
ATOM      3  C   UNL A   1      33.437  28.644  25.312  1.00  0.00     0.021 C 
BRANCH   3   4
ATOM      4  C   UNL A   1      33.665  27.145  25.075  1.00  0.00     0.116 C 
BRANCH   4   5
ATOM      5  N   UNL A   1      33.441  26.820  23.680  1.00  0.00    -0.356 N 
ATOM      6  C   UNL A   1      32.330  26.327  23.064  1.00  0.00     0.227 C 
ATOM      7  O   UNL A   1      32.494  25.804  21.960  1.00  0.00    -0.274 OA
ATOM      8  H   UNL A   1      34.210  26.980  23.087  1.00  0.00     0.163 HD
BRANCH   6   9
ATOM      9  C   UNL A   1      30.941  26.457  23.739  1.00  0.00     0.105 C 
ATOM     10  C   UNL A   1      30.223  25.103  23.633  1.00  0.00     0.023 C 
BRANCH   9  11
ATOM     11  C   UNL A   1      30.135  27.636  23.162  1.00  0.00    -0.029 A 
ATOM     12  C   UNL A   1      30.821  28.708  22.456  1.00  0.00     0.023 A 
ATOM     13  C   UNL A   1      28.799  27.746  23.308  1.00  0.00     0.076 A 
ATOM     14  C   UNL A   1      30.176  29.828  22.108  1.00  0.00     0.095 A 
ATOM     15  C   UNL A   1      28.057  28.973  22.900  1.00  0.00     0.255 A 
ATOM     16  N   UNL A   1      28.827  29.983  22.353  1.00  0.00    -0.258 N 
ATOM     17  O   UNL A   1      26.842  29.022  23.084  1.00  0.00    -0.269 OA
BRANCH  16  18
ATOM     18  C   UNL A   1      28.170  31.227  22.059  1.00  0.00     0.451 C 
ATOM     19  F   UNL A   1      27.490  31.169  20.889  1.00  0.00    -0.185 F 
ATOM     20  F   UNL A   1      27.292  31.559  23.039  1.00  0.00    -0.185 F 
ENDBRANCH  16  18
ENDBRANCH   9  11
ENDBRANCH   6   9
ENDBRANCH   4   5
ENDBRANCH   3   4
ENDBRANCH   2   3
ENDBRANCH   1   2
BRANCH   1  21
ATOM     21  C   UNL A   1      32.019  31.333  27.232  1.00  0.00     0.021 C 
BRANCH  21  22
ATOM     22  C   UNL A   1      33.127  32.342  26.941  1.00  0.00     0.116 C 
BRANCH  22  23
ATOM     23  N   UNL A   1      32.814  33.661  27.464  1.00  0.00    -0.352 N 
ATOM     24  C   UNL A   1      33.305  34.305  28.571  1.00  0.00     0.251 C 
ATOM     25  H   UNL A   1      32.150  34.169  26.945  1.00  0.00     0.163 HD
ATOM     26  O   UNL A   1      32.756  35.336  28.956  1.00  0.00    -0.269 OA
BRANCH  24  27
ATOM     27  C   UNL A   1      34.464  33.759  29.313  1.00  0.00     0.039 A 
ATOM     28  C   UNL A   1      34.235  32.789  30.293  1.00  0.00     0.014 A 
ATOM     29  C   UNL A   1      35.766  34.218  29.081  1.00  0.00     0.014 A 
ATOM     30  C   UNL A   1      35.309  32.244  30.998  1.00  0.00     0.010 A 
ATOM     31  C   UNL A   1      36.844  33.626  29.739  1.00  0.00     0.010 A 
ATOM     32  C   UNL A   1      36.627  32.633  30.707  1.00  0.00    -0.014 A 
BRANCH  32  33
ATOM     33  C   UNL A   1      37.775  31.994  31.405  1.00  0.00     0.031 A 
ATOM     34  C   UNL A   1      38.551  30.884  30.746  1.00  0.00     0.074 A 
ATOM     35  C   UNL A   1      38.104  32.403  32.646  1.00  0.00     0.049 A 
ATOM     36  N   UNL A   1      39.574  30.207  31.202  1.00  0.00    -0.248 NA
ATOM     37  C   UNL A   1      38.104  30.468  29.409  1.00  0.00     0.031 C 
ATOM     38  C   UNL A   1      37.397  33.436  33.407  1.00  0.00     0.029 A 
ATOM     39  N   UNL A   1      39.111  32.006  33.488  1.00  0.00    -0.354 N 
ATOM     40  C   UNL A   1      39.898  29.290  30.208  1.00  0.00     0.074 A 
ATOM     41  C   UNL A   1      38.918  29.454  29.155  1.00  0.00     0.031 C 
ATOM     42  C   UNL A   1      38.007  33.606  34.591  1.00  0.00     0.029 A 
ATOM     43  C   UNL A   1      39.124  32.674  34.692  1.00  0.00     0.049 A 
ATOM     44  H   UNL A   1      39.766  31.307  33.253  1.00  0.00     0.167 HD
ATOM     45  C   UNL A   1      40.934  28.413  30.164  1.00  0.00     0.034 A 
ATOM     46  C   UNL A   1      39.939  32.546  35.757  1.00  0.00     0.034 A 
ATOM     47  C   UNL A   1      41.903  28.259  31.223  1.00  0.00     0.049 A 
ATOM     48  C   UNL A   1      41.074  31.555  35.689  1.00  0.00     0.074 A 
ATOM     49  C   UNL A   1      43.003  27.420  31.270  1.00  0.00     0.029 A 
ATOM     50  N   UNL A   1      41.889  28.958  32.423  1.00  0.00    -0.354 N 
ATOM     51  N   UNL A   1      41.393  30.729  34.719  1.00  0.00    -0.248 NA
ATOM     52  C   UNL A   1      41.969  31.494  36.851  1.00  0.00     0.031 C 
ATOM     53  C   UNL A   1      43.618  27.568  32.519  1.00  0.00     0.029 A 
ATOM     54  C   UNL A   1      42.947  28.553  33.225  1.00  0.00     0.049 A 
ATOM     55  H   UNL A   1      41.225  29.642  32.670  1.00  0.00     0.167 HD
ATOM     56  C   UNL A   1      42.541  30.069  35.147  1.00  0.00     0.074 A 
ATOM     57  C   UNL A   1      42.874  30.617  36.445  1.00  0.00     0.031 C 
ATOM     58  C   UNL A   1      43.256  29.095  34.527  1.00  0.00     0.034 A 
BRANCH  45  59
ATOM     59  C   UNL A   1      41.059  27.547  28.933  1.00  0.00     0.023 A 
ATOM     60  C   UNL A   1      42.050  27.786  27.966  1.00  0.00     0.031 A 
ATOM     61  C   UNL A   1      40.178  26.472  28.720  1.00  0.00     0.131 A 
ATOM     62  C   UNL A   1      42.097  27.006  26.801  1.00  0.00     0.055 A 
ATOM     63  C   UNL A   1      40.279  25.650  27.595  1.00  0.00     0.041 A 
ATOM     64  F   UNL A   1      39.199  26.206  29.599  1.00  0.00    -0.206 F 
ATOM     65  C   UNL A   1      41.235  25.922  26.621  1.00  0.00     0.022 A 
BRANCH  62  66
ATOM     66  S   UNL A   1      43.224  27.502  25.469  1.00  0.00     0.124 S 
ATOM     67  O   UNL A   1      42.314  28.191  24.556  1.00  0.00    -0.237 OA
ATOM     68  O   UNL A   1      44.188  28.346  26.167  1.00  0.00    -0.237 OA
ATOM     69  O   UNL A   1      43.749  26.232  24.973  1.00  0.00    -0.744 OA
ENDBRANCH  62  66
ENDBRANCH  45  59
BRANCH  46  70
ATOM     70  C   UNL A   1      39.713  33.360  36.987  1.00  0.00     0.023 A 
ATOM     71  C   UNL A   1      38.989  32.848  38.076  1.00  0.00     0.031 A 
ATOM     72  C   UNL A   1      40.166  34.689  37.066  1.00  0.00     0.131 A 
ATOM     73  C   UNL A   1      38.687  33.675  39.168  1.00  0.00     0.055 A 
ATOM     74  C   UNL A   1      39.916  35.490  38.182  1.00  0.00     0.041 A 
ATOM     75  F   UNL A   1      40.868  35.229  36.057  1.00  0.00    -0.206 F 
ATOM     76  C   UNL A   1      39.156  34.989  39.234  1.00  0.00     0.022 A 
BRANCH  73  77
ATOM     77  S   UNL A   1      37.575  33.044  40.455  1.00  0.00     0.124 S 
ATOM     78  O   UNL A   1      38.323  31.897  40.959  1.00  0.00    -0.237 OA
ATOM     79  O   UNL A   1      37.475  34.190  41.354  1.00  0.00    -0.237 OA
ATOM     80  O   UNL A   1      36.354  32.721  39.721  1.00  0.00    -0.744 OA
ENDBRANCH  73  77
ENDBRANCH  46  70
BRANCH  58  81
ATOM     81  C   UNL A   1      44.483  28.590  35.248  1.00  0.00     0.023 A 
ATOM     82  C   UNL A   1      44.432  27.460  36.084  1.00  0.00     0.031 A 
ATOM     83  C   UNL A   1      45.707  29.271  35.131  1.00  0.00     0.131 A 
ATOM     84  C   UNL A   1      45.562  27.090  36.829  1.00  0.00     0.055 A 
ATOM     85  C   UNL A   1      46.847  28.858  35.823  1.00  0.00     0.041 A 
ATOM     86  F   UNL A   1      45.815  30.357  34.347  1.00  0.00    -0.206 F 
ATOM     87  C   UNL A   1      46.773  27.773  36.692  1.00  0.00     0.022 A 
BRANCH  84  88
ATOM     88  S   UNL A   1      45.392  25.777  38.069  1.00  0.00     0.124 S 
ATOM     89  O   UNL A   1      46.755  25.264  38.157  1.00  0.00    -0.237 OA
ATOM     90  O   UNL A   1      44.911  26.511  39.235  1.00  0.00    -0.237 OA
ATOM     91  O   UNL A   1      44.422  24.863  37.469  1.00  0.00    -0.744 OA
ENDBRANCH  84  88
ENDBRANCH  58  81
ENDBRANCH  32  33
ENDBRANCH  24  27
ENDBRANCH  22  23
ENDBRANCH  21  22
ENDBRANCH   1  21
TORSDOF 18
ENDMDL
