MODEL 1
REMARK VINA RESULT:      -9.0      0.000      0.000
REMARK SMILES CCCC[C@H](C(=O)NCCCCCCNC(=O)c1ccc(-c2c3nc(c(-c4cc(S(=O)(=O)[O-])ccc4F)c4ccc([nH]4)c(-c4cc(S(=O)(=O)[O-])ccc4F)c4nc(c(-c5cc(S(=O)(=O)[O-])ccc5F)c5ccc2[nH]5)C=C4)C=C3)cc1)c1ccnn1C
REMARK SMILES IDX 11 1 10 2 9 3 8 4 6 5 7 6 5 8 4 9 3 10 2 11 1 12 81 13 82 14
REMARK SMILES IDX 85 15 83 16 84 17 86 18 12 19 13 20 14 21 15 22 16 23 17 25
REMARK SMILES IDX 18 26 19 27 80 28 20 29 79 30 21 31 22 32 23 33 73 34 24 35
REMARK SMILES IDX 78 36 72 37 74 38 25 39 77 40 71 41 70 42 26 44 58 45 38 46
REMARK SMILES IDX 57 47 39 48 42 49 56 50 75 51 40 52 41 53 55 55 76 56 43 57
REMARK SMILES IDX 27 58 28 59 36 60 29 61 35 62 37 63 34 64 30 65 31 66 32 67
REMARK SMILES IDX 33 68 59 69 60 70 68 71 61 72 67 73 69 74 66 75 62 76 63 77
REMARK SMILES IDX 64 78 65 79 44 80 45 81 53 82 46 83 52 84 54 85 51 86 47 87
REMARK SMILES IDX 48 88 49 89 50 90
REMARK H PARENT 8 7 15 24 74 43 42 54
REMARK Flexibility Score: inf
ROOT
ATOM      1  C   UNL A   1      40.021  23.197  26.596  1.00  0.00     0.002 C 
ENDROOT
BRANCH   1   2
ATOM      2  C   UNL A   1      38.602  23.744  26.383  1.00  0.00     0.021 C 
BRANCH   2   3
ATOM      3  C   UNL A   1      37.660  22.768  25.666  1.00  0.00     0.116 C 
BRANCH   3   4
ATOM      4  N   UNL A   1      36.948  23.470  24.622  1.00  0.00    -0.356 N 
ATOM      5  C   UNL A   1      35.612  23.492  24.351  1.00  0.00     0.229 C 
ATOM      6  O   UNL A   1      35.316  23.708  23.169  1.00  0.00    -0.274 OA
ATOM      7  H   UNL A   1      37.508  24.011  24.020  1.00  0.00     0.163 HD
BRANCH   5   8
ATOM      8  C   UNL A   1      34.523  23.360  25.473  1.00  0.00     0.127 C 
BRANCH   8   9
ATOM      9  C   UNL A   1      34.132  24.833  25.758  1.00  0.00     0.020 C 
BRANCH   9  10
ATOM     10  C   UNL A   1      32.728  25.368  26.013  1.00  0.00     0.001 C 
BRANCH  10  11
ATOM     11  C   UNL A   1      32.549  26.873  26.111  1.00  0.00    -0.003 C 
ATOM     12  C   UNL A   1      33.622  27.610  25.328  1.00  0.00     0.004 C 
ENDBRANCH  10  11
ENDBRANCH   9  10
ENDBRANCH   8   9
BRANCH   8  13
ATOM     13  C   UNL A   1      33.537  22.278  25.052  1.00  0.00     0.050 A 
ATOM     14  C   UNL A   1      33.221  21.121  25.761  1.00  0.00     0.046 A 
ATOM     15  N   UNL A   1      32.795  22.118  23.888  1.00  0.00    -0.272 N 
ATOM     16  C   UNL A   1      32.699  20.226  24.817  1.00  0.00     0.135 A 
ATOM     17  N   UNL A   1      32.561  20.806  23.631  1.00  0.00    -0.182 NA
ATOM     18  C   UNL A   1      31.742  22.981  23.395  1.00  0.00     0.174 C 
ENDBRANCH   8  13
ENDBRANCH   5   8
ENDBRANCH   3   4
ENDBRANCH   2   3
ENDBRANCH   1   2
BRANCH   1  19
ATOM     19  C   UNL A   1      40.091  21.832  27.288  1.00  0.00     0.002 C 
BRANCH  19  20
ATOM     20  C   UNL A   1      40.483  20.664  26.382  1.00  0.00     0.021 C 
BRANCH  20  21
ATOM     21  C   UNL A   1      41.535  19.724  26.969  1.00  0.00     0.116 C 
BRANCH  21  22
ATOM     22  N   UNL A   1      42.568  19.396  25.999  1.00  0.00    -0.352 N 
ATOM     23  C   UNL A   1      43.419  20.233  25.326  1.00  0.00     0.251 C 
ATOM     24  H   UNL A   1      42.671  18.438  25.799  1.00  0.00     0.163 HD
ATOM     25  O   UNL A   1      44.061  19.806  24.364  1.00  0.00    -0.269 OA
BRANCH  23  26
ATOM     26  C   UNL A   1      43.550  21.646  25.739  1.00  0.00     0.039 A 
ATOM     27  C   UNL A   1      44.006  21.940  27.026  1.00  0.00     0.014 A 
ATOM     28  C   UNL A   1      43.215  22.682  24.860  1.00  0.00     0.014 A 
ATOM     29  C   UNL A   1      44.181  23.272  27.411  1.00  0.00     0.010 A 
ATOM     30  C   UNL A   1      43.459  24.005  25.221  1.00  0.00     0.010 A 
ATOM     31  C   UNL A   1      43.941  24.316  26.502  1.00  0.00    -0.014 A 
BRANCH  31  32
ATOM     32  C   UNL A   1      44.183  25.735  26.877  1.00  0.00     0.031 A 
ATOM     33  C   UNL A   1      45.553  26.335  26.714  1.00  0.00     0.074 A 
ATOM     34  C   UNL A   1      43.182  26.462  27.412  1.00  0.00     0.049 A 
ATOM     35  N   UNL A   1      45.979  27.527  27.045  1.00  0.00    -0.248 NA
ATOM     36  C   UNL A   1      46.588  25.470  26.128  1.00  0.00     0.031 C 
ATOM     37  C   UNL A   1      41.821  25.979  27.652  1.00  0.00     0.029 A 
ATOM     38  N   UNL A   1      43.155  27.760  27.860  1.00  0.00    -0.354 N 
ATOM     39  C   UNL A   1      47.330  27.554  26.717  1.00  0.00     0.074 A 
ATOM     40  C   UNL A   1      47.664  26.234  26.223  1.00  0.00     0.031 C 
ATOM     41  C   UNL A   1      41.086  26.973  28.176  1.00  0.00     0.029 A 
ATOM     42  C   UNL A   1      41.932  28.147  28.359  1.00  0.00     0.049 A 
ATOM     43  H   UNL A   1      43.937  28.357  27.827  1.00  0.00     0.167 HD
ATOM     44  C   UNL A   1      48.205  28.587  26.800  1.00  0.00     0.034 A 
ATOM     45  C   UNL A   1      41.540  29.312  28.913  1.00  0.00     0.034 A 
ATOM     46  C   UNL A   1      47.852  29.898  27.289  1.00  0.00     0.049 A 
ATOM     47  C   UNL A   1      42.539  30.437  29.025  1.00  0.00     0.074 A 
ATOM     48  C   UNL A   1      48.643  31.030  27.369  1.00  0.00     0.029 A 
ATOM     49  N   UNL A   1      46.606  30.252  27.792  1.00  0.00    -0.354 N 
ATOM     50  N   UNL A   1      43.802  30.459  28.665  1.00  0.00    -0.248 NA
ATOM     51  C   UNL A   1      42.057  31.695  29.609  1.00  0.00     0.031 C 
ATOM     52  C   UNL A   1      47.902  32.043  27.987  1.00  0.00     0.029 A 
ATOM     53  C   UNL A   1      46.619  31.573  28.216  1.00  0.00     0.049 A 
ATOM     54  H   UNL A   1      45.826  29.653  27.842  1.00  0.00     0.167 HD
ATOM     55  C   UNL A   1      44.253  31.746  28.948  1.00  0.00     0.074 A 
ATOM     56  C   UNL A   1      43.124  32.471  29.493  1.00  0.00     0.031 C 
ATOM     57  C   UNL A   1      45.488  32.282  28.768  1.00  0.00     0.034 A 
BRANCH  44  58
ATOM     58  C   UNL A   1      49.632  28.328  26.376  1.00  0.00     0.023 A 
ATOM     59  C   UNL A   1      50.062  28.544  25.054  1.00  0.00     0.031 A 
ATOM     60  C   UNL A   1      50.572  27.837  27.299  1.00  0.00     0.131 A 
ATOM     61  C   UNL A   1      51.368  28.198  24.675  1.00  0.00     0.055 A 
ATOM     62  C   UNL A   1      51.896  27.576  26.936  1.00  0.00     0.041 A 
ATOM     63  F   UNL A   1      50.218  27.590  28.570  1.00  0.00    -0.206 F 
ATOM     64  C   UNL A   1      52.297  27.741  25.614  1.00  0.00     0.022 A 
BRANCH  61  65
ATOM     65  S   UNL A   1      51.790  28.212  22.911  1.00  0.00     0.124 S 
ATOM     66  O   UNL A   1      53.246  28.109  22.957  1.00  0.00    -0.237 OA
ATOM     67  O   UNL A   1      51.081  27.042  22.408  1.00  0.00    -0.237 OA
ATOM     68  O   UNL A   1      51.279  29.500  22.447  1.00  0.00    -0.744 OA
ENDBRANCH  61  65
ENDBRANCH  44  58
BRANCH  45  69
ATOM     69  C   UNL A   1      40.145  29.479  29.417  1.00  0.00     0.023 A 
ATOM     70  C   UNL A   1      39.870  29.503  30.793  1.00  0.00     0.031 A 
ATOM     71  C   UNL A   1      39.060  29.571  28.528  1.00  0.00     0.131 A 
ATOM     72  C   UNL A   1      38.540  29.563  31.240  1.00  0.00     0.055 A 
ATOM     73  C   UNL A   1      37.744  29.690  28.977  1.00  0.00     0.041 A 
ATOM     74  F   UNL A   1      39.265  29.556  27.201  1.00  0.00    -0.206 F 
ATOM     75  C   UNL A   1      37.477  29.671  30.342  1.00  0.00     0.022 A 
BRANCH  72  76
ATOM     76  S   UNL A   1      38.214  29.400  33.018  1.00  0.00     0.124 S 
ATOM     77  O   UNL A   1      37.391  28.197  33.059  1.00  0.00    -0.237 OA
ATOM     78  O   UNL A   1      39.563  29.275  33.562  1.00  0.00    -0.237 OA
ATOM     79  O   UNL A   1      37.522  30.643  33.351  1.00  0.00    -0.744 OA
ENDBRANCH  72  76
ENDBRANCH  45  69
BRANCH  57  80
ATOM     80  C   UNL A   1      45.664  33.739  29.123  1.00  0.00     0.023 A 
ATOM     81  C   UNL A   1      46.069  34.149  30.406  1.00  0.00     0.031 A 
ATOM     82  C   UNL A   1      45.408  34.735  28.163  1.00  0.00     0.131 A 
ATOM     83  C   UNL A   1      46.149  35.516  30.711  1.00  0.00     0.055 A 
ATOM     84  C   UNL A   1      45.554  36.092  28.453  1.00  0.00     0.041 A 
ATOM     85  F   UNL A   1      45.014  34.405  26.923  1.00  0.00    -0.206 F 
ATOM     86  C   UNL A   1      45.913  36.490  29.738  1.00  0.00     0.022 A 
BRANCH  83  87
ATOM     87  S   UNL A   1      46.470  36.008  32.427  1.00  0.00     0.124 S 
ATOM     88  O   UNL A   1      45.486  37.068  32.627  1.00  0.00    -0.237 OA
ATOM     89  O   UNL A   1      46.229  34.769  33.158  1.00  0.00    -0.237 OA
ATOM     90  O   UNL A   1      47.862  36.453  32.403  1.00  0.00    -0.744 OA
ENDBRANCH  83  87
ENDBRANCH  57  80
ENDBRANCH  31  32
ENDBRANCH  23  26
ENDBRANCH  21  22
ENDBRANCH  20  21
ENDBRANCH  19  20
ENDBRANCH   1  19
TORSDOF 20
ENDMDL
MODEL 2
REMARK VINA RESULT:      -9.0      5.988     12.165
REMARK SMILES CCCC[C@H](C(=O)NCCCCCCNC(=O)c1ccc(-c2c3nc(c(-c4cc(S(=O)(=O)[O-])ccc4F)c4ccc([nH]4)c(-c4cc(S(=O)(=O)[O-])ccc4F)c4nc(c(-c5cc(S(=O)(=O)[O-])ccc5F)c5ccc2[nH]5)C=C4)C=C3)cc1)c1ccnn1C
REMARK SMILES IDX 11 1 10 2 9 3 8 4 6 5 7 6 5 8 4 9 3 10 2 11 1 12 81 13 82 14
REMARK SMILES IDX 85 15 83 16 84 17 86 18 12 19 13 20 14 21 15 22 16 23 17 25
REMARK SMILES IDX 18 26 19 27 80 28 20 29 79 30 21 31 22 32 23 33 73 34 24 35
REMARK SMILES IDX 78 36 72 37 74 38 25 39 77 40 71 41 70 42 26 44 58 45 38 46
REMARK SMILES IDX 57 47 39 48 42 49 56 50 75 51 40 52 41 53 55 55 76 56 43 57
REMARK SMILES IDX 27 58 28 59 36 60 29 61 35 62 37 63 34 64 30 65 31 66 32 67
REMARK SMILES IDX 33 68 59 69 60 70 68 71 61 72 67 73 69 74 66 75 62 76 63 77
REMARK SMILES IDX 64 78 65 79 44 80 45 81 53 82 46 83 52 84 54 85 51 86 47 87
REMARK SMILES IDX 48 88 49 89 50 90
REMARK H PARENT 8 7 15 24 74 43 42 54
REMARK Flexibility Score: inf
ROOT
ATOM      1  C   UNL A   1      35.146  33.000  32.333  1.00  0.00     0.002 C 
ENDROOT
BRANCH   1   2
ATOM      2  C   UNL A   1      36.169  32.208  33.161  1.00  0.00     0.021 C 
BRANCH   2   3
ATOM      3  C   UNL A   1      36.736  32.982  34.358  1.00  0.00     0.116 C 
BRANCH   3   4
ATOM      4  N   UNL A   1      37.394  32.060  35.256  1.00  0.00    -0.356 N 
ATOM      5  C   UNL A   1      38.171  32.321  36.345  1.00  0.00     0.229 C 
ATOM      6  O   UNL A   1      39.009  31.452  36.617  1.00  0.00    -0.274 OA
ATOM      7  H   UNL A   1      37.260  31.106  35.053  1.00  0.00     0.163 HD
BRANCH   5   8
ATOM      8  C   UNL A   1      37.951  33.581  37.254  1.00  0.00     0.127 C 
BRANCH   8   9
ATOM      9  C   UNL A   1      37.764  32.966  38.666  1.00  0.00     0.020 C 
BRANCH   9  10
ATOM     10  C   UNL A   1      36.857  31.799  39.037  1.00  0.00     0.001 C 
BRANCH  10  11
ATOM     11  C   UNL A   1      35.962  31.956  40.253  1.00  0.00    -0.003 C 
ATOM     12  C   UNL A   1      36.589  31.330  41.487  1.00  0.00     0.004 C 
ENDBRANCH  10  11
ENDBRANCH   9  10
ENDBRANCH   8   9
BRANCH   8  13
ATOM     13  C   UNL A   1      39.017  34.611  36.903  1.00  0.00     0.050 A 
ATOM     14  C   UNL A   1      39.910  35.215  37.786  1.00  0.00     0.046 A 
ATOM     15  N   UNL A   1      39.315  35.247  35.705  1.00  0.00    -0.272 N 
ATOM     16  C   UNL A   1      40.324  36.397  37.158  1.00  0.00     0.135 A 
ATOM     17  N   UNL A   1      39.849  36.477  35.921  1.00  0.00    -0.182 NA
ATOM     18  C   UNL A   1      39.799  34.635  34.485  1.00  0.00     0.174 C 
ENDBRANCH   8  13
ENDBRANCH   5   8
ENDBRANCH   3   4
ENDBRANCH   2   3
ENDBRANCH   1   2
BRANCH   1  19
ATOM     19  C   UNL A   1      35.752  33.966  31.310  1.00  0.00     0.002 C 
BRANCH  19  20
ATOM     20  C   UNL A   1      34.797  34.427  30.207  1.00  0.00     0.021 C 
BRANCH  20  21
ATOM     21  C   UNL A   1      35.156  33.940  28.805  1.00  0.00     0.116 C 
BRANCH  21  22
ATOM     22  N   UNL A   1      34.310  32.835  28.383  1.00  0.00    -0.352 N 
ATOM     23  C   UNL A   1      34.629  31.510  28.233  1.00  0.00     0.251 C 
ATOM     24  H   UNL A   1      33.377  33.071  28.177  1.00  0.00     0.163 HD
ATOM     25  O   UNL A   1      33.855  30.760  27.635  1.00  0.00    -0.269 OA
BRANCH  23  26
ATOM     26  C   UNL A   1      35.903  30.988  28.770  1.00  0.00     0.039 A 
ATOM     27  C   UNL A   1      35.882  29.880  29.619  1.00  0.00     0.014 A 
ATOM     28  C   UNL A   1      37.119  31.598  28.443  1.00  0.00     0.014 A 
ATOM     29  C   UNL A   1      37.084  29.348  30.093  1.00  0.00     0.010 A 
ATOM     30  C   UNL A   1      38.318  31.023  28.857  1.00  0.00     0.010 A 
ATOM     31  C   UNL A   1      38.314  29.894  29.690  1.00  0.00    -0.014 A 
BRANCH  31  32
ATOM     32  C   UNL A   1      39.603  29.300  30.137  1.00  0.00     0.031 A 
ATOM     33  C   UNL A   1      40.299  29.838  31.358  1.00  0.00     0.074 A 
ATOM     34  C   UNL A   1      40.169  28.314  29.412  1.00  0.00     0.049 A 
ATOM     35  N   UNL A   1      41.457  29.502  31.866  1.00  0.00    -0.248 NA
ATOM     36  C   UNL A   1      39.615  30.917  32.085  1.00  0.00     0.031 C 
ATOM     37  C   UNL A   1      39.608  27.734  28.191  1.00  0.00     0.029 A 
ATOM     38  N   UNL A   1      41.347  27.631  29.590  1.00  0.00    -0.354 N 
ATOM     39  C   UNL A   1      41.644  30.332  32.966  1.00  0.00     0.074 A 
ATOM     40  C   UNL A   1      40.510  31.231  33.008  1.00  0.00     0.031 C 
ATOM     41  C   UNL A   1      40.425  26.766  27.746  1.00  0.00     0.029 A 
ATOM     42  C   UNL A   1      41.592  26.689  28.618  1.00  0.00     0.049 A 
ATOM     43  H   UNL A   1      41.957  27.799  30.344  1.00  0.00     0.167 HD
ATOM     44  C   UNL A   1      42.657  30.330  33.869  1.00  0.00     0.034 A 
ATOM     45  C   UNL A   1      42.645  25.865  28.440  1.00  0.00     0.034 A 
ATOM     46  C   UNL A   1      43.777  29.422  33.815  1.00  0.00     0.049 A 
ATOM     47  C   UNL A   1      43.776  25.904  29.438  1.00  0.00     0.074 A 
ATOM     48  C   UNL A   1      44.831  29.299  34.703  1.00  0.00     0.029 A 
ATOM     49  N   UNL A   1      43.996  28.486  32.811  1.00  0.00    -0.354 N 
ATOM     50  N   UNL A   1      43.914  26.663  30.501  1.00  0.00    -0.248 NA
ATOM     51  C   UNL A   1      44.886  24.969  29.218  1.00  0.00     0.031 C 
ATOM     52  C   UNL A   1      45.722  28.346  34.199  1.00  0.00     0.029 A 
ATOM     53  C   UNL A   1      45.185  27.808  33.041  1.00  0.00     0.049 A 
ATOM     54  H   UNL A   1      43.396  28.327  32.047  1.00  0.00     0.167 HD
ATOM     55  C   UNL A   1      45.111  26.270  31.094  1.00  0.00     0.074 A 
ATOM     56  C   UNL A   1      45.645  25.199  30.278  1.00  0.00     0.031 C 
ATOM     57  C   UNL A   1      45.712  26.748  32.214  1.00  0.00     0.034 A 
BRANCH  44  58
ATOM     58  C   UNL A   1      42.608  31.361  34.973  1.00  0.00     0.023 A 
ATOM     59  C   UNL A   1      43.028  32.687  34.767  1.00  0.00     0.031 A 
ATOM     60  C   UNL A   1      42.155  31.009  36.257  1.00  0.00     0.131 A 
ATOM     61  C   UNL A   1      43.061  33.588  35.843  1.00  0.00     0.055 A 
ATOM     62  C   UNL A   1      42.108  31.933  37.303  1.00  0.00     0.041 A 
ATOM     63  F   UNL A   1      41.761  29.753  36.523  1.00  0.00    -0.206 F 
ATOM     64  C   UNL A   1      42.577  33.228  37.103  1.00  0.00     0.022 A 
BRANCH  61  65
ATOM     65  S   UNL A   1      43.882  35.188  35.607  1.00  0.00     0.124 S 
ATOM     66  O   UNL A   1      42.976  35.847  34.669  1.00  0.00    -0.237 OA
ATOM     67  O   UNL A   1      43.908  35.731  36.959  1.00  0.00    -0.237 OA
ATOM     68  O   UNL A   1      45.185  34.826  35.053  1.00  0.00    -0.744 OA
ENDBRANCH  61  65
ENDBRANCH  44  58
BRANCH  45  69
ATOM     69  C   UNL A   1      42.695  24.942  27.269  1.00  0.00     0.023 A 
ATOM     70  C   UNL A   1      42.153  23.648  27.342  1.00  0.00     0.031 A 
ATOM     71  C   UNL A   1      43.327  25.322  26.072  1.00  0.00     0.131 A 
ATOM     72  C   UNL A   1      42.298  22.766  26.261  1.00  0.00     0.055 A 
ATOM     73  C   UNL A   1      43.418  24.460  24.978  1.00  0.00     0.041 A 
ATOM     74  F   UNL A   1      43.861  26.547  25.945  1.00  0.00    -0.206 F 
ATOM     75  C   UNL A   1      42.914  23.167  25.074  1.00  0.00     0.022 A 
BRANCH  72  76
ATOM     76  S   UNL A   1      41.753  21.047  26.465  1.00  0.00     0.124 S 
ATOM     77  O   UNL A   1      42.106  20.787  27.855  1.00  0.00    -0.237 OA
ATOM     78  O   UNL A   1      40.327  21.146  26.170  1.00  0.00    -0.237 OA
ATOM     79  O   UNL A   1      42.543  20.321  25.472  1.00  0.00    -0.744 OA
ENDBRANCH  72  76
ENDBRANCH  45  69
BRANCH  57  80
ATOM     80  C   UNL A   1      46.994  26.077  32.646  1.00  0.00     0.023 A 
ATOM     81  C   UNL A   1      47.000  24.983  33.530  1.00  0.00     0.031 A 
ATOM     82  C   UNL A   1      48.232  26.548  32.172  1.00  0.00     0.131 A 
ATOM     83  C   UNL A   1      48.219  24.438  33.960  1.00  0.00     0.055 A 
ATOM     84  C   UNL A   1      49.438  25.958  32.552  1.00  0.00     0.041 A 
ATOM     85  F   UNL A   1      48.290  27.591  31.329  1.00  0.00    -0.206 F 
ATOM     86  C   UNL A   1      49.437  24.906  33.462  1.00  0.00     0.022 A 
BRANCH  83  87
ATOM     87  S   UNL A   1      48.197  23.171  35.259  1.00  0.00     0.124 S 
ATOM     88  O   UNL A   1      47.295  22.173  34.692  1.00  0.00    -0.237 OA
ATOM     89  O   UNL A   1      49.601  22.786  35.344  1.00  0.00    -0.237 OA
ATOM     90  O   UNL A   1      47.677  23.884  36.424  1.00  0.00    -0.744 OA
ENDBRANCH  83  87
ENDBRANCH  57  80
ENDBRANCH  31  32
ENDBRANCH  23  26
ENDBRANCH  21  22
ENDBRANCH  20  21
ENDBRANCH  19  20
ENDBRANCH   1  19
TORSDOF 20
ENDMDL
MODEL 3
REMARK VINA RESULT:      -8.9      5.771     11.870
REMARK SMILES CCCC[C@H](C(=O)NCCCCCCNC(=O)c1ccc(-c2c3nc(c(-c4cc(S(=O)(=O)[O-])ccc4F)c4ccc([nH]4)c(-c4cc(S(=O)(=O)[O-])ccc4F)c4nc(c(-c5cc(S(=O)(=O)[O-])ccc5F)c5ccc2[nH]5)C=C4)C=C3)cc1)c1ccnn1C
REMARK SMILES IDX 11 1 10 2 9 3 8 4 6 5 7 6 5 8 4 9 3 10 2 11 1 12 81 13 82 14
REMARK SMILES IDX 85 15 83 16 84 17 86 18 12 19 13 20 14 21 15 22 16 23 17 25
REMARK SMILES IDX 18 26 19 27 80 28 20 29 79 30 21 31 22 32 23 33 73 34 24 35
REMARK SMILES IDX 78 36 72 37 74 38 25 39 77 40 71 41 70 42 26 44 58 45 38 46
REMARK SMILES IDX 57 47 39 48 42 49 56 50 75 51 40 52 41 53 55 55 76 56 43 57
REMARK SMILES IDX 27 58 28 59 36 60 29 61 35 62 37 63 34 64 30 65 31 66 32 67
REMARK SMILES IDX 33 68 59 69 60 70 68 71 61 72 67 73 69 74 66 75 62 76 63 77
REMARK SMILES IDX 64 78 65 79 44 80 45 81 53 82 46 83 52 84 54 85 51 86 47 87
REMARK SMILES IDX 48 88 49 89 50 90
REMARK H PARENT 8 7 15 24 74 43 42 54
REMARK Flexibility Score: inf
ROOT
ATOM      1  C   UNL A   1      35.157  32.696  32.162  1.00  0.00     0.002 C 
ENDROOT
BRANCH   1   2
ATOM      2  C   UNL A   1      36.248  31.676  32.518  1.00  0.00     0.021 C 
BRANCH   2   3
ATOM      3  C   UNL A   1      37.170  32.124  33.660  1.00  0.00     0.116 C 
BRANCH   3   4
ATOM      4  N   UNL A   1      36.513  33.156  34.429  1.00  0.00    -0.356 N 
ATOM      5  C   UNL A   1      36.642  33.463  35.751  1.00  0.00     0.229 C 
ATOM      6  O   UNL A   1      35.651  33.992  36.270  1.00  0.00    -0.274 OA
ATOM      7  H   UNL A   1      35.882  33.720  33.926  1.00  0.00     0.163 HD
BRANCH   5   8
ATOM      8  C   UNL A   1      37.985  33.259  36.536  1.00  0.00     0.127 C 
BRANCH   8   9
ATOM      9  C   UNL A   1      38.361  34.701  36.967  1.00  0.00     0.020 C 
BRANCH   9  10
ATOM     10  C   UNL A   1      39.752  35.208  37.328  1.00  0.00     0.001 C 
BRANCH  10  11
ATOM     11  C   UNL A   1      40.424  36.177  36.371  1.00  0.00    -0.003 C 
ATOM     12  C   UNL A   1      40.335  35.689  34.935  1.00  0.00     0.004 C 
ENDBRANCH  10  11
ENDBRANCH   9  10
ENDBRANCH   8   9
BRANCH   8  13
ATOM     13  C   UNL A   1      37.798  32.098  37.503  1.00  0.00     0.050 A 
ATOM     14  C   UNL A   1      37.910  30.741  37.204  1.00  0.00     0.046 A 
ATOM     15  N   UNL A   1      37.410  32.071  38.838  1.00  0.00    -0.272 N 
ATOM     16  C   UNL A   1      37.192  30.071  38.203  1.00  0.00     0.135 A 
ATOM     17  N   UNL A   1      36.773  30.912  39.141  1.00  0.00    -0.182 NA
ATOM     18  C   UNL A   1      38.123  32.629  39.968  1.00  0.00     0.174 C 
ENDBRANCH   8  13
ENDBRANCH   5   8
ENDBRANCH   3   4
ENDBRANCH   2   3
ENDBRANCH   1   2
BRANCH   1  19
ATOM     19  C   UNL A   1      35.483  33.600  30.969  1.00  0.00     0.002 C 
BRANCH  19  20
ATOM     20  C   UNL A   1      34.423  33.627  29.865  1.00  0.00     0.021 C 
BRANCH  20  21
ATOM     21  C   UNL A   1      34.948  33.305  28.467  1.00  0.00     0.116 C 
BRANCH  21  22
ATOM     22  N   UNL A   1      34.219  32.204  27.857  1.00  0.00    -0.352 N 
ATOM     23  C   UNL A   1      34.639  30.925  27.600  1.00  0.00     0.251 C 
ATOM     24  H   UNL A   1      33.292  32.405  27.593  1.00  0.00     0.163 HD
ATOM     25  O   UNL A   1      33.972  30.201  26.858  1.00  0.00    -0.269 OA
BRANCH  23  26
ATOM     26  C   UNL A   1      35.897  30.424  28.193  1.00  0.00     0.039 A 
ATOM     27  C   UNL A   1      35.847  29.707  29.390  1.00  0.00     0.014 A 
ATOM     28  C   UNL A   1      37.126  30.670  27.574  1.00  0.00     0.014 A 
ATOM     29  C   UNL A   1      37.024  29.186  29.935  1.00  0.00     0.010 A 
ATOM     30  C   UNL A   1      38.288  30.089  28.080  1.00  0.00     0.010 A 
ATOM     31  C   UNL A   1      38.250  29.344  29.268  1.00  0.00    -0.014 A 
BRANCH  31  32
ATOM     32  C   UNL A   1      39.501  28.743  29.803  1.00  0.00     0.031 A 
ATOM     33  C   UNL A   1      40.159  29.331  31.022  1.00  0.00     0.074 A 
ATOM     34  C   UNL A   1      40.069  27.704  29.160  1.00  0.00     0.049 A 
ATOM     35  N   UNL A   1      41.284  28.993  31.599  1.00  0.00    -0.248 NA
ATOM     36  C   UNL A   1      39.475  30.467  31.658  1.00  0.00     0.031 C 
ATOM     37  C   UNL A   1      39.544  27.070  27.949  1.00  0.00     0.029 A 
ATOM     38  N   UNL A   1      41.217  27.000  29.428  1.00  0.00    -0.354 N 
ATOM     39  C   UNL A   1      41.448  29.879  32.659  1.00  0.00     0.074 A 
ATOM     40  C   UNL A   1      40.339  30.808  32.601  1.00  0.00     0.031 C 
ATOM     41  C   UNL A   1      40.351  26.057  27.595  1.00  0.00     0.029 A 
ATOM     42  C   UNL A   1      41.477  25.999  28.521  1.00  0.00     0.049 A 
ATOM     43  H   UNL A   1      41.800  27.194  30.198  1.00  0.00     0.167 HD
ATOM     44  C   UNL A   1      42.420  29.902  33.605  1.00  0.00     0.034 A 
ATOM     45  C   UNL A   1      42.513  25.139  28.435  1.00  0.00     0.034 A 
ATOM     46  C   UNL A   1      43.515  28.962  33.651  1.00  0.00     0.049 A 
ATOM     47  C   UNL A   1      43.600  25.205  29.479  1.00  0.00     0.074 A 
ATOM     48  C   UNL A   1      44.526  28.862  34.591  1.00  0.00     0.029 A 
ATOM     49  N   UNL A   1      43.750  27.966  32.711  1.00  0.00    -0.354 N 
ATOM     50  N   UNL A   1      43.715  26.019  30.503  1.00  0.00    -0.248 NA
ATOM     51  C   UNL A   1      44.691  24.229  29.361  1.00  0.00     0.031 C 
ATOM     52  C   UNL A   1      45.410  27.859  34.180  1.00  0.00     0.029 A 
ATOM     53  C   UNL A   1      44.907  27.271  33.031  1.00  0.00     0.049 A 
ATOM     54  H   UNL A   1      43.179  27.780  31.931  1.00  0.00     0.167 HD
ATOM     55  C   UNL A   1      44.873  25.628  31.170  1.00  0.00     0.074 A 
ATOM     56  C   UNL A   1      45.411  24.498  30.439  1.00  0.00     0.031 C 
ATOM     57  C   UNL A   1      45.439  26.152  32.287  1.00  0.00     0.034 A 
BRANCH  44  58
ATOM     58  C   UNL A   1      42.353  30.993  34.647  1.00  0.00     0.023 A 
ATOM     59  C   UNL A   1      43.076  32.192  34.511  1.00  0.00     0.031 A 
ATOM     60  C   UNL A   1      41.573  30.827  35.805  1.00  0.00     0.131 A 
ATOM     61  C   UNL A   1      43.066  33.139  35.546  1.00  0.00     0.055 A 
ATOM     62  C   UNL A   1      41.499  31.811  36.793  1.00  0.00     0.041 A 
ATOM     63  F   UNL A   1      40.877  29.696  36.004  1.00  0.00    -0.206 F 
ATOM     64  C   UNL A   1      42.261  32.970  36.675  1.00  0.00     0.022 A 
BRANCH  61  65
ATOM     65  S   UNL A   1      44.236  34.524  35.464  1.00  0.00     0.124 S 
ATOM     66  O   UNL A   1      44.078  34.960  34.079  1.00  0.00    -0.237 OA
ATOM     67  O   UNL A   1      43.722  35.431  36.483  1.00  0.00    -0.237 OA
ATOM     68  O   UNL A   1      45.523  33.904  35.772  1.00  0.00    -0.744 OA
ENDBRANCH  61  65
ENDBRANCH  44  58
BRANCH  45  69
ATOM     69  C   UNL A   1      42.586  24.150  27.321  1.00  0.00     0.023 A 
ATOM     70  C   UNL A   1      41.973  22.891  27.427  1.00  0.00     0.031 A 
ATOM     71  C   UNL A   1      43.311  24.431  26.149  1.00  0.00     0.131 A 
ATOM     72  C   UNL A   1      42.138  21.943  26.406  1.00  0.00     0.055 A 
ATOM     73  C   UNL A   1      43.423  23.505  25.110  1.00  0.00     0.041 A 
ATOM     74  F   UNL A   1      43.915  25.619  25.992  1.00  0.00    -0.206 F 
ATOM     75  C   UNL A   1      42.847  22.246  25.242  1.00  0.00     0.022 A 
BRANCH  72  76
ATOM     76  S   UNL A   1      41.492  20.267  26.664  1.00  0.00     0.124 S 
ATOM     77  O   UNL A   1      41.879  19.606  25.424  1.00  0.00    -0.237 OA
ATOM     78  O   UNL A   1      42.207  19.850  27.866  1.00  0.00    -0.237 OA
ATOM     79  O   UNL A   1      40.057  20.480  26.838  1.00  0.00    -0.744 OA
ENDBRANCH  72  76
ENDBRANCH  45  69
BRANCH  57  80
ATOM     80  C   UNL A   1      46.682  25.473  32.812  1.00  0.00     0.023 A 
ATOM     81  C   UNL A   1      47.960  25.767  32.306  1.00  0.00     0.031 A 
ATOM     82  C   UNL A   1      46.581  24.506  33.829  1.00  0.00     0.131 A 
ATOM     83  C   UNL A   1      49.078  25.059  32.773  1.00  0.00     0.055 A 
ATOM     84  C   UNL A   1      47.705  23.853  34.337  1.00  0.00     0.041 A 
ATOM     85  F   UNL A   1      45.387  24.181  34.348  1.00  0.00    -0.206 F 
ATOM     86  C   UNL A   1      48.961  24.117  33.799  1.00  0.00     0.022 A 
BRANCH  83  87
ATOM     87  S   UNL A   1      50.676  25.313  31.953  1.00  0.00     0.124 S 
ATOM     88  O   UNL A   1      50.368  26.391  31.018  1.00  0.00    -0.237 OA
ATOM     89  O   UNL A   1      51.547  25.666  33.068  1.00  0.00    -0.237 OA
ATOM     90  O   UNL A   1      50.954  24.018  31.335  1.00  0.00    -0.744 OA
ENDBRANCH  83  87
ENDBRANCH  57  80
ENDBRANCH  31  32
ENDBRANCH  23  26
ENDBRANCH  21  22
ENDBRANCH  20  21
ENDBRANCH  19  20
ENDBRANCH   1  19
TORSDOF 20
ENDMDL
