MODEL 1
REMARK VINA RESULT:     -13.1      0.000      0.000
REMARK SMILES Cc1ccc(-c2cnnc(-n3nc(C)c4c3NC(=O)C[C@@H]4c3ccc(C(=O)NCCCCCCNC(=O)c4ccc(-c5c6nc(c(-c7cc(S(=O)(=O)[O-])ccc7F)c7ccc([nH]7)c(-c7cc(S(=O)(=O)[O-])ccc7F)c7nc(c(-c8cc(S(=O)(=O)[O-])ccc8F)c8ccc5[nH]8)C=C7)C=C6)cc4)cc3)n2)cc1
REMARK SMILES IDX 31 1 30 2 29 3 28 4 26 5 27 6 25 8 22 9 23 10 102 11 24 12
REMARK SMILES IDX 101 13 21 14 11 15 12 16 16 17 13 18 15 19 17 20 14 21 18 22
REMARK SMILES IDX 20 24 19 25 10 26 6 27 7 28 103 29 8 30 9 31 5 32 1 33 2 34
REMARK SMILES IDX 3 35 105 36 4 37 104 38 32 39 33 40 34 41 35 42 36 43 37 45
REMARK SMILES IDX 38 46 39 47 100 48 40 49 99 50 41 51 42 52 43 53 93 54 44 55
REMARK SMILES IDX 98 56 92 57 94 58 45 59 97 60 91 61 90 62 46 64 78 65 58 66
REMARK SMILES IDX 77 67 59 68 62 69 76 70 95 71 60 72 61 73 75 75 96 76 63 77
REMARK SMILES IDX 47 78 48 79 56 80 49 81 55 82 57 83 54 84 50 85 51 86 52 87
REMARK SMILES IDX 53 88 79 89 80 90 88 91 81 92 87 93 89 94 86 95 82 96 83 97
REMARK SMILES IDX 84 98 85 99 64 100 65 101 73 102 66 103 72 104 74 105 71 106
REMARK SMILES IDX 67 107 68 108 69 109 70 110
REMARK H PARENT 28 7 17 23 35 44 94 63 62 74
REMARK Flexibility Score: inf
ROOT
ATOM      1  C   UNL A   1      36.179  22.673  25.268  1.00  0.00     0.002 C 
ENDROOT
BRANCH   1   2
ATOM      2  C   UNL A   1      35.443  21.407  25.730  1.00  0.00     0.021 C 
BRANCH   2   3
ATOM      3  C   UNL A   1      33.927  21.572  25.843  1.00  0.00     0.116 C 
BRANCH   3   4
ATOM      4  N   UNL A   1      33.229  20.801  24.825  1.00  0.00    -0.352 N 
ATOM      5  C   UNL A   1      32.564  21.190  23.689  1.00  0.00     0.251 C 
ATOM      6  O   UNL A   1      32.199  20.351  22.870  1.00  0.00    -0.269 OA
ATOM      7  H   UNL A   1      33.234  19.828  24.978  1.00  0.00     0.163 HD
BRANCH   5   8
ATOM      8  C   UNL A   1      32.350  22.622  23.385  1.00  0.00     0.039 A 
ATOM      9  C   UNL A   1      32.262  25.410  23.084  1.00  0.00    -0.040 A 
ATOM     10  C   UNL A   1      33.207  24.642  22.378  1.00  0.00     0.005 A 
ATOM     11  C   UNL A   1      31.248  24.733  23.776  1.00  0.00     0.005 A 
ATOM     12  C   UNL A   1      33.247  23.256  22.523  1.00  0.00     0.014 A 
ATOM     13  C   UNL A   1      31.298  23.350  23.935  1.00  0.00     0.014 A 
BRANCH   9  14
ATOM     14  C   UNL A   1      32.438  26.912  23.088  1.00  0.00     0.064 C 
ATOM     15  N   UNL A   1      32.398  28.767  26.191  1.00  0.00    -0.180 N 
ATOM     16  N   UNL A   1      33.332  27.861  26.598  1.00  0.00    -0.168 NA
ATOM     17  C   UNL A   1      31.708  28.238  25.113  1.00  0.00     0.143 A 
ATOM     18  C   UNL A   1      33.549  27.101  25.522  1.00  0.00     0.066 A 
ATOM     19  C   UNL A   1      32.623  27.409  24.485  1.00  0.00     0.026 A 
ATOM     20  N   UNL A   1      30.419  28.352  24.626  1.00  0.00    -0.310 N 
ATOM     21  C   UNL A   1      34.571  26.030  25.629  1.00  0.00     0.069 C 
ATOM     22  C   UNL A   1      30.120  27.781  23.338  1.00  0.00     0.226 C 
ATOM     23  H   UNL A   1      29.722  28.813  25.146  1.00  0.00     0.171 HD
ATOM     24  C   UNL A   1      31.294  27.652  22.396  1.00  0.00     0.113 C 
ATOM     25  O   UNL A   1      28.967  27.567  23.060  1.00  0.00    -0.275 OA
BRANCH  15  26
ATOM     26  C   UNL A   1      32.550  30.146  26.537  1.00  0.00     0.272 A 
ATOM     27  C   UNL A   1      33.462  31.880  27.709  1.00  0.00     0.095 A 
ATOM     28  C   UNL A   1      32.401  32.684  27.329  1.00  0.00     0.164 A 
ATOM     29  N   UNL A   1      33.532  30.560  27.369  1.00  0.00    -0.208 NA
ATOM     30  N   UNL A   1      31.424  32.214  26.545  1.00  0.00    -0.153 NA
ATOM     31  N   UNL A   1      31.530  30.942  26.112  1.00  0.00    -0.109 NA
BRANCH  27  32
ATOM     32  C   UNL A   1      34.615  32.469  28.400  1.00  0.00     0.002 A 
ATOM     33  C   UNL A   1      38.006  34.013  30.610  1.00  0.00     0.044 C 
ATOM     34  C   UNL A   1      36.832  33.458  29.860  1.00  0.00    -0.051 A 
ATOM     35  C   UNL A   1      37.019  32.836  28.622  1.00  0.00     0.004 A 
ATOM     36  C   UNL A   1      35.537  33.570  30.373  1.00  0.00     0.004 A 
ATOM     37  C   UNL A   1      35.925  32.346  27.901  1.00  0.00     0.011 A 
ATOM     38  C   UNL A   1      34.444  33.086  29.649  1.00  0.00     0.011 A 
ENDBRANCH  27  32
ENDBRANCH  15  26
ENDBRANCH   9  14
ENDBRANCH   5   8
ENDBRANCH   3   4
ENDBRANCH   2   3
ENDBRANCH   1   2
BRANCH   1  39
ATOM     39  C   UNL A   1      37.704  22.547  25.114  1.00  0.00     0.002 C 
BRANCH  39  40
ATOM     40  C   UNL A   1      38.472  22.265  26.402  1.00  0.00     0.021 C 
BRANCH  40  41
ATOM     41  C   UNL A   1      39.952  22.582  26.300  1.00  0.00     0.116 C 
BRANCH  41  42
ATOM     42  N   UNL A   1      40.787  21.417  26.051  1.00  0.00    -0.352 N 
ATOM     43  C   UNL A   1      42.164  21.293  26.027  1.00  0.00     0.251 C 
ATOM     44  H   UNL A   1      40.292  20.585  25.870  1.00  0.00     0.163 HD
ATOM     45  O   UNL A   1      42.682  20.306  25.511  1.00  0.00    -0.269 OA
BRANCH  43  46
ATOM     46  C   UNL A   1      43.010  22.236  26.802  1.00  0.00     0.039 A 
ATOM     47  C   UNL A   1      42.893  22.179  28.203  1.00  0.00     0.014 A 
ATOM     48  C   UNL A   1      43.544  23.363  26.197  1.00  0.00     0.014 A 
ATOM     49  C   UNL A   1      43.016  23.345  28.942  1.00  0.00     0.010 A 
ATOM     50  C   UNL A   1      43.457  24.543  26.872  1.00  0.00     0.010 A 
ATOM     51  C   UNL A   1      43.163  24.527  28.233  1.00  0.00    -0.014 A 
BRANCH  51  52
ATOM     52  C   UNL A   1      43.148  25.847  28.802  1.00  0.00     0.031 A 
ATOM     53  C   UNL A   1      41.865  26.562  28.725  1.00  0.00     0.074 A 
ATOM     54  C   UNL A   1      44.207  26.210  29.556  1.00  0.00     0.049 A 
ATOM     55  N   UNL A   1      41.749  27.837  28.753  1.00  0.00    -0.248 NA
ATOM     56  C   UNL A   1      40.579  25.884  28.526  1.00  0.00     0.031 C 
ATOM     57  C   UNL A   1      44.292  27.267  30.553  1.00  0.00     0.029 A 
ATOM     58  N   UNL A   1      45.518  25.760  29.427  1.00  0.00    -0.354 N 
ATOM     59  C   UNL A   1      40.415  28.109  28.968  1.00  0.00     0.074 A 
ATOM     60  C   UNL A   1      39.715  26.894  28.655  1.00  0.00     0.031 C 
ATOM     61  C   UNL A   1      45.588  27.569  30.760  1.00  0.00     0.029 A 
ATOM     62  C   UNL A   1      46.370  26.816  29.790  1.00  0.00     0.049 A 
ATOM     63  H   UNL A   1      45.798  24.862  29.133  1.00  0.00     0.167 HD
ATOM     64  C   UNL A   1      40.093  29.269  29.597  1.00  0.00     0.034 A 
ATOM     65  C   UNL A   1      47.187  27.379  28.847  1.00  0.00     0.034 A 
ATOM     66  C   UNL A   1      41.315  29.991  29.931  1.00  0.00     0.049 A 
ATOM     67  C   UNL A   1      46.763  28.794  28.523  1.00  0.00     0.074 A 
ATOM     68  C   UNL A   1      42.061  30.051  31.098  1.00  0.00     0.029 A 
ATOM     69  N   UNL A   1      42.120  30.467  28.912  1.00  0.00    -0.354 N 
ATOM     70  N   UNL A   1      45.542  29.239  28.658  1.00  0.00    -0.248 NA
ATOM     71  C   UNL A   1      47.696  29.833  28.099  1.00  0.00     0.031 C 
ATOM     72  C   UNL A   1      43.348  30.535  30.757  1.00  0.00     0.029 A 
ATOM     73  C   UNL A   1      43.370  30.779  29.395  1.00  0.00     0.049 A 
ATOM     74  H   UNL A   1      41.838  30.569  27.975  1.00  0.00     0.167 HD
ATOM     75  C   UNL A   1      45.515  30.585  28.391  1.00  0.00     0.074 A 
ATOM     76  C   UNL A   1      46.887  30.905  28.039  1.00  0.00     0.031 C 
ATOM     77  C   UNL A   1      44.375  31.332  28.510  1.00  0.00     0.034 A 
BRANCH  64  78
ATOM     78  C   UNL A   1      38.770  29.630  30.214  1.00  0.00     0.023 A 
ATOM     79  C   UNL A   1      38.802  30.272  31.470  1.00  0.00     0.031 A 
ATOM     80  C   UNL A   1      37.488  29.394  29.689  1.00  0.00     0.131 A 
ATOM     81  C   UNL A   1      37.635  30.583  32.177  1.00  0.00     0.055 A 
ATOM     82  C   UNL A   1      36.314  29.697  30.399  1.00  0.00     0.041 A 
ATOM     83  F   UNL A   1      37.303  28.899  28.459  1.00  0.00    -0.206 F 
ATOM     84  C   UNL A   1      36.384  30.290  31.654  1.00  0.00     0.022 A 
BRANCH  81  85
ATOM     85  S   UNL A   1      37.808  31.365  33.801  1.00  0.00     0.124 S 
ATOM     86  O   UNL A   1      38.871  32.336  33.557  1.00  0.00    -0.237 OA
ATOM     87  O   UNL A   1      36.474  31.910  34.029  1.00  0.00    -0.237 OA
ATOM     88  O   UNL A   1      38.178  30.251  34.672  1.00  0.00    -0.744 OA
ENDBRANCH  81  85
ENDBRANCH  64  78
BRANCH  65  89
ATOM     89  C   UNL A   1      47.695  26.361  27.873  1.00  0.00     0.023 A 
ATOM     90  C   UNL A   1      47.395  26.592  26.512  1.00  0.00     0.031 A 
ATOM     91  C   UNL A   1      48.822  25.578  28.171  1.00  0.00     0.131 A 
ATOM     92  C   UNL A   1      48.321  26.241  25.517  1.00  0.00     0.055 A 
ATOM     93  C   UNL A   1      49.714  25.181  27.165  1.00  0.00     0.041 A 
ATOM     94  F   UNL A   1      49.163  25.326  29.443  1.00  0.00    -0.206 F 
ATOM     95  C   UNL A   1      49.496  25.561  25.839  1.00  0.00     0.022 A 
BRANCH  92  96
ATOM     96  S   UNL A   1      48.073  26.909  23.846  1.00  0.00     0.124 S 
ATOM     97  O   UNL A   1      49.153  27.884  23.740  1.00  0.00    -0.237 OA
ATOM     98  O   UNL A   1      48.210  25.713  23.016  1.00  0.00    -0.237 OA
ATOM     99  O   UNL A   1      46.725  27.471  23.885  1.00  0.00    -0.744 OA
ENDBRANCH  92  96
ENDBRANCH  65  89
BRANCH  77 100
ATOM    100  C   UNL A   1      44.134  32.701  27.912  1.00  0.00     0.023 A 
ATOM    101  C   UNL A   1      44.067  33.857  28.692  1.00  0.00     0.031 A 
ATOM    102  C   UNL A   1      44.041  32.910  26.510  1.00  0.00     0.131 A 
ATOM    103  C   UNL A   1      43.795  35.108  28.119  1.00  0.00     0.055 A 
ATOM    104  C   UNL A   1      43.880  34.172  25.932  1.00  0.00     0.041 A 
ATOM    105  F   UNL A   1      44.117  31.907  25.625  1.00  0.00    -0.206 F 
ATOM    106  C   UNL A   1      43.727  35.283  26.741  1.00  0.00     0.022 A 
BRANCH 103 107
ATOM    107  S   UNL A   1      43.421  36.470  29.244  1.00  0.00     0.124 S 
ATOM    108  O   UNL A   1      44.653  37.252  29.181  1.00  0.00    -0.237 OA
ATOM    109  O   UNL A   1      42.253  37.080  28.617  1.00  0.00    -0.237 OA
ATOM    110  O   UNL A   1      43.170  35.804  30.520  1.00  0.00    -0.744 OA
ENDBRANCH 103 107
ENDBRANCH  77 100
ENDBRANCH  51  52
ENDBRANCH  43  46
ENDBRANCH  41  42
ENDBRANCH  40  41
ENDBRANCH  39  40
ENDBRANCH   1  39
TORSDOF 19
ENDMDL
MODEL 2
REMARK VINA RESULT:     -12.1      2.147      3.826
REMARK SMILES Cc1ccc(-c2cnnc(-n3nc(C)c4c3NC(=O)C[C@@H]4c3ccc(C(=O)NCCCCCCNC(=O)c4ccc(-c5c6nc(c(-c7cc(S(=O)(=O)[O-])ccc7F)c7ccc([nH]7)c(-c7cc(S(=O)(=O)[O-])ccc7F)c7nc(c(-c8cc(S(=O)(=O)[O-])ccc8F)c8ccc5[nH]8)C=C7)C=C6)cc4)cc3)n2)cc1
REMARK SMILES IDX 31 1 30 2 29 3 28 4 26 5 27 6 25 8 22 9 23 10 102 11 24 12
REMARK SMILES IDX 101 13 21 14 11 15 12 16 16 17 13 18 15 19 17 20 14 21 18 22
REMARK SMILES IDX 20 24 19 25 10 26 6 27 7 28 103 29 8 30 9 31 5 32 1 33 2 34
REMARK SMILES IDX 3 35 105 36 4 37 104 38 32 39 33 40 34 41 35 42 36 43 37 45
REMARK SMILES IDX 38 46 39 47 100 48 40 49 99 50 41 51 42 52 43 53 93 54 44 55
REMARK SMILES IDX 98 56 92 57 94 58 45 59 97 60 91 61 90 62 46 64 78 65 58 66
REMARK SMILES IDX 77 67 59 68 62 69 76 70 95 71 60 72 61 73 75 75 96 76 63 77
REMARK SMILES IDX 47 78 48 79 56 80 49 81 55 82 57 83 54 84 50 85 51 86 52 87
REMARK SMILES IDX 53 88 79 89 80 90 88 91 81 92 87 93 89 94 86 95 82 96 83 97
REMARK SMILES IDX 84 98 85 99 64 100 65 101 73 102 66 103 72 104 74 105 71 106
REMARK SMILES IDX 67 107 68 108 69 109 70 110
REMARK H PARENT 28 7 17 23 35 44 94 63 62 74
REMARK Flexibility Score: inf
ROOT
ATOM      1  C   UNL A   1      36.735  20.500  25.051  1.00  0.00     0.002 C 
ENDROOT
BRANCH   1   2
ATOM      2  C   UNL A   1      36.520  19.192  24.275  1.00  0.00     0.021 C 
BRANCH   2   3
ATOM      3  C   UNL A   1      36.094  18.011  25.147  1.00  0.00     0.116 C 
BRANCH   3   4
ATOM      4  N   UNL A   1      34.816  17.463  24.715  1.00  0.00    -0.352 N 
ATOM      5  C   UNL A   1      33.575  18.039  24.598  1.00  0.00     0.251 C 
ATOM      6  O   UNL A   1      32.666  17.434  24.037  1.00  0.00    -0.269 OA
ATOM      7  H   UNL A   1      34.846  16.511  24.463  1.00  0.00     0.163 HD
BRANCH   5   8
ATOM      8  C   UNL A   1      33.331  19.422  25.063  1.00  0.00     0.039 A 
ATOM      9  C   UNL A   1      33.264  22.125  25.809  1.00  0.00    -0.040 A 
ATOM     10  C   UNL A   1      33.015  21.743  24.478  1.00  0.00     0.005 A 
ATOM     11  C   UNL A   1      33.344  21.117  26.779  1.00  0.00     0.005 A 
ATOM     12  C   UNL A   1      33.042  20.399  24.108  1.00  0.00     0.014 A 
ATOM     13  C   UNL A   1      33.389  19.776  26.408  1.00  0.00     0.014 A 
BRANCH   9  14
ATOM     14  C   UNL A   1      33.478  23.596  26.090  1.00  0.00     0.064 C 
ATOM     15  N   UNL A   1      31.088  26.059  24.955  1.00  0.00    -0.180 N 
ATOM     16  N   UNL A   1      30.167  25.264  25.568  1.00  0.00    -0.168 NA
ATOM     17  C   UNL A   1      32.230  25.312  24.716  1.00  0.00     0.143 A 
ATOM     18  C   UNL A   1      30.890  24.296  26.138  1.00  0.00     0.066 A 
ATOM     19  C   UNL A   1      32.253  24.376  25.736  1.00  0.00     0.026 A 
ATOM     20  N   UNL A   1      33.215  25.315  23.747  1.00  0.00    -0.310 N 
ATOM     21  C   UNL A   1      30.168  23.277  26.939  1.00  0.00     0.069 C 
ATOM     22  C   UNL A   1      34.375  24.485  23.946  1.00  0.00     0.226 C 
ATOM     23  H   UNL A   1      33.127  25.871  22.939  1.00  0.00     0.171 HD
ATOM     24  C   UNL A   1      34.707  24.168  25.386  1.00  0.00     0.113 C 
ATOM     25  O   UNL A   1      35.055  24.211  22.989  1.00  0.00    -0.275 OA
BRANCH  15  26
ATOM     26  C   UNL A   1      30.984  27.481  25.065  1.00  0.00     0.272 A 
ATOM     27  C   UNL A   1      30.588  29.579  24.256  1.00  0.00     0.095 A 
ATOM     28  C   UNL A   1      31.239  30.116  25.355  1.00  0.00     0.164 A 
ATOM     29  N   UNL A   1      30.497  28.233  24.051  1.00  0.00    -0.208 NA
ATOM     30  N   UNL A   1      31.749  29.329  26.308  1.00  0.00    -0.153 NA
ATOM     31  N   UNL A   1      31.577  27.998  26.176  1.00  0.00    -0.109 NA
BRANCH  27  32
ATOM     32  C   UNL A   1      29.868  30.461  23.330  1.00  0.00     0.002 A 
ATOM     33  C   UNL A   1      27.548  32.890  20.596  1.00  0.00     0.044 C 
ATOM     34  C   UNL A   1      28.331  32.034  21.545  1.00  0.00    -0.051 A 
ATOM     35  C   UNL A   1      28.459  32.406  22.886  1.00  0.00     0.004 A 
ATOM     36  C   UNL A   1      28.959  30.866  21.103  1.00  0.00     0.004 A 
ATOM     37  C   UNL A   1      29.217  31.628  23.769  1.00  0.00     0.011 A 
ATOM     38  C   UNL A   1      29.721  30.094  21.984  1.00  0.00     0.011 A 
ENDBRANCH  27  32
ENDBRANCH  15  26
ENDBRANCH   9  14
ENDBRANCH   5   8
ENDBRANCH   3   4
ENDBRANCH   2   3
ENDBRANCH   1   2
BRANCH   1  39
ATOM     39  C   UNL A   1      38.175  20.783  25.510  1.00  0.00     0.002 C 
BRANCH  39  40
ATOM     40  C   UNL A   1      38.434  22.197  26.023  1.00  0.00     0.021 C 
BRANCH  40  41
ATOM     41  C   UNL A   1      39.898  22.472  26.311  1.00  0.00     0.116 C 
BRANCH  41  42
ATOM     42  N   UNL A   1      40.775  21.350  26.018  1.00  0.00    -0.352 N 
ATOM     43  C   UNL A   1      42.154  21.257  26.067  1.00  0.00     0.251 C 
ATOM     44  H   UNL A   1      40.314  20.525  25.741  1.00  0.00     0.163 HD
ATOM     45  O   UNL A   1      42.727  20.328  25.504  1.00  0.00    -0.269 OA
BRANCH  43  46
ATOM     46  C   UNL A   1      42.930  22.150  26.966  1.00  0.00     0.039 A 
ATOM     47  C   UNL A   1      42.612  22.092  28.335  1.00  0.00     0.014 A 
ATOM     48  C   UNL A   1      43.601  23.250  26.456  1.00  0.00     0.014 A 
ATOM     49  C   UNL A   1      42.689  23.246  29.099  1.00  0.00     0.010 A 
ATOM     50  C   UNL A   1      43.480  24.430  27.126  1.00  0.00     0.010 A 
ATOM     51  C   UNL A   1      42.995  24.423  28.432  1.00  0.00    -0.014 A 
BRANCH  51  52
ATOM     52  C   UNL A   1      42.968  25.739  29.010  1.00  0.00     0.031 A 
ATOM     53  C   UNL A   1      41.766  26.537  28.724  1.00  0.00     0.074 A 
ATOM     54  C   UNL A   1      43.903  26.029  29.939  1.00  0.00     0.049 A 
ATOM     55  N   UNL A   1      41.728  27.817  28.751  1.00  0.00    -0.248 NA
ATOM     56  C   UNL A   1      40.492  25.946  28.299  1.00  0.00     0.031 C 
ATOM     57  C   UNL A   1      43.884  27.074  30.950  1.00  0.00     0.029 A 
ATOM     58  N   UNL A   1      45.185  25.494  30.029  1.00  0.00    -0.354 N 
ATOM     59  C   UNL A   1      40.397  28.176  28.739  1.00  0.00     0.074 A 
ATOM     60  C   UNL A   1      39.685  27.010  28.293  1.00  0.00     0.031 C 
ATOM     61  C   UNL A   1      45.141  27.290  31.380  1.00  0.00     0.029 A 
ATOM     62  C   UNL A   1      46.029  26.491  30.548  1.00  0.00     0.049 A 
ATOM     63  H   UNL A   1      45.453  24.581  29.774  1.00  0.00     0.167 HD
ATOM     64  C   UNL A   1      40.048  29.352  29.321  1.00  0.00     0.034 A 
ATOM     65  C   UNL A   1      47.029  27.002  29.766  1.00  0.00     0.034 A 
ATOM     66  C   UNL A   1      41.239  29.991  29.870  1.00  0.00     0.049 A 
ATOM     67  C   UNL A   1      46.759  28.443  29.395  1.00  0.00     0.074 A 
ATOM     68  C   UNL A   1      41.775  29.998  31.147  1.00  0.00     0.029 A 
ATOM     69  N   UNL A   1      42.235  30.417  29.010  1.00  0.00    -0.354 N 
ATOM     70  N   UNL A   1      45.564  28.967  29.326  1.00  0.00    -0.248 NA
ATOM     71  C   UNL A   1      47.816  29.419  29.152  1.00  0.00     0.031 C 
ATOM     72  C   UNL A   1      43.130  30.397  31.039  1.00  0.00     0.029 A 
ATOM     73  C   UNL A   1      43.401  30.643  29.704  1.00  0.00     0.049 A 
ATOM     74  H   UNL A   1      42.125  30.540  28.040  1.00  0.00     0.167 HD
ATOM     75  C   UNL A   1      45.670  30.313  29.078  1.00  0.00     0.074 A 
ATOM     76  C   UNL A   1      47.099  30.543  28.970  1.00  0.00     0.031 C 
ATOM     77  C   UNL A   1      44.576  31.133  29.012  1.00  0.00     0.034 A 
BRANCH  64  78
ATOM     78  C   UNL A   1      38.664  29.797  29.708  1.00  0.00     0.023 A 
ATOM     79  C   UNL A   1      38.227  31.039  29.203  1.00  0.00     0.031 A 
ATOM     80  C   UNL A   1      37.746  29.122  30.529  1.00  0.00     0.131 A 
ATOM     81  C   UNL A   1      36.992  31.594  29.558  1.00  0.00     0.055 A 
ATOM     82  C   UNL A   1      36.509  29.678  30.895  1.00  0.00     0.041 A 
ATOM     83  F   UNL A   1      37.976  27.884  30.986  1.00  0.00    -0.206 F 
ATOM     84  C   UNL A   1      36.128  30.925  30.413  1.00  0.00     0.022 A 
BRANCH  81  85
ATOM     85  S   UNL A   1      36.562  33.218  28.880  1.00  0.00     0.124 S 
ATOM     86  O   UNL A   1      35.737  33.780  29.944  1.00  0.00    -0.237 OA
ATOM     87  O   UNL A   1      37.872  33.830  28.685  1.00  0.00    -0.237 OA
ATOM     88  O   UNL A   1      35.844  32.888  27.651  1.00  0.00    -0.744 OA
ENDBRANCH  81  85
ENDBRANCH  64  78
BRANCH  65  89
ATOM     89  C   UNL A   1      47.631  25.957  28.878  1.00  0.00     0.023 A 
ATOM     90  C   UNL A   1      47.185  25.940  27.538  1.00  0.00     0.031 A 
ATOM     91  C   UNL A   1      48.900  25.421  29.153  1.00  0.00     0.131 A 
ATOM     92  C   UNL A   1      48.076  25.612  26.504  1.00  0.00     0.055 A 
ATOM     93  C   UNL A   1      49.763  25.041  28.117  1.00  0.00     0.041 A 
ATOM     94  F   UNL A   1      49.382  25.410  30.404  1.00  0.00    -0.206 F 
ATOM     95  C   UNL A   1      49.375  25.189  26.784  1.00  0.00     0.022 A 
BRANCH  92  96
ATOM     96  S   UNL A   1      47.579  25.988  24.797  1.00  0.00     0.124 S 
ATOM     97  O   UNL A   1      48.861  26.263  24.156  1.00  0.00    -0.237 OA
ATOM     98  O   UNL A   1      46.915  24.750  24.393  1.00  0.00    -0.237 OA
ATOM     99  O   UNL A   1      46.689  27.139  24.933  1.00  0.00    -0.744 OA
ENDBRANCH  92  96
ENDBRANCH  65  89
BRANCH  77 100
ATOM    100  C   UNL A   1      44.529  32.517  28.402  1.00  0.00     0.023 A 
ATOM    101  C   UNL A   1      44.835  33.666  29.131  1.00  0.00     0.031 A 
ATOM    102  C   UNL A   1      44.250  32.729  27.024  1.00  0.00     0.131 A 
ATOM    103  C   UNL A   1      44.739  34.942  28.555  1.00  0.00     0.055 A 
ATOM    104  C   UNL A   1      44.262  33.991  26.426  1.00  0.00     0.041 A 
ATOM    105  F   UNL A   1      43.968  31.725  26.184  1.00  0.00    -0.206 F 
ATOM    106  C   UNL A   1      44.480  35.116  27.200  1.00  0.00     0.022 A 
BRANCH 103 107
ATOM    107  S   UNL A   1      44.848  36.362  29.666  1.00  0.00     0.124 S 
ATOM    108  O   UNL A   1      45.973  35.984  30.519  1.00  0.00    -0.237 OA
ATOM    109  O   UNL A   1      45.099  37.462  28.741  1.00  0.00    -0.237 OA
ATOM    110  O   UNL A   1      43.546  36.384  30.326  1.00  0.00    -0.744 OA
ENDBRANCH 103 107
ENDBRANCH  77 100
ENDBRANCH  51  52
ENDBRANCH  43  46
ENDBRANCH  41  42
ENDBRANCH  40  41
ENDBRANCH  39  40
ENDBRANCH   1  39
TORSDOF 19
ENDMDL
MODEL 3
REMARK VINA RESULT:     -12.1      1.685      2.037
REMARK SMILES Cc1ccc(-c2cnnc(-n3nc(C)c4c3NC(=O)C[C@@H]4c3ccc(C(=O)NCCCCCCNC(=O)c4ccc(-c5c6nc(c(-c7cc(S(=O)(=O)[O-])ccc7F)c7ccc([nH]7)c(-c7cc(S(=O)(=O)[O-])ccc7F)c7nc(c(-c8cc(S(=O)(=O)[O-])ccc8F)c8ccc5[nH]8)C=C7)C=C6)cc4)cc3)n2)cc1
REMARK SMILES IDX 31 1 30 2 29 3 28 4 26 5 27 6 25 8 22 9 23 10 102 11 24 12
REMARK SMILES IDX 101 13 21 14 11 15 12 16 16 17 13 18 15 19 17 20 14 21 18 22
REMARK SMILES IDX 20 24 19 25 10 26 6 27 7 28 103 29 8 30 9 31 5 32 1 33 2 34
REMARK SMILES IDX 3 35 105 36 4 37 104 38 32 39 33 40 34 41 35 42 36 43 37 45
REMARK SMILES IDX 38 46 39 47 100 48 40 49 99 50 41 51 42 52 43 53 93 54 44 55
REMARK SMILES IDX 98 56 92 57 94 58 45 59 97 60 91 61 90 62 46 64 78 65 58 66
REMARK SMILES IDX 77 67 59 68 62 69 76 70 95 71 60 72 61 73 75 75 96 76 63 77
REMARK SMILES IDX 47 78 48 79 56 80 49 81 55 82 57 83 54 84 50 85 51 86 52 87
REMARK SMILES IDX 53 88 79 89 80 90 88 91 81 92 87 93 89 94 86 95 82 96 83 97
REMARK SMILES IDX 84 98 85 99 64 100 65 101 73 102 66 103 72 104 74 105 71 106
REMARK SMILES IDX 67 107 68 108 69 109 70 110
REMARK H PARENT 28 7 17 23 35 44 94 63 62 74
REMARK Flexibility Score: inf
ROOT
ATOM      1  C   UNL A   1      37.159  22.030  25.286  1.00  0.00     0.002 C 
ENDROOT
BRANCH   1   2
ATOM      2  C   UNL A   1      35.802  21.358  25.538  1.00  0.00     0.021 C 
BRANCH   2   3
ATOM      3  C   UNL A   1      35.391  20.354  24.460  1.00  0.00     0.116 C 
BRANCH   3   4
ATOM      4  N   UNL A   1      34.378  19.430  24.950  1.00  0.00    -0.352 N 
ATOM      5  C   UNL A   1      33.026  19.579  25.130  1.00  0.00     0.251 C 
ATOM      6  O   UNL A   1      32.327  18.603  25.387  1.00  0.00    -0.269 OA
ATOM      7  H   UNL A   1      34.724  18.541  25.195  1.00  0.00     0.163 HD
BRANCH   5   8
ATOM      8  C   UNL A   1      32.373  20.893  24.937  1.00  0.00     0.039 A 
ATOM      9  C   UNL A   1      31.529  23.544  24.579  1.00  0.00    -0.040 A 
ATOM     10  C   UNL A   1      31.996  22.788  23.489  1.00  0.00     0.005 A 
ATOM     11  C   UNL A   1      31.309  22.881  25.794  1.00  0.00     0.005 A 
ATOM     12  C   UNL A   1      32.409  21.468  23.665  1.00  0.00     0.014 A 
ATOM     13  C   UNL A   1      31.738  21.569  25.975  1.00  0.00     0.014 A 
BRANCH   9  14
ATOM     14  C   UNL A   1      31.346  25.032  24.377  1.00  0.00     0.064 C 
ATOM     15  N   UNL A   1      32.985  27.406  26.555  1.00  0.00    -0.180 N 
ATOM     16  N   UNL A   1      34.115  26.703  26.264  1.00  0.00    -0.168 NA
ATOM     17  C   UNL A   1      31.884  26.614  26.273  1.00  0.00     0.143 A 
ATOM     18  C   UNL A   1      33.717  25.788  25.376  1.00  0.00     0.066 A 
ATOM     19  C   UNL A   1      32.300  25.794  25.238  1.00  0.00     0.026 A 
ATOM     20  N   UNL A   1      30.609  26.490  26.794  1.00  0.00    -0.310 N 
ATOM     21  C   UNL A   1      34.747  24.877  24.815  1.00  0.00     0.069 C 
ATOM     22  C   UNL A   1      29.661  25.663  26.095  1.00  0.00     0.226 C 
ATOM     23  H   UNL A   1      30.355  26.957  27.623  1.00  0.00     0.171 HD
ATOM     24  C   UNL A   1      29.910  25.497  24.614  1.00  0.00     0.113 C 
ATOM     25  O   UNL A   1      28.691  25.272  26.694  1.00  0.00    -0.275 OA
BRANCH  15  26
ATOM     26  C   UNL A   1      33.036  28.834  26.625  1.00  0.00     0.272 A 
ATOM     27  C   UNL A   1      33.883  30.824  27.357  1.00  0.00     0.095 A 
ATOM     28  C   UNL A   1      32.720  31.458  26.950  1.00  0.00     0.164 A 
ATOM     29  N   UNL A   1      34.046  29.473  27.259  1.00  0.00    -0.208 NA
ATOM     30  N   UNL A   1      31.726  30.774  26.373  1.00  0.00    -0.153 NA
ATOM     31  N   UNL A   1      31.912  29.454  26.172  1.00  0.00    -0.109 NA
BRANCH  27  32
ATOM     32  C   UNL A   1      35.032  31.620  27.803  1.00  0.00     0.002 A 
ATOM     33  C   UNL A   1      38.329  33.959  29.359  1.00  0.00     0.044 C 
ATOM     34  C   UNL A   1      37.179  33.146  28.844  1.00  0.00    -0.051 A 
ATOM     35  C   UNL A   1      37.370  31.809  28.483  1.00  0.00     0.004 A 
ATOM     36  C   UNL A   1      35.910  33.712  28.698  1.00  0.00     0.004 A 
ATOM     37  C   UNL A   1      36.309  31.054  27.970  1.00  0.00     0.011 A 
ATOM     38  C   UNL A   1      34.853  32.960  28.180  1.00  0.00     0.011 A 
ENDBRANCH  27  32
ENDBRANCH  15  26
ENDBRANCH   9  14
ENDBRANCH   5   8
ENDBRANCH   3   4
ENDBRANCH   2   3
ENDBRANCH   1   2
BRANCH   1  39
ATOM     39  C   UNL A   1      37.489  23.238  26.178  1.00  0.00     0.002 C 
BRANCH  39  40
ATOM     40  C   UNL A   1      38.967  23.606  26.263  1.00  0.00     0.021 C 
BRANCH  40  41
ATOM     41  C   UNL A   1      39.750  22.730  27.223  1.00  0.00     0.116 C 
BRANCH  41  42
ATOM     42  N   UNL A   1      40.575  21.729  26.565  1.00  0.00    -0.352 N 
ATOM     43  C   UNL A   1      41.920  21.751  26.244  1.00  0.00     0.251 C 
ATOM     44  H   UNL A   1      40.101  20.906  26.306  1.00  0.00     0.163 HD
ATOM     45  O   UNL A   1      42.370  20.946  25.432  1.00  0.00    -0.269 OA
BRANCH  43  46
ATOM     46  C   UNL A   1      42.859  22.596  27.026  1.00  0.00     0.039 A 
ATOM     47  C   UNL A   1      42.898  22.372  28.414  1.00  0.00     0.014 A 
ATOM     48  C   UNL A   1      43.336  23.787  26.503  1.00  0.00     0.014 A 
ATOM     49  C   UNL A   1      43.116  23.442  29.268  1.00  0.00     0.010 A 
ATOM     50  C   UNL A   1      43.338  24.878  27.318  1.00  0.00     0.010 A 
ATOM     51  C   UNL A   1      43.197  24.700  28.692  1.00  0.00    -0.014 A 
BRANCH  51  52
ATOM     52  C   UNL A   1      43.261  25.943  29.412  1.00  0.00     0.031 A 
ATOM     53  C   UNL A   1      42.060  26.788  29.337  1.00  0.00     0.074 A 
ATOM     54  C   UNL A   1      44.289  26.111  30.271  1.00  0.00     0.049 A 
ATOM     55  N   UNL A   1      42.060  28.057  29.509  1.00  0.00    -0.248 NA
ATOM     56  C   UNL A   1      40.735  26.269  28.977  1.00  0.00     0.031 C 
ATOM     57  C   UNL A   1      44.396  27.035  31.389  1.00  0.00     0.029 A 
ATOM     58  N   UNL A   1      45.559  25.548  30.174  1.00  0.00    -0.354 N 
ATOM     59  C   UNL A   1      40.745  28.436  29.668  1.00  0.00     0.074 A 
ATOM     60  C   UNL A   1      39.961  27.340  29.169  1.00  0.00     0.031 C 
ATOM     61  C   UNL A   1      45.695  27.180  31.714  1.00  0.00     0.029 A 
ATOM     62  C   UNL A   1      46.476  26.466  30.714  1.00  0.00     0.049 A 
ATOM     63  H   UNL A   1      45.776  24.666  29.794  1.00  0.00     0.167 HD
ATOM     64  C   UNL A   1      40.485  29.545  30.409  1.00  0.00     0.034 A 
ATOM     65  C   UNL A   1      47.409  27.046  29.899  1.00  0.00     0.034 A 
ATOM     66  C   UNL A   1      41.740  30.098  30.904  1.00  0.00     0.049 A 
ATOM     67  C   UNL A   1      47.145  28.524  29.719  1.00  0.00     0.074 A 
ATOM     68  C   UNL A   1      42.397  29.952  32.115  1.00  0.00     0.029 A 
ATOM     69  N   UNL A   1      42.661  30.602  30.003  1.00  0.00    -0.354 N 
ATOM     70  N   UNL A   1      45.963  29.071  29.826  1.00  0.00    -0.248 NA
ATOM     71  C   UNL A   1      48.199  29.504  29.482  1.00  0.00     0.031 C 
ATOM     72  C   UNL A   1      43.746  30.338  31.919  1.00  0.00     0.029 A 
ATOM     73  C   UNL A   1      43.894  30.730  30.599  1.00  0.00     0.049 A 
ATOM     74  H   UNL A   1      42.461  30.836  29.069  1.00  0.00     0.167 HD
ATOM     75  C   UNL A   1      46.081  30.435  29.720  1.00  0.00     0.074 A 
ATOM     76  C   UNL A   1      47.500  30.652  29.497  1.00  0.00     0.031 C 
ATOM     77  C   UNL A   1      45.010  31.275  29.853  1.00  0.00     0.034 A 
BRANCH  64  78
ATOM     78  C   UNL A   1      39.158  29.966  30.977  1.00  0.00     0.023 A 
ATOM     79  C   UNL A   1      39.125  31.178  31.698  1.00  0.00     0.031 A 
ATOM     80  C   UNL A   1      37.933  29.285  30.886  1.00  0.00     0.131 A 
ATOM     81  C   UNL A   1      37.967  31.633  32.339  1.00  0.00     0.055 A 
ATOM     82  C   UNL A   1      36.770  29.732  31.535  1.00  0.00     0.041 A 
ATOM     83  F   UNL A   1      37.785  28.183  30.139  1.00  0.00    -0.206 F 
ATOM     84  C   UNL A   1      36.785  30.910  32.273  1.00  0.00     0.022 A 
BRANCH  81  85
ATOM     85  S   UNL A   1      38.064  33.182  33.272  1.00  0.00     0.124 S 
ATOM     86  O   UNL A   1      37.678  32.752  34.612  1.00  0.00    -0.237 OA
ATOM     87  O   UNL A   1      39.459  33.567  33.092  1.00  0.00    -0.237 OA
ATOM     88  O   UNL A   1      37.093  34.041  32.596  1.00  0.00    -0.744 OA
ENDBRANCH  81  85
ENDBRANCH  64  78
BRANCH  65  89
ATOM     89  C   UNL A   1      47.894  26.097  28.846  1.00  0.00     0.023 A 
ATOM     90  C   UNL A   1      47.454  26.348  27.527  1.00  0.00     0.031 A 
ATOM     91  C   UNL A   1      49.095  25.388  29.012  1.00  0.00     0.131 A 
ATOM     92  C   UNL A   1      48.307  26.094  26.441  1.00  0.00     0.055 A 
ATOM     93  C   UNL A   1      49.914  25.086  27.916  1.00  0.00     0.041 A 
ATOM     94  F   UNL A   1      49.568  25.121  30.238  1.00  0.00    -0.206 F 
ATOM     95  C   UNL A   1      49.550  25.491  26.630  1.00  0.00     0.022 A 
BRANCH  92  96
ATOM     96  S   UNL A   1      47.861  26.794  24.824  1.00  0.00     0.124 S 
ATOM     97  O   UNL A   1      47.882  28.228  25.093  1.00  0.00    -0.237 OA
ATOM     98  O   UNL A   1      48.932  26.289  23.967  1.00  0.00    -0.237 OA
ATOM     99  O   UNL A   1      46.542  26.231  24.546  1.00  0.00    -0.744 OA
ENDBRANCH  92  96
ENDBRANCH  65  89
BRANCH  77 100
ATOM    100  C   UNL A   1      44.942  32.720  29.407  1.00  0.00     0.023 A 
ATOM    101  C   UNL A   1      44.736  33.082  28.076  1.00  0.00     0.031 A 
ATOM    102  C   UNL A   1      45.001  33.800  30.328  1.00  0.00     0.131 A 
ATOM    103  C   UNL A   1      44.725  34.428  27.681  1.00  0.00     0.055 A 
ATOM    104  C   UNL A   1      44.878  35.139  29.948  1.00  0.00     0.041 A 
ATOM    105  F   UNL A   1      45.163  33.617  31.645  1.00  0.00    -0.206 F 
ATOM    106  C   UNL A   1      44.767  35.464  28.608  1.00  0.00     0.022 A 
BRANCH 103 107
ATOM    107  S   UNL A   1      44.768  34.771  25.909  1.00  0.00     0.124 S 
ATOM    108  O   UNL A   1      43.406  35.242  25.665  1.00  0.00    -0.237 OA
ATOM    109  O   UNL A   1      45.813  35.785  25.813  1.00  0.00    -0.237 OA
ATOM    110  O   UNL A   1      45.096  33.477  25.315  1.00  0.00    -0.744 OA
ENDBRANCH 103 107
ENDBRANCH  77 100
ENDBRANCH  51  52
ENDBRANCH  43  46
ENDBRANCH  41  42
ENDBRANCH  40  41
ENDBRANCH  39  40
ENDBRANCH   1  39
TORSDOF 19
ENDMDL
