MODEL 1
REMARK VINA RESULT:     -12.0      0.000      0.000
REMARK SMILES Cc1cc(OC(F)(F)F)cc2c1O[C@H](C(F)(F)F)C(C(=O)NCCCCCCNC(=O)c1ccc(-c3c4nc(c(-c5cc(S(=O)(=O)[O-])ccc5F)c5ccc([nH]5)c(-c5cc(S(=O)(=O)[O-])ccc5F)c5nc(c(-c6cc(S(=O)(=O)[O-])ccc6F)c6ccc3[nH]6)C=C5)C=C4)cc1)=C2
REMARK SMILES IDX 26 1 25 2 24 3 23 4 22 5 20 6 21 7 19 9 1 10 2 11 3 12 12 13
REMARK SMILES IDX 4 14 11 15 13 16 10 17 95 18 14 19 5 20 6 21 7 22 8 23 9 24
REMARK SMILES IDX 15 25 16 26 17 27 18 28 27 29 28 30 29 31 30 32 31 34 32 35
REMARK SMILES IDX 33 36 94 37 34 38 93 39 35 40 36 41 37 42 87 43 38 44 92 45
REMARK SMILES IDX 86 46 88 47 39 48 91 49 85 50 84 51 40 53 72 54 52 55 71 56
REMARK SMILES IDX 53 57 56 58 70 59 89 60 54 61 55 62 69 64 90 65 57 66 41 67
REMARK SMILES IDX 42 68 50 69 43 70 49 71 51 72 48 73 44 74 45 75 46 76 47 77
REMARK SMILES IDX 73 78 74 79 82 80 75 81 81 82 83 83 80 84 76 85 77 86 78 87
REMARK SMILES IDX 79 88 58 89 59 90 67 91 60 92 66 93 68 94 65 95 61 96 62 97
REMARK SMILES IDX 63 98 64 99
REMARK H PARENT 22 8 29 33 88 52 56 63
REMARK Flexibility Score: inf
ROOT
ATOM      1  C   UNL A   1      35.590  23.058  23.813  1.00  0.00     0.002 C 
ENDROOT
BRANCH   1   2
ATOM      2  C   UNL A   1      34.244  22.748  23.143  1.00  0.00     0.002 C 
BRANCH   2   3
ATOM      3  C   UNL A   1      33.216  22.059  24.043  1.00  0.00     0.021 C 
BRANCH   3   4
ATOM      4  C   UNL A   1      31.824  22.678  23.960  1.00  0.00     0.116 C 
BRANCH   4   5
ATOM      5  N   UNL A   1      31.208  22.797  25.271  1.00  0.00    -0.352 N 
ATOM      6  C   UNL A   1      30.850  23.797  26.111  1.00  0.00     0.251 C 
ATOM      7  O   UNL A   1      30.297  23.435  27.157  1.00  0.00    -0.270 OA
ATOM      8  H   UNL A   1      30.994  21.914  25.650  1.00  0.00     0.163 HD
BRANCH   6   9
ATOM      9  C   UNL A   1      31.078  25.252  25.865  1.00  0.00     0.067 C 
ATOM     10  C   UNL A   1      32.341  30.246  26.118  1.00  0.00     0.048 C 
ATOM     11  C   UNL A   1      31.425  29.402  25.275  1.00  0.00    -0.005 A 
ATOM     12  C   UNL A   1      30.697  30.010  24.243  1.00  0.00     0.054 A 
ATOM     13  C   UNL A   1      31.283  28.025  25.483  1.00  0.00     0.131 A 
ATOM     14  C   UNL A   1      29.831  29.261  23.442  1.00  0.00     0.130 A 
ATOM     15  C   UNL A   1      30.417  27.263  24.697  1.00  0.00     0.021 A 
ATOM     16  O   UNL A   1      31.983  27.481  26.518  1.00  0.00    -0.475 OA
ATOM     17  C   UNL A   1      29.696  27.887  23.675  1.00  0.00     0.058 A 
ATOM     18  C   UNL A   1      30.244  25.843  24.988  1.00  0.00     0.025 C 
ATOM     19  C   UNL A   1      32.181  26.048  26.502  1.00  0.00     0.314 C 
BRANCH  14  20
ATOM     20  O   UNL A   1      29.065  29.741  22.417  1.00  0.00    -0.406 OA
BRANCH  20  21
ATOM     21  C   UNL A   1      27.733  30.123  22.720  1.00  0.00     0.573 C 
ATOM     22  F   UNL A   1      26.918  29.049  22.788  1.00  0.00    -0.132 F 
ATOM     23  F   UNL A   1      27.672  30.815  23.878  1.00  0.00    -0.132 F 
ATOM     24  F   UNL A   1      27.280  30.927  21.731  1.00  0.00    -0.132 F 
ENDBRANCH  20  21
ENDBRANCH  14  20
BRANCH  19  25
ATOM     25  C   UNL A   1      33.561  25.724  25.899  1.00  0.00     0.429 C 
ATOM     26  F   UNL A   1      34.048  24.570  26.409  1.00  0.00    -0.167 F 
ATOM     27  F   UNL A   1      33.510  25.561  24.555  1.00  0.00    -0.167 F 
ATOM     28  F   UNL A   1      34.468  26.698  26.138  1.00  0.00    -0.167 F 
ENDBRANCH  19  25
ENDBRANCH   6   9
ENDBRANCH   4   5
ENDBRANCH   3   4
ENDBRANCH   2   3
ENDBRANCH   1   2
BRANCH   1  29
ATOM     29  C   UNL A   1      36.381  21.834  24.289  1.00  0.00     0.021 C 
BRANCH  29  30
ATOM     30  C   UNL A   1      36.979  21.979  25.684  1.00  0.00     0.116 C 
BRANCH  30  31
ATOM     31  N   UNL A   1      37.966  20.943  25.948  1.00  0.00    -0.352 N 
ATOM     32  C   UNL A   1      39.297  21.089  26.241  1.00  0.00     0.251 C 
ATOM     33  H   UNL A   1      37.635  20.017  25.910  1.00  0.00     0.163 HD
ATOM     34  O   UNL A   1      40.052  20.121  26.217  1.00  0.00    -0.269 OA
BRANCH  32  35
ATOM     35  C   UNL A   1      39.808  22.427  26.589  1.00  0.00     0.039 A 
ATOM     36  C   UNL A   1      40.747  22.556  27.615  1.00  0.00     0.014 A 
ATOM     37  C   UNL A   1      39.355  23.548  25.886  1.00  0.00     0.014 A 
ATOM     38  C   UNL A   1      41.265  23.817  27.913  1.00  0.00     0.010 A 
ATOM     39  C   UNL A   1      39.909  24.794  26.152  1.00  0.00     0.010 A 
ATOM     40  C   UNL A   1      40.860  24.939  27.173  1.00  0.00    -0.014 A 
BRANCH  40  41
ATOM     41  C   UNL A   1      41.394  26.289  27.459  1.00  0.00     0.031 A 
ATOM     42  C   UNL A   1      42.803  26.624  27.071  1.00  0.00     0.074 A 
ATOM     43  C   UNL A   1      40.641  27.174  28.139  1.00  0.00     0.049 A 
ATOM     44  N   UNL A   1      43.487  27.710  27.314  1.00  0.00    -0.248 NA
ATOM     45  C   UNL A   1      43.548  25.594  26.329  1.00  0.00     0.031 C 
ATOM     46  C   UNL A   1      39.270  26.937  28.589  1.00  0.00     0.029 A 
ATOM     47  N   UNL A   1      40.929  28.437  28.588  1.00  0.00    -0.354 N 
ATOM     48  C   UNL A   1      44.740  27.496  26.757  1.00  0.00     0.074 A 
ATOM     49  C   UNL A   1      44.743  26.155  26.215  1.00  0.00     0.031 C 
ATOM     50  C   UNL A   1      38.834  28.022  29.248  1.00  0.00     0.029 A 
ATOM     51  C   UNL A   1      39.906  29.014  29.301  1.00  0.00     0.049 A 
ATOM     52  H   UNL A   1      41.789  28.888  28.416  1.00  0.00     0.167 HD
ATOM     53  C   UNL A   1      45.786  28.352  26.684  1.00  0.00     0.034 A 
ATOM     54  C   UNL A   1      39.842  30.202  29.936  1.00  0.00     0.034 A 
ATOM     55  C   UNL A   1      45.762  29.686  27.222  1.00  0.00     0.049 A 
ATOM     56  C   UNL A   1      41.029  31.128  29.878  1.00  0.00     0.074 A 
ATOM     57  C   UNL A   1      46.749  30.651  27.151  1.00  0.00     0.029 A 
ATOM     58  N   UNL A   1      44.706  30.241  27.929  1.00  0.00    -0.354 N 
ATOM     59  N   UNL A   1      42.181  30.947  29.275  1.00  0.00    -0.248 NA
ATOM     60  C   UNL A   1      40.916  32.415  30.578  1.00  0.00     0.031 C 
ATOM     61  C   UNL A   1      46.313  31.771  27.859  1.00  0.00     0.029 A 
ATOM     62  C   UNL A   1      45.031  31.527  28.327  1.00  0.00     0.049 A 
ATOM     63  H   UNL A   1      43.853  29.789  28.120  1.00  0.00     0.167 HD
ATOM     64  C   UNL A   1      42.921  32.102  29.505  1.00  0.00     0.074 A 
ATOM     65  C   UNL A   1      42.082  32.982  30.293  1.00  0.00     0.031 C 
ATOM     66  C   UNL A   1      44.181  32.402  29.100  1.00  0.00     0.034 A 
BRANCH  53  67
ATOM     67  C   UNL A   1      47.033  27.895  25.978  1.00  0.00     0.023 A 
ATOM     68  C   UNL A   1      47.166  28.075  24.590  1.00  0.00     0.031 A 
ATOM     69  C   UNL A   1      48.040  27.189  26.661  1.00  0.00     0.131 A 
ATOM     70  C   UNL A   1      48.274  27.535  23.924  1.00  0.00     0.055 A 
ATOM     71  C   UNL A   1      49.158  26.684  25.999  1.00  0.00     0.041 A 
ATOM     72  F   UNL A   1      47.956  26.994  27.986  1.00  0.00    -0.206 F 
ATOM     73  C   UNL A   1      49.274  26.848  24.622  1.00  0.00     0.022 A 
BRANCH  70  74
ATOM     74  S   UNL A   1      48.443  27.670  22.124  1.00  0.00     0.124 S 
ATOM     75  O   UNL A   1      48.679  26.279  21.740  1.00  0.00    -0.237 OA
ATOM     76  O   UNL A   1      47.144  28.213  21.737  1.00  0.00    -0.237 OA
ATOM     77  O   UNL A   1      49.582  28.562  21.944  1.00  0.00    -0.744 OA
ENDBRANCH  70  74
ENDBRANCH  53  67
BRANCH  54  78
ATOM     78  C   UNL A   1      38.574  30.580  30.619  1.00  0.00     0.023 A 
ATOM     79  C   UNL A   1      37.577  31.308  29.944  1.00  0.00     0.031 A 
ATOM     80  C   UNL A   1      38.408  30.340  31.993  1.00  0.00     0.131 A 
ATOM     81  C   UNL A   1      36.494  31.832  30.663  1.00  0.00     0.055 A 
ATOM     82  C   UNL A   1      37.297  30.813  32.692  1.00  0.00     0.041 A 
ATOM     83  F   UNL A   1      39.340  29.661  32.677  1.00  0.00    -0.206 F 
ATOM     84  C   UNL A   1      36.340  31.577  32.029  1.00  0.00     0.022 A 
BRANCH  81  85
ATOM     85  S   UNL A   1      35.309  32.952  29.868  1.00  0.00     0.124 S 
ATOM     86  O   UNL A   1      36.175  33.777  29.031  1.00  0.00    -0.237 OA
ATOM     87  O   UNL A   1      34.451  32.011  29.152  1.00  0.00    -0.237 OA
ATOM     88  O   UNL A   1      34.679  33.640  30.989  1.00  0.00    -0.744 OA
ENDBRANCH  81  85
ENDBRANCH  54  78
BRANCH  66  89
ATOM     89  C   UNL A   1      44.773  33.733  29.487  1.00  0.00     0.023 A 
ATOM     90  C   UNL A   1      44.656  34.831  28.613  1.00  0.00     0.031 A 
ATOM     91  C   UNL A   1      45.613  33.853  30.607  1.00  0.00     0.131 A 
ATOM     92  C   UNL A   1      45.418  35.983  28.842  1.00  0.00     0.055 A 
ATOM     93  C   UNL A   1      46.336  35.020  30.854  1.00  0.00     0.041 A 
ATOM     94  F   UNL A   1      45.760  32.827  31.460  1.00  0.00    -0.206 F 
ATOM     95  C   UNL A   1      46.253  36.086  29.960  1.00  0.00     0.022 A 
BRANCH  92  96
ATOM     96  S   UNL A   1      45.415  37.354  27.655  1.00  0.00     0.124 S 
ATOM     97  O   UNL A   1      45.625  38.511  28.523  1.00  0.00    -0.237 OA
ATOM     98  O   UNL A   1      46.538  37.012  26.788  1.00  0.00    -0.237 OA
ATOM     99  O   UNL A   1      44.095  37.279  27.037  1.00  0.00    -0.744 OA
ENDBRANCH  92  96
ENDBRANCH  66  89
ENDBRANCH  40  41
ENDBRANCH  32  35
ENDBRANCH  30  31
ENDBRANCH  29  30
ENDBRANCH   1  29
TORSDOF 19
ENDMDL
MODEL 2
REMARK VINA RESULT:     -11.8      5.266      8.694
REMARK SMILES Cc1cc(OC(F)(F)F)cc2c1O[C@H](C(F)(F)F)C(C(=O)NCCCCCCNC(=O)c1ccc(-c3c4nc(c(-c5cc(S(=O)(=O)[O-])ccc5F)c5ccc([nH]5)c(-c5cc(S(=O)(=O)[O-])ccc5F)c5nc(c(-c6cc(S(=O)(=O)[O-])ccc6F)c6ccc3[nH]6)C=C5)C=C4)cc1)=C2
REMARK SMILES IDX 26 1 25 2 24 3 23 4 22 5 20 6 21 7 19 9 1 10 2 11 3 12 12 13
REMARK SMILES IDX 4 14 11 15 13 16 10 17 95 18 14 19 5 20 6 21 7 22 8 23 9 24
REMARK SMILES IDX 15 25 16 26 17 27 18 28 27 29 28 30 29 31 30 32 31 34 32 35
REMARK SMILES IDX 33 36 94 37 34 38 93 39 35 40 36 41 37 42 87 43 38 44 92 45
REMARK SMILES IDX 86 46 88 47 39 48 91 49 85 50 84 51 40 53 72 54 52 55 71 56
REMARK SMILES IDX 53 57 56 58 70 59 89 60 54 61 55 62 69 64 90 65 57 66 41 67
REMARK SMILES IDX 42 68 50 69 43 70 49 71 51 72 48 73 44 74 45 75 46 76 47 77
REMARK SMILES IDX 73 78 74 79 82 80 75 81 81 82 83 83 80 84 76 85 77 86 78 87
REMARK SMILES IDX 79 88 58 89 59 90 67 91 60 92 66 93 68 94 65 95 61 96 62 97
REMARK SMILES IDX 63 98 64 99
REMARK H PARENT 22 8 29 33 88 52 56 63
REMARK Flexibility Score: inf
ROOT
ATOM      1  C   UNL A   1      31.607  29.944  25.482  1.00  0.00     0.002 C 
ENDROOT
BRANCH   1   2
ATOM      2  C   UNL A   1      30.688  29.694  24.280  1.00  0.00     0.002 C 
BRANCH   2   3
ATOM      3  C   UNL A   1      31.331  28.931  23.120  1.00  0.00     0.021 C 
BRANCH   3   4
ATOM      4  C   UNL A   1      30.545  27.694  22.696  1.00  0.00     0.116 C 
BRANCH   4   5
ATOM      5  N   UNL A   1      29.930  27.030  23.833  1.00  0.00    -0.352 N 
ATOM      6  C   UNL A   1      30.226  25.999  24.659  1.00  0.00     0.251 C 
ATOM      7  O   UNL A   1      29.403  25.788  25.557  1.00  0.00    -0.270 OA
ATOM      8  H   UNL A   1      29.067  27.442  24.067  1.00  0.00     0.163 HD
BRANCH   6   9
ATOM      9  C   UNL A   1      31.435  25.129  24.551  1.00  0.00     0.067 C 
ATOM     10  C   UNL A   1      35.987  22.982  23.421  1.00  0.00     0.048 C 
ATOM     11  C   UNL A   1      34.689  22.517  24.024  1.00  0.00    -0.005 A 
ATOM     12  C   UNL A   1      34.576  21.187  24.454  1.00  0.00     0.054 A 
ATOM     13  C   UNL A   1      33.592  23.372  24.177  1.00  0.00     0.131 A 
ATOM     14  C   UNL A   1      33.387  20.716  25.014  1.00  0.00     0.130 A 
ATOM     15  C   UNL A   1      32.393  22.917  24.727  1.00  0.00     0.021 A 
ATOM     16  O   UNL A   1      33.733  24.647  23.715  1.00  0.00    -0.475 OA
ATOM     17  C   UNL A   1      32.298  21.587  25.147  1.00  0.00     0.058 A 
ATOM     18  C   UNL A   1      31.250  23.820  24.809  1.00  0.00     0.025 C 
ATOM     19  C   UNL A   1      32.808  25.639  24.216  1.00  0.00     0.314 C 
BRANCH  14  20
ATOM     20  O   UNL A   1      33.153  19.445  25.459  1.00  0.00    -0.406 OA
BRANCH  20  21
ATOM     21  C   UNL A   1      32.851  18.457  24.487  1.00  0.00     0.573 C 
ATOM     22  F   UNL A   1      33.955  17.766  24.131  1.00  0.00    -0.132 F 
ATOM     23  F   UNL A   1      31.905  17.603  24.934  1.00  0.00    -0.132 F 
ATOM     24  F   UNL A   1      32.370  19.072  23.383  1.00  0.00    -0.132 F 
ENDBRANCH  20  21
ENDBRANCH  14  20
BRANCH  19  25
ATOM     25  C   UNL A   1      33.453  26.400  25.390  1.00  0.00     0.429 C 
ATOM     26  F   UNL A   1      33.918  27.603  24.982  1.00  0.00    -0.167 F 
ATOM     27  F   UNL A   1      32.573  26.646  26.390  1.00  0.00    -0.167 F 
ATOM     28  F   UNL A   1      34.485  25.721  25.939  1.00  0.00    -0.167 F 
ENDBRANCH  19  25
ENDBRANCH   6   9
ENDBRANCH   4   5
ENDBRANCH   3   4
ENDBRANCH   2   3
ENDBRANCH   1   2
BRANCH   1  29
ATOM     29  C   UNL A   1      31.400  31.284  26.198  1.00  0.00     0.021 C 
BRANCH  29  30
ATOM     30  C   UNL A   1      32.609  31.761  26.996  1.00  0.00     0.116 C 
BRANCH  30  31
ATOM     31  N   UNL A   1      32.509  33.177  27.314  1.00  0.00    -0.352 N 
ATOM     32  C   UNL A   1      33.239  33.902  28.219  1.00  0.00     0.251 C 
ATOM     33  H   UNL A   1      31.825  33.681  26.814  1.00  0.00     0.163 HD
ATOM     34  O   UNL A   1      32.891  35.034  28.540  1.00  0.00    -0.269 OA
BRANCH  32  35
ATOM     35  C   UNL A   1      34.452  33.299  28.801  1.00  0.00     0.039 A 
ATOM     36  C   UNL A   1      35.706  33.695  28.330  1.00  0.00     0.014 A 
ATOM     37  C   UNL A   1      34.335  32.347  29.819  1.00  0.00     0.014 A 
ATOM     38  C   UNL A   1      36.855  33.159  28.913  1.00  0.00     0.010 A 
ATOM     39  C   UNL A   1      35.481  31.852  30.429  1.00  0.00     0.010 A 
ATOM     40  C   UNL A   1      36.748  32.247  29.974  1.00  0.00    -0.014 A 
BRANCH  40  41
ATOM     41  C   UNL A   1      37.947  31.664  30.618  1.00  0.00     0.031 A 
ATOM     42  C   UNL A   1      38.711  30.583  29.913  1.00  0.00     0.074 A 
ATOM     43  C   UNL A   1      38.289  32.047  31.862  1.00  0.00     0.049 A 
ATOM     44  N   UNL A   1      39.726  29.880  30.342  1.00  0.00    -0.248 NA
ATOM     45  C   UNL A   1      38.263  30.232  28.556  1.00  0.00     0.031 C 
ATOM     46  C   UNL A   1      37.594  33.068  32.645  1.00  0.00     0.029 A 
ATOM     47  N   UNL A   1      39.289  31.609  32.691  1.00  0.00    -0.354 N 
ATOM     48  C   UNL A   1      40.037  29.005  29.311  1.00  0.00     0.074 A 
ATOM     49  C   UNL A   1      39.070  29.223  28.259  1.00  0.00     0.031 C 
ATOM     50  C   UNL A   1      38.193  33.180  33.841  1.00  0.00     0.029 A 
ATOM     51  C   UNL A   1      39.286  32.215  33.924  1.00  0.00     0.049 A 
ATOM     52  H   UNL A   1      39.948  30.925  32.427  1.00  0.00     0.167 HD
ATOM     53  C   UNL A   1      41.056  28.117  29.241  1.00  0.00     0.034 A 
ATOM     54  C   UNL A   1      40.067  32.007  35.004  1.00  0.00     0.034 A 
ATOM     55  C   UNL A   1      42.015  27.919  30.295  1.00  0.00     0.049 A 
ATOM     56  C   UNL A   1      41.173  30.986  34.922  1.00  0.00     0.074 A 
ATOM     57  C   UNL A   1      43.116  27.083  30.299  1.00  0.00     0.029 A 
ATOM     58  N   UNL A   1      41.987  28.556  31.527  1.00  0.00    -0.354 N 
ATOM     59  N   UNL A   1      41.511  30.223  33.909  1.00  0.00    -0.248 NA
ATOM     60  C   UNL A   1      42.004  30.795  36.119  1.00  0.00     0.031 C 
ATOM     61  C   UNL A   1      43.725  27.175  31.551  1.00  0.00     0.029 A 
ATOM     62  C   UNL A   1      43.036  28.108  32.311  1.00  0.00     0.049 A 
ATOM     63  H   UNL A   1      41.321  29.226  31.802  1.00  0.00     0.167 HD
ATOM     64  C   UNL A   1      42.604  29.477  34.338  1.00  0.00     0.074 A 
ATOM     65  C   UNL A   1      42.879  29.889  35.699  1.00  0.00     0.031 C 
ATOM     66  C   UNL A   1      43.311  28.537  33.663  1.00  0.00     0.034 A 
BRANCH  53  67
ATOM     67  C   UNL A   1      41.212  27.310  27.980  1.00  0.00     0.023 A 
ATOM     68  C   UNL A   1      40.883  25.943  27.970  1.00  0.00     0.031 A 
ATOM     69  C   UNL A   1      41.785  27.869  26.824  1.00  0.00     0.131 A 
ATOM     70  C   UNL A   1      41.149  25.174  26.830  1.00  0.00     0.055 A 
ATOM     71  C   UNL A   1      42.015  27.108  25.679  1.00  0.00     0.041 A 
ATOM     72  F   UNL A   1      42.113  29.170  26.787  1.00  0.00    -0.206 F 
ATOM     73  C   UNL A   1      41.705  25.751  25.682  1.00  0.00     0.022 A 
BRANCH  70  74
ATOM     74  S   UNL A   1      40.820  23.392  26.802  1.00  0.00     0.124 S 
ATOM     75  O   UNL A   1      41.750  22.930  25.772  1.00  0.00    -0.237 OA
ATOM     76  O   UNL A   1      41.157  23.000  28.168  1.00  0.00    -0.237 OA
ATOM     77  O   UNL A   1      39.408  23.301  26.447  1.00  0.00    -0.744 OA
ENDBRANCH  70  74
ENDBRANCH  53  67
BRANCH  54  78
ATOM     78  C   UNL A   1      39.846  32.841  36.217  1.00  0.00     0.023 A 
ATOM     79  C   UNL A   1      39.034  32.385  37.272  1.00  0.00     0.031 A 
ATOM     80  C   UNL A   1      40.329  34.159  36.272  1.00  0.00     0.131 A 
ATOM     81  C   UNL A   1      38.670  33.266  38.299  1.00  0.00     0.055 A 
ATOM     82  C   UNL A   1      40.013  35.013  37.328  1.00  0.00     0.041 A 
ATOM     83  F   UNL A   1      41.097  34.637  35.281  1.00  0.00    -0.206 F 
ATOM     84  C   UNL A   1      39.167  34.573  38.341  1.00  0.00     0.022 A 
BRANCH  81  85
ATOM     85  S   UNL A   1      37.455  32.777  39.554  1.00  0.00     0.124 S 
ATOM     86  O   UNL A   1      38.021  31.532  40.064  1.00  0.00    -0.237 OA
ATOM     87  O   UNL A   1      37.505  33.914  40.469  1.00  0.00    -0.237 OA
ATOM     88  O   UNL A   1      36.215  32.640  38.798  1.00  0.00    -0.744 OA
ENDBRANCH  81  85
ENDBRANCH  54  78
BRANCH  66  89
ATOM     89  C   UNL A   1      44.464  27.856  34.355  1.00  0.00     0.023 A 
ATOM     90  C   UNL A   1      44.255  26.637  35.028  1.00  0.00     0.031 A 
ATOM     91  C   UNL A   1      45.698  28.508  34.516  1.00  0.00     0.131 A 
ATOM     92  C   UNL A   1      45.245  26.138  35.882  1.00  0.00     0.055 A 
ATOM     93  C   UNL A   1      46.699  27.982  35.334  1.00  0.00     0.041 A 
ATOM     94  F   UNL A   1      45.936  29.676  33.899  1.00  0.00    -0.206 F 
ATOM     95  C   UNL A   1      46.468  26.801  36.034  1.00  0.00     0.022 A 
BRANCH  92  96
ATOM     96  S   UNL A   1      44.951  24.656  36.885  1.00  0.00     0.124 S 
ATOM     97  O   UNL A   1      46.255  23.998  36.850  1.00  0.00    -0.237 OA
ATOM     98  O   UNL A   1      44.576  25.230  38.175  1.00  0.00    -0.237 OA
ATOM     99  O   UNL A   1      43.887  23.956  36.173  1.00  0.00    -0.744 OA
ENDBRANCH  92  96
ENDBRANCH  66  89
ENDBRANCH  40  41
ENDBRANCH  32  35
ENDBRANCH  30  31
ENDBRANCH  29  30
ENDBRANCH   1  29
TORSDOF 19
ENDMDL
MODEL 3
REMARK VINA RESULT:     -11.5      0.988      7.335
REMARK SMILES Cc1cc(OC(F)(F)F)cc2c1O[C@H](C(F)(F)F)C(C(=O)NCCCCCCNC(=O)c1ccc(-c3c4nc(c(-c5cc(S(=O)(=O)[O-])ccc5F)c5ccc([nH]5)c(-c5cc(S(=O)(=O)[O-])ccc5F)c5nc(c(-c6cc(S(=O)(=O)[O-])ccc6F)c6ccc3[nH]6)C=C5)C=C4)cc1)=C2
REMARK SMILES IDX 26 1 25 2 24 3 23 4 22 5 20 6 21 7 19 9 1 10 2 11 3 12 12 13
REMARK SMILES IDX 4 14 11 15 13 16 10 17 95 18 14 19 5 20 6 21 7 22 8 23 9 24
REMARK SMILES IDX 15 25 16 26 17 27 18 28 27 29 28 30 29 31 30 32 31 34 32 35
REMARK SMILES IDX 33 36 94 37 34 38 93 39 35 40 36 41 37 42 87 43 38 44 92 45
REMARK SMILES IDX 86 46 88 47 39 48 91 49 85 50 84 51 40 53 72 54 52 55 71 56
REMARK SMILES IDX 53 57 56 58 70 59 89 60 54 61 55 62 69 64 90 65 57 66 41 67
REMARK SMILES IDX 42 68 50 69 43 70 49 71 51 72 48 73 44 74 45 75 46 76 47 77
REMARK SMILES IDX 73 78 74 79 82 80 75 81 81 82 83 83 80 84 76 85 77 86 78 87
REMARK SMILES IDX 79 88 58 89 59 90 67 91 60 92 66 93 68 94 65 95 61 96 62 97
REMARK SMILES IDX 63 98 64 99
REMARK H PARENT 22 8 29 33 88 52 56 63
REMARK Flexibility Score: inf
ROOT
ATOM      1  C   UNL A   1      36.677  22.889  23.850  1.00  0.00     0.002 C 
ENDROOT
BRANCH   1   2
ATOM      2  C   UNL A   1      35.303  22.728  23.185  1.00  0.00     0.002 C 
BRANCH   2   3
ATOM      3  C   UNL A   1      34.205  22.171  24.094  1.00  0.00     0.021 C 
BRANCH   3   4
ATOM      4  C   UNL A   1      32.794  22.513  23.623  1.00  0.00     0.116 C 
BRANCH   4   5
ATOM      5  N   UNL A   1      31.842  22.496  24.720  1.00  0.00    -0.352 N 
ATOM      6  C   UNL A   1      31.140  23.404  25.439  1.00  0.00     0.251 C 
ATOM      7  O   UNL A   1      30.383  22.930  26.294  1.00  0.00    -0.270 OA
ATOM      8  H   UNL A   1      31.656  21.578  25.022  1.00  0.00     0.163 HD
BRANCH   6   9
ATOM      9  C   UNL A   1      31.225  24.886  25.272  1.00  0.00     0.067 C 
ATOM     10  C   UNL A   1      31.812  29.976  25.861  1.00  0.00     0.048 C 
ATOM     11  C   UNL A   1      31.154  29.071  24.856  1.00  0.00    -0.005 A 
ATOM     12  C   UNL A   1      30.533  29.637  23.733  1.00  0.00     0.054 A 
ATOM     13  C   UNL A   1      31.149  27.678  25.001  1.00  0.00     0.131 A 
ATOM     14  C   UNL A   1      29.906  28.830  22.781  1.00  0.00     0.130 A 
ATOM     15  C   UNL A   1      30.521  26.858  24.064  1.00  0.00     0.021 A 
ATOM     16  O   UNL A   1      31.734  27.172  26.123  1.00  0.00    -0.475 OA
ATOM     17  C   UNL A   1      29.904  27.440  22.953  1.00  0.00     0.058 A 
ATOM     18  C   UNL A   1      30.479  25.416  24.284  1.00  0.00     0.025 C 
ATOM     19  C   UNL A   1      32.106  25.775  26.103  1.00  0.00     0.314 C 
BRANCH  14  20
ATOM     20  O   UNL A   1      29.262  29.263  21.656  1.00  0.00    -0.406 OA
BRANCH  20  21
ATOM     21  C   UNL A   1      28.395  30.378  21.787  1.00  0.00     0.573 C 
ATOM     22  F   UNL A   1      27.494  30.184  22.774  1.00  0.00    -0.132 F 
ATOM     23  F   UNL A   1      29.087  31.513  22.018  1.00  0.00    -0.132 F 
ATOM     24  F   UNL A   1      27.715  30.533  20.628  1.00  0.00    -0.132 F 
ENDBRANCH  20  21
ENDBRANCH  14  20
BRANCH  19  25
ATOM     25  C   UNL A   1      33.594  25.642  25.729  1.00  0.00     0.429 C 
ATOM     26  F   UNL A   1      33.744  25.545  24.389  1.00  0.00    -0.167 F 
ATOM     27  F   UNL A   1      34.321  26.715  26.123  1.00  0.00    -0.167 F 
ATOM     28  F   UNL A   1      34.171  24.555  26.290  1.00  0.00    -0.167 F 
ENDBRANCH  19  25
ENDBRANCH   6   9
ENDBRANCH   4   5
ENDBRANCH   3   4
ENDBRANCH   2   3
ENDBRANCH   1   2
BRANCH   1  29
ATOM     29  C   UNL A   1      37.197  21.649  24.586  1.00  0.00     0.021 C 
BRANCH  29  30
ATOM     30  C   UNL A   1      38.088  21.960  25.784  1.00  0.00     0.116 C 
BRANCH  30  31
ATOM     31  N   UNL A   1      38.974  20.847  26.089  1.00  0.00    -0.352 N 
ATOM     32  C   UNL A   1      40.309  20.879  26.398  1.00  0.00     0.251 C 
ATOM     33  H   UNL A   1      38.560  19.953  26.069  1.00  0.00     0.163 HD
ATOM     34  O   UNL A   1      40.973  19.847  26.410  1.00  0.00    -0.269 OA
BRANCH  32  35
ATOM     35  C   UNL A   1      40.935  22.175  26.718  1.00  0.00     0.039 A 
ATOM     36  C   UNL A   1      41.240  23.061  25.682  1.00  0.00     0.014 A 
ATOM     37  C   UNL A   1      41.209  22.505  28.048  1.00  0.00     0.014 A 
ATOM     38  C   UNL A   1      41.789  24.307  25.988  1.00  0.00     0.010 A 
ATOM     39  C   UNL A   1      41.710  23.764  28.353  1.00  0.00     0.010 A 
ATOM     40  C   UNL A   1      42.013  24.669  27.325  1.00  0.00    -0.014 A 
BRANCH  40  41
ATOM     41  C   UNL A   1      42.590  25.984  27.685  1.00  0.00     0.031 A 
ATOM     42  C   UNL A   1      41.714  27.029  28.308  1.00  0.00     0.074 A 
ATOM     43  C   UNL A   1      43.870  26.259  27.373  1.00  0.00     0.049 A 
ATOM     44  N   UNL A   1      41.998  28.268  28.609  1.00  0.00    -0.248 NA
ATOM     45  C   UNL A   1      40.328  26.636  28.613  1.00  0.00     0.031 C 
ATOM     46  C   UNL A   1      44.798  25.323  26.740  1.00  0.00     0.029 A 
ATOM     47  N   UNL A   1      44.602  27.409  27.526  1.00  0.00    -0.354 N 
ATOM     48  C   UNL A   1      40.831  28.803  29.137  1.00  0.00     0.074 A 
ATOM     49  C   UNL A   1      39.818  27.774  29.063  1.00  0.00     0.031 C 
ATOM     50  C   UNL A   1      45.979  25.936  26.561  1.00  0.00     0.029 A 
ATOM     51  C   UNL A   1      45.881  27.316  27.031  1.00  0.00     0.049 A 
ATOM     52  H   UNL A   1      44.246  28.223  27.951  1.00  0.00     0.167 HD
ATOM     53  C   UNL A   1      40.633  30.035  29.661  1.00  0.00     0.034 A 
ATOM     54  C   UNL A   1      46.858  28.242  26.951  1.00  0.00     0.034 A 
ATOM     55  C   UNL A   1      41.655  31.044  29.735  1.00  0.00     0.049 A 
ATOM     56  C   UNL A   1      46.608  29.621  27.504  1.00  0.00     0.074 A 
ATOM     57  C   UNL A   1      41.570  32.304  30.297  1.00  0.00     0.029 A 
ATOM     58  N   UNL A   1      42.941  30.913  29.232  1.00  0.00    -0.354 N 
ATOM     59  N   UNL A   1      45.524  30.089  28.080  1.00  0.00    -0.248 NA
ATOM     60  C   UNL A   1      47.701  30.597  27.403  1.00  0.00     0.031 C 
ATOM     61  C   UNL A   1      42.786  32.955  30.088  1.00  0.00     0.029 A 
ATOM     62  C   UNL A   1      43.650  32.083  29.444  1.00  0.00     0.049 A 
ATOM     63  H   UNL A   1      43.296  30.109  28.790  1.00  0.00     0.167 HD
ATOM     64  C   UNL A   1      45.812  31.405  28.426  1.00  0.00     0.074 A 
ATOM     65  C   UNL A   1      47.176  31.656  28.008  1.00  0.00     0.031 C 
ATOM     66  C   UNL A   1      45.015  32.319  29.036  1.00  0.00     0.034 A 
BRANCH  53  67
ATOM     67  C   UNL A   1      39.275  30.360  30.223  1.00  0.00     0.023 A 
ATOM     68  C   UNL A   1      38.323  31.027  29.431  1.00  0.00     0.031 A 
ATOM     69  C   UNL A   1      38.963  30.103  31.570  1.00  0.00     0.131 A 
ATOM     70  C   UNL A   1      37.110  31.435  30.002  1.00  0.00     0.055 A 
ATOM     71  C   UNL A   1      37.740  30.479  32.124  1.00  0.00     0.041 A 
ATOM     72  F   UNL A   1      39.840  29.467  32.363  1.00  0.00    -0.206 F 
ATOM     73  C   UNL A   1      36.811  31.157  31.341  1.00  0.00     0.022 A 
BRANCH  70  74
ATOM     74  S   UNL A   1      35.891  32.372  29.042  1.00  0.00     0.124 S 
ATOM     75  O   UNL A   1      36.590  33.638  28.824  1.00  0.00    -0.237 OA
ATOM     76  O   UNL A   1      35.730  31.535  27.857  1.00  0.00    -0.237 OA
ATOM     77  O   UNL A   1      34.733  32.449  29.925  1.00  0.00    -0.744 OA
ENDBRANCH  70  74
ENDBRANCH  53  67
BRANCH  54  78
ATOM     78  C   UNL A   1      48.173  27.845  26.376  1.00  0.00     0.023 A 
ATOM     79  C   UNL A   1      48.408  27.914  24.991  1.00  0.00     0.031 A 
ATOM     80  C   UNL A   1      49.158  27.260  27.189  1.00  0.00     0.131 A 
ATOM     81  C   UNL A   1      49.568  27.339  24.454  1.00  0.00     0.055 A 
ATOM     82  C   UNL A   1      50.339  26.744  26.655  1.00  0.00     0.041 A 
ATOM     83  F   UNL A   1      48.969  27.164  28.514  1.00  0.00    -0.206 F 
ATOM     84  C   UNL A   1      50.542  26.768  25.279  1.00  0.00     0.022 A 
BRANCH  81  85
ATOM     85  S   UNL A   1      49.798  27.220  22.658  1.00  0.00     0.124 S 
ATOM     86  O   UNL A   1      48.746  26.284  22.273  1.00  0.00    -0.237 OA
ATOM     87  O   UNL A   1      49.592  28.606  22.244  1.00  0.00    -0.237 OA
ATOM     88  O   UNL A   1      51.162  26.724  22.517  1.00  0.00    -0.744 OA
ENDBRANCH  81  85
ENDBRANCH  54  78
BRANCH  66  89
ATOM     89  C   UNL A   1      45.561  33.699  29.302  1.00  0.00     0.023 A 
ATOM     90  C   UNL A   1      45.410  34.709  28.333  1.00  0.00     0.031 A 
ATOM     91  C   UNL A   1      46.391  33.947  30.407  1.00  0.00     0.131 A 
ATOM     92  C   UNL A   1      46.131  35.902  28.458  1.00  0.00     0.055 A 
ATOM     93  C   UNL A   1      47.073  35.156  30.549  1.00  0.00     0.041 A 
ATOM     94  F   UNL A   1      46.570  33.007  31.349  1.00  0.00    -0.206 F 
ATOM     95  C   UNL A   1      46.958  36.133  29.564  1.00  0.00     0.022 A 
BRANCH  92  96
ATOM     96  S   UNL A   1      46.085  37.161  27.153  1.00  0.00     0.124 S 
ATOM     97  O   UNL A   1      46.863  38.246  27.747  1.00  0.00    -0.237 OA
ATOM     98  O   UNL A   1      46.727  36.470  26.039  1.00  0.00    -0.237 OA
ATOM     99  O   UNL A   1      44.663  37.441  26.987  1.00  0.00    -0.744 OA
ENDBRANCH  92  96
ENDBRANCH  66  89
ENDBRANCH  40  41
ENDBRANCH  32  35
ENDBRANCH  30  31
ENDBRANCH  29  30
ENDBRANCH   1  29
TORSDOF 19
ENDMDL
