MODEL 1
REMARK VINA RESULT:     -12.3      0.000      0.000
REMARK SMILES CC(C)c1ccc([C@]2(C(=O)NCCCCCCNC(=O)c3ccc(-c4c5nc(c(-c6cc(S(=O)(=O)[O-])ccc6F)c6ccc([nH]6)c(-c6cc(S(=O)(=O)[O-])ccc6F)c6nc(c(-c7cc(S(=O)(=O)[O-])ccc7F)c7ccc4[nH]7)C=C6)C=C5)cc3)CCC[C@@H]2C)cc1
REMARK SMILES IDX 15 1 14 2 13 3 12 4 11 5 9 6 10 7 8 9 84 10 87 11 85 12
REMARK SMILES IDX 86 13 88 14 7 15 4 16 5 17 90 18 6 19 89 20 2 21 1 22 3 23
REMARK SMILES IDX 16 24 17 25 18 26 19 27 20 29 21 30 22 31 83 32 23 33 82 34
REMARK SMILES IDX 24 35 25 36 26 37 76 38 27 39 81 40 75 41 77 42 28 43 80 44
REMARK SMILES IDX 74 45 73 46 29 48 61 49 41 50 60 51 42 52 45 53 59 54 78 55
REMARK SMILES IDX 43 56 44 57 58 59 79 60 46 61 30 62 31 63 39 64 32 65 38 66
REMARK SMILES IDX 40 67 37 68 33 69 34 70 35 71 36 72 62 73 63 74 71 75 64 76
REMARK SMILES IDX 70 77 72 78 69 79 65 80 66 81 67 82 68 83 47 84 48 85 56 86
REMARK SMILES IDX 49 87 55 88 57 89 54 90 50 91 51 92 52 93 53 94
REMARK H PARENT 11 8 18 28 77 47 45 58
REMARK Flexibility Score: inf
ROOT
ATOM      1  C   UNL A   1      33.383  22.055  26.018  1.00  0.00     0.002 C 
ENDROOT
BRANCH   1   2
ATOM      2  C   UNL A   1      33.272  22.243  24.500  1.00  0.00     0.002 C 
BRANCH   2   3
ATOM      3  C   UNL A   1      31.866  22.123  23.918  1.00  0.00     0.021 C 
BRANCH   3   4
ATOM      4  C   UNL A   1      31.098  23.429  23.812  1.00  0.00     0.116 C 
BRANCH   4   5
ATOM      5  N   UNL A   1      30.754  24.043  25.067  1.00  0.00    -0.355 N 
ATOM      6  C   UNL A   1      30.806  25.333  25.498  1.00  0.00     0.230 C 
ATOM      7  O   UNL A   1      30.047  25.545  26.456  1.00  0.00    -0.274 OA
ATOM      8  H   UNL A   1      30.416  23.411  25.741  1.00  0.00     0.163 HD
BRANCH   6   9
ATOM      9  C   UNL A   1      31.740  26.500  24.918  1.00  0.00     0.077 C 
ATOM     10  C   UNL A   1      32.609  27.175  26.014  1.00  0.00     0.022 C 
ATOM     11  C   UNL A   1      32.832  25.999  23.889  1.00  0.00     0.006 C 
ATOM     12  C   UNL A   1      34.054  26.681  25.867  1.00  0.00     0.002 C 
ATOM     13  C   UNL A   1      34.071  25.665  24.728  1.00  0.00     0.005 C 
ATOM     14  C   UNL A   1      33.363  26.994  22.831  1.00  0.00     0.009 C 
BRANCH   9  15
ATOM     15  C   UNL A   1      30.731  27.522  24.309  1.00  0.00    -0.032 A 
ATOM     16  C   UNL A   1      28.894  29.381  23.172  1.00  0.00    -0.045 A 
ATOM     17  C   UNL A   1      28.663  28.006  23.093  1.00  0.00     0.004 A 
ATOM     18  C   UNL A   1      30.001  29.822  23.907  1.00  0.00     0.004 A 
ATOM     19  C   UNL A   1      29.540  27.099  23.694  1.00  0.00     0.005 A 
ATOM     20  C   UNL A   1      30.904  28.908  24.465  1.00  0.00     0.005 A 
BRANCH  16  21
ATOM     21  C   UNL A   1      27.958  30.341  22.464  1.00  0.00     0.013 C 
ATOM     22  C   UNL A   1      27.648  31.577  23.309  1.00  0.00     0.012 C 
ATOM     23  C   UNL A   1      28.516  30.736  21.094  1.00  0.00     0.012 C 
ENDBRANCH  16  21
ENDBRANCH   9  15
ENDBRANCH   6   9
ENDBRANCH   4   5
ENDBRANCH   3   4
ENDBRANCH   2   3
ENDBRANCH   1   2
BRANCH   1  24
ATOM     24  C   UNL A   1      34.804  22.013  26.591  1.00  0.00     0.021 C 
BRANCH  24  25
ATOM     25  C   UNL A   1      35.916  22.330  25.594  1.00  0.00     0.116 C 
BRANCH  25  26
ATOM     26  N   UNL A   1      36.875  21.242  25.486  1.00  0.00    -0.352 N 
ATOM     27  C   UNL A   1      38.239  21.252  25.650  1.00  0.00     0.251 C 
ATOM     28  H   UNL A   1      36.488  20.365  25.262  1.00  0.00     0.163 HD
ATOM     29  O   UNL A   1      38.902  20.290  25.282  1.00  0.00    -0.269 OA
BRANCH  27  30
ATOM     30  C   UNL A   1      38.899  22.429  26.254  1.00  0.00     0.039 A 
ATOM     31  C   UNL A   1      40.009  22.233  27.079  1.00  0.00     0.014 A 
ATOM     32  C   UNL A   1      38.422  23.720  26.012  1.00  0.00     0.014 A 
ATOM     33  C   UNL A   1      40.686  23.337  27.602  1.00  0.00     0.010 A 
ATOM     34  C   UNL A   1      39.136  24.821  26.481  1.00  0.00     0.010 A 
ATOM     35  C   UNL A   1      40.282  24.640  27.270  1.00  0.00    -0.014 A 
BRANCH  35  36
ATOM     36  C   UNL A   1      41.072  25.826  27.698  1.00  0.00     0.031 A 
ATOM     37  C   UNL A   1      40.403  26.964  28.418  1.00  0.00     0.074 A 
ATOM     38  C   UNL A   1      42.374  25.907  27.355  1.00  0.00     0.049 A 
ATOM     39  N   UNL A   1      40.900  28.119  28.776  1.00  0.00    -0.248 NA
ATOM     40  C   UNL A   1      38.981  26.791  28.760  1.00  0.00     0.031 C 
ATOM     41  C   UNL A   1      43.120  24.878  26.624  1.00  0.00     0.029 A 
ATOM     42  N   UNL A   1      43.301  26.902  27.553  1.00  0.00    -0.354 N 
ATOM     43  C   UNL A   1      39.853  28.820  29.365  1.00  0.00     0.074 A 
ATOM     44  C   UNL A   1      38.683  27.971  29.285  1.00  0.00     0.031 C 
ATOM     45  C   UNL A   1      44.384  25.290  26.445  1.00  0.00     0.029 A 
ATOM     46  C   UNL A   1      44.530  26.634  26.993  1.00  0.00     0.049 A 
ATOM     47  H   UNL A   1      43.103  27.728  28.051  1.00  0.00     0.167 HD
ATOM     48  C   UNL A   1      39.874  30.053  29.926  1.00  0.00     0.034 A 
ATOM     49  C   UNL A   1      45.638  27.397  26.899  1.00  0.00     0.034 A 
ATOM     50  C   UNL A   1      41.058  30.872  30.014  1.00  0.00     0.049 A 
ATOM     51  C   UNL A   1      45.618  28.782  27.502  1.00  0.00     0.074 A 
ATOM     52  C   UNL A   1      41.210  32.091  30.654  1.00  0.00     0.029 A 
ATOM     53  N   UNL A   1      42.281  30.573  29.431  1.00  0.00    -0.354 N 
ATOM     54  N   UNL A   1      44.642  29.389  28.138  1.00  0.00    -0.248 NA
ATOM     55  C   UNL A   1      46.843  29.582  27.378  1.00  0.00     0.031 C 
ATOM     56  C   UNL A   1      42.494  32.570  30.380  1.00  0.00     0.029 A 
ATOM     57  C   UNL A   1      43.174  31.612  29.645  1.00  0.00     0.049 A 
ATOM     58  H   UNL A   1      42.485  29.746  28.939  1.00  0.00     0.167 HD
ATOM     59  C   UNL A   1      45.148  30.632  28.509  1.00  0.00     0.074 A 
ATOM     60  C   UNL A   1      46.520  30.677  28.048  1.00  0.00     0.031 C 
ATOM     61  C   UNL A   1      44.535  31.647  29.167  1.00  0.00     0.034 A 
BRANCH  48  62
ATOM     62  C   UNL A   1      38.579  30.616  30.457  1.00  0.00     0.023 A 
ATOM     63  C   UNL A   1      37.690  31.341  29.646  1.00  0.00     0.031 A 
ATOM     64  C   UNL A   1      38.212  30.387  31.797  1.00  0.00     0.131 A 
ATOM     65  C   UNL A   1      36.500  31.847  30.192  1.00  0.00     0.055 A 
ATOM     66  C   UNL A   1      36.996  30.833  32.315  1.00  0.00     0.041 A 
ATOM     67  F   UNL A   1      39.033  29.721  32.624  1.00  0.00    -0.206 F 
ATOM     68  C   UNL A   1      36.134  31.575  31.513  1.00  0.00     0.022 A 
BRANCH  65  69
ATOM     69  S   UNL A   1      35.481  32.955  29.181  1.00  0.00     0.124 S 
ATOM     70  O   UNL A   1      35.519  32.287  27.882  1.00  0.00    -0.237 OA
ATOM     71  O   UNL A   1      34.199  32.927  29.876  1.00  0.00    -0.237 OA
ATOM     72  O   UNL A   1      36.195  34.228  29.240  1.00  0.00    -0.744 OA
ENDBRANCH  65  69
ENDBRANCH  48  62
BRANCH  49  73
ATOM     73  C   UNL A   1      46.845  26.908  26.167  1.00  0.00     0.023 A 
ATOM     74  C   UNL A   1      47.886  26.252  26.843  1.00  0.00     0.031 A 
ATOM     75  C   UNL A   1      47.013  27.162  24.794  1.00  0.00     0.131 A 
ATOM     76  C   UNL A   1      49.073  25.935  26.163  1.00  0.00     0.055 A 
ATOM     77  C   UNL A   1      48.168  26.781  24.105  1.00  0.00     0.041 A 
ATOM     78  F   UNL A   1      46.054  27.788  24.094  1.00  0.00    -0.206 F 
ATOM     79  C   UNL A   1      49.214  26.181  24.797  1.00  0.00     0.022 A 
BRANCH  76  80
ATOM     80  S   UNL A   1      50.483  25.322  27.126  1.00  0.00     0.124 S 
ATOM     81  O   UNL A   1      50.856  26.507  27.890  1.00  0.00    -0.237 OA
ATOM     82  O   UNL A   1      49.880  24.232  27.884  1.00  0.00    -0.237 OA
ATOM     83  O   UNL A   1      51.441  24.912  26.101  1.00  0.00    -0.744 OA
ENDBRANCH  76  80
ENDBRANCH  49  73
BRANCH  61  84
ATOM     84  C   UNL A   1      45.357  32.879  29.453  1.00  0.00     0.023 A 
ATOM     85  C   UNL A   1      45.380  33.970  28.566  1.00  0.00     0.031 A 
ATOM     86  C   UNL A   1      46.117  32.969  30.633  1.00  0.00     0.131 A 
ATOM     87  C   UNL A   1      46.183  35.085  28.852  1.00  0.00     0.055 A 
ATOM     88  C   UNL A   1      46.863  34.107  30.942  1.00  0.00     0.041 A 
ATOM     89  F   UNL A   1      46.134  31.955  31.513  1.00  0.00    -0.206 F 
ATOM     90  C   UNL A   1      46.907  35.168  30.044  1.00  0.00     0.022 A 
BRANCH  87  91
ATOM     91  S   UNL A   1      46.325  36.397  27.609  1.00  0.00     0.124 S 
ATOM     92  O   UNL A   1      46.953  37.471  28.373  1.00  0.00    -0.237 OA
ATOM     93  O   UNL A   1      47.159  35.772  26.587  1.00  0.00    -0.237 OA
ATOM     94  O   UNL A   1      44.941  36.645  27.211  1.00  0.00    -0.744 OA
ENDBRANCH  87  91
ENDBRANCH  61  84
ENDBRANCH  35  36
ENDBRANCH  27  30
ENDBRANCH  25  26
ENDBRANCH  24  25
ENDBRANCH   1  24
TORSDOF 18
ENDMDL
MODEL 2
REMARK VINA RESULT:     -12.2      5.521     10.058
REMARK SMILES CC(C)c1ccc([C@]2(C(=O)NCCCCCCNC(=O)c3ccc(-c4c5nc(c(-c6cc(S(=O)(=O)[O-])ccc6F)c6ccc([nH]6)c(-c6cc(S(=O)(=O)[O-])ccc6F)c6nc(c(-c7cc(S(=O)(=O)[O-])ccc7F)c7ccc4[nH]7)C=C6)C=C5)cc3)CCC[C@@H]2C)cc1
REMARK SMILES IDX 15 1 14 2 13 3 12 4 11 5 9 6 10 7 8 9 84 10 87 11 85 12
REMARK SMILES IDX 86 13 88 14 7 15 4 16 5 17 90 18 6 19 89 20 2 21 1 22 3 23
REMARK SMILES IDX 16 24 17 25 18 26 19 27 20 29 21 30 22 31 83 32 23 33 82 34
REMARK SMILES IDX 24 35 25 36 26 37 76 38 27 39 81 40 75 41 77 42 28 43 80 44
REMARK SMILES IDX 74 45 73 46 29 48 61 49 41 50 60 51 42 52 45 53 59 54 78 55
REMARK SMILES IDX 43 56 44 57 58 59 79 60 46 61 30 62 31 63 39 64 32 65 38 66
REMARK SMILES IDX 40 67 37 68 33 69 34 70 35 71 36 72 62 73 63 74 71 75 64 76
REMARK SMILES IDX 70 77 72 78 69 79 65 80 66 81 67 82 68 83 47 84 48 85 56 86
REMARK SMILES IDX 49 87 55 88 57 89 54 90 50 91 51 92 52 93 53 94
REMARK H PARENT 11 8 18 28 77 47 45 58
REMARK Flexibility Score: inf
ROOT
ATOM      1  C   UNL A   1      31.739  29.885  27.274  1.00  0.00     0.002 C 
ENDROOT
BRANCH   1   2
ATOM      2  C   UNL A   1      32.032  28.722  26.317  1.00  0.00     0.002 C 
BRANCH   2   3
ATOM      3  C   UNL A   1      33.508  28.431  26.061  1.00  0.00     0.021 C 
BRANCH   3   4
ATOM      4  C   UNL A   1      33.833  26.984  25.730  1.00  0.00     0.116 C 
BRANCH   4   5
ATOM      5  N   UNL A   1      33.767  26.643  24.335  1.00  0.00    -0.355 N 
ATOM      6  C   UNL A   1      32.720  26.375  23.507  1.00  0.00     0.230 C 
ATOM      7  O   UNL A   1      33.006  26.543  22.311  1.00  0.00    -0.274 OA
ATOM      8  H   UNL A   1      34.646  26.594  23.894  1.00  0.00     0.163 HD
BRANCH   6   9
ATOM      9  C   UNL A   1      31.265  25.860  23.939  1.00  0.00     0.077 C 
ATOM     10  C   UNL A   1      30.823  24.588  23.165  1.00  0.00     0.022 C 
ATOM     11  C   UNL A   1      31.171  25.384  25.444  1.00  0.00     0.006 C 
ATOM     12  C   UNL A   1      30.939  23.380  24.103  1.00  0.00     0.002 C 
ATOM     13  C   UNL A   1      31.502  23.888  25.428  1.00  0.00     0.005 C 
ATOM     14  C   UNL A   1      29.799  25.448  26.156  1.00  0.00     0.009 C 
BRANCH   9  15
ATOM     15  C   UNL A   1      30.327  27.062  23.605  1.00  0.00    -0.032 A 
ATOM     16  C   UNL A   1      28.609  29.246  22.972  1.00  0.00    -0.045 A 
ATOM     17  C   UNL A   1      28.091  27.967  23.193  1.00  0.00     0.004 A 
ATOM     18  C   UNL A   1      29.981  29.443  23.163  1.00  0.00     0.004 A 
ATOM     19  C   UNL A   1      28.931  26.910  23.551  1.00  0.00     0.005 A 
ATOM     20  C   UNL A   1      30.826  28.369  23.474  1.00  0.00     0.005 A 
BRANCH  16  21
ATOM     21  C   UNL A   1      27.685  30.364  22.529  1.00  0.00     0.013 C 
ATOM     22  C   UNL A   1      27.647  31.516  23.533  1.00  0.00     0.012 C 
ATOM     23  C   UNL A   1      28.062  30.862  21.132  1.00  0.00     0.012 C 
ENDBRANCH  16  21
ENDBRANCH   9  15
ENDBRANCH   6   9
ENDBRANCH   4   5
ENDBRANCH   3   4
ENDBRANCH   2   3
ENDBRANCH   1   2
BRANCH   1  24
ATOM     24  C   UNL A   1      31.855  31.293  26.679  1.00  0.00     0.021 C 
BRANCH  24  25
ATOM     25  C   UNL A   1      33.068  32.096  27.140  1.00  0.00     0.116 C 
BRANCH  25  26
ATOM     26  N   UNL A   1      32.717  33.467  27.477  1.00  0.00    -0.352 N 
ATOM     27  C   UNL A   1      33.170  34.265  28.498  1.00  0.00     0.251 C 
ATOM     28  H   UNL A   1      32.054  33.885  26.882  1.00  0.00     0.163 HD
ATOM     29  O   UNL A   1      32.580  35.306  28.763  1.00  0.00    -0.269 OA
BRANCH  27  30
ATOM     30  C   UNL A   1      34.356  33.857  29.282  1.00  0.00     0.039 A 
ATOM     31  C   UNL A   1      34.184  32.998  30.369  1.00  0.00     0.014 A 
ATOM     32  C   UNL A   1      35.629  34.328  28.951  1.00  0.00     0.014 A 
ATOM     33  C   UNL A   1      35.302  32.548  31.079  1.00  0.00     0.010 A 
ATOM     34  C   UNL A   1      36.746  33.830  29.617  1.00  0.00     0.010 A 
ATOM     35  C   UNL A   1      36.594  32.925  30.680  1.00  0.00    -0.014 A 
BRANCH  35  36
ATOM     36  C   UNL A   1      37.801  32.347  31.329  1.00  0.00     0.031 A 
ATOM     37  C   UNL A   1      38.552  31.223  30.671  1.00  0.00     0.074 A 
ATOM     38  C   UNL A   1      38.161  32.783  32.554  1.00  0.00     0.049 A 
ATOM     39  N   UNL A   1      39.559  30.524  31.128  1.00  0.00    -0.248 NA
ATOM     40  C   UNL A   1      38.098  30.813  29.332  1.00  0.00     0.031 C 
ATOM     41  C   UNL A   1      37.483  33.845  33.304  1.00  0.00     0.029 A 
ATOM     42  N   UNL A   1      39.168  32.381  33.397  1.00  0.00    -0.354 N 
ATOM     43  C   UNL A   1      39.846  29.581  30.148  1.00  0.00     0.074 A 
ATOM     44  C   UNL A   1      38.885  29.775  29.085  1.00  0.00     0.031 C 
ATOM     45  C   UNL A   1      38.097  34.014  34.485  1.00  0.00     0.029 A 
ATOM     46  C   UNL A   1      39.175  33.037  34.607  1.00  0.00     0.049 A 
ATOM     47  H   UNL A   1      39.825  31.688  33.156  1.00  0.00     0.167 HD
ATOM     48  C   UNL A   1      40.829  28.647  30.139  1.00  0.00     0.034 A 
ATOM     49  C   UNL A   1      39.936  32.852  35.705  1.00  0.00     0.034 A 
ATOM     50  C   UNL A   1      41.791  28.487  31.201  1.00  0.00     0.049 A 
ATOM     51  C   UNL A   1      40.998  31.778  35.676  1.00  0.00     0.074 A 
ATOM     52  C   UNL A   1      42.888  27.643  31.243  1.00  0.00     0.029 A 
ATOM     53  N   UNL A   1      41.763  29.164  32.413  1.00  0.00    -0.354 N 
ATOM     54  N   UNL A   1      41.314  30.958  34.700  1.00  0.00    -0.248 NA
ATOM     55  C   UNL A   1      41.806  31.606  36.890  1.00  0.00     0.031 C 
ATOM     56  C   UNL A   1      43.466  27.742  32.512  1.00  0.00     0.029 A 
ATOM     57  C   UNL A   1      42.786  28.711  33.231  1.00  0.00     0.049 A 
ATOM     58  H   UNL A   1      41.113  29.862  32.655  1.00  0.00     0.167 HD
ATOM     59  C   UNL A   1      42.373  30.191  35.179  1.00  0.00     0.074 A 
ATOM     60  C   UNL A   1      42.657  30.663  36.517  1.00  0.00     0.031 C 
ATOM     61  C   UNL A   1      43.048  29.184  34.570  1.00  0.00     0.034 A 
BRANCH  48  62
ATOM     62  C   UNL A   1      40.899  27.699  28.968  1.00  0.00     0.023 A 
ATOM     63  C   UNL A   1      41.822  27.868  27.923  1.00  0.00     0.031 A 
ATOM     64  C   UNL A   1      40.047  26.580  28.920  1.00  0.00     0.131 A 
ATOM     65  C   UNL A   1      41.842  26.958  26.853  1.00  0.00     0.055 A 
ATOM     66  C   UNL A   1      40.119  25.641  27.891  1.00  0.00     0.041 A 
ATOM     67  F   UNL A   1      39.130  26.379  29.881  1.00  0.00    -0.206 F 
ATOM     68  C   UNL A   1      41.016  25.832  26.844  1.00  0.00     0.022 A 
BRANCH  65  69
ATOM     69  S   UNL A   1      42.893  27.322  25.422  1.00  0.00     0.124 S 
ATOM     70  O   UNL A   1      44.152  27.690  26.065  1.00  0.00    -0.237 OA
ATOM     71  O   UNL A   1      42.892  26.055  24.699  1.00  0.00    -0.237 OA
ATOM     72  O   UNL A   1      42.198  28.420  24.755  1.00  0.00    -0.744 OA
ENDBRANCH  65  69
ENDBRANCH  48  62
BRANCH  49  73
ATOM     73  C   UNL A   1      39.702  33.653  36.944  1.00  0.00     0.023 A 
ATOM     74  C   UNL A   1      40.547  34.718  37.288  1.00  0.00     0.031 A 
ATOM     75  C   UNL A   1      38.678  33.311  37.845  1.00  0.00     0.131 A 
ATOM     76  C   UNL A   1      40.398  35.359  38.529  1.00  0.00     0.055 A 
ATOM     77  C   UNL A   1      38.489  33.998  39.047  1.00  0.00     0.041 A 
ATOM     78  F   UNL A   1      37.839  32.298  37.572  1.00  0.00    -0.206 F 
ATOM     79  C   UNL A   1      39.366  35.016  39.403  1.00  0.00     0.022 A 
BRANCH  76  80
ATOM     80  S   UNL A   1      41.662  36.555  39.042  1.00  0.00     0.124 S 
ATOM     81  O   UNL A   1      42.664  36.395  37.994  1.00  0.00    -0.237 OA
ATOM     82  O   UNL A   1      40.915  37.807  39.031  1.00  0.00    -0.237 OA
ATOM     83  O   UNL A   1      42.062  36.080  40.365  1.00  0.00    -0.744 OA
ENDBRANCH  76  80
ENDBRANCH  49  73
BRANCH  61  84
ATOM     84  C   UNL A   1      44.179  28.548  35.339  1.00  0.00     0.023 A 
ATOM     85  C   UNL A   1      43.952  27.510  36.259  1.00  0.00     0.031 A 
ATOM     86  C   UNL A   1      45.504  28.979  35.140  1.00  0.00     0.131 A 
ATOM     87  C   UNL A   1      45.026  26.966  36.979  1.00  0.00     0.055 A 
ATOM     88  C   UNL A   1      46.576  28.391  35.813  1.00  0.00     0.041 A 
ATOM     89  F   UNL A   1      45.777  29.969  34.276  1.00  0.00    -0.206 F 
ATOM     90  C   UNL A   1      46.339  27.387  36.746  1.00  0.00     0.022 A 
BRANCH  87  91
ATOM     91  S   UNL A   1      44.678  25.752  38.279  1.00  0.00     0.124 S 
ATOM     92  O   UNL A   1      44.026  26.573  39.295  1.00  0.00    -0.237 OA
ATOM     93  O   UNL A   1      43.821  24.791  37.591  1.00  0.00    -0.237 OA
ATOM     94  O   UNL A   1      46.002  25.250  38.643  1.00  0.00    -0.744 OA
ENDBRANCH  87  91
ENDBRANCH  61  84
ENDBRANCH  35  36
ENDBRANCH  27  30
ENDBRANCH  25  26
ENDBRANCH  24  25
ENDBRANCH   1  24
TORSDOF 18
ENDMDL
MODEL 3
REMARK VINA RESULT:     -12.1      5.256      9.970
REMARK SMILES CC(C)c1ccc([C@]2(C(=O)NCCCCCCNC(=O)c3ccc(-c4c5nc(c(-c6cc(S(=O)(=O)[O-])ccc6F)c6ccc([nH]6)c(-c6cc(S(=O)(=O)[O-])ccc6F)c6nc(c(-c7cc(S(=O)(=O)[O-])ccc7F)c7ccc4[nH]7)C=C6)C=C5)cc3)CCC[C@@H]2C)cc1
REMARK SMILES IDX 15 1 14 2 13 3 12 4 11 5 9 6 10 7 8 9 84 10 87 11 85 12
REMARK SMILES IDX 86 13 88 14 7 15 4 16 5 17 90 18 6 19 89 20 2 21 1 22 3 23
REMARK SMILES IDX 16 24 17 25 18 26 19 27 20 29 21 30 22 31 83 32 23 33 82 34
REMARK SMILES IDX 24 35 25 36 26 37 76 38 27 39 81 40 75 41 77 42 28 43 80 44
REMARK SMILES IDX 74 45 73 46 29 48 61 49 41 50 60 51 42 52 45 53 59 54 78 55
REMARK SMILES IDX 43 56 44 57 58 59 79 60 46 61 30 62 31 63 39 64 32 65 38 66
REMARK SMILES IDX 40 67 37 68 33 69 34 70 35 71 36 72 62 73 63 74 71 75 64 76
REMARK SMILES IDX 70 77 72 78 69 79 65 80 66 81 67 82 68 83 47 84 48 85 56 86
REMARK SMILES IDX 49 87 55 88 57 89 54 90 50 91 51 92 52 93 53 94
REMARK H PARENT 11 8 18 28 77 47 45 58
REMARK Flexibility Score: inf
ROOT
ATOM      1  C   UNL A   1      31.799  30.021  27.088  1.00  0.00     0.002 C 
ENDROOT
BRANCH   1   2
ATOM      2  C   UNL A   1      31.759  29.143  25.830  1.00  0.00     0.002 C 
BRANCH   2   3
ATOM      3  C   UNL A   1      33.057  29.075  25.030  1.00  0.00     0.021 C 
BRANCH   3   4
ATOM      4  C   UNL A   1      33.773  27.736  25.076  1.00  0.00     0.116 C 
BRANCH   4   5
ATOM      5  N   UNL A   1      33.797  27.008  23.836  1.00  0.00    -0.355 N 
ATOM      6  C   UNL A   1      32.815  26.407  23.110  1.00  0.00     0.230 C 
ATOM      7  O   UNL A   1      33.129  26.258  21.919  1.00  0.00    -0.274 OA
ATOM      8  H   UNL A   1      34.692  26.930  23.436  1.00  0.00     0.163 HD
BRANCH   6   9
ATOM      9  C   UNL A   1      31.402  25.884  23.658  1.00  0.00     0.077 C 
ATOM     10  C   UNL A   1      30.952  24.556  22.989  1.00  0.00     0.022 C 
ATOM     11  C   UNL A   1      31.409  25.498  25.191  1.00  0.00     0.006 C 
ATOM     12  C   UNL A   1      31.156  23.410  23.989  1.00  0.00     0.002 C 
ATOM     13  C   UNL A   1      31.781  24.012  25.245  1.00  0.00     0.005 C 
ATOM     14  C   UNL A   1      30.080  25.572  25.980  1.00  0.00     0.009 C 
BRANCH   9  15
ATOM     15  C   UNL A   1      30.413  27.039  23.310  1.00  0.00    -0.032 A 
ATOM     16  C   UNL A   1      28.618  29.164  22.689  1.00  0.00    -0.045 A 
ATOM     17  C   UNL A   1      29.944  29.194  22.249  1.00  0.00     0.004 A 
ATOM     18  C   UNL A   1      28.172  28.020  23.361  1.00  0.00     0.004 A 
ATOM     19  C   UNL A   1      30.806  28.127  22.513  1.00  0.00     0.005 A 
ATOM     20  C   UNL A   1      29.055  26.975  23.666  1.00  0.00     0.005 A 
BRANCH  16  21
ATOM     21  C   UNL A   1      27.718  30.358  22.439  1.00  0.00     0.013 C 
ATOM     22  C   UNL A   1      27.662  31.304  23.638  1.00  0.00     0.012 C 
ATOM     23  C   UNL A   1      28.139  31.102  21.169  1.00  0.00     0.012 C 
ENDBRANCH  16  21
ENDBRANCH   9  15
ENDBRANCH   6   9
ENDBRANCH   4   5
ENDBRANCH   3   4
ENDBRANCH   2   3
ENDBRANCH   1   2
BRANCH   1  24
ATOM     24  C   UNL A   1      31.758  31.536  26.855  1.00  0.00     0.021 C 
BRANCH  24  25
ATOM     25  C   UNL A   1      33.018  32.292  27.270  1.00  0.00     0.116 C 
BRANCH  25  26
ATOM     26  N   UNL A   1      32.733  33.676  27.612  1.00  0.00    -0.352 N 
ATOM     27  C   UNL A   1      33.245  34.455  28.621  1.00  0.00     0.251 C 
ATOM     28  H   UNL A   1      32.074  34.121  27.034  1.00  0.00     0.163 HD
ATOM     29  O   UNL A   1      32.705  35.520  28.899  1.00  0.00    -0.269 OA
BRANCH  27  30
ATOM     30  C   UNL A   1      34.431  33.998  29.376  1.00  0.00     0.039 A 
ATOM     31  C   UNL A   1      34.248  33.172  30.488  1.00  0.00     0.014 A 
ATOM     32  C   UNL A   1      35.717  34.390  28.994  1.00  0.00     0.014 A 
ATOM     33  C   UNL A   1      35.362  32.676  31.171  1.00  0.00     0.010 A 
ATOM     34  C   UNL A   1      36.826  33.844  29.636  1.00  0.00     0.010 A 
ATOM     35  C   UNL A   1      36.659  32.971  30.723  1.00  0.00    -0.014 A 
BRANCH  35  36
ATOM     36  C   UNL A   1      37.853  32.341  31.346  1.00  0.00     0.031 A 
ATOM     37  C   UNL A   1      38.570  31.217  30.649  1.00  0.00     0.074 A 
ATOM     38  C   UNL A   1      38.232  32.729  32.582  1.00  0.00     0.049 A 
ATOM     39  N   UNL A   1      39.559  30.477  31.079  1.00  0.00    -0.248 NA
ATOM     40  C   UNL A   1      38.096  30.861  29.301  1.00  0.00     0.031 C 
ATOM     41  C   UNL A   1      37.589  33.786  33.368  1.00  0.00     0.029 A 
ATOM     42  N   UNL A   1      39.233  32.273  33.405  1.00  0.00    -0.354 N 
ATOM     43  C   UNL A   1      39.814  29.557  30.068  1.00  0.00     0.074 A 
ATOM     44  C   UNL A   1      38.852  29.810  29.018  1.00  0.00     0.031 C 
ATOM     45  C   UNL A   1      38.214  33.901  34.549  1.00  0.00     0.029 A 
ATOM     46  C   UNL A   1      39.264  32.892  34.635  1.00  0.00     0.049 A 
ATOM     47  H   UNL A   1      39.868  31.570  33.139  1.00  0.00     0.167 HD
ATOM     48  C   UNL A   1      40.770  28.597  30.024  1.00  0.00     0.034 A 
ATOM     49  C   UNL A   1      40.027  32.651  35.721  1.00  0.00     0.034 A 
ATOM     50  C   UNL A   1      41.734  28.378  31.075  1.00  0.00     0.049 A 
ATOM     51  C   UNL A   1      41.058  31.550  35.653  1.00  0.00     0.074 A 
ATOM     52  C   UNL A   1      42.807  27.503  31.084  1.00  0.00     0.029 A 
ATOM     53  N   UNL A   1      41.731  29.017  32.307  1.00  0.00    -0.354 N 
ATOM     54  N   UNL A   1      41.345  30.752  34.651  1.00  0.00    -0.248 NA
ATOM     55  C   UNL A   1      41.867  31.318  36.856  1.00  0.00     0.031 C 
ATOM     56  C   UNL A   1      43.394  27.546  32.351  1.00  0.00     0.029 A 
ATOM     57  C   UNL A   1      42.746  28.512  33.104  1.00  0.00     0.049 A 
ATOM     58  H   UNL A   1      41.102  29.725  32.575  1.00  0.00     0.167 HD
ATOM     59  C   UNL A   1      42.385  29.941  35.098  1.00  0.00     0.074 A 
ATOM     60  C   UNL A   1      42.690  30.364  36.449  1.00  0.00     0.031 C 
ATOM     61  C   UNL A   1      43.029  28.935  34.455  1.00  0.00     0.034 A 
BRANCH  48  62
ATOM     62  C   UNL A   1      40.808  27.684  28.824  1.00  0.00     0.023 A 
ATOM     63  C   UNL A   1      41.791  27.797  27.828  1.00  0.00     0.031 A 
ATOM     64  C   UNL A   1      39.858  26.652  28.699  1.00  0.00     0.131 A 
ATOM     65  C   UNL A   1      41.777  26.924  26.728  1.00  0.00     0.055 A 
ATOM     66  C   UNL A   1      39.891  25.743  27.640  1.00  0.00     0.041 A 
ATOM     67  F   UNL A   1      38.882  26.509  29.609  1.00  0.00    -0.206 F 
ATOM     68  C   UNL A   1      40.851  25.882  26.642  1.00  0.00     0.022 A 
BRANCH  65  69
ATOM     69  S   UNL A   1      42.924  27.231  25.359  1.00  0.00     0.124 S 
ATOM     70  O   UNL A   1      43.012  25.908  24.745  1.00  0.00    -0.237 OA
ATOM     71  O   UNL A   1      42.225  28.250  24.583  1.00  0.00    -0.237 OA
ATOM     72  O   UNL A   1      44.142  27.683  26.026  1.00  0.00    -0.744 OA
ENDBRANCH  65  69
ENDBRANCH  48  62
BRANCH  49  73
ATOM     73  C   UNL A   1      39.822  33.420  36.986  1.00  0.00     0.023 A 
ATOM     74  C   UNL A   1      39.083  32.881  38.050  1.00  0.00     0.031 A 
ATOM     75  C   UNL A   1      40.293  34.739  37.117  1.00  0.00     0.131 A 
ATOM     76  C   UNL A   1      38.778  33.677  39.166  1.00  0.00     0.055 A 
ATOM     77  C   UNL A   1      40.048  35.503  38.260  1.00  0.00     0.041 A 
ATOM     78  F   UNL A   1      41.004  35.310  36.131  1.00  0.00    -0.206 F 
ATOM     79  C   UNL A   1      39.268  34.978  39.285  1.00  0.00     0.022 A 
BRANCH  76  80
ATOM     80  S   UNL A   1      37.613  33.030  40.397  1.00  0.00     0.124 S 
ATOM     81  O   UNL A   1      38.366  31.913  40.958  1.00  0.00    -0.237 OA
ATOM     82  O   UNL A   1      37.427  34.182  41.271  1.00  0.00    -0.237 OA
ATOM     83  O   UNL A   1      36.447  32.658  39.599  1.00  0.00    -0.744 OA
ENDBRANCH  76  80
ENDBRANCH  49  73
BRANCH  61  84
ATOM     84  C   UNL A   1      44.146  28.246  35.197  1.00  0.00     0.023 A 
ATOM     85  C   UNL A   1      45.451  28.769  35.213  1.00  0.00     0.031 A 
ATOM     86  C   UNL A   1      43.900  27.057  35.907  1.00  0.00     0.131 A 
ATOM     87  C   UNL A   1      46.471  28.081  35.888  1.00  0.00     0.055 A 
ATOM     88  C   UNL A   1      44.904  26.411  36.629  1.00  0.00     0.041 A 
ATOM     89  F   UNL A   1      42.673  26.512  35.922  1.00  0.00    -0.206 F 
ATOM     90  C   UNL A   1      46.200  26.917  36.613  1.00  0.00     0.022 A 
BRANCH  87  91
ATOM     91  S   UNL A   1      48.173  28.687  35.746  1.00  0.00     0.124 S 
ATOM     92  O   UNL A   1      48.057  30.043  36.274  1.00  0.00    -0.237 OA
ATOM     93  O   UNL A   1      48.914  27.742  36.576  1.00  0.00    -0.237 OA
ATOM     94  O   UNL A   1      48.450  28.601  34.313  1.00  0.00    -0.744 OA
ENDBRANCH  87  91
ENDBRANCH  61  84
ENDBRANCH  35  36
ENDBRANCH  27  30
ENDBRANCH  25  26
ENDBRANCH  24  25
ENDBRANCH   1  24
TORSDOF 18
ENDMDL
