MODEL 1
REMARK VINA RESULT:     -11.1      0.000      0.000
REMARK SMILES CC[C@H](C)[C@H](NS(=O)(=O)c1ccc(C)cc1)C(=O)NCCCCCCNC(=O)c1ccc(-c2c3nc(c(-c4cc(S(=O)(=O)[O-])ccc4F)c4ccc([nH]4)c(-c4cc(S(=O)(=O)[O-])ccc4F)c4nc(c(-c5cc(S(=O)(=O)[O-])ccc5F)c5ccc2[nH]5)C=C4)C=C3)cc1
REMARK SMILES IDX 22 1 21 2 20 3 19 4 17 5 18 6 5 8 3 9 4 10 2 11 1 12 6 13
REMARK SMILES IDX 7 15 8 16 9 17 10 18 11 19 16 20 12 21 15 22 13 23 14 24
REMARK SMILES IDX 23 25 24 26 25 27 26 28 27 29 28 31 29 32 30 33 91 34 31 35
REMARK SMILES IDX 90 36 32 37 33 38 34 39 84 40 35 41 89 42 83 43 85 44 36 45
REMARK SMILES IDX 88 46 82 47 81 48 37 50 69 51 49 52 68 53 50 54 53 55 67 56
REMARK SMILES IDX 86 57 51 58 52 59 66 61 87 62 54 63 38 64 39 65 47 66 40 67
REMARK SMILES IDX 46 68 48 69 45 70 41 71 42 72 43 73 44 74 70 75 71 76 79 77
REMARK SMILES IDX 72 78 78 79 80 80 77 81 73 82 74 83 75 84 76 85 55 86 56 87
REMARK SMILES IDX 64 88 57 89 63 90 65 91 62 92 58 93 59 94 60 95 61 96
REMARK H PARENT 19 7 6 14 26 30 85 49 53 60
REMARK Flexibility Score: inf
ROOT
ATOM      1  C   UNL A   1      31.985  29.826  25.077  1.00  0.00     0.002 C 
ENDROOT
BRANCH   1   2
ATOM      2  C   UNL A   1      31.000  29.383  23.980  1.00  0.00     0.021 C 
BRANCH   2   3
ATOM      3  C   UNL A   1      31.418  28.208  23.078  1.00  0.00     0.116 C 
BRANCH   3   4
ATOM      4  N   UNL A   1      30.405  27.183  22.922  1.00  0.00    -0.355 N 
ATOM      5  C   UNL A   1      30.118  26.127  23.730  1.00  0.00     0.238 C 
ATOM      6  O   UNL A   1      28.902  25.934  23.912  1.00  0.00    -0.273 OA
ATOM      7  H   UNL A   1      29.845  27.263  22.117  1.00  0.00     0.163 HD
BRANCH   5   8
ATOM      8  C   UNL A   1      31.131  25.146  24.379  1.00  0.00     0.161 C 
BRANCH   8   9
ATOM      9  C   UNL A   1      31.564  25.305  25.896  1.00  0.00     0.013 C 
ATOM     10  C   UNL A   1      31.985  24.002  26.584  1.00  0.00     0.010 C 
BRANCH   9  11
ATOM     11  C   UNL A   1      32.510  26.484  26.224  1.00  0.00     0.002 C 
ATOM     12  C   UNL A   1      31.980  27.474  27.267  1.00  0.00     0.004 C 
ENDBRANCH   9  11
ENDBRANCH   8   9
BRANCH   8  13
ATOM     13  N   UNL A   1      32.004  24.172  23.694  1.00  0.00    -0.198 NA
ATOM     14  H   UNL A   1      31.395  23.789  22.970  1.00  0.00     0.142 HD
BRANCH  13  15
ATOM     15  S   UNL A   1      33.474  24.270  22.931  1.00  0.00     0.241 S 
ATOM     16  O   UNL A   1      33.180  23.789  21.601  1.00  0.00    -0.207 OA
ATOM     17  O   UNL A   1      33.974  25.613  23.113  1.00  0.00    -0.207 OA
BRANCH  15  18
ATOM     18  C   UNL A   1      34.615  23.095  23.647  1.00  0.00     0.082 A 
ATOM     19  C   UNL A   1      35.974  23.237  23.428  1.00  0.00     0.022 A 
ATOM     20  C   UNL A   1      34.194  21.968  24.349  1.00  0.00     0.022 A 
ATOM     21  C   UNL A   1      36.928  22.369  23.951  1.00  0.00     0.005 A 
ATOM     22  C   UNL A   1      35.146  21.031  24.816  1.00  0.00     0.005 A 
ATOM     23  C   UNL A   1      36.521  21.221  24.604  1.00  0.00    -0.051 A 
ATOM     24  C   UNL A   1      37.559  20.218  25.010  1.00  0.00     0.044 C 
ENDBRANCH  15  18
ENDBRANCH  13  15
ENDBRANCH   8  13
ENDBRANCH   5   8
ENDBRANCH   3   4
ENDBRANCH   2   3
ENDBRANCH   1   2
BRANCH   1  25
ATOM     25  C   UNL A   1      31.565  30.985  25.991  1.00  0.00     0.002 C 
BRANCH  25  26
ATOM     26  C   UNL A   1      32.445  31.215  27.212  1.00  0.00     0.021 C 
BRANCH  26  27
ATOM     27  C   UNL A   1      33.890  30.737  27.151  1.00  0.00     0.116 C 
BRANCH  27  28
ATOM     28  N   UNL A   1      34.816  31.632  27.855  1.00  0.00    -0.352 N 
ATOM     29  C   UNL A   1      36.020  31.388  28.501  1.00  0.00     0.251 C 
ATOM     30  H   UNL A   1      34.532  32.575  27.873  1.00  0.00     0.163 HD
ATOM     31  O   UNL A   1      36.621  32.259  29.124  1.00  0.00    -0.269 OA
BRANCH  29  32
ATOM     32  C   UNL A   1      36.702  30.094  28.276  1.00  0.00     0.039 A 
ATOM     33  C   UNL A   1      36.734  29.260  29.405  1.00  0.00     0.014 A 
ATOM     34  C   UNL A   1      37.676  30.017  27.294  1.00  0.00     0.014 A 
ATOM     35  C   UNL A   1      37.934  28.674  29.756  1.00  0.00     0.010 A 
ATOM     36  C   UNL A   1      38.903  29.557  27.704  1.00  0.00     0.010 A 
ATOM     37  C   UNL A   1      39.036  28.977  28.972  1.00  0.00    -0.014 A 
BRANCH  37  38
ATOM     38  C   UNL A   1      40.394  28.684  29.358  1.00  0.00     0.031 A 
ATOM     39  C   UNL A   1      40.950  27.439  28.819  1.00  0.00     0.074 A 
ATOM     40  C   UNL A   1      41.107  29.563  30.093  1.00  0.00     0.049 A 
ATOM     41  N   UNL A   1      41.886  26.772  29.383  1.00  0.00    -0.248 NA
ATOM     42  C   UNL A   1      40.398  26.766  27.641  1.00  0.00     0.031 C 
ATOM     43  C   UNL A   1      42.550  29.593  30.299  1.00  0.00     0.029 A 
ATOM     44  N   UNL A   1      40.616  30.525  30.981  1.00  0.00    -0.354 N 
ATOM     45  C   UNL A   1      42.302  25.831  28.472  1.00  0.00     0.074 A 
ATOM     46  C   UNL A   1      41.237  25.736  27.512  1.00  0.00     0.031 C 
ATOM     47  C   UNL A   1      42.824  30.324  31.394  1.00  0.00     0.029 A 
ATOM     48  C   UNL A   1      41.557  30.641  32.027  1.00  0.00     0.049 A 
ATOM     49  H   UNL A   1      39.774  31.025  30.893  1.00  0.00     0.167 HD
ATOM     50  C   UNL A   1      43.588  25.401  28.550  1.00  0.00     0.034 A 
ATOM     51  C   UNL A   1      41.218  30.312  33.311  1.00  0.00     0.034 A 
ATOM     52  C   UNL A   1      44.247  26.016  29.702  1.00  0.00     0.049 A 
ATOM     53  C   UNL A   1      42.006  29.131  33.851  1.00  0.00     0.074 A 
ATOM     54  C   UNL A   1      45.135  27.068  29.850  1.00  0.00     0.029 A 
ATOM     55  N   UNL A   1      43.762  25.740  30.963  1.00  0.00    -0.354 N 
ATOM     56  N   UNL A   1      42.702  28.316  33.106  1.00  0.00    -0.248 NA
ATOM     57  C   UNL A   1      42.051  28.757  35.259  1.00  0.00     0.031 C 
ATOM     58  C   UNL A   1      45.183  27.403  31.232  1.00  0.00     0.029 A 
ATOM     59  C   UNL A   1      44.355  26.531  31.916  1.00  0.00     0.049 A 
ATOM     60  H   UNL A   1      43.075  25.061  31.156  1.00  0.00     0.167 HD
ATOM     61  C   UNL A   1      43.253  27.318  33.876  1.00  0.00     0.074 A 
ATOM     62  C   UNL A   1      42.793  27.632  35.219  1.00  0.00     0.031 C 
ATOM     63  C   UNL A   1      44.009  26.320  33.314  1.00  0.00     0.034 A 
BRANCH  50  64
ATOM     64  C   UNL A   1      44.370  24.653  27.500  1.00  0.00     0.023 A 
ATOM     65  C   UNL A   1      45.345  25.387  26.794  1.00  0.00     0.031 A 
ATOM     66  C   UNL A   1      44.209  23.318  27.085  1.00  0.00     0.131 A 
ATOM     67  C   UNL A   1      46.041  24.843  25.705  1.00  0.00     0.055 A 
ATOM     68  C   UNL A   1      44.912  22.767  26.004  1.00  0.00     0.041 A 
ATOM     69  F   UNL A   1      43.381  22.464  27.691  1.00  0.00    -0.206 F 
ATOM     70  C   UNL A   1      45.825  23.533  25.298  1.00  0.00     0.022 A 
BRANCH  67  71
ATOM     71  S   UNL A   1      47.202  25.905  24.815  1.00  0.00     0.124 S 
ATOM     72  O   UNL A   1      47.723  24.999  23.796  1.00  0.00    -0.237 OA
ATOM     73  O   UNL A   1      46.338  26.982  24.347  1.00  0.00    -0.237 OA
ATOM     74  O   UNL A   1      48.164  26.289  25.848  1.00  0.00    -0.744 OA
ENDBRANCH  67  71
ENDBRANCH  50  64
BRANCH  51  75
ATOM     75  C   UNL A   1      39.782  30.621  33.600  1.00  0.00     0.023 A 
ATOM     76  C   UNL A   1      39.446  31.986  33.754  1.00  0.00     0.031 A 
ATOM     77  C   UNL A   1      38.771  29.738  33.193  1.00  0.00     0.131 A 
ATOM     78  C   UNL A   1      38.210  32.461  33.285  1.00  0.00     0.055 A 
ATOM     79  C   UNL A   1      37.516  30.213  32.789  1.00  0.00     0.041 A 
ATOM     80  F   UNL A   1      39.031  28.433  33.023  1.00  0.00    -0.206 F 
ATOM     81  C   UNL A   1      37.254  31.584  32.774  1.00  0.00     0.022 A 
BRANCH  78  82
ATOM     82  S   UNL A   1      37.996  34.256  33.079  1.00  0.00     0.124 S 
ATOM     83  O   UNL A   1      37.333  34.632  34.322  1.00  0.00    -0.237 OA
ATOM     84  O   UNL A   1      39.373  34.721  32.928  1.00  0.00    -0.237 OA
ATOM     85  O   UNL A   1      37.190  34.379  31.865  1.00  0.00    -0.744 OA
ENDBRANCH  78  82
ENDBRANCH  51  75
BRANCH  63  86
ATOM     86  C   UNL A   1      44.503  25.044  33.984  1.00  0.00     0.023 A 
ATOM     87  C   UNL A   1      45.854  24.701  34.070  1.00  0.00     0.031 A 
ATOM     88  C   UNL A   1      43.608  24.091  34.552  1.00  0.00     0.131 A 
ATOM     89  C   UNL A   1      46.272  23.536  34.745  1.00  0.00     0.055 A 
ATOM     90  C   UNL A   1      44.020  22.913  35.178  1.00  0.00     0.041 A 
ATOM     91  F   UNL A   1      42.280  24.257  34.566  1.00  0.00    -0.206 F 
ATOM     92  C   UNL A   1      45.365  22.635  35.294  1.00  0.00     0.022 A 
BRANCH  89  93
ATOM     93  S   UNL A   1      48.047  23.245  34.915  1.00  0.00     0.124 S 
ATOM     94  O   UNL A   1      48.599  24.046  33.827  1.00  0.00    -0.237 OA
ATOM     95  O   UNL A   1      48.306  23.747  36.262  1.00  0.00    -0.237 OA
ATOM     96  O   UNL A   1      48.179  21.799  34.755  1.00  0.00    -0.744 OA
ENDBRANCH  89  93
ENDBRANCH  63  86
ENDBRANCH  37  38
ENDBRANCH  29  32
ENDBRANCH  27  28
ENDBRANCH  26  27
ENDBRANCH  25  26
ENDBRANCH   1  25
TORSDOF 21
ENDMDL
MODEL 2
REMARK VINA RESULT:     -11.1      3.800      9.658
REMARK SMILES CC[C@H](C)[C@H](NS(=O)(=O)c1ccc(C)cc1)C(=O)NCCCCCCNC(=O)c1ccc(-c2c3nc(c(-c4cc(S(=O)(=O)[O-])ccc4F)c4ccc([nH]4)c(-c4cc(S(=O)(=O)[O-])ccc4F)c4nc(c(-c5cc(S(=O)(=O)[O-])ccc5F)c5ccc2[nH]5)C=C4)C=C3)cc1
REMARK SMILES IDX 22 1 21 2 20 3 19 4 17 5 18 6 5 8 3 9 4 10 2 11 1 12 6 13
REMARK SMILES IDX 7 15 8 16 9 17 10 18 11 19 16 20 12 21 15 22 13 23 14 24
REMARK SMILES IDX 23 25 24 26 25 27 26 28 27 29 28 31 29 32 30 33 91 34 31 35
REMARK SMILES IDX 90 36 32 37 33 38 34 39 84 40 35 41 89 42 83 43 85 44 36 45
REMARK SMILES IDX 88 46 82 47 81 48 37 50 69 51 49 52 68 53 50 54 53 55 67 56
REMARK SMILES IDX 86 57 51 58 52 59 66 61 87 62 54 63 38 64 39 65 47 66 40 67
REMARK SMILES IDX 46 68 48 69 45 70 41 71 42 72 43 73 44 74 70 75 71 76 79 77
REMARK SMILES IDX 72 78 78 79 80 80 77 81 73 82 74 83 75 84 76 85 55 86 56 87
REMARK SMILES IDX 64 88 57 89 63 90 65 91 62 92 58 93 59 94 60 95 61 96
REMARK H PARENT 19 7 6 14 26 30 85 49 53 60
REMARK Flexibility Score: inf
ROOT
ATOM      1  C   UNL A   1      37.329  22.932  25.116  1.00  0.00     0.002 C 
ENDROOT
BRANCH   1   2
ATOM      2  C   UNL A   1      37.061  21.474  25.529  1.00  0.00     0.021 C 
BRANCH   2   3
ATOM      3  C   UNL A   1      35.917  20.729  24.818  1.00  0.00     0.116 C 
BRANCH   3   4
ATOM      4  N   UNL A   1      34.724  20.555  25.622  1.00  0.00    -0.355 N 
ATOM      5  C   UNL A   1      33.428  20.819  25.307  1.00  0.00     0.238 C 
ATOM      6  O   UNL A   1      32.622  19.940  25.664  1.00  0.00    -0.273 OA
ATOM      7  H   UNL A   1      34.873  20.194  26.526  1.00  0.00     0.163 HD
BRANCH   5   8
ATOM      8  C   UNL A   1      32.876  22.095  24.615  1.00  0.00     0.161 C 
BRANCH   8   9
ATOM      9  C   UNL A   1      31.927  23.099  25.393  1.00  0.00     0.013 C 
ATOM     10  C   UNL A   1      30.634  22.476  25.930  1.00  0.00     0.010 C 
BRANCH   9  11
ATOM     11  C   UNL A   1      32.607  24.038  26.418  1.00  0.00     0.002 C 
ATOM     12  C   UNL A   1      34.085  24.337  26.146  1.00  0.00     0.004 C 
ENDBRANCH   9  11
ENDBRANCH   8   9
BRANCH   8  13
ATOM     13  N   UNL A   1      32.894  22.415  23.174  1.00  0.00    -0.198 NA
ATOM     14  H   UNL A   1      31.903  22.492  22.945  1.00  0.00     0.142 HD
BRANCH  13  15
ATOM     15  S   UNL A   1      33.582  23.619  22.264  1.00  0.00     0.241 S 
ATOM     16  O   UNL A   1      34.943  23.651  22.744  1.00  0.00    -0.207 OA
ATOM     17  O   UNL A   1      33.319  23.323  20.874  1.00  0.00    -0.207 OA
BRANCH  15  18
ATOM     18  C   UNL A   1      32.862  25.198  22.693  1.00  0.00     0.082 A 
ATOM     19  C   UNL A   1      31.504  25.401  22.526  1.00  0.00     0.022 A 
ATOM     20  C   UNL A   1      33.626  26.288  23.105  1.00  0.00     0.022 A 
ATOM     21  C   UNL A   1      30.864  26.598  22.838  1.00  0.00     0.005 A 
ATOM     22  C   UNL A   1      33.004  27.535  23.347  1.00  0.00     0.005 A 
ATOM     23  C   UNL A   1      31.618  27.700  23.199  1.00  0.00    -0.051 A 
ATOM     24  C   UNL A   1      30.926  29.020  23.365  1.00  0.00     0.044 C 
ENDBRANCH  15  18
ENDBRANCH  13  15
ENDBRANCH   8  13
ENDBRANCH   5   8
ENDBRANCH   3   4
ENDBRANCH   2   3
ENDBRANCH   1   2
BRANCH   1  25
ATOM     25  C   UNL A   1      37.729  23.926  26.216  1.00  0.00     0.002 C 
BRANCH  25  26
ATOM     26  C   UNL A   1      39.224  24.153  26.389  1.00  0.00     0.021 C 
BRANCH  26  27
ATOM     27  C   UNL A   1      40.000  23.167  27.251  1.00  0.00     0.116 C 
BRANCH  27  28
ATOM     28  N   UNL A   1      40.608  22.083  26.469  1.00  0.00    -0.352 N 
ATOM     29  C   UNL A   1      41.934  21.753  26.228  1.00  0.00     0.251 C 
ATOM     30  H   UNL A   1      39.958  21.482  26.039  1.00  0.00     0.163 HD
ATOM     31  O   UNL A   1      42.258  20.851  25.461  1.00  0.00    -0.269 OA
BRANCH  29  32
ATOM     32  C   UNL A   1      42.988  22.376  27.061  1.00  0.00     0.039 A 
ATOM     33  C   UNL A   1      42.737  22.313  28.441  1.00  0.00     0.014 A 
ATOM     34  C   UNL A   1      43.757  23.388  26.512  1.00  0.00     0.014 A 
ATOM     35  C   UNL A   1      42.888  23.463  29.190  1.00  0.00     0.010 A 
ATOM     36  C   UNL A   1      43.778  24.570  27.210  1.00  0.00     0.010 A 
ATOM     37  C   UNL A   1      43.254  24.614  28.509  1.00  0.00    -0.014 A 
BRANCH  37  38
ATOM     38  C   UNL A   1      43.178  25.936  29.080  1.00  0.00     0.031 A 
ATOM     39  C   UNL A   1      41.936  26.669  28.819  1.00  0.00     0.074 A 
ATOM     40  C   UNL A   1      44.166  26.400  29.875  1.00  0.00     0.049 A 
ATOM     41  N   UNL A   1      41.850  27.946  28.801  1.00  0.00    -0.248 NA
ATOM     42  C   UNL A   1      40.690  26.007  28.424  1.00  0.00     0.031 C 
ATOM     43  C   UNL A   1      44.123  27.543  30.780  1.00  0.00     0.029 A 
ATOM     44  N   UNL A   1      45.511  26.021  29.869  1.00  0.00    -0.354 N 
ATOM     45  C   UNL A   1      40.510  28.250  28.779  1.00  0.00     0.074 A 
ATOM     46  C   UNL A   1      39.855  27.045  28.348  1.00  0.00     0.031 C 
ATOM     47  C   UNL A   1      45.379  27.933  31.057  1.00  0.00     0.029 A 
ATOM     48  C   UNL A   1      46.266  27.167  30.202  1.00  0.00     0.049 A 
ATOM     49  H   UNL A   1      45.864  25.124  29.671  1.00  0.00     0.167 HD
ATOM     50  C   UNL A   1      40.121  29.432  29.322  1.00  0.00     0.034 A 
ATOM     51  C   UNL A   1      47.151  27.704  29.307  1.00  0.00     0.034 A 
ATOM     52  C   UNL A   1      41.295  30.188  29.758  1.00  0.00     0.049 A 
ATOM     53  C   UNL A   1      46.769  29.105  28.861  1.00  0.00     0.074 A 
ATOM     54  C   UNL A   1      41.888  30.411  30.989  1.00  0.00     0.029 A 
ATOM     55  N   UNL A   1      42.215  30.582  28.809  1.00  0.00    -0.354 N 
ATOM     56  N   UNL A   1      45.591  29.636  29.049  1.00  0.00    -0.248 NA
ATOM     57  C   UNL A   1      47.666  30.006  28.147  1.00  0.00     0.031 C 
ATOM     58  C   UNL A   1      43.178  30.964  30.755  1.00  0.00     0.029 A 
ATOM     59  C   UNL A   1      43.344  31.108  29.389  1.00  0.00     0.049 A 
ATOM     60  H   UNL A   1      42.080  30.496  27.837  1.00  0.00     0.167 HD
ATOM     61  C   UNL A   1      45.537  30.889  28.484  1.00  0.00     0.074 A 
ATOM     62  C   UNL A   1      46.862  31.062  27.913  1.00  0.00     0.031 C 
ATOM     63  C   UNL A   1      44.389  31.639  28.527  1.00  0.00     0.034 A 
BRANCH  50  64
ATOM     64  C   UNL A   1      38.726  29.844  29.718  1.00  0.00     0.023 A 
ATOM     65  C   UNL A   1      38.261  31.075  29.211  1.00  0.00     0.031 A 
ATOM     66  C   UNL A   1      37.839  29.184  30.590  1.00  0.00     0.131 A 
ATOM     67  C   UNL A   1      37.040  31.632  29.614  1.00  0.00     0.055 A 
ATOM     68  C   UNL A   1      36.611  29.732  30.985  1.00  0.00     0.041 A 
ATOM     69  F   UNL A   1      38.092  27.977  31.103  1.00  0.00    -0.206 F 
ATOM     70  C   UNL A   1      36.210  30.969  30.509  1.00  0.00     0.022 A 
BRANCH  67  71
ATOM     71  S   UNL A   1      36.586  33.259  28.969  1.00  0.00     0.124 S 
ATOM     72  O   UNL A   1      37.882  33.927  28.890  1.00  0.00    -0.237 OA
ATOM     73  O   UNL A   1      35.950  32.921  27.701  1.00  0.00    -0.237 OA
ATOM     74  O   UNL A   1      35.683  33.785  29.992  1.00  0.00    -0.744 OA
ENDBRANCH  67  71
ENDBRANCH  50  64
BRANCH  51  75
ATOM     75  C   UNL A   1      47.785  26.649  28.455  1.00  0.00     0.023 A 
ATOM     76  C   UNL A   1      47.368  26.587  27.106  1.00  0.00     0.031 A 
ATOM     77  C   UNL A   1      49.059  26.154  28.772  1.00  0.00     0.131 A 
ATOM     78  C   UNL A   1      48.293  26.262  26.100  1.00  0.00     0.055 A 
ATOM     79  C   UNL A   1      49.954  25.767  27.767  1.00  0.00     0.041 A 
ATOM     80  F   UNL A   1      49.512  26.192  30.034  1.00  0.00    -0.206 F 
ATOM     81  C   UNL A   1      49.595  25.881  26.422  1.00  0.00     0.022 A 
BRANCH  78  82
ATOM     82  S   UNL A   1      47.858  26.634  24.373  1.00  0.00     0.124 S 
ATOM     83  O   UNL A   1      46.492  27.127  24.500  1.00  0.00    -0.237 OA
ATOM     84  O   UNL A   1      48.860  27.629  24.003  1.00  0.00    -0.237 OA
ATOM     85  O   UNL A   1      48.011  25.351  23.686  1.00  0.00    -0.744 OA
ENDBRANCH  78  82
ENDBRANCH  51  75
BRANCH  63  86
ATOM     86  C   UNL A   1      44.101  32.935  27.778  1.00  0.00     0.023 A 
ATOM     87  C   UNL A   1      43.720  34.117  28.415  1.00  0.00     0.031 A 
ATOM     88  C   UNL A   1      44.178  33.020  26.356  1.00  0.00     0.131 A 
ATOM     89  C   UNL A   1      43.514  35.307  27.688  1.00  0.00     0.055 A 
ATOM     90  C   UNL A   1      43.927  34.188  25.633  1.00  0.00     0.041 A 
ATOM     91  F   UNL A   1      44.534  31.989  25.582  1.00  0.00    -0.206 F 
ATOM     92  C   UNL A   1      43.608  35.351  26.300  1.00  0.00     0.022 A 
BRANCH  89  93
ATOM     93  S   UNL A   1      43.150  36.815  28.615  1.00  0.00     0.124 S 
ATOM     94  O   UNL A   1      41.722  36.992  28.372  1.00  0.00    -0.237 OA
ATOM     95  O   UNL A   1      43.516  36.426  29.975  1.00  0.00    -0.237 OA
ATOM     96  O   UNL A   1      44.017  37.818  28.002  1.00  0.00    -0.744 OA
ENDBRANCH  89  93
ENDBRANCH  63  86
ENDBRANCH  37  38
ENDBRANCH  29  32
ENDBRANCH  27  28
ENDBRANCH  26  27
ENDBRANCH  25  26
ENDBRANCH   1  25
TORSDOF 21
ENDMDL
MODEL 3
REMARK VINA RESULT:     -11.0      2.438      3.015
REMARK SMILES CC[C@H](C)[C@H](NS(=O)(=O)c1ccc(C)cc1)C(=O)NCCCCCCNC(=O)c1ccc(-c2c3nc(c(-c4cc(S(=O)(=O)[O-])ccc4F)c4ccc([nH]4)c(-c4cc(S(=O)(=O)[O-])ccc4F)c4nc(c(-c5cc(S(=O)(=O)[O-])ccc5F)c5ccc2[nH]5)C=C4)C=C3)cc1
REMARK SMILES IDX 22 1 21 2 20 3 19 4 17 5 18 6 5 8 3 9 4 10 2 11 1 12 6 13
REMARK SMILES IDX 7 15 8 16 9 17 10 18 11 19 16 20 12 21 15 22 13 23 14 24
REMARK SMILES IDX 23 25 24 26 25 27 26 28 27 29 28 31 29 32 30 33 91 34 31 35
REMARK SMILES IDX 90 36 32 37 33 38 34 39 84 40 35 41 89 42 83 43 85 44 36 45
REMARK SMILES IDX 88 46 82 47 81 48 37 50 69 51 49 52 68 53 50 54 53 55 67 56
REMARK SMILES IDX 86 57 51 58 52 59 66 61 87 62 54 63 38 64 39 65 47 66 40 67
REMARK SMILES IDX 46 68 48 69 45 70 41 71 42 72 43 73 44 74 70 75 71 76 79 77
REMARK SMILES IDX 72 78 78 79 80 80 77 81 73 82 74 83 75 84 76 85 55 86 56 87
REMARK SMILES IDX 64 88 57 89 63 90 65 91 62 92 58 93 59 94 60 95 61 96
REMARK H PARENT 19 7 6 14 26 30 85 49 53 60
REMARK Flexibility Score: inf
ROOT
ATOM      1  C   UNL A   1      32.023  30.621  26.260  1.00  0.00     0.002 C 
ENDROOT
BRANCH   1   2
ATOM      2  C   UNL A   1      31.341  29.990  25.033  1.00  0.00     0.021 C 
BRANCH   2   3
ATOM      3  C   UNL A   1      31.744  28.555  24.652  1.00  0.00     0.116 C 
BRANCH   3   4
ATOM      4  N   UNL A   1      30.832  27.531  25.123  1.00  0.00    -0.355 N 
ATOM      5  C   UNL A   1      31.109  26.319  25.674  1.00  0.00     0.238 C 
ATOM      6  O   UNL A   1      30.407  26.030  26.661  1.00  0.00    -0.273 OA
ATOM      7  H   UNL A   1      29.876  27.744  25.032  1.00  0.00     0.163 HD
BRANCH   5   8
ATOM      8  C   UNL A   1      32.147  25.280  25.171  1.00  0.00     0.161 C 
BRANCH   8   9
ATOM      9  C   UNL A   1      32.554  25.209  23.640  1.00  0.00     0.013 C 
ATOM     10  C   UNL A   1      34.021  25.541  23.348  1.00  0.00     0.010 C 
BRANCH   9  11
ATOM     11  C   UNL A   1      32.054  23.976  22.850  1.00  0.00     0.002 C 
ATOM     12  C   UNL A   1      33.151  23.015  22.379  1.00  0.00     0.004 C 
ENDBRANCH   9  11
ENDBRANCH   8   9
BRANCH   8  13
ATOM     13  N   UNL A   1      32.667  24.105  25.897  1.00  0.00    -0.198 NA
ATOM     14  H   UNL A   1      33.026  24.511  26.762  1.00  0.00     0.142 HD
BRANCH  13  15
ATOM     15  S   UNL A   1      32.005  22.672  26.406  1.00  0.00     0.241 S 
ATOM     16  O   UNL A   1      32.324  22.649  27.814  1.00  0.00    -0.207 OA
ATOM     17  O   UNL A   1      30.623  22.653  25.983  1.00  0.00    -0.207 OA
BRANCH  15  18
ATOM     18  C   UNL A   1      32.881  21.298  25.672  1.00  0.00     0.082 A 
ATOM     19  C   UNL A   1      32.188  20.156  25.310  1.00  0.00     0.022 A 
ATOM     20  C   UNL A   1      34.267  21.277  25.530  1.00  0.00     0.022 A 
ATOM     21  C   UNL A   1      32.794  19.044  24.731  1.00  0.00     0.005 A 
ATOM     22  C   UNL A   1      34.907  20.123  25.020  1.00  0.00     0.005 A 
ATOM     23  C   UNL A   1      34.172  18.992  24.632  1.00  0.00    -0.051 A 
ATOM     24  C   UNL A   1      34.812  17.719  24.163  1.00  0.00     0.044 C 
ENDBRANCH  15  18
ENDBRANCH  13  15
ENDBRANCH   8  13
ENDBRANCH   5   8
ENDBRANCH   3   4
ENDBRANCH   2   3
ENDBRANCH   1   2
BRANCH   1  25
ATOM     25  C   UNL A   1      32.531  29.680  27.362  1.00  0.00     0.002 C 
BRANCH  25  26
ATOM     26  C   UNL A   1      33.941  29.954  27.866  1.00  0.00     0.021 C 
BRANCH  26  27
ATOM     27  C   UNL A   1      34.652  31.200  27.356  1.00  0.00     0.116 C 
BRANCH  27  28
ATOM     28  N   UNL A   1      35.583  31.768  28.340  1.00  0.00    -0.352 N 
ATOM     29  C   UNL A   1      36.595  31.186  29.090  1.00  0.00     0.251 C 
ATOM     30  H   UNL A   1      35.468  32.733  28.495  1.00  0.00     0.163 HD
ATOM     31  O   UNL A   1      37.219  31.808  29.945  1.00  0.00    -0.269 OA
BRANCH  29  32
ATOM     32  C   UNL A   1      37.070  29.833  28.724  1.00  0.00     0.039 A 
ATOM     33  C   UNL A   1      37.166  28.948  29.809  1.00  0.00     0.014 A 
ATOM     34  C   UNL A   1      37.870  29.691  27.602  1.00  0.00     0.014 A 
ATOM     35  C   UNL A   1      38.322  28.208  29.954  1.00  0.00     0.010 A 
ATOM     36  C   UNL A   1      39.078  29.070  27.804  1.00  0.00     0.010 A 
ATOM     37  C   UNL A   1      39.325  28.417  29.019  1.00  0.00    -0.014 A 
BRANCH  37  38
ATOM     38  C   UNL A   1      40.678  27.947  29.183  1.00  0.00     0.031 A 
ATOM     39  C   UNL A   1      40.932  26.578  28.725  1.00  0.00     0.074 A 
ATOM     40  C   UNL A   1      41.643  28.771  29.645  1.00  0.00     0.049 A 
ATOM     41  N   UNL A   1      41.860  25.829  29.191  1.00  0.00    -0.248 NA
ATOM     42  C   UNL A   1      40.062  25.883  27.773  1.00  0.00     0.031 C 
ATOM     43  C   UNL A   1      43.087  28.585  29.574  1.00  0.00     0.029 A 
ATOM     44  N   UNL A   1      41.483  29.888  30.469  1.00  0.00    -0.354 N 
ATOM     45  C   UNL A   1      41.945  24.741  28.355  1.00  0.00     0.074 A 
ATOM     46  C   UNL A   1      40.704  24.721  27.632  1.00  0.00     0.031 C 
ATOM     47  C   UNL A   1      43.679  29.372  30.489  1.00  0.00     0.029 A 
ATOM     48  C   UNL A   1      42.626  29.959  31.297  1.00  0.00     0.049 A 
ATOM     49  H   UNL A   1      40.720  30.508  30.472  1.00  0.00     0.167 HD
ATOM     50  C   UNL A   1      43.147  24.117  28.251  1.00  0.00     0.034 A 
ATOM     51  C   UNL A   1      42.514  29.828  32.654  1.00  0.00     0.034 A 
ATOM     52  C   UNL A   1      44.107  24.734  29.166  1.00  0.00     0.049 A 
ATOM     53  C   UNL A   1      43.222  28.598  33.194  1.00  0.00     0.074 A 
ATOM     54  C   UNL A   1      45.145  25.635  29.001  1.00  0.00     0.029 A 
ATOM     55  N   UNL A   1      43.856  24.677  30.521  1.00  0.00    -0.354 N 
ATOM     56  N   UNL A   1      43.630  27.605  32.451  1.00  0.00    -0.248 NA
ATOM     57  C   UNL A   1      43.501  28.373  34.607  1.00  0.00     0.031 C 
ATOM     58  C   UNL A   1      45.522  26.103  30.291  1.00  0.00     0.029 A 
ATOM     59  C   UNL A   1      44.737  25.457  31.230  1.00  0.00     0.049 A 
ATOM     60  H   UNL A   1      43.135  24.144  30.929  1.00  0.00     0.167 HD
ATOM     61  C   UNL A   1      44.180  26.618  33.234  1.00  0.00     0.074 A 
ATOM     62  C   UNL A   1      44.054  27.145  34.584  1.00  0.00     0.031 C 
ATOM     63  C   UNL A   1      44.658  25.455  32.683  1.00  0.00     0.034 A 
BRANCH  50  64
ATOM     64  C   UNL A   1      43.585  23.144  27.187  1.00  0.00     0.023 A 
ATOM     65  C   UNL A   1      42.917  21.902  27.150  1.00  0.00     0.031 A 
ATOM     66  C   UNL A   1      44.629  23.288  26.254  1.00  0.00     0.131 A 
ATOM     67  C   UNL A   1      43.323  20.865  26.300  1.00  0.00     0.055 A 
ATOM     68  C   UNL A   1      45.029  22.257  25.393  1.00  0.00     0.041 A 
ATOM     69  F   UNL A   1      45.317  24.424  26.105  1.00  0.00    -0.206 F 
ATOM     70  C   UNL A   1      44.385  21.031  25.421  1.00  0.00     0.022 A 
BRANCH  67  71
ATOM     71  S   UNL A   1      42.452  19.283  26.403  1.00  0.00     0.124 S 
ATOM     72  O   UNL A   1      43.553  18.326  26.361  1.00  0.00    -0.237 OA
ATOM     73  O   UNL A   1      41.743  19.404  27.672  1.00  0.00    -0.237 OA
ATOM     74  O   UNL A   1      41.598  19.293  25.215  1.00  0.00    -0.744 OA
ENDBRANCH  67  71
ENDBRANCH  50  64
BRANCH  51  75
ATOM     75  C   UNL A   1      41.225  30.398  33.159  1.00  0.00     0.023 A 
ATOM     76  C   UNL A   1      41.123  31.808  33.188  1.00  0.00     0.031 A 
ATOM     77  C   UNL A   1      40.038  29.656  33.069  1.00  0.00     0.131 A 
ATOM     78  C   UNL A   1      39.897  32.429  32.897  1.00  0.00     0.055 A 
ATOM     79  C   UNL A   1      38.807  30.287  32.845  1.00  0.00     0.041 A 
ATOM     80  F   UNL A   1      40.071  28.316  33.031  1.00  0.00    -0.206 F 
ATOM     81  C   UNL A   1      38.743  31.674  32.694  1.00  0.00     0.022 A 
BRANCH  78  82
ATOM     82  S   UNL A   1      39.901  34.203  32.493  1.00  0.00     0.124 S 
ATOM     83  O   UNL A   1      40.105  34.190  31.050  1.00  0.00    -0.237 OA
ATOM     84  O   UNL A   1      38.580  34.632  32.944  1.00  0.00    -0.237 OA
ATOM     85  O   UNL A   1      41.005  34.744  33.287  1.00  0.00    -0.744 OA
ENDBRANCH  78  82
ENDBRANCH  51  75
BRANCH  63  86
ATOM     86  C   UNL A   1      45.095  24.194  33.417  1.00  0.00     0.023 A 
ATOM     87  C   UNL A   1      46.420  23.941  33.780  1.00  0.00     0.031 A 
ATOM     88  C   UNL A   1      44.174  23.163  33.766  1.00  0.00     0.131 A 
ATOM     89  C   UNL A   1      46.773  22.785  34.505  1.00  0.00     0.055 A 
ATOM     90  C   UNL A   1      44.533  21.995  34.442  1.00  0.00     0.041 A 
ATOM     91  F   UNL A   1      42.864  23.237  33.503  1.00  0.00    -0.206 F 
ATOM     92  C   UNL A   1      45.841  21.805  34.833  1.00  0.00     0.022 A 
BRANCH  89  93
ATOM     93  S   UNL A   1      48.491  22.611  35.039  1.00  0.00     0.124 S 
ATOM     94  O   UNL A   1      48.622  21.166  35.196  1.00  0.00    -0.237 OA
ATOM     95  O   UNL A   1      49.215  23.192  33.911  1.00  0.00    -0.237 OA
ATOM     96  O   UNL A   1      48.549  23.382  36.278  1.00  0.00    -0.744 OA
ENDBRANCH  89  93
ENDBRANCH  63  86
ENDBRANCH  37  38
ENDBRANCH  29  32
ENDBRANCH  27  28
ENDBRANCH  26  27
ENDBRANCH  25  26
ENDBRANCH   1  25
TORSDOF 21
ENDMDL
