MODEL 1
REMARK VINA RESULT:     -10.2      0.000      0.000
REMARK SMILES O=C(CN(CC(F)(F)F)C(=O)CC[C@H]1CCC[NH2+]C1)NCCCCCCNC(=O)c1ccc(-c2c3nc(c(-c4cc(S(=O)(=O)[O-])ccc4F)c4ccc([nH]4)c(-c4cc(S(=O)(=O)[O-])ccc4F)c4nc(c(-c5cc(S(=O)(=O)[O-])ccc5F)c5ccc2[nH]5)C=C4)C=C3)cc1
REMARK SMILES IDX 22 1 21 2 20 3 1 4 2 5 3 7 4 8 5 9 6 10 7 11 8 12 9 13 10 14
REMARK SMILES IDX 11 15 12 16 13 17 14 18 15 19 19 20 16 21 18 22 17 23 23 26
REMARK SMILES IDX 24 27 25 28 26 29 27 30 28 31 29 33 30 34 31 35 92 36 32 37
REMARK SMILES IDX 91 38 33 39 34 40 35 41 85 42 36 43 90 44 84 45 86 46 37 47
REMARK SMILES IDX 89 48 83 49 82 50 38 52 70 53 50 54 69 55 51 56 54 57 68 58
REMARK SMILES IDX 87 59 52 60 53 61 67 63 88 64 55 65 39 66 40 67 48 68 41 69
REMARK SMILES IDX 47 70 49 71 46 72 42 73 43 74 44 75 45 76 71 77 72 78 80 79
REMARK SMILES IDX 73 80 79 81 81 82 78 83 74 84 75 85 76 86 77 87 56 88 57 89
REMARK SMILES IDX 65 90 58 91 64 92 66 93 63 94 59 95 60 96 61 97 62 98
REMARK H PARENT 20 6 18 24 18 25 27 32 86 51 54 62
REMARK Flexibility Score: inf
ROOT
ATOM      1  C   UNL A   1      36.887  23.307  24.854  1.00  0.00     0.021 C 
ENDROOT
BRANCH   1   2
ATOM      2  C   UNL A   1      35.453  23.066  24.367  1.00  0.00     0.116 C 
BRANCH   2   3
ATOM      3  N   UNL A   1      34.751  24.240  23.856  1.00  0.00    -0.355 N 
ATOM      4  O   UNL A   1      33.925  24.862  25.898  1.00  0.00    -0.273 OA
ATOM      5  C   UNL A   1      34.164  25.144  24.723  1.00  0.00     0.239 C 
ATOM      6  H   UNL A   1      34.696  24.390  22.885  1.00  0.00     0.163 HD
BRANCH   5   7
ATOM      7  C   UNL A   1      33.589  26.439  24.102  1.00  0.00     0.219 C 
BRANCH   7   8
ATOM      8  N   UNL A   1      32.134  26.725  24.146  1.00  0.00    -0.324 N 
BRANCH   8   9
ATOM      9  C   UNL A   1      31.590  26.936  25.525  1.00  0.00     0.235 C 
BRANCH   9  10
ATOM     10  C   UNL A   1      32.043  28.070  26.454  1.00  0.00     0.406 C 
ATOM     11  F   UNL A   1      33.084  27.769  27.248  1.00  0.00    -0.169 F 
ATOM     12  F   UNL A   1      32.442  29.131  25.703  1.00  0.00    -0.169 F 
ATOM     13  F   UNL A   1      31.028  28.501  27.235  1.00  0.00    -0.169 F 
ENDBRANCH   9  10
ENDBRANCH   8   9
BRANCH   8  14
ATOM     14  C   UNL A   1      31.532  26.849  22.892  1.00  0.00     0.223 C 
ATOM     15  O   UNL A   1      31.702  25.951  22.055  1.00  0.00    -0.275 OA
BRANCH  14  16
ATOM     16  C   UNL A   1      30.676  28.039  22.430  1.00  0.00     0.101 C 
BRANCH  16  17
ATOM     17  C   UNL A   1      29.264  28.305  23.011  1.00  0.00     0.019 C 
BRANCH  17  18
ATOM     18  C   UNL A   1      28.791  29.731  22.819  1.00  0.00     0.045 C 
ATOM     19  C   UNL A   1      29.334  30.828  23.735  1.00  0.00     0.015 C 
ATOM     20  C   UNL A   1      28.952  30.190  21.377  1.00  0.00     0.264 C 
ATOM     21  C   UNL A   1      28.469  32.082  23.500  1.00  0.00     0.062 C 
ATOM     22  N   UNL A   1      28.028  31.305  21.169  1.00  0.00    -0.346 N 
ATOM     23  C   UNL A   1      28.375  32.450  22.018  1.00  0.00     0.260 C 
ATOM     24  H   UNL A   1      28.067  31.592  20.191  1.00  0.00     0.346 HD
ATOM     25  H   UNL A   1      27.087  30.994  21.415  1.00  0.00     0.346 HD
ENDBRANCH  17  18
ENDBRANCH  16  17
ENDBRANCH  14  16
ENDBRANCH   8  14
ENDBRANCH   7   8
ENDBRANCH   5   7
ENDBRANCH   2   3
ENDBRANCH   1   2
BRANCH   1  26
ATOM     26  C   UNL A   1      37.687  22.081  25.305  1.00  0.00     0.002 C 
BRANCH  26  27
ATOM     27  C   UNL A   1      37.321  20.755  24.622  1.00  0.00     0.002 C 
BRANCH  27  28
ATOM     28  C   UNL A   1      38.237  19.575  24.929  1.00  0.00     0.021 C 
BRANCH  28  29
ATOM     29  C   UNL A   1      39.151  19.772  26.128  1.00  0.00     0.116 C 
BRANCH  29  30
ATOM     30  N   UNL A   1      40.405  19.040  26.008  1.00  0.00    -0.352 N 
ATOM     31  C   UNL A   1      41.692  19.522  26.062  1.00  0.00     0.251 C 
ATOM     32  H   UNL A   1      40.319  18.070  25.869  1.00  0.00     0.163 HD
ATOM     33  O   UNL A   1      42.634  18.783  25.781  1.00  0.00    -0.269 OA
BRANCH  31  34
ATOM     34  C   UNL A   1      41.925  20.937  26.422  1.00  0.00     0.039 A 
ATOM     35  C   UNL A   1      42.287  21.256  27.732  1.00  0.00     0.014 A 
ATOM     36  C   UNL A   1      41.826  21.942  25.456  1.00  0.00     0.014 A 
ATOM     37  C   UNL A   1      42.624  22.573  28.054  1.00  0.00     0.010 A 
ATOM     38  C   UNL A   1      42.245  23.234  25.757  1.00  0.00     0.010 A 
ATOM     39  C   UNL A   1      42.648  23.565  27.060  1.00  0.00    -0.014 A 
BRANCH  39  40
ATOM     40  C   UNL A   1      43.090  24.954  27.359  1.00  0.00     0.031 A 
ATOM     41  C   UNL A   1      42.143  25.916  28.028  1.00  0.00     0.074 A 
ATOM     42  C   UNL A   1      44.313  25.366  26.969  1.00  0.00     0.049 A 
ATOM     43  N   UNL A   1      42.310  27.183  28.303  1.00  0.00    -0.248 NA
ATOM     44  C   UNL A   1      40.824  25.388  28.412  1.00  0.00     0.031 C 
ATOM     45  C   UNL A   1      45.304  24.536  26.278  1.00  0.00     0.029 A 
ATOM     46  N   UNL A   1      44.932  26.587  27.086  1.00  0.00    -0.354 N 
ATOM     47  C   UNL A   1      41.114  27.611  28.869  1.00  0.00     0.074 A 
ATOM     48  C   UNL A   1      40.213  26.478  28.853  1.00  0.00     0.031 C 
ATOM     49  C   UNL A   1      46.413  25.263  26.060  1.00  0.00     0.029 A 
ATOM     50  C   UNL A   1      46.197  26.623  26.541  1.00  0.00     0.049 A 
ATOM     51  H   UNL A   1      44.510  27.363  27.519  1.00  0.00     0.167 HD
ATOM     52  C   UNL A   1      40.804  28.831  29.372  1.00  0.00     0.034 A 
ATOM     53  C   UNL A   1      47.075  27.641  26.428  1.00  0.00     0.034 A 
ATOM     54  C   UNL A   1      41.723  29.941  29.404  1.00  0.00     0.049 A 
ATOM     55  C   UNL A   1      46.690  28.996  26.974  1.00  0.00     0.074 A 
ATOM     56  C   UNL A   1      41.538  31.193  29.965  1.00  0.00     0.029 A 
ATOM     57  N   UNL A   1      42.992  29.943  28.841  1.00  0.00    -0.354 N 
ATOM     58  N   UNL A   1      45.581  29.361  27.574  1.00  0.00    -0.248 NA
ATOM     59  C   UNL A   1      47.680  30.072  26.835  1.00  0.00     0.031 C 
ATOM     60  C   UNL A   1      42.657  31.977  29.666  1.00  0.00     0.029 A 
ATOM     61  C   UNL A   1      43.582  31.188  29.001  1.00  0.00     0.049 A 
ATOM     62  H   UNL A   1      43.412  29.174  28.393  1.00  0.00     0.167 HD
ATOM     63  C   UNL A   1      45.759  30.698  27.921  1.00  0.00     0.074 A 
ATOM     64  C   UNL A   1      47.086  31.068  27.476  1.00  0.00     0.031 C 
ATOM     65  C   UNL A   1      44.906  31.545  28.553  1.00  0.00     0.034 A 
BRANCH  52  66
ATOM     66  C   UNL A   1      39.404  29.041  29.900  1.00  0.00     0.023 A 
ATOM     67  C   UNL A   1      38.399  29.649  29.130  1.00  0.00     0.031 A 
ATOM     68  C   UNL A   1      39.071  28.616  31.200  1.00  0.00     0.131 A 
ATOM     69  C   UNL A   1      37.128  29.868  29.684  1.00  0.00     0.055 A 
ATOM     70  C   UNL A   1      37.783  28.764  31.716  1.00  0.00     0.041 A 
ATOM     71  F   UNL A   1      39.995  28.050  31.992  1.00  0.00    -0.206 F 
ATOM     72  C   UNL A   1      36.805  29.404  30.961  1.00  0.00     0.022 A 
BRANCH  69  73
ATOM     73  S   UNL A   1      35.940  30.879  28.760  1.00  0.00     0.124 S 
ATOM     74  O   UNL A   1      35.198  31.524  29.840  1.00  0.00    -0.237 OA
ATOM     75  O   UNL A   1      36.808  31.749  27.974  1.00  0.00    -0.237 OA
ATOM     76  O   UNL A   1      35.178  29.897  27.990  1.00  0.00    -0.744 OA
ENDBRANCH  69  73
ENDBRANCH  52  66
BRANCH  53  77
ATOM     77  C   UNL A   1      48.396  27.445  25.760  1.00  0.00     0.023 A 
ATOM     78  C   UNL A   1      48.537  27.619  24.374  1.00  0.00     0.031 A 
ATOM     79  C   UNL A   1      49.519  27.004  26.483  1.00  0.00     0.131 A 
ATOM     80  C   UNL A   1      49.747  27.286  23.743  1.00  0.00     0.055 A 
ATOM     81  C   UNL A   1      50.742  26.740  25.861  1.00  0.00     0.041 A 
ATOM     82  F   UNL A   1      49.445  26.820  27.810  1.00  0.00    -0.206 F 
ATOM     83  C   UNL A   1      50.854  26.863  24.480  1.00  0.00     0.022 A 
BRANCH  80  84
ATOM     84  S   UNL A   1      49.809  27.291  21.930  1.00  0.00     0.124 S 
ATOM     85  O   UNL A   1      48.704  26.401  21.595  1.00  0.00    -0.237 OA
ATOM     86  O   UNL A   1      49.611  28.704  21.626  1.00  0.00    -0.237 OA
ATOM     87  O   UNL A   1      51.143  26.772  21.635  1.00  0.00    -0.744 OA
ENDBRANCH  80  84
ENDBRANCH  53  77
BRANCH  65  88
ATOM     88  C   UNL A   1      45.411  32.936  28.854  1.00  0.00     0.023 A 
ATOM     89  C   UNL A   1      45.238  34.001  27.955  1.00  0.00     0.031 A 
ATOM     90  C   UNL A   1      46.080  33.194  30.065  1.00  0.00     0.131 A 
ATOM     91  C   UNL A   1      45.781  35.262  28.253  1.00  0.00     0.055 A 
ATOM     92  C   UNL A   1      46.556  34.466  30.385  1.00  0.00     0.041 A 
ATOM     93  F   UNL A   1      46.277  32.213  30.960  1.00  0.00    -0.206 F 
ATOM     94  C   UNL A   1      46.420  35.505  29.471  1.00  0.00     0.022 A 
BRANCH  91  95
ATOM     95  S   UNL A   1      45.725  36.556  26.983  1.00  0.00     0.124 S 
ATOM     96  O   UNL A   1      44.292  36.809  26.871  1.00  0.00    -0.237 OA
ATOM     97  O   UNL A   1      46.514  37.623  27.590  1.00  0.00    -0.237 OA
ATOM     98  O   UNL A   1      46.336  35.920  25.818  1.00  0.00    -0.744 OA
ENDBRANCH  91  95
ENDBRANCH  65  88
ENDBRANCH  39  40
ENDBRANCH  31  34
ENDBRANCH  29  30
ENDBRANCH  28  29
ENDBRANCH  27  28
ENDBRANCH  26  27
ENDBRANCH   1  26
TORSDOF 23
ENDMDL
MODEL 2
REMARK VINA RESULT:      -9.8      1.644      2.126
REMARK SMILES O=C(CN(CC(F)(F)F)C(=O)CC[C@H]1CCC[NH2+]C1)NCCCCCCNC(=O)c1ccc(-c2c3nc(c(-c4cc(S(=O)(=O)[O-])ccc4F)c4ccc([nH]4)c(-c4cc(S(=O)(=O)[O-])ccc4F)c4nc(c(-c5cc(S(=O)(=O)[O-])ccc5F)c5ccc2[nH]5)C=C4)C=C3)cc1
REMARK SMILES IDX 22 1 21 2 20 3 1 4 2 5 3 7 4 8 5 9 6 10 7 11 8 12 9 13 10 14
REMARK SMILES IDX 11 15 12 16 13 17 14 18 15 19 19 20 16 21 18 22 17 23 23 26
REMARK SMILES IDX 24 27 25 28 26 29 27 30 28 31 29 33 30 34 31 35 92 36 32 37
REMARK SMILES IDX 91 38 33 39 34 40 35 41 85 42 36 43 90 44 84 45 86 46 37 47
REMARK SMILES IDX 89 48 83 49 82 50 38 52 70 53 50 54 69 55 51 56 54 57 68 58
REMARK SMILES IDX 87 59 52 60 53 61 67 63 88 64 55 65 39 66 40 67 48 68 41 69
REMARK SMILES IDX 47 70 49 71 46 72 42 73 43 74 44 75 45 76 71 77 72 78 80 79
REMARK SMILES IDX 73 80 79 81 81 82 78 83 74 84 75 85 76 86 77 87 56 88 57 89
REMARK SMILES IDX 65 90 58 91 64 92 66 93 63 94 59 95 60 96 61 97 62 98
REMARK H PARENT 20 6 18 24 18 25 27 32 86 51 54 62
REMARK Flexibility Score: inf
ROOT
ATOM      1  C   UNL A   1      36.617  23.805  25.079  1.00  0.00     0.021 C 
ENDROOT
BRANCH   1   2
ATOM      2  C   UNL A   1      35.121  23.686  24.762  1.00  0.00     0.116 C 
BRANCH   2   3
ATOM      3  N   UNL A   1      34.271  24.739  25.310  1.00  0.00    -0.355 N 
ATOM      4  O   UNL A   1      32.382  23.447  25.350  1.00  0.00    -0.273 OA
ATOM      5  C   UNL A   1      32.977  24.463  25.712  1.00  0.00     0.239 C 
ATOM      6  H   UNL A   1      34.624  25.654  25.394  1.00  0.00     0.163 HD
BRANCH   5   7
ATOM      7  C   UNL A   1      32.211  25.598  26.431  1.00  0.00     0.219 C 
BRANCH   7   8
ATOM      8  N   UNL A   1      32.388  27.015  26.025  1.00  0.00    -0.324 N 
BRANCH   8   9
ATOM      9  C   UNL A   1      32.989  27.887  27.083  1.00  0.00     0.235 C 
BRANCH   9  10
ATOM     10  C   UNL A   1      33.961  29.038  26.788  1.00  0.00     0.406 C 
ATOM     11  F   UNL A   1      33.411  30.102  26.181  1.00  0.00    -0.169 F 
ATOM     12  F   UNL A   1      34.474  29.500  27.959  1.00  0.00    -0.169 F 
ATOM     13  F   UNL A   1      35.006  28.618  26.041  1.00  0.00    -0.169 F 
ENDBRANCH   9  10
ENDBRANCH   8   9
BRANCH   8  14
ATOM     14  C   UNL A   1      32.060  27.279  24.694  1.00  0.00     0.223 C 
ATOM     15  O   UNL A   1      32.908  27.809  23.963  1.00  0.00    -0.275 OA
BRANCH  14  16
ATOM     16  C   UNL A   1      30.700  26.989  24.038  1.00  0.00     0.101 C 
BRANCH  16  17
ATOM     17  C   UNL A   1      30.324  27.565  22.648  1.00  0.00     0.019 C 
BRANCH  17  18
ATOM     18  C   UNL A   1      29.424  28.781  22.723  1.00  0.00     0.045 C 
ATOM     19  C   UNL A   1      27.966  28.607  23.147  1.00  0.00     0.015 C 
ATOM     20  C   UNL A   1      30.039  29.887  23.570  1.00  0.00     0.264 C 
ATOM     21  C   UNL A   1      27.247  29.937  22.847  1.00  0.00     0.062 C 
ATOM     22  N   UNL A   1      29.409  31.144  23.168  1.00  0.00    -0.346 N 
ATOM     23  C   UNL A   1      27.972  31.137  23.461  1.00  0.00     0.260 C 
ATOM     24  H   UNL A   1      29.848  31.913  23.674  1.00  0.00     0.346 HD
ATOM     25  H   UNL A   1      29.532  31.259  22.162  1.00  0.00     0.346 HD
ENDBRANCH  17  18
ENDBRANCH  16  17
ENDBRANCH  14  16
ENDBRANCH   8  14
ENDBRANCH   7   8
ENDBRANCH   5   7
ENDBRANCH   2   3
ENDBRANCH   1   2
BRANCH   1  26
ATOM     26  C   UNL A   1      37.331  22.540  25.565  1.00  0.00     0.002 C 
BRANCH  26  27
ATOM     27  C   UNL A   1      37.280  21.336  24.612  1.00  0.00     0.002 C 
BRANCH  27  28
ATOM     28  C   UNL A   1      38.143  20.141  25.006  1.00  0.00     0.021 C 
BRANCH  28  29
ATOM     29  C   UNL A   1      39.384  20.489  25.812  1.00  0.00     0.116 C 
BRANCH  29  30
ATOM     30  N   UNL A   1      40.294  19.361  25.960  1.00  0.00    -0.352 N 
ATOM     31  C   UNL A   1      41.648  19.373  26.200  1.00  0.00     0.251 C 
ATOM     32  H   UNL A   1      39.884  18.470  25.878  1.00  0.00     0.163 HD
ATOM     33  O   UNL A   1      42.290  18.326  26.137  1.00  0.00    -0.269 OA
BRANCH  31  34
ATOM     34  C   UNL A   1      42.324  20.655  26.495  1.00  0.00     0.039 A 
ATOM     35  C   UNL A   1      42.773  21.448  25.437  1.00  0.00     0.014 A 
ATOM     36  C   UNL A   1      42.479  21.090  27.814  1.00  0.00     0.014 A 
ATOM     37  C   UNL A   1      43.306  22.713  25.699  1.00  0.00     0.010 A 
ATOM     38  C   UNL A   1      42.928  22.382  28.067  1.00  0.00     0.010 A 
ATOM     39  C   UNL A   1      43.349  23.208  27.013  1.00  0.00    -0.014 A 
BRANCH  39  40
ATOM     40  C   UNL A   1      43.829  24.585  27.308  1.00  0.00     0.031 A 
ATOM     41  C   UNL A   1      42.875  25.611  27.861  1.00  0.00     0.074 A 
ATOM     42  C   UNL A   1      45.100  24.927  27.017  1.00  0.00     0.049 A 
ATOM     43  N   UNL A   1      43.078  26.879  28.111  1.00  0.00    -0.248 NA
ATOM     44  C   UNL A   1      41.503  25.158  28.140  1.00  0.00     0.031 C 
ATOM     45  C   UNL A   1      46.107  24.030  26.443  1.00  0.00     0.029 A 
ATOM     46  N   UNL A   1      45.764  26.122  27.151  1.00  0.00    -0.354 N 
ATOM     47  C   UNL A   1      41.858  27.379  28.555  1.00  0.00     0.074 A 
ATOM     48  C   UNL A   1      40.909  26.288  28.492  1.00  0.00     0.031 C 
ATOM     49  C   UNL A   1      47.265  24.698  26.303  1.00  0.00     0.029 A 
ATOM     50  C   UNL A   1      47.072  26.083  26.722  1.00  0.00     0.049 A 
ATOM     51  H   UNL A   1      45.344  26.931  27.521  1.00  0.00     0.167 HD
ATOM     52  C   UNL A   1      41.564  28.628  28.991  1.00  0.00     0.034 A 
ATOM     53  C   UNL A   1      48.005  27.055  26.656  1.00  0.00     0.034 A 
ATOM     54  C   UNL A   1      42.529  29.696  29.071  1.00  0.00     0.049 A 
ATOM     55  C   UNL A   1      47.639  28.444  27.125  1.00  0.00     0.074 A 
ATOM     56  C   UNL A   1      42.356  30.973  29.576  1.00  0.00     0.029 A 
ATOM     57  N   UNL A   1      43.842  29.621  28.624  1.00  0.00    -0.354 N 
ATOM     58  N   UNL A   1      46.500  28.879  27.613  1.00  0.00    -0.248 NA
ATOM     59  C   UNL A   1      48.688  29.469  27.043  1.00  0.00     0.031 C 
ATOM     60  C   UNL A   1      43.533  31.695  29.355  1.00  0.00     0.029 A 
ATOM     61  C   UNL A   1      44.474  30.843  28.799  1.00  0.00     0.049 A 
ATOM     62  H   UNL A   1      44.262  28.819  28.239  1.00  0.00     0.167 HD
ATOM     63  C   UNL A   1      46.712  30.218  27.933  1.00  0.00     0.074 A 
ATOM     64  C   UNL A   1      48.089  30.512  27.598  1.00  0.00     0.031 C 
ATOM     65  C   UNL A   1      45.849  31.124  28.461  1.00  0.00     0.034 A 
BRANCH  52  66
ATOM     66  C   UNL A   1      40.135  28.919  29.385  1.00  0.00     0.023 A 
ATOM     67  C   UNL A   1      39.751  29.091  30.726  1.00  0.00     0.031 A 
ATOM     68  C   UNL A   1      39.141  29.034  28.396  1.00  0.00     0.131 A 
ATOM     69  C   UNL A   1      38.401  29.309  31.045  1.00  0.00     0.055 A 
ATOM     70  C   UNL A   1      37.815  29.331  28.714  1.00  0.00     0.041 A 
ATOM     71  F   UNL A   1      39.444  28.856  27.100  1.00  0.00    -0.206 F 
ATOM     72  C   UNL A   1      37.436  29.459  30.046  1.00  0.00     0.022 A 
BRANCH  69  73
ATOM     73  S   UNL A   1      37.903  29.270  32.788  1.00  0.00     0.124 S 
ATOM     74  O   UNL A   1      36.839  30.270  32.813  1.00  0.00    -0.237 OA
ATOM     75  O   UNL A   1      37.483  27.885  32.966  1.00  0.00    -0.237 OA
ATOM     76  O   UNL A   1      39.122  29.650  33.502  1.00  0.00    -0.744 OA
ENDBRANCH  69  73
ENDBRANCH  52  66
BRANCH  53  77
ATOM     77  C   UNL A   1      49.369  26.777  26.116  1.00  0.00     0.023 A 
ATOM     78  C   UNL A   1      49.744  27.223  24.838  1.00  0.00     0.031 A 
ATOM     79  C   UNL A   1      50.291  25.993  26.833  1.00  0.00     0.131 A 
ATOM     80  C   UNL A   1      50.973  26.825  24.288  1.00  0.00     0.055 A 
ATOM     81  C   UNL A   1      51.542  25.656  26.309  1.00  0.00     0.041 A 
ATOM     82  F   UNL A   1      49.989  25.538  28.059  1.00  0.00    -0.206 F 
ATOM     83  C   UNL A   1      51.880  26.058  25.021  1.00  0.00     0.022 A 
BRANCH  80  84
ATOM     84  S   UNL A   1      51.311  27.217  22.549  1.00  0.00     0.124 S 
ATOM     85  O   UNL A   1      52.422  26.320  22.255  1.00  0.00    -0.237 OA
ATOM     86  O   UNL A   1      50.038  26.893  21.914  1.00  0.00    -0.237 OA
ATOM     87  O   UNL A   1      51.646  28.639  22.581  1.00  0.00    -0.744 OA
ENDBRANCH  80  84
ENDBRANCH  53  77
BRANCH  65  88
ATOM     88  C   UNL A   1      46.391  32.500  28.763  1.00  0.00     0.023 A 
ATOM     89  C   UNL A   1      46.248  33.571  27.865  1.00  0.00     0.031 A 
ATOM     90  C   UNL A   1      47.067  32.738  29.975  1.00  0.00     0.131 A 
ATOM     91  C   UNL A   1      46.825  34.816  28.165  1.00  0.00     0.055 A 
ATOM     92  C   UNL A   1      47.578  33.996  30.297  1.00  0.00     0.041 A 
ATOM     93  F   UNL A   1      47.237  31.751  30.869  1.00  0.00    -0.206 F 
ATOM     94  C   UNL A   1      47.471  35.040  29.384  1.00  0.00     0.022 A 
BRANCH  91  95
ATOM     95  S   UNL A   1      46.804  36.113  26.897  1.00  0.00     0.124 S 
ATOM     96  O   UNL A   1      48.035  35.838  26.162  1.00  0.00    -0.237 OA
ATOM     97  O   UNL A   1      45.561  35.835  26.185  1.00  0.00    -0.237 OA
ATOM     98  O   UNL A   1      46.810  37.351  27.674  1.00  0.00    -0.744 OA
ENDBRANCH  91  95
ENDBRANCH  65  88
ENDBRANCH  39  40
ENDBRANCH  31  34
ENDBRANCH  29  30
ENDBRANCH  28  29
ENDBRANCH  27  28
ENDBRANCH  26  27
ENDBRANCH   1  26
TORSDOF 23
ENDMDL
MODEL 3
REMARK VINA RESULT:      -9.6      3.017      8.759
REMARK SMILES O=C(CN(CC(F)(F)F)C(=O)CC[C@H]1CCC[NH2+]C1)NCCCCCCNC(=O)c1ccc(-c2c3nc(c(-c4cc(S(=O)(=O)[O-])ccc4F)c4ccc([nH]4)c(-c4cc(S(=O)(=O)[O-])ccc4F)c4nc(c(-c5cc(S(=O)(=O)[O-])ccc5F)c5ccc2[nH]5)C=C4)C=C3)cc1
REMARK SMILES IDX 22 1 21 2 20 3 1 4 2 5 3 7 4 8 5 9 6 10 7 11 8 12 9 13 10 14
REMARK SMILES IDX 11 15 12 16 13 17 14 18 15 19 19 20 16 21 18 22 17 23 23 26
REMARK SMILES IDX 24 27 25 28 26 29 27 30 28 31 29 33 30 34 31 35 92 36 32 37
REMARK SMILES IDX 91 38 33 39 34 40 35 41 85 42 36 43 90 44 84 45 86 46 37 47
REMARK SMILES IDX 89 48 83 49 82 50 38 52 70 53 50 54 69 55 51 56 54 57 68 58
REMARK SMILES IDX 87 59 52 60 53 61 67 63 88 64 55 65 39 66 40 67 48 68 41 69
REMARK SMILES IDX 47 70 49 71 46 72 42 73 43 74 44 75 45 76 71 77 72 78 80 79
REMARK SMILES IDX 73 80 79 81 81 82 78 83 74 84 75 85 76 86 77 87 56 88 57 89
REMARK SMILES IDX 65 90 58 91 64 92 66 93 63 94 59 95 60 96 61 97 62 98
REMARK H PARENT 20 6 18 24 18 25 27 32 86 51 54 62
REMARK Flexibility Score: inf
ROOT
ATOM      1  C   UNL A   1      39.463  23.354  26.701  1.00  0.00     0.021 C 
ENDROOT
BRANCH   1   2
ATOM      2  C   UNL A   1      37.956  23.070  26.723  1.00  0.00     0.116 C 
BRANCH   2   3
ATOM      3  N   UNL A   1      37.255  23.272  25.459  1.00  0.00    -0.355 N 
ATOM      4  O   UNL A   1      36.830  21.047  25.128  1.00  0.00    -0.273 OA
ATOM      5  C   UNL A   1      36.600  22.222  24.840  1.00  0.00     0.239 C 
ATOM      6  H   UNL A   1      37.247  24.164  25.044  1.00  0.00     0.163 HD
BRANCH   5   7
ATOM      7  C   UNL A   1      35.748  22.566  23.596  1.00  0.00     0.219 C 
BRANCH   7   8
ATOM      8  N   UNL A   1      34.396  23.163  23.738  1.00  0.00    -0.324 N 
BRANCH   8   9
ATOM      9  C   UNL A   1      34.397  24.649  23.924  1.00  0.00     0.235 C 
BRANCH   9  10
ATOM     10  C   UNL A   1      33.503  25.382  24.933  1.00  0.00     0.406 C 
ATOM     11  F   UNL A   1      32.241  25.588  24.525  1.00  0.00    -0.169 F 
ATOM     12  F   UNL A   1      33.412  24.640  26.069  1.00  0.00    -0.169 F 
ATOM     13  F   UNL A   1      34.034  26.574  25.284  1.00  0.00    -0.169 F 
ENDBRANCH   9  10
ENDBRANCH   8   9
BRANCH   8  14
ATOM     14  C   UNL A   1      33.346  22.259  23.574  1.00  0.00     0.223 C 
ATOM     15  O   UNL A   1      32.359  22.602  22.907  1.00  0.00    -0.275 OA
BRANCH  14  16
ATOM     16  C   UNL A   1      33.283  20.848  24.182  1.00  0.00     0.101 C 
BRANCH  16  17
ATOM     17  C   UNL A   1      32.546  19.684  23.471  1.00  0.00     0.019 C 
BRANCH  17  18
ATOM     18  C   UNL A   1      33.023  18.313  23.905  1.00  0.00     0.045 C 
ATOM     19  C   UNL A   1      34.492  18.117  24.280  1.00  0.00     0.015 C 
ATOM     20  C   UNL A   1      32.165  17.747  25.028  1.00  0.00     0.264 C 
ATOM     21  C   UNL A   1      34.731  16.597  24.387  1.00  0.00     0.062 C 
ATOM     22  N   UNL A   1      32.334  16.294  25.016  1.00  0.00    -0.346 N 
ATOM     23  C   UNL A   1      33.720  15.917  25.313  1.00  0.00     0.260 C 
ATOM     24  H   UNL A   1      31.719  15.881  25.717  1.00  0.00     0.346 HD
ATOM     25  H   UNL A   1      32.098  15.951  24.084  1.00  0.00     0.346 HD
ENDBRANCH  17  18
ENDBRANCH  16  17
ENDBRANCH  14  16
ENDBRANCH   8  14
ENDBRANCH   7   8
ENDBRANCH   5   7
ENDBRANCH   2   3
ENDBRANCH   1   2
BRANCH   1  26
ATOM     26  C   UNL A   1      40.403  22.149  26.806  1.00  0.00     0.002 C 
BRANCH  26  27
ATOM     27  C   UNL A   1      40.213  21.057  25.742  1.00  0.00     0.002 C 
BRANCH  27  28
ATOM     28  C   UNL A   1      40.594  19.643  26.166  1.00  0.00     0.021 C 
BRANCH  28  29
ATOM     29  C   UNL A   1      42.007  19.498  26.708  1.00  0.00     0.116 C 
BRANCH  29  30
ATOM     30  N   UNL A   1      42.995  19.291  25.658  1.00  0.00    -0.352 N 
ATOM     31  C   UNL A   1      43.776  20.222  25.015  1.00  0.00     0.251 C 
ATOM     32  H   UNL A   1      43.120  18.358  25.370  1.00  0.00     0.163 HD
ATOM     33  O   UNL A   1      44.445  19.890  24.038  1.00  0.00    -0.269 OA
BRANCH  31  34
ATOM     34  C   UNL A   1      43.775  21.624  25.485  1.00  0.00     0.039 A 
ATOM     35  C   UNL A   1      44.149  21.902  26.802  1.00  0.00     0.014 A 
ATOM     36  C   UNL A   1      43.442  22.666  24.615  1.00  0.00     0.014 A 
ATOM     37  C   UNL A   1      44.264  23.230  27.221  1.00  0.00     0.010 A 
ATOM     38  C   UNL A   1      43.641  23.985  25.008  1.00  0.00     0.010 A 
ATOM     39  C   UNL A   1      44.053  24.283  26.316  1.00  0.00    -0.014 A 
BRANCH  39  40
ATOM     40  C   UNL A   1      44.257  25.702  26.714  1.00  0.00     0.031 A 
ATOM     41  C   UNL A   1      45.624  26.324  26.607  1.00  0.00     0.074 A 
ATOM     42  C   UNL A   1      43.229  26.405  27.234  1.00  0.00     0.049 A 
ATOM     43  N   UNL A   1      46.021  27.515  26.973  1.00  0.00    -0.248 NA
ATOM     44  C   UNL A   1      46.691  25.485  26.039  1.00  0.00     0.031 C 
ATOM     45  C   UNL A   1      41.867  25.898  27.423  1.00  0.00     0.029 A 
ATOM     46  N   UNL A   1      43.168  27.693  27.708  1.00  0.00    -0.354 N 
ATOM     47  C   UNL A   1      47.385  27.561  26.702  1.00  0.00     0.074 A 
ATOM     48  C   UNL A   1      47.755  26.260  26.187  1.00  0.00     0.031 C 
ATOM     49  C   UNL A   1      41.102  26.871  27.944  1.00  0.00     0.029 A 
ATOM     50  C   UNL A   1      41.926  28.053  28.181  1.00  0.00     0.049 A 
ATOM     51  H   UNL A   1      43.942  28.302  27.709  1.00  0.00     0.167 HD
ATOM     52  C   UNL A   1      48.243  28.599  26.853  1.00  0.00     0.034 A 
ATOM     53  C   UNL A   1      41.502  29.198  28.755  1.00  0.00     0.034 A 
ATOM     54  C   UNL A   1      47.852  29.898  27.344  1.00  0.00     0.049 A 
ATOM     55  C   UNL A   1      42.489  30.328  28.935  1.00  0.00     0.074 A 
ATOM     56  C   UNL A   1      48.623  31.041  27.457  1.00  0.00     0.029 A 
ATOM     57  N   UNL A   1      46.587  30.224  27.817  1.00  0.00    -0.354 N 
ATOM     58  N   UNL A   1      43.759  30.378  28.603  1.00  0.00    -0.248 NA
ATOM     59  C   UNL A   1      41.983  31.558  29.557  1.00  0.00     0.031 C 
ATOM     60  C   UNL A   1      47.853  32.029  28.077  1.00  0.00     0.029 A 
ATOM     61  C   UNL A   1      46.572  31.536  28.265  1.00  0.00     0.049 A 
ATOM     62  H   UNL A   1      45.816  29.613  27.832  1.00  0.00     0.167 HD
ATOM     63  C   UNL A   1      44.189  31.659  28.939  1.00  0.00     0.074 A 
ATOM     64  C   UNL A   1      43.041  32.352  29.484  1.00  0.00     0.031 C 
ATOM     65  C   UNL A   1      45.420  32.216  28.806  1.00  0.00     0.034 A 
BRANCH  52  66
ATOM     66  C   UNL A   1      49.697  28.367  26.515  1.00  0.00     0.023 A 
ATOM     67  C   UNL A   1      50.188  28.494  25.205  1.00  0.00     0.031 A 
ATOM     68  C   UNL A   1      50.609  28.019  27.529  1.00  0.00     0.131 A 
ATOM     69  C   UNL A   1      51.538  28.217  24.933  1.00  0.00     0.055 A 
ATOM     70  C   UNL A   1      51.965  27.824  27.265  1.00  0.00     0.041 A 
ATOM     71  F   UNL A   1      50.194  27.860  28.796  1.00  0.00    -0.206 F 
ATOM     72  C   UNL A   1      52.435  27.912  25.959  1.00  0.00     0.022 A 
BRANCH  69  73
ATOM     73  S   UNL A   1      52.078  28.141  23.203  1.00  0.00     0.124 S 
ATOM     74  O   UNL A   1      52.221  29.558  22.876  1.00  0.00    -0.237 OA
ATOM     75  O   UNL A   1      53.317  27.378  23.293  1.00  0.00    -0.237 OA
ATOM     76  O   UNL A   1      50.973  27.462  22.528  1.00  0.00    -0.744 OA
ENDBRANCH  69  73
ENDBRANCH  52  66
BRANCH  53  77
ATOM     77  C   UNL A   1      40.092  29.347  29.224  1.00  0.00     0.023 A 
ATOM     78  C   UNL A   1      39.774  29.270  30.589  1.00  0.00     0.031 A 
ATOM     79  C   UNL A   1      39.033  29.488  28.309  1.00  0.00     0.131 A 
ATOM     80  C   UNL A   1      38.430  29.262  30.997  1.00  0.00     0.055 A 
ATOM     81  C   UNL A   1      37.700  29.550  28.726  1.00  0.00     0.041 A 
ATOM     82  F   UNL A   1      39.276  29.568  26.992  1.00  0.00    -0.206 F 
ATOM     83  C   UNL A   1      37.393  29.418  30.076  1.00  0.00     0.022 A 
BRANCH  80  84
ATOM     84  S   UNL A   1      38.055  28.916  32.738  1.00  0.00     0.124 S 
ATOM     85  O   UNL A   1      39.103  29.666  33.419  1.00  0.00    -0.237 OA
ATOM     86  O   UNL A   1      36.701  29.442  32.866  1.00  0.00    -0.237 OA
ATOM     87  O   UNL A   1      38.168  27.462  32.826  1.00  0.00    -0.744 OA
ENDBRANCH  80  84
ENDBRANCH  53  77
BRANCH  65  88
ATOM     88  C   UNL A   1      45.568  33.665  29.203  1.00  0.00     0.023 A 
ATOM     89  C   UNL A   1      45.297  34.714  28.308  1.00  0.00     0.031 A 
ATOM     90  C   UNL A   1      45.994  33.998  30.503  1.00  0.00     0.131 A 
ATOM     91  C   UNL A   1      45.510  36.044  28.705  1.00  0.00     0.055 A 
ATOM     92  C   UNL A   1      46.138  35.324  30.912  1.00  0.00     0.041 A 
ATOM     93  F   UNL A   1      46.272  33.038  31.399  1.00  0.00    -0.206 F 
ATOM     94  C   UNL A   1      45.909  36.356  30.008  1.00  0.00     0.022 A 
BRANCH  91  95
ATOM     95  S   UNL A   1      45.353  37.359  27.465  1.00  0.00     0.124 S 
ATOM     96  O   UNL A   1      45.149  38.539  28.299  1.00  0.00    -0.237 OA
ATOM     97  O   UNL A   1      46.632  37.285  26.768  1.00  0.00    -0.237 OA
ATOM     98  O   UNL A   1      44.193  36.949  26.677  1.00  0.00    -0.744 OA
ENDBRANCH  91  95
ENDBRANCH  65  88
ENDBRANCH  39  40
ENDBRANCH  31  34
ENDBRANCH  29  30
ENDBRANCH  28  29
ENDBRANCH  27  28
ENDBRANCH  26  27
ENDBRANCH   1  26
TORSDOF 23
ENDMDL
