MODEL 1
REMARK VINA RESULT:     -12.0      0.000      0.000
REMARK SMILES CS(=O)(=O)N1C[C@@H]2CN(C(=O)C3CCOCC3)C[C@]2(C(=O)NCCCCCCNC(=O)c2ccc(-c3c4nc(c(-c5cc(S(=O)(=O)[O-])ccc5F)c5ccc([nH]5)c(-c5cc(S(=O)(=O)[O-])ccc5F)c5nc(c(-c6cc(S(=O)(=O)[O-])ccc6F)c6ccc3[nH]6)C=C5)C=C4)cc2)C1
REMARK SMILES IDX 26 1 25 2 24 3 23 4 22 5 20 6 21 7 19 9 5 10 6 11 95 12 7 13
REMARK SMILES IDX 8 14 18 15 9 16 2 17 1 18 3 19 4 20 10 21 11 22 12 23 13 24
REMARK SMILES IDX 17 25 14 26 16 27 15 28 27 29 28 30 29 31 30 32 31 34 32 35
REMARK SMILES IDX 33 36 94 37 34 38 93 39 35 40 36 41 37 42 87 43 38 44 92 45
REMARK SMILES IDX 86 46 88 47 39 48 91 49 85 50 84 51 40 53 72 54 52 55 71 56
REMARK SMILES IDX 53 57 56 58 70 59 89 60 54 61 55 62 69 64 90 65 57 66 41 67
REMARK SMILES IDX 42 68 50 69 43 70 49 71 51 72 48 73 44 74 45 75 46 76 47 77
REMARK SMILES IDX 73 78 74 79 82 80 75 81 81 82 83 83 80 84 76 85 77 86 78 87
REMARK SMILES IDX 79 88 58 89 59 90 67 91 60 92 66 93 68 94 65 95 61 96 62 97
REMARK SMILES IDX 63 98 64 99
REMARK H PARENT 22 8 29 33 88 52 56 63
REMARK Flexibility Score: inf
ROOT
ATOM      1  C   UNL A   1      37.100  20.765  24.334  1.00  0.00     0.002 C 
ENDROOT
BRANCH   1   2
ATOM      2  C   UNL A   1      37.542  22.193  24.662  1.00  0.00     0.002 C 
BRANCH   2   3
ATOM      3  C   UNL A   1      36.500  23.286  24.428  1.00  0.00     0.021 C 
BRANCH   3   4
ATOM      4  C   UNL A   1      35.953  24.017  25.664  1.00  0.00     0.116 C 
BRANCH   4   5
ATOM      5  N   UNL A   1      35.555  23.032  26.657  1.00  0.00    -0.356 N 
ATOM      6  C   UNL A   1      34.271  22.649  26.966  1.00  0.00     0.229 C 
ATOM      7  O   UNL A   1      34.026  22.348  28.137  1.00  0.00    -0.274 OA
ATOM      8  H   UNL A   1      36.279  22.594  27.158  1.00  0.00     0.163 HD
BRANCH   6   9
ATOM      9  C   UNL A   1      33.234  22.554  25.788  1.00  0.00     0.086 C 
ATOM     10  N   UNL A   1      33.170  20.329  24.618  1.00  0.00    -0.201 NA
ATOM     11  C   UNL A   1      32.040  21.088  24.130  1.00  0.00     0.108 C 
ATOM     12  C   UNL A   1      33.618  20.964  25.879  1.00  0.00     0.121 C 
ATOM     13  C   UNL A   1      31.813  22.045  25.283  1.00  0.00     0.042 C 
ATOM     14  C   UNL A   1      30.993  23.220  24.819  1.00  0.00     0.125 C 
ATOM     15  C   UNL A   1      32.448  23.722  26.589  1.00  0.00     0.138 C 
ATOM     16  N   UNL A   1      31.365  24.233  25.749  1.00  0.00    -0.341 N 
BRANCH  10  17
ATOM     17  S   UNL A   1      33.213  18.663  24.451  1.00  0.00     0.211 S 
ATOM     18  C   UNL A   1      32.520  18.387  22.831  1.00  0.00     0.176 C 
ATOM     19  O   UNL A   1      32.295  18.097  25.422  1.00  0.00    -0.213 OA
ATOM     20  O   UNL A   1      34.599  18.262  24.409  1.00  0.00    -0.213 OA
ENDBRANCH  10  17
BRANCH  16  21
ATOM     21  C   UNL A   1      30.673  25.424  25.735  1.00  0.00     0.225 C 
ATOM     22  O   UNL A   1      29.679  25.561  26.459  1.00  0.00    -0.275 OA
BRANCH  21  23
ATOM     23  C   UNL A   1      30.984  26.535  24.736  1.00  0.00     0.083 C 
ATOM     24  C   UNL A   1      31.507  27.737  25.519  1.00  0.00     0.042 C 
ATOM     25  C   UNL A   1      29.907  26.858  23.700  1.00  0.00     0.042 C 
ATOM     26  C   UNL A   1      31.632  28.972  24.652  1.00  0.00     0.161 C 
ATOM     27  C   UNL A   1      30.178  28.179  22.990  1.00  0.00     0.161 C 
ATOM     28  O   UNL A   1      30.421  29.212  23.942  1.00  0.00    -0.381 OA
ENDBRANCH  21  23
ENDBRANCH  16  21
ENDBRANCH   6   9
ENDBRANCH   4   5
ENDBRANCH   3   4
ENDBRANCH   2   3
ENDBRANCH   1   2
BRANCH   1  29
ATOM     29  C   UNL A   1      37.892  19.638  24.998  1.00  0.00     0.021 C 
BRANCH  29  30
ATOM     30  C   UNL A   1      38.971  20.058  25.996  1.00  0.00     0.116 C 
BRANCH  30  31
ATOM     31  N   UNL A   1      40.134  19.201  26.042  1.00  0.00    -0.352 N 
ATOM     32  C   UNL A   1      41.424  19.497  26.408  1.00  0.00     0.251 C 
ATOM     33  H   UNL A   1      39.978  18.267  25.769  1.00  0.00     0.163 HD
ATOM     34  O   UNL A   1      42.250  18.590  26.467  1.00  0.00    -0.269 OA
BRANCH  32  35
ATOM     35  C   UNL A   1      41.848  20.897  26.660  1.00  0.00     0.039 A 
ATOM     36  C   UNL A   1      41.857  21.769  25.569  1.00  0.00     0.014 A 
ATOM     37  C   UNL A   1      42.253  21.358  27.917  1.00  0.00     0.014 A 
ATOM     38  C   UNL A   1      42.226  23.106  25.741  1.00  0.00     0.010 A 
ATOM     39  C   UNL A   1      42.559  22.713  28.101  1.00  0.00     0.010 A 
ATOM     40  C   UNL A   1      42.559  23.601  27.011  1.00  0.00    -0.014 A 
BRANCH  40  41
ATOM     41  C   UNL A   1      42.948  25.033  27.172  1.00  0.00     0.031 A 
ATOM     42  C   UNL A   1      42.015  26.003  27.848  1.00  0.00     0.074 A 
ATOM     43  C   UNL A   1      44.152  25.457  26.735  1.00  0.00     0.049 A 
ATOM     44  N   UNL A   1      42.195  27.272  28.123  1.00  0.00    -0.248 NA
ATOM     45  C   UNL A   1      40.701  25.484  28.252  1.00  0.00     0.031 C 
ATOM     46  C   UNL A   1      45.138  24.626  26.043  1.00  0.00     0.029 A 
ATOM     47  N   UNL A   1      44.760  26.687  26.819  1.00  0.00    -0.354 N 
ATOM     48  C   UNL A   1      41.020  27.701  28.732  1.00  0.00     0.074 A 
ATOM     49  C   UNL A   1      40.111  26.574  28.719  1.00  0.00     0.031 C 
ATOM     50  C   UNL A   1      46.240  25.356  25.802  1.00  0.00     0.029 A 
ATOM     51  C   UNL A   1      46.027  26.719  26.282  1.00  0.00     0.049 A 
ATOM     52  H   UNL A   1      44.329  27.473  27.225  1.00  0.00     0.167 HD
ATOM     53  C   UNL A   1      40.732  28.911  29.276  1.00  0.00     0.034 A 
ATOM     54  C   UNL A   1      46.918  27.727  26.185  1.00  0.00     0.034 A 
ATOM     55  C   UNL A   1      41.647  30.028  29.283  1.00  0.00     0.049 A 
ATOM     56  C   UNL A   1      46.562  29.075  26.764  1.00  0.00     0.074 A 
ATOM     57  C   UNL A   1      41.467  31.287  29.831  1.00  0.00     0.029 A 
ATOM     58  N   UNL A   1      42.913  30.028  28.708  1.00  0.00    -0.354 N 
ATOM     59  N   UNL A   1      45.461  29.451  27.374  1.00  0.00    -0.248 NA
ATOM     60  C   UNL A   1      47.581  30.128  26.662  1.00  0.00     0.031 C 
ATOM     61  C   UNL A   1      42.584  32.069  29.519  1.00  0.00     0.029 A 
ATOM     62  C   UNL A   1      43.508  31.272  28.864  1.00  0.00     0.049 A 
ATOM     63  H   UNL A   1      43.326  29.257  28.255  1.00  0.00     0.167 HD
ATOM     64  C   UNL A   1      45.676  30.771  27.767  1.00  0.00     0.074 A 
ATOM     65  C   UNL A   1      47.015  31.117  27.337  1.00  0.00     0.031 C 
ATOM     66  C   UNL A   1      44.844  31.615  28.430  1.00  0.00     0.034 A 
BRANCH  53  67
ATOM     67  C   UNL A   1      39.356  29.094  29.878  1.00  0.00     0.023 A 
ATOM     68  C   UNL A   1      38.337  29.786  29.200  1.00  0.00     0.031 A 
ATOM     69  C   UNL A   1      39.067  28.594  31.160  1.00  0.00     0.131 A 
ATOM     70  C   UNL A   1      37.110  30.029  29.838  1.00  0.00     0.055 A 
ATOM     71  C   UNL A   1      37.813  28.759  31.752  1.00  0.00     0.041 A 
ATOM     72  F   UNL A   1      40.005  27.944  31.870  1.00  0.00    -0.206 F 
ATOM     73  C   UNL A   1      36.831  29.496  31.098  1.00  0.00     0.022 A 
BRANCH  70  74
ATOM     74  S   UNL A   1      35.948  31.189  29.066  1.00  0.00     0.124 S 
ATOM     75  O   UNL A   1      35.167  30.298  28.210  1.00  0.00    -0.237 OA
ATOM     76  O   UNL A   1      35.248  31.748  30.216  1.00  0.00    -0.237 OA
ATOM     77  O   UNL A   1      36.818  32.120  28.350  1.00  0.00    -0.744 OA
ENDBRANCH  70  74
ENDBRANCH  53  67
BRANCH  54  78
ATOM     78  C   UNL A   1      48.234  27.517  25.509  1.00  0.00     0.023 A 
ATOM     79  C   UNL A   1      48.387  27.719  24.127  1.00  0.00     0.031 A 
ATOM     80  C   UNL A   1      49.347  27.046  26.230  1.00  0.00     0.131 A 
ATOM     81  C   UNL A   1      49.603  27.398  23.501  1.00  0.00     0.055 A 
ATOM     82  C   UNL A   1      50.572  26.788  25.613  1.00  0.00     0.041 A 
ATOM     83  F   UNL A   1      49.258  26.834  27.552  1.00  0.00    -0.206 F 
ATOM     84  C   UNL A   1      50.700  26.949  24.237  1.00  0.00     0.022 A 
BRANCH  81  85
ATOM     85  S   UNL A   1      49.698  27.476  21.690  1.00  0.00     0.124 S 
ATOM     86  O   UNL A   1      48.451  26.829  21.301  1.00  0.00    -0.237 OA
ATOM     87  O   UNL A   1      49.778  28.913  21.454  1.00  0.00    -0.237 OA
ATOM     88  O   UNL A   1      50.915  26.728  21.382  1.00  0.00    -0.744 OA
ENDBRANCH  81  85
ENDBRANCH  54  78
BRANCH  66  89
ATOM     89  C   UNL A   1      45.391  32.978  28.796  1.00  0.00     0.023 A 
ATOM     90  C   UNL A   1      45.255  34.093  27.949  1.00  0.00     0.031 A 
ATOM     91  C   UNL A   1      46.092  33.153  30.003  1.00  0.00     0.131 A 
ATOM     92  C   UNL A   1      45.879  35.305  28.282  1.00  0.00     0.055 A 
ATOM     93  C   UNL A   1      46.642  34.383  30.365  1.00  0.00     0.041 A 
ATOM     94  F   UNL A   1      46.259  32.126  30.853  1.00  0.00    -0.206 F 
ATOM     95  C   UNL A   1      46.555  35.463  29.494  1.00  0.00     0.022 A 
BRANCH  92  96
ATOM     96  S   UNL A   1      45.914  36.634  27.047  1.00  0.00     0.124 S 
ATOM     97  O   UNL A   1      44.514  37.045  27.004  1.00  0.00    -0.237 OA
ATOM     98  O   UNL A   1      46.839  37.590  27.644  1.00  0.00    -0.237 OA
ATOM     99  O   UNL A   1      46.402  35.969  25.840  1.00  0.00    -0.744 OA
ENDBRANCH  92  96
ENDBRANCH  66  89
ENDBRANCH  40  41
ENDBRANCH  32  35
ENDBRANCH  30  31
ENDBRANCH  29  30
ENDBRANCH   1  29
TORSDOF 19
ENDMDL
MODEL 2
REMARK VINA RESULT:     -11.8      1.360      7.344
REMARK SMILES CS(=O)(=O)N1C[C@@H]2CN(C(=O)C3CCOCC3)C[C@]2(C(=O)NCCCCCCNC(=O)c2ccc(-c3c4nc(c(-c5cc(S(=O)(=O)[O-])ccc5F)c5ccc([nH]5)c(-c5cc(S(=O)(=O)[O-])ccc5F)c5nc(c(-c6cc(S(=O)(=O)[O-])ccc6F)c6ccc3[nH]6)C=C5)C=C4)cc2)C1
REMARK SMILES IDX 26 1 25 2 24 3 23 4 22 5 20 6 21 7 19 9 5 10 6 11 95 12 7 13
REMARK SMILES IDX 8 14 18 15 9 16 2 17 1 18 3 19 4 20 10 21 11 22 12 23 13 24
REMARK SMILES IDX 17 25 14 26 16 27 15 28 27 29 28 30 29 31 30 32 31 34 32 35
REMARK SMILES IDX 33 36 94 37 34 38 93 39 35 40 36 41 37 42 87 43 38 44 92 45
REMARK SMILES IDX 86 46 88 47 39 48 91 49 85 50 84 51 40 53 72 54 52 55 71 56
REMARK SMILES IDX 53 57 56 58 70 59 89 60 54 61 55 62 69 64 90 65 57 66 41 67
REMARK SMILES IDX 42 68 50 69 43 70 49 71 51 72 48 73 44 74 45 75 46 76 47 77
REMARK SMILES IDX 73 78 74 79 82 80 75 81 81 82 83 83 80 84 76 85 77 86 78 87
REMARK SMILES IDX 79 88 58 89 59 90 67 91 60 92 66 93 68 94 65 95 61 96 62 97
REMARK SMILES IDX 63 98 64 99
REMARK H PARENT 22 8 29 33 88 52 56 63
REMARK Flexibility Score: inf
ROOT
ATOM      1  C   UNL A   1      39.515  22.631  26.876  1.00  0.00     0.002 C 
ENDROOT
BRANCH   1   2
ATOM      2  C   UNL A   1      38.562  23.766  26.496  1.00  0.00     0.002 C 
BRANCH   2   3
ATOM      3  C   UNL A   1      37.540  23.443  25.406  1.00  0.00     0.021 C 
BRANCH   3   4
ATOM      4  C   UNL A   1      36.065  23.750  25.707  1.00  0.00     0.116 C 
BRANCH   4   5
ATOM      5  N   UNL A   1      35.578  22.804  26.698  1.00  0.00    -0.356 N 
ATOM      6  C   UNL A   1      34.265  22.509  26.977  1.00  0.00     0.229 C 
ATOM      7  O   UNL A   1      33.971  22.237  28.144  1.00  0.00    -0.274 OA
ATOM      8  H   UNL A   1      36.259  22.325  27.222  1.00  0.00     0.163 HD
BRANCH   6   9
ATOM      9  C   UNL A   1      33.254  22.469  25.774  1.00  0.00     0.086 C 
ATOM     10  N   UNL A   1      33.137  20.265  24.569  1.00  0.00    -0.201 NA
ATOM     11  C   UNL A   1      32.048  21.072  24.067  1.00  0.00     0.108 C 
ATOM     12  C   UNL A   1      33.576  20.865  25.851  1.00  0.00     0.121 C 
ATOM     13  C   UNL A   1      31.828  22.020  25.228  1.00  0.00     0.042 C 
ATOM     14  C   UNL A   1      31.062  23.232  24.763  1.00  0.00     0.125 C 
ATOM     15  C   UNL A   1      32.492  23.654  26.574  1.00  0.00     0.138 C 
ATOM     16  N   UNL A   1      31.449  24.216  25.716  1.00  0.00    -0.341 N 
BRANCH  10  17
ATOM     17  S   UNL A   1      33.122  18.601  24.379  1.00  0.00     0.211 S 
ATOM     18  C   UNL A   1      32.476  18.375  22.732  1.00  0.00     0.176 C 
ATOM     19  O   UNL A   1      32.151  18.057  25.309  1.00  0.00    -0.213 OA
ATOM     20  O   UNL A   1      34.492  18.148  24.377  1.00  0.00    -0.213 OA
ENDBRANCH  10  17
BRANCH  16  21
ATOM     21  C   UNL A   1      30.802  25.432  25.704  1.00  0.00     0.225 C 
ATOM     22  O   UNL A   1      29.693  25.539  26.242  1.00  0.00    -0.275 OA
BRANCH  21  23
ATOM     23  C   UNL A   1      31.323  26.624  24.907  1.00  0.00     0.083 C 
ATOM     24  C   UNL A   1      32.327  27.372  25.781  1.00  0.00     0.042 C 
ATOM     25  C   UNL A   1      30.282  27.509  24.219  1.00  0.00     0.042 C 
ATOM     26  C   UNL A   1      32.737  28.698  25.176  1.00  0.00     0.161 C 
ATOM     27  C   UNL A   1      30.879  28.829  23.749  1.00  0.00     0.161 C 
ATOM     28  O   UNL A   1      31.589  29.459  24.812  1.00  0.00    -0.381 OA
ENDBRANCH  21  23
ENDBRANCH  16  21
ENDBRANCH   6   9
ENDBRANCH   4   5
ENDBRANCH   3   4
ENDBRANCH   2   3
ENDBRANCH   1   2
BRANCH   1  29
ATOM     29  C   UNL A   1      39.465  21.378  26.000  1.00  0.00     0.021 C 
BRANCH  29  30
ATOM     30  C   UNL A   1      40.159  20.133  26.551  1.00  0.00     0.116 C 
BRANCH  30  31
ATOM     31  N   UNL A   1      41.341  19.718  25.829  1.00  0.00    -0.352 N 
ATOM     32  C   UNL A   1      42.573  20.320  25.748  1.00  0.00     0.251 C 
ATOM     33  H   UNL A   1      41.249  18.879  25.320  1.00  0.00     0.163 HD
ATOM     34  O   UNL A   1      43.479  19.746  25.150  1.00  0.00    -0.269 OA
BRANCH  32  35
ATOM     35  C   UNL A   1      42.802  21.677  26.305  1.00  0.00     0.039 A 
ATOM     36  C   UNL A   1      42.818  22.744  25.403  1.00  0.00     0.014 A 
ATOM     37  C   UNL A   1      43.020  21.918  27.665  1.00  0.00     0.014 A 
ATOM     38  C   UNL A   1      43.007  24.050  25.864  1.00  0.00     0.010 A 
ATOM     39  C   UNL A   1      43.144  23.233  28.133  1.00  0.00     0.010 A 
ATOM     40  C   UNL A   1      43.150  24.314  27.234  1.00  0.00    -0.014 A 
BRANCH  40  41
ATOM     41  C   UNL A   1      43.349  25.717  27.703  1.00  0.00     0.031 A 
ATOM     42  C   UNL A   1      44.708  26.362  27.622  1.00  0.00     0.074 A 
ATOM     43  C   UNL A   1      42.302  26.423  28.179  1.00  0.00     0.049 A 
ATOM     44  N   UNL A   1      45.067  27.582  27.934  1.00  0.00    -0.248 NA
ATOM     45  C   UNL A   1      45.812  25.518  27.143  1.00  0.00     0.031 C 
ATOM     46  C   UNL A   1      40.940  25.909  28.333  1.00  0.00     0.029 A 
ATOM     47  N   UNL A   1      42.212  27.727  28.606  1.00  0.00    -0.354 N 
ATOM     48  C   UNL A   1      46.434  27.653  27.688  1.00  0.00     0.074 A 
ATOM     49  C   UNL A   1      46.850  26.331  27.271  1.00  0.00     0.031 C 
ATOM     50  C   UNL A   1      40.144  26.895  28.780  1.00  0.00     0.029 A 
ATOM     51  C   UNL A   1      40.943  28.100  28.987  1.00  0.00     0.049 A 
ATOM     52  H   UNL A   1      42.984  28.336  28.637  1.00  0.00     0.167 HD
ATOM     53  C   UNL A   1      47.264  28.724  27.776  1.00  0.00     0.034 A 
ATOM     54  C   UNL A   1      40.473  29.277  29.451  1.00  0.00     0.034 A 
ATOM     55  C   UNL A   1      46.839  30.039  28.194  1.00  0.00     0.049 A 
ATOM     56  C   UNL A   1      41.423  30.445  29.575  1.00  0.00     0.074 A 
ATOM     57  C   UNL A   1      47.590  31.199  28.291  1.00  0.00     0.029 A 
ATOM     58  N   UNL A   1      45.550  30.373  28.596  1.00  0.00    -0.354 N 
ATOM     59  N   UNL A   1      42.705  30.504  29.298  1.00  0.00    -0.248 NA
ATOM     60  C   UNL A   1      40.852  31.711  30.053  1.00  0.00     0.031 C 
ATOM     61  C   UNL A   1      46.780  32.207  28.824  1.00  0.00     0.029 A 
ATOM     62  C   UNL A   1      45.495  31.709  28.966  1.00  0.00     0.049 A 
ATOM     63  H   UNL A   1      44.787  29.750  28.614  1.00  0.00     0.167 HD
ATOM     64  C   UNL A   1      43.082  31.826  29.526  1.00  0.00     0.074 A 
ATOM     65  C   UNL A   1      41.888  32.529  29.948  1.00  0.00     0.031 C 
ATOM     66  C   UNL A   1      44.303  32.407  29.390  1.00  0.00     0.034 A 
BRANCH  53  67
ATOM     67  C   UNL A   1      48.723  28.503  27.443  1.00  0.00     0.023 A 
ATOM     68  C   UNL A   1      49.211  28.632  26.130  1.00  0.00     0.031 A 
ATOM     69  C   UNL A   1      49.636  28.132  28.446  1.00  0.00     0.131 A 
ATOM     70  C   UNL A   1      50.547  28.312  25.843  1.00  0.00     0.055 A 
ATOM     71  C   UNL A   1      50.985  27.904  28.169  1.00  0.00     0.041 A 
ATOM     72  F   UNL A   1      49.229  27.969  29.715  1.00  0.00    -0.206 F 
ATOM     73  C   UNL A   1      51.445  27.976  26.858  1.00  0.00     0.022 A 
BRANCH  70  74
ATOM     74  S   UNL A   1      51.052  28.181  24.105  1.00  0.00     0.124 S 
ATOM     75  O   UNL A   1      52.036  27.101  24.165  1.00  0.00    -0.237 OA
ATOM     76  O   UNL A   1      49.797  27.866  23.434  1.00  0.00    -0.237 OA
ATOM     77  O   UNL A   1      51.605  29.500  23.809  1.00  0.00    -0.744 OA
ENDBRANCH  70  74
ENDBRANCH  53  67
BRANCH  54  78
ATOM     78  C   UNL A   1      39.039  29.422  29.842  1.00  0.00     0.023 A 
ATOM     79  C   UNL A   1      38.118  30.084  29.014  1.00  0.00     0.031 A 
ATOM     80  C   UNL A   1      38.581  28.952  31.087  1.00  0.00     0.131 A 
ATOM     81  C   UNL A   1      36.806  30.309  29.463  1.00  0.00     0.055 A 
ATOM     82  C   UNL A   1      37.259  29.123  31.501  1.00  0.00     0.041 A 
ATOM     83  F   UNL A   1      39.417  28.312  31.920  1.00  0.00    -0.206 F 
ATOM     84  C   UNL A   1      36.367  29.820  30.693  1.00  0.00     0.022 A 
BRANCH  81  85
ATOM     85  S   UNL A   1      35.707  31.346  28.456  1.00  0.00     0.124 S 
ATOM     86  O   UNL A   1      36.619  32.386  27.999  1.00  0.00    -0.237 OA
ATOM     87  O   UNL A   1      35.246  30.403  27.443  1.00  0.00    -0.237 OA
ATOM     88  O   UNL A   1      34.686  31.781  29.408  1.00  0.00    -0.744 OA
ENDBRANCH  81  85
ENDBRANCH  54  78
BRANCH  66  89
ATOM     89  C   UNL A   1      44.389  33.898  29.632  1.00  0.00     0.023 A 
ATOM     90  C   UNL A   1      44.155  34.838  28.613  1.00  0.00     0.031 A 
ATOM     91  C   UNL A   1      44.745  34.384  30.903  1.00  0.00     0.131 A 
ATOM     92  C   UNL A   1      44.360  36.204  28.860  1.00  0.00     0.055 A 
ATOM     93  C   UNL A   1      44.870  35.749  31.164  1.00  0.00     0.041 A 
ATOM     94  F   UNL A   1      44.985  33.537  31.918  1.00  0.00    -0.206 F 
ATOM     95  C   UNL A   1      44.696  36.668  30.134  1.00  0.00     0.022 A 
BRANCH  92  96
ATOM     96  S   UNL A   1      44.314  37.358  27.460  1.00  0.00     0.124 S 
ATOM     97  O   UNL A   1      45.541  37.019  26.747  1.00  0.00    -0.237 OA
ATOM     98  O   UNL A   1      43.069  36.991  26.794  1.00  0.00    -0.237 OA
ATOM     99  O   UNL A   1      44.311  38.673  28.098  1.00  0.00    -0.744 OA
ENDBRANCH  92  96
ENDBRANCH  66  89
ENDBRANCH  40  41
ENDBRANCH  32  35
ENDBRANCH  30  31
ENDBRANCH  29  30
ENDBRANCH   1  29
TORSDOF 19
ENDMDL
MODEL 3
REMARK VINA RESULT:     -11.7      6.184     11.427
REMARK SMILES CS(=O)(=O)N1C[C@@H]2CN(C(=O)C3CCOCC3)C[C@]2(C(=O)NCCCCCCNC(=O)c2ccc(-c3c4nc(c(-c5cc(S(=O)(=O)[O-])ccc5F)c5ccc([nH]5)c(-c5cc(S(=O)(=O)[O-])ccc5F)c5nc(c(-c6cc(S(=O)(=O)[O-])ccc6F)c6ccc3[nH]6)C=C5)C=C4)cc2)C1
REMARK SMILES IDX 26 1 25 2 24 3 23 4 22 5 20 6 21 7 19 9 5 10 6 11 95 12 7 13
REMARK SMILES IDX 8 14 18 15 9 16 2 17 1 18 3 19 4 20 10 21 11 22 12 23 13 24
REMARK SMILES IDX 17 25 14 26 16 27 15 28 27 29 28 30 29 31 30 32 31 34 32 35
REMARK SMILES IDX 33 36 94 37 34 38 93 39 35 40 36 41 37 42 87 43 38 44 92 45
REMARK SMILES IDX 86 46 88 47 39 48 91 49 85 50 84 51 40 53 72 54 52 55 71 56
REMARK SMILES IDX 53 57 56 58 70 59 89 60 54 61 55 62 69 64 90 65 57 66 41 67
REMARK SMILES IDX 42 68 50 69 43 70 49 71 51 72 48 73 44 74 45 75 46 76 47 77
REMARK SMILES IDX 73 78 74 79 82 80 75 81 81 82 83 83 80 84 76 85 77 86 78 87
REMARK SMILES IDX 79 88 58 89 59 90 67 91 60 92 66 93 68 94 65 95 61 96 62 97
REMARK SMILES IDX 63 98 64 99
REMARK H PARENT 22 8 29 33 88 52 56 63
REMARK Flexibility Score: inf
ROOT
ATOM      1  C   UNL A   1      31.796  30.847  26.439  1.00  0.00     0.002 C 
ENDROOT
BRANCH   1   2
ATOM      2  C   UNL A   1      33.248  30.365  26.427  1.00  0.00     0.002 C 
BRANCH   2   3
ATOM      3  C   UNL A   1      33.489  28.955  26.966  1.00  0.00     0.021 C 
BRANCH   3   4
ATOM      4  C   UNL A   1      34.034  27.907  25.985  1.00  0.00     0.116 C 
BRANCH   4   5
ATOM      5  N   UNL A   1      34.079  28.486  24.652  1.00  0.00    -0.356 N 
ATOM      6  C   UNL A   1      33.570  27.936  23.499  1.00  0.00     0.229 C 
ATOM      7  O   UNL A   1      34.173  28.150  22.444  1.00  0.00    -0.274 OA
ATOM      8  H   UNL A   1      34.516  29.363  24.566  1.00  0.00     0.163 HD
BRANCH   6   9
ATOM      9  C   UNL A   1      32.220  27.138  23.605  1.00  0.00     0.086 C 
ATOM     10  N   UNL A   1      30.146  28.538  23.353  1.00  0.00    -0.201 NA
ATOM     11  C   UNL A   1      29.721  27.156  23.325  1.00  0.00     0.108 C 
ATOM     12  C   UNL A   1      31.601  28.558  23.073  1.00  0.00     0.121 C 
ATOM     13  C   UNL A   1      30.987  26.472  22.851  1.00  0.00     0.042 C 
ATOM     14  C   UNL A   1      30.930  25.002  23.179  1.00  0.00     0.125 C 
ATOM     15  C   UNL A   1      33.106  25.873  23.117  1.00  0.00     0.138 C 
ATOM     16  N   UNL A   1      32.308  24.653  23.240  1.00  0.00    -0.341 N 
BRANCH  10  17
ATOM     17  S   UNL A   1      29.155  29.746  22.751  1.00  0.00     0.211 S 
ATOM     18  C   UNL A   1      27.514  29.069  22.931  1.00  0.00     0.176 C 
ATOM     19  O   UNL A   1      29.423  29.872  21.331  1.00  0.00    -0.213 OA
ATOM     20  O   UNL A   1      29.260  30.881  23.636  1.00  0.00    -0.213 OA
ENDBRANCH  10  17
BRANCH  16  21
ATOM     21  C   UNL A   1      32.645  23.323  23.357  1.00  0.00     0.225 C 
ATOM     22  O   UNL A   1      32.022  22.475  22.705  1.00  0.00    -0.275 OA
BRANCH  21  23
ATOM     23  C   UNL A   1      33.652  22.825  24.390  1.00  0.00     0.083 C 
ATOM     24  C   UNL A   1      33.614  21.298  24.385  1.00  0.00     0.042 C 
ATOM     25  C   UNL A   1      33.601  23.468  25.777  1.00  0.00     0.042 C 
ATOM     26  C   UNL A   1      34.408  20.704  25.529  1.00  0.00     0.161 C 
ATOM     27  C   UNL A   1      34.402  22.675  26.802  1.00  0.00     0.161 C 
ATOM     28  O   UNL A   1      34.029  21.300  26.766  1.00  0.00    -0.381 OA
ENDBRANCH  21  23
ENDBRANCH  16  21
ENDBRANCH   6   9
ENDBRANCH   4   5
ENDBRANCH   3   4
ENDBRANCH   2   3
ENDBRANCH   1   2
BRANCH   1  29
ATOM     29  C   UNL A   1      31.560  32.285  26.904  1.00  0.00     0.021 C 
BRANCH  29  30
ATOM     30  C   UNL A   1      32.803  33.102  27.253  1.00  0.00     0.116 C 
BRANCH  30  31
ATOM     31  N   UNL A   1      32.545  34.376  27.886  1.00  0.00    -0.352 N 
ATOM     32  C   UNL A   1      33.271  35.039  28.845  1.00  0.00     0.251 C 
ATOM     33  H   UNL A   1      31.727  34.835  27.585  1.00  0.00     0.163 HD
ATOM     34  O   UNL A   1      32.922  36.167  29.182  1.00  0.00    -0.269 OA
BRANCH  32  35
ATOM     35  C   UNL A   1      34.418  34.389  29.526  1.00  0.00     0.039 A 
ATOM     36  C   UNL A   1      34.133  33.585  30.633  1.00  0.00     0.014 A 
ATOM     37  C   UNL A   1      35.746  34.565  29.124  1.00  0.00     0.014 A 
ATOM     38  C   UNL A   1      35.164  32.926  31.308  1.00  0.00     0.010 A 
ATOM     39  C   UNL A   1      36.771  33.852  29.760  1.00  0.00     0.010 A 
ATOM     40  C   UNL A   1      36.492  33.033  30.867  1.00  0.00    -0.014 A 
BRANCH  40  41
ATOM     41  C   UNL A   1      37.577  32.318  31.602  1.00  0.00     0.031 A 
ATOM     42  C   UNL A   1      38.328  31.190  30.943  1.00  0.00     0.074 A 
ATOM     43  C   UNL A   1      37.909  32.701  32.852  1.00  0.00     0.049 A 
ATOM     44  N   UNL A   1      39.331  30.483  31.401  1.00  0.00    -0.248 NA
ATOM     45  C   UNL A   1      37.879  30.793  29.601  1.00  0.00     0.031 C 
ATOM     46  C   UNL A   1      37.246  33.762  33.613  1.00  0.00     0.029 A 
ATOM     47  N   UNL A   1      38.895  32.255  33.701  1.00  0.00    -0.354 N 
ATOM     48  C   UNL A   1      39.634  29.561  30.404  1.00  0.00     0.074 A 
ATOM     49  C   UNL A   1      38.660  29.753  29.351  1.00  0.00     0.031 C 
ATOM     50  C   UNL A   1      37.867  33.912  34.795  1.00  0.00     0.029 A 
ATOM     51  C   UNL A   1      38.944  32.931  34.899  1.00  0.00     0.049 A 
ATOM     52  H   UNL A   1      39.507  31.519  33.473  1.00  0.00     0.167 HD
ATOM     53  C   UNL A   1      40.645  28.655  30.357  1.00  0.00     0.034 A 
ATOM     54  C   UNL A   1      39.762  32.782  35.962  1.00  0.00     0.034 A 
ATOM     55  C   UNL A   1      41.611  28.471  31.414  1.00  0.00     0.049 A 
ATOM     56  C   UNL A   1      40.856  31.742  35.901  1.00  0.00     0.074 A 
ATOM     57  C   UNL A   1      42.689  27.603  31.456  1.00  0.00     0.029 A 
ATOM     58  N   UNL A   1      41.614  29.159  32.623  1.00  0.00    -0.354 N 
ATOM     59  N   UNL A   1      41.153  30.907  34.933  1.00  0.00    -0.248 NA
ATOM     60  C   UNL A   1      41.738  31.644  37.071  1.00  0.00     0.031 C 
ATOM     61  C   UNL A   1      43.292  27.708  32.714  1.00  0.00     0.029 A 
ATOM     62  C   UNL A   1      42.656  28.713  33.423  1.00  0.00     0.049 A 
ATOM     63  H   UNL A   1      40.970  29.861  32.873  1.00  0.00     0.167 HD
ATOM     64  C   UNL A   1      42.286  30.216  35.361  1.00  0.00     0.074 A 
ATOM     65  C   UNL A   1      42.623  30.745  36.666  1.00  0.00     0.031 C 
ATOM     66  C   UNL A   1      42.987  29.241  34.728  1.00  0.00     0.034 A 
BRANCH  53  67
ATOM     67  C   UNL A   1      40.731  27.772  29.131  1.00  0.00     0.023 A 
ATOM     68  C   UNL A   1      41.680  28.002  28.119  1.00  0.00     0.031 A 
ATOM     69  C   UNL A   1      39.835  26.703  28.957  1.00  0.00     0.131 A 
ATOM     70  C   UNL A   1      41.657  27.230  26.946  1.00  0.00     0.055 A 
ATOM     71  C   UNL A   1      39.876  25.880  27.830  1.00  0.00     0.041 A 
ATOM     72  F   UNL A   1      38.890  26.446  29.876  1.00  0.00    -0.206 F 
ATOM     73  C   UNL A   1      40.780  26.152  26.807  1.00  0.00     0.022 A 
BRANCH  70  74
ATOM     74  S   UNL A   1      42.675  27.758  25.541  1.00  0.00     0.124 S 
ATOM     75  O   UNL A   1      43.962  28.011  26.189  1.00  0.00    -0.237 OA
ATOM     76  O   UNL A   1      42.621  26.599  24.659  1.00  0.00    -0.237 OA
ATOM     77  O   UNL A   1      41.990  28.951  25.050  1.00  0.00    -0.744 OA
ENDBRANCH  70  74
ENDBRANCH  53  67
BRANCH  54  78
ATOM     78  C   UNL A   1      39.585  33.625  37.182  1.00  0.00     0.023 A 
ATOM     79  C   UNL A   1      40.373  34.767  37.403  1.00  0.00     0.031 A 
ATOM     80  C   UNL A   1      38.663  33.262  38.181  1.00  0.00     0.131 A 
ATOM     81  C   UNL A   1      40.266  35.470  38.614  1.00  0.00     0.055 A 
ATOM     82  C   UNL A   1      38.517  34.001  39.356  1.00  0.00     0.041 A 
ATOM     83  F   UNL A   1      37.884  32.179  38.025  1.00  0.00    -0.206 F 
ATOM     84  C   UNL A   1      39.333  35.103  39.585  1.00  0.00     0.022 A 
BRANCH  81  85
ATOM     85  S   UNL A   1      41.441  36.812  38.949  1.00  0.00     0.124 S 
ATOM     86  O   UNL A   1      40.545  37.927  39.227  1.00  0.00    -0.237 OA
ATOM     87  O   UNL A   1      42.184  36.286  40.089  1.00  0.00    -0.237 OA
ATOM     88  O   UNL A   1      42.203  36.914  37.706  1.00  0.00    -0.744 OA
ENDBRANCH  81  85
ENDBRANCH  54  78
BRANCH  66  89
ATOM     89  C   UNL A   1      44.237  28.733  35.413  1.00  0.00     0.023 A 
ATOM     90  C   UNL A   1      44.197  27.731  36.399  1.00  0.00     0.031 A 
ATOM     91  C   UNL A   1      45.489  29.288  35.093  1.00  0.00     0.131 A 
ATOM     92  C   UNL A   1      45.369  27.376  37.086  1.00  0.00     0.055 A 
ATOM     93  C   UNL A   1      46.663  28.875  35.723  1.00  0.00     0.041 A 
ATOM     94  F   UNL A   1      45.593  30.251  34.162  1.00  0.00    -0.206 F 
ATOM     95  C   UNL A   1      46.605  27.927  36.740  1.00  0.00     0.022 A 
BRANCH  92  96
ATOM     96  S   UNL A   1      45.236  26.285  38.529  1.00  0.00     0.124 S 
ATOM     97  O   UNL A   1      45.501  24.975  37.944  1.00  0.00    -0.237 OA
ATOM     98  O   UNL A   1      46.273  26.809  39.412  1.00  0.00    -0.237 OA
ATOM     99  O   UNL A   1      43.866  26.492  38.992  1.00  0.00    -0.744 OA
ENDBRANCH  92  96
ENDBRANCH  66  89
ENDBRANCH  40  41
ENDBRANCH  32  35
ENDBRANCH  30  31
ENDBRANCH  29  30
ENDBRANCH   1  29
TORSDOF 19
ENDMDL
