MODEL 1
REMARK VINA RESULT:     -10.7      0.000      0.000
REMARK SMILES Cc1cc(C(=O)NC[C@@H]2CC[C@H](C(=O)NCCCCCCNC(=O)c3ccc(-c4c5nc(c(-c6cc(S(=O)(=O)[O-])ccc6F)c6ccc([nH]6)c(-c6cc(S(=O)(=O)[O-])ccc6F)c6nc(c(-c7cc(S(=O)(=O)[O-])ccc7F)c7ccc4[nH]7)C=C6)C=C5)cc3)O2)on1
REMARK SMILES IDX 18 1 17 2 16 3 15 4 13 5 14 6 12 8 9 9 10 10 88 11 11 12
REMARK SMILES IDX 8 13 7 14 5 15 6 16 4 18 1 19 2 20 3 21 90 22 89 23 19 24
REMARK SMILES IDX 20 25 21 26 22 27 23 28 24 30 25 31 26 32 87 33 27 34 86 35
REMARK SMILES IDX 28 36 29 37 30 38 80 39 31 40 85 41 79 42 81 43 32 44 84 45
REMARK SMILES IDX 78 46 77 47 33 49 65 50 45 51 64 52 46 53 49 54 63 55 82 56
REMARK SMILES IDX 47 57 48 58 62 60 83 61 50 62 34 63 35 64 43 65 36 66 42 67
REMARK SMILES IDX 44 68 41 69 37 70 38 71 39 72 40 73 66 74 67 75 75 76 68 77
REMARK SMILES IDX 74 78 76 79 73 80 69 81 70 82 71 83 72 84 51 85 52 86 60 87
REMARK SMILES IDX 53 88 59 89 61 90 58 91 54 92 55 93 56 94 57 95
REMARK H PARENT 15 7 7 17 22 29 81 48 49 59
REMARK Flexibility Score: inf
ROOT
ATOM      1  C   UNL A   1      34.513  31.581  28.210  1.00  0.00     0.002 C 
ENDROOT
BRANCH   1   2
ATOM      2  C   UNL A   1      35.107  30.284  27.657  1.00  0.00     0.021 C 
BRANCH   2   3
ATOM      3  C   UNL A   1      34.075  29.368  27.009  1.00  0.00     0.116 C 
BRANCH   3   4
ATOM      4  N   UNL A   1      34.178  29.339  25.570  1.00  0.00    -0.354 N 
ATOM      5  C   UNL A   1      33.222  29.084  24.629  1.00  0.00     0.249 C 
ATOM      6  O   UNL A   1      33.567  29.151  23.444  1.00  0.00    -0.272 OA
ATOM      7  H   UNL A   1      35.074  29.531  25.212  1.00  0.00     0.163 HD
BRANCH   5   8
ATOM      8  C   UNL A   1      31.764  28.719  25.004  1.00  0.00     0.207 C 
ATOM      9  C   UNL A   1      30.379  26.957  24.282  1.00  0.00     0.138 C 
ATOM     10  C   UNL A   1      29.931  28.197  23.517  1.00  0.00     0.037 C 
ATOM     11  O   UNL A   1      31.528  27.314  25.066  1.00  0.00    -0.363 OA
ATOM     12  C   UNL A   1      30.696  29.350  24.129  1.00  0.00     0.045 C 
BRANCH   9  13
ATOM     13  C   UNL A   1      30.791  25.768  23.393  1.00  0.00     0.148 C 
BRANCH  13  14
ATOM     14  N   UNL A   1      31.701  26.170  22.341  1.00  0.00    -0.347 N 
ATOM     15  C   UNL A   1      33.024  25.891  22.105  1.00  0.00     0.289 C 
ATOM     16  O   UNL A   1      33.452  26.291  21.020  1.00  0.00    -0.266 OA
ATOM     17  H   UNL A   1      31.292  26.756  21.664  1.00  0.00     0.164 HD
BRANCH  15  18
ATOM     18  C   UNL A   1      33.845  25.180  23.059  1.00  0.00     0.224 A 
ATOM     19  C   UNL A   1      35.708  23.856  25.934  1.00  0.00     0.070 C 
ATOM     20  C   UNL A   1      35.049  24.217  24.658  1.00  0.00     0.081 A 
ATOM     21  C   UNL A   1      34.230  25.334  24.376  1.00  0.00     0.083 A 
ATOM     22  N   UNL A   1      35.203  23.452  23.576  1.00  0.00    -0.084 NA
ATOM     23  O   UNL A   1      34.456  24.051  22.582  1.00  0.00    -0.351 OA
ENDBRANCH  15  18
ENDBRANCH  13  14
ENDBRANCH   9  13
ENDBRANCH   5   8
ENDBRANCH   3   4
ENDBRANCH   2   3
ENDBRANCH   1   2
BRANCH   1  24
ATOM     24  C   UNL A   1      35.360  32.837  27.964  1.00  0.00     0.002 C 
BRANCH  24  25
ATOM     25  C   UNL A   1      34.613  34.170  28.078  1.00  0.00     0.021 C 
BRANCH  25  26
ATOM     26  C   UNL A   1      33.183  34.062  28.600  1.00  0.00     0.116 C 
BRANCH  26  27
ATOM     27  N   UNL A   1      32.926  35.009  29.671  1.00  0.00    -0.352 N 
ATOM     28  C   UNL A   1      33.455  35.067  30.936  1.00  0.00     0.251 C 
ATOM     29  H   UNL A   1      32.274  35.715  29.457  1.00  0.00     0.163 HD
ATOM     30  O   UNL A   1      32.937  35.800  31.774  1.00  0.00    -0.269 OA
BRANCH  28  31
ATOM     31  C   UNL A   1      34.631  34.245  31.286  1.00  0.00     0.039 A 
ATOM     32  C   UNL A   1      35.910  34.765  31.073  1.00  0.00     0.014 A 
ATOM     33  C   UNL A   1      34.476  32.951  31.795  1.00  0.00     0.014 A 
ATOM     34  C   UNL A   1      37.033  34.007  31.418  1.00  0.00     0.010 A 
ATOM     35  C   UNL A   1      35.593  32.227  32.204  1.00  0.00     0.010 A 
ATOM     36  C   UNL A   1      36.884  32.744  32.012  1.00  0.00    -0.014 A 
BRANCH  36  37
ATOM     37  C   UNL A   1      38.065  31.941  32.422  1.00  0.00     0.031 A 
ATOM     38  C   UNL A   1      38.767  32.242  33.718  1.00  0.00     0.074 A 
ATOM     39  C   UNL A   1      38.536  30.981  31.602  1.00  0.00     0.049 A 
ATOM     40  N   UNL A   1      39.857  31.716  34.212  1.00  0.00    -0.248 NA
ATOM     41  C   UNL A   1      38.180  33.301  34.553  1.00  0.00     0.031 C 
ATOM     42  C   UNL A   1      37.960  30.621  30.304  1.00  0.00     0.029 A 
ATOM     43  N   UNL A   1      39.613  30.139  31.730  1.00  0.00    -0.354 N 
ATOM     44  C   UNL A   1      40.096  32.385  35.407  1.00  0.00     0.074 A 
ATOM     45  C   UNL A   1      39.072  33.401  35.527  1.00  0.00     0.031 C 
ATOM     46  C   UNL A   1      38.673  29.617  29.770  1.00  0.00     0.029 A 
ATOM     47  C   UNL A   1      39.785  29.294  30.658  1.00  0.00     0.049 A 
ATOM     48  H   UNL A   1      40.206  30.141  32.515  1.00  0.00     0.167 HD
ATOM     49  C   UNL A   1      41.064  32.157  36.331  1.00  0.00     0.034 A 
ATOM     50  C   UNL A   1      40.737  28.371  30.414  1.00  0.00     0.034 A 
ATOM     51  C   UNL A   1      42.069  31.130  36.199  1.00  0.00     0.049 A 
ATOM     52  C   UNL A   1      41.820  28.154  31.441  1.00  0.00     0.074 A 
ATOM     53  C   UNL A   1      43.064  30.777  37.094  1.00  0.00     0.029 A 
ATOM     54  N   UNL A   1      42.212  30.291  35.100  1.00  0.00    -0.354 N 
ATOM     55  N   UNL A   1      42.005  28.766  32.589  1.00  0.00    -0.248 NA
ATOM     56  C   UNL A   1      42.814  27.116  31.145  1.00  0.00     0.031 C 
ATOM     57  C   UNL A   1      43.850  29.780  36.507  1.00  0.00     0.029 A 
ATOM     58  C   UNL A   1      43.297  29.448  35.281  1.00  0.00     0.049 A 
ATOM     59  H   UNL A   1      41.626  30.296  34.308  1.00  0.00     0.167 HD
ATOM     60  C   UNL A   1      43.118  28.161  33.166  1.00  0.00     0.074 A 
ATOM     61  C   UNL A   1      43.551  27.128  32.246  1.00  0.00     0.031 C 
ATOM     62  C   UNL A   1      43.724  28.428  34.350  1.00  0.00     0.034 A 
BRANCH  49  63
ATOM     63  C   UNL A   1      41.094  33.057  37.545  1.00  0.00     0.023 A 
ATOM     64  C   UNL A   1      40.487  32.684  38.757  1.00  0.00     0.031 A 
ATOM     65  C   UNL A   1      41.713  34.318  37.483  1.00  0.00     0.131 A 
ATOM     66  C   UNL A   1      40.441  33.590  39.828  1.00  0.00     0.055 A 
ATOM     67  C   UNL A   1      41.742  35.180  38.581  1.00  0.00     0.041 A 
ATOM     68  F   UNL A   1      42.291  34.742  36.348  1.00  0.00    -0.206 F 
ATOM     69  C   UNL A   1      41.089  34.825  39.758  1.00  0.00     0.022 A 
BRANCH  66  70
ATOM     70  S   UNL A   1      39.390  33.194  41.252  1.00  0.00     0.124 S 
ATOM     71  O   UNL A   1      40.358  33.221  42.347  1.00  0.00    -0.237 OA
ATOM     72  O   UNL A   1      38.415  34.277  41.235  1.00  0.00    -0.237 OA
ATOM     73  O   UNL A   1      38.862  31.870  40.930  1.00  0.00    -0.744 OA
ENDBRANCH  66  70
ENDBRANCH  49  63
BRANCH  50  74
ATOM     74  C   UNL A   1      40.723  27.588  29.144  1.00  0.00     0.023 A 
ATOM     75  C   UNL A   1      41.641  27.858  28.118  1.00  0.00     0.031 A 
ATOM     76  C   UNL A   1      39.761  26.587  28.921  1.00  0.00     0.131 A 
ATOM     77  C   UNL A   1      41.548  27.172  26.897  1.00  0.00     0.055 A 
ATOM     78  C   UNL A   1      39.708  25.866  27.727  1.00  0.00     0.041 A 
ATOM     79  F   UNL A   1      38.861  26.286  29.872  1.00  0.00    -0.206 F 
ATOM     80  C   UNL A   1      40.597  26.168  26.699  1.00  0.00     0.022 A 
BRANCH  77  81
ATOM     81  S   UNL A   1      42.632  27.680  25.534  1.00  0.00     0.124 S 
ATOM     82  O   UNL A   1      41.960  28.880  25.052  1.00  0.00    -0.237 OA
ATOM     83  O   UNL A   1      43.903  27.888  26.221  1.00  0.00    -0.237 OA
ATOM     84  O   UNL A   1      42.596  26.535  24.626  1.00  0.00    -0.744 OA
ENDBRANCH  77  81
ENDBRANCH  50  74
BRANCH  62  85
ATOM     85  C   UNL A   1      44.892  27.553  34.738  1.00  0.00     0.023 A 
ATOM     86  C   UNL A   1      44.721  26.374  35.482  1.00  0.00     0.031 A 
ATOM     87  C   UNL A   1      46.198  27.913  34.360  1.00  0.00     0.131 A 
ATOM     88  C   UNL A   1      45.842  25.627  35.875  1.00  0.00     0.055 A 
ATOM     89  C   UNL A   1      47.303  27.131  34.698  1.00  0.00     0.041 A 
ATOM     90  F   UNL A   1      46.421  29.031  33.650  1.00  0.00    -0.206 F 
ATOM     91  C   UNL A   1      47.130  25.988  35.472  1.00  0.00     0.022 A 
BRANCH  88  92
ATOM     92  S   UNL A   1      45.603  24.225  37.001  1.00  0.00     0.124 S 
ATOM     93  O   UNL A   1      44.590  24.739  37.916  1.00  0.00    -0.237 OA
ATOM     94  O   UNL A   1      45.165  23.168  36.095  1.00  0.00    -0.237 OA
ATOM     95  O   UNL A   1      46.928  24.027  37.588  1.00  0.00    -0.744 OA
ENDBRANCH  88  92
ENDBRANCH  62  85
ENDBRANCH  36  37
ENDBRANCH  28  31
ENDBRANCH  26  27
ENDBRANCH  25  26
ENDBRANCH  24  25
ENDBRANCH   1  24
TORSDOF 19
ENDMDL
MODEL 2
REMARK VINA RESULT:     -10.7      2.479      8.111
REMARK SMILES Cc1cc(C(=O)NC[C@@H]2CC[C@H](C(=O)NCCCCCCNC(=O)c3ccc(-c4c5nc(c(-c6cc(S(=O)(=O)[O-])ccc6F)c6ccc([nH]6)c(-c6cc(S(=O)(=O)[O-])ccc6F)c6nc(c(-c7cc(S(=O)(=O)[O-])ccc7F)c7ccc4[nH]7)C=C6)C=C5)cc3)O2)on1
REMARK SMILES IDX 18 1 17 2 16 3 15 4 13 5 14 6 12 8 9 9 10 10 88 11 11 12
REMARK SMILES IDX 8 13 7 14 5 15 6 16 4 18 1 19 2 20 3 21 90 22 89 23 19 24
REMARK SMILES IDX 20 25 21 26 22 27 23 28 24 30 25 31 26 32 87 33 27 34 86 35
REMARK SMILES IDX 28 36 29 37 30 38 80 39 31 40 85 41 79 42 81 43 32 44 84 45
REMARK SMILES IDX 78 46 77 47 33 49 65 50 45 51 64 52 46 53 49 54 63 55 82 56
REMARK SMILES IDX 47 57 48 58 62 60 83 61 50 62 34 63 35 64 43 65 36 66 42 67
REMARK SMILES IDX 44 68 41 69 37 70 38 71 39 72 40 73 66 74 67 75 75 76 68 77
REMARK SMILES IDX 74 78 76 79 73 80 69 81 70 82 71 83 72 84 51 85 52 86 60 87
REMARK SMILES IDX 53 88 59 89 61 90 58 91 54 92 55 93 56 94 57 95
REMARK H PARENT 15 7 7 17 22 29 81 48 49 59
REMARK Flexibility Score: inf
ROOT
ATOM      1  C   UNL A   1      32.992  29.642  25.866  1.00  0.00     0.002 C 
ENDROOT
BRANCH   1   2
ATOM      2  C   UNL A   1      33.642  29.042  24.618  1.00  0.00     0.021 C 
BRANCH   2   3
ATOM      3  C   UNL A   1      32.655  28.761  23.491  1.00  0.00     0.116 C 
BRANCH   3   4
ATOM      4  N   UNL A   1      33.167  27.828  22.518  1.00  0.00    -0.354 N 
ATOM      5  C   UNL A   1      33.060  26.467  22.469  1.00  0.00     0.249 C 
ATOM      6  O   UNL A   1      33.571  25.897  21.498  1.00  0.00    -0.272 OA
ATOM      7  H   UNL A   1      33.670  28.233  21.776  1.00  0.00     0.163 HD
BRANCH   5   8
ATOM      8  C   UNL A   1      32.341  25.650  23.571  1.00  0.00     0.207 C 
ATOM      9  C   UNL A   1      32.444  23.360  24.109  1.00  0.00     0.138 C 
ATOM     10  C   UNL A   1      31.147  23.561  23.335  1.00  0.00     0.037 C 
ATOM     11  O   UNL A   1      33.147  24.612  24.125  1.00  0.00    -0.363 OA
ATOM     12  C   UNL A   1      31.004  25.058  23.165  1.00  0.00     0.045 C 
BRANCH   9  13
ATOM     13  C   UNL A   1      33.399  22.314  23.503  1.00  0.00     0.148 C 
BRANCH  13  14
ATOM     14  N   UNL A   1      34.536  22.059  24.361  1.00  0.00    -0.347 N 
ATOM     15  C   UNL A   1      34.995  20.919  24.974  1.00  0.00     0.289 C 
ATOM     16  O   UNL A   1      36.092  21.035  25.527  1.00  0.00    -0.266 OA
ATOM     17  H   UNL A   1      35.086  22.855  24.540  1.00  0.00     0.164 HD
BRANCH  15  18
ATOM     18  C   UNL A   1      34.246  19.683  24.966  1.00  0.00     0.224 A 
ATOM     19  C   UNL A   1      32.872  16.300  24.566  1.00  0.00     0.070 C 
ATOM     20  C   UNL A   1      33.237  17.707  24.848  1.00  0.00     0.081 A 
ATOM     21  C   UNL A   1      34.355  18.437  24.383  1.00  0.00     0.083 A 
ATOM     22  N   UNL A   1      32.462  18.466  25.624  1.00  0.00    -0.084 NA
ATOM     23  O   UNL A   1      33.087  19.694  25.696  1.00  0.00    -0.351 OA
ENDBRANCH  15  18
ENDBRANCH  13  14
ENDBRANCH   9  13
ENDBRANCH   5   8
ENDBRANCH   3   4
ENDBRANCH   2   3
ENDBRANCH   1   2
BRANCH   1  24
ATOM     24  C   UNL A   1      31.651  30.346  25.622  1.00  0.00     0.002 C 
BRANCH  24  25
ATOM     25  C   UNL A   1      31.413  31.619  26.441  1.00  0.00     0.021 C 
BRANCH  25  26
ATOM     26  C   UNL A   1      32.645  32.156  27.164  1.00  0.00     0.116 C 
BRANCH  26  27
ATOM     27  N   UNL A   1      32.547  33.584  27.411  1.00  0.00    -0.352 N 
ATOM     28  C   UNL A   1      33.185  34.358  28.347  1.00  0.00     0.251 C 
ATOM     29  H   UNL A   1      31.930  34.070  26.817  1.00  0.00     0.163 HD
ATOM     30  O   UNL A   1      32.793  35.503  28.554  1.00  0.00    -0.269 OA
BRANCH  28  31
ATOM     31  C   UNL A   1      34.327  33.810  29.109  1.00  0.00     0.039 A 
ATOM     32  C   UNL A   1      34.084  32.863  30.107  1.00  0.00     0.014 A 
ATOM     33  C   UNL A   1      35.631  34.249  28.860  1.00  0.00     0.014 A 
ATOM     34  C   UNL A   1      35.156  32.321  30.822  1.00  0.00     0.010 A 
ATOM     35  C   UNL A   1      36.702  33.656  29.523  1.00  0.00     0.010 A 
ATOM     36  C   UNL A   1      36.475  32.691  30.518  1.00  0.00    -0.014 A 
BRANCH  36  37
ATOM     37  C   UNL A   1      37.629  32.096  31.240  1.00  0.00     0.031 A 
ATOM     38  C   UNL A   1      38.426  30.990  30.604  1.00  0.00     0.074 A 
ATOM     39  C   UNL A   1      37.922  32.512  32.488  1.00  0.00     0.049 A 
ATOM     40  N   UNL A   1      39.410  30.286  31.100  1.00  0.00    -0.248 NA
ATOM     41  C   UNL A   1      38.041  30.604  29.238  1.00  0.00     0.031 C 
ATOM     42  C   UNL A   1      37.200  33.554  33.223  1.00  0.00     0.029 A 
ATOM     43  N   UNL A   1      38.896  32.105  33.366  1.00  0.00    -0.354 N 
ATOM     44  C   UNL A   1      39.754  29.366  30.115  1.00  0.00     0.074 A 
ATOM     45  C   UNL A   1      38.827  29.561  29.021  1.00  0.00     0.031 C 
ATOM     46  C   UNL A   1      37.772  33.720  34.426  1.00  0.00     0.029 A 
ATOM     47  C   UNL A   1      38.867  32.767  34.571  1.00  0.00     0.049 A 
ATOM     48  H   UNL A   1      39.554  31.405  33.151  1.00  0.00     0.167 HD
ATOM     49  C   UNL A   1      40.765  28.460  30.114  1.00  0.00     0.034 A 
ATOM     50  C   UNL A   1      39.628  32.615  35.674  1.00  0.00     0.034 A 
ATOM     51  C   UNL A   1      41.688  28.291  31.210  1.00  0.00     0.049 A 
ATOM     52  C   UNL A   1      40.728  31.582  35.661  1.00  0.00     0.074 A 
ATOM     53  C   UNL A   1      42.778  27.442  31.296  1.00  0.00     0.029 A 
ATOM     54  N   UNL A   1      41.628  28.980  32.416  1.00  0.00    -0.354 N 
ATOM     55  N   UNL A   1      41.069  30.750  34.702  1.00  0.00    -0.248 NA
ATOM     56  C   UNL A   1      41.551  31.477  36.871  1.00  0.00     0.031 C 
ATOM     57  C   UNL A   1      43.330  27.564  32.576  1.00  0.00     0.029 A 
ATOM     58  C   UNL A   1      42.639  28.550  33.262  1.00  0.00     0.049 A 
ATOM     59  H   UNL A   1      40.964  29.672  32.637  1.00  0.00     0.167 HD
ATOM     60  C   UNL A   1      42.169  30.047  35.186  1.00  0.00     0.074 A 
ATOM     61  C   UNL A   1      42.441  30.563  36.512  1.00  0.00     0.031 C 
ATOM     62  C   UNL A   1      42.894  29.068  34.586  1.00  0.00     0.034 A 
BRANCH  49  63
ATOM     63  C   UNL A   1      40.900  27.570  28.901  1.00  0.00     0.023 A 
ATOM     64  C   UNL A   1      41.860  27.817  27.905  1.00  0.00     0.031 A 
ATOM     65  C   UNL A   1      40.038  26.472  28.723  1.00  0.00     0.131 A 
ATOM     66  C   UNL A   1      41.883  27.032  26.741  1.00  0.00     0.055 A 
ATOM     67  C   UNL A   1      40.124  25.641  27.604  1.00  0.00     0.041 A 
ATOM     68  F   UNL A   1      39.085  26.197  29.627  1.00  0.00    -0.206 F 
ATOM     69  C   UNL A   1      41.041  25.928  26.596  1.00  0.00     0.022 A 
BRANCH  66  70
ATOM     70  S   UNL A   1      42.922  27.570  25.355  1.00  0.00     0.124 S 
ATOM     71  O   UNL A   1      43.139  26.311  24.645  1.00  0.00    -0.237 OA
ATOM     72  O   UNL A   1      42.072  28.544  24.683  1.00  0.00    -0.237 OA
ATOM     73  O   UNL A   1      44.108  28.120  26.010  1.00  0.00    -0.744 OA
ENDBRANCH  66  70
ENDBRANCH  49  63
BRANCH  50  74
ATOM     74  C   UNL A   1      39.378  33.446  36.886  1.00  0.00     0.023 A 
ATOM     75  C   UNL A   1      40.082  34.641  37.102  1.00  0.00     0.031 A 
ATOM     76  C   UNL A   1      38.463  33.034  37.871  1.00  0.00     0.131 A 
ATOM     77  C   UNL A   1      39.898  35.356  38.294  1.00  0.00     0.055 A 
ATOM     78  C   UNL A   1      38.239  33.780  39.030  1.00  0.00     0.041 A 
ATOM     79  F   UNL A   1      37.760  31.901  37.713  1.00  0.00    -0.206 F 
ATOM     80  C   UNL A   1      38.971  34.943  39.254  1.00  0.00     0.022 A 
BRANCH  77  81
ATOM     81  S   UNL A   1      40.960  36.792  38.615  1.00  0.00     0.124 S 
ATOM     82  O   UNL A   1      39.997  37.769  39.109  1.00  0.00    -0.237 OA
ATOM     83  O   UNL A   1      41.897  36.260  39.600  1.00  0.00    -0.237 OA
ATOM     84  O   UNL A   1      41.537  37.089  37.305  1.00  0.00    -0.744 OA
ENDBRANCH  77  81
ENDBRANCH  50  74
BRANCH  62  85
ATOM     85  C   UNL A   1      44.082  28.529  35.347  1.00  0.00     0.023 A 
ATOM     86  C   UNL A   1      43.968  27.440  36.228  1.00  0.00     0.031 A 
ATOM     87  C   UNL A   1      45.348  29.122  35.190  1.00  0.00     0.131 A 
ATOM     88  C   UNL A   1      45.085  27.015  36.962  1.00  0.00     0.055 A 
ATOM     89  C   UNL A   1      46.469  28.654  35.874  1.00  0.00     0.041 A 
ATOM     90  F   UNL A   1      45.515  30.167  34.363  1.00  0.00    -0.206 F 
ATOM     91  C   UNL A   1      46.339  27.603  36.777  1.00  0.00     0.022 A 
BRANCH  88  92
ATOM     92  S   UNL A   1      44.859  25.743  38.234  1.00  0.00     0.124 S 
ATOM     93  O   UNL A   1      44.071  24.740  37.524  1.00  0.00    -0.237 OA
ATOM     94  O   UNL A   1      46.233  25.368  38.549  1.00  0.00    -0.237 OA
ATOM     95  O   UNL A   1      44.150  26.447  39.301  1.00  0.00    -0.744 OA
ENDBRANCH  88  92
ENDBRANCH  62  85
ENDBRANCH  36  37
ENDBRANCH  28  31
ENDBRANCH  26  27
ENDBRANCH  25  26
ENDBRANCH  24  25
ENDBRANCH   1  24
TORSDOF 19
ENDMDL
MODEL 3
REMARK VINA RESULT:     -10.5      3.507      5.111
REMARK SMILES Cc1cc(C(=O)NC[C@@H]2CC[C@H](C(=O)NCCCCCCNC(=O)c3ccc(-c4c5nc(c(-c6cc(S(=O)(=O)[O-])ccc6F)c6ccc([nH]6)c(-c6cc(S(=O)(=O)[O-])ccc6F)c6nc(c(-c7cc(S(=O)(=O)[O-])ccc7F)c7ccc4[nH]7)C=C6)C=C5)cc3)O2)on1
REMARK SMILES IDX 18 1 17 2 16 3 15 4 13 5 14 6 12 8 9 9 10 10 88 11 11 12
REMARK SMILES IDX 8 13 7 14 5 15 6 16 4 18 1 19 2 20 3 21 90 22 89 23 19 24
REMARK SMILES IDX 20 25 21 26 22 27 23 28 24 30 25 31 26 32 87 33 27 34 86 35
REMARK SMILES IDX 28 36 29 37 30 38 80 39 31 40 85 41 79 42 81 43 32 44 84 45
REMARK SMILES IDX 78 46 77 47 33 49 65 50 45 51 64 52 46 53 49 54 63 55 82 56
REMARK SMILES IDX 47 57 48 58 62 60 83 61 50 62 34 63 35 64 43 65 36 66 42 67
REMARK SMILES IDX 44 68 41 69 37 70 38 71 39 72 40 73 66 74 67 75 75 76 68 77
REMARK SMILES IDX 74 78 76 79 73 80 69 81 70 82 71 83 72 84 51 85 52 86 60 87
REMARK SMILES IDX 53 88 59 89 61 90 58 91 54 92 55 93 56 94 57 95
REMARK H PARENT 15 7 7 17 22 29 81 48 49 59
REMARK Flexibility Score: inf
ROOT
ATOM      1  C   UNL A   1      32.876  26.349  25.959  1.00  0.00     0.002 C 
ENDROOT
BRANCH   1   2
ATOM      2  C   UNL A   1      33.804  26.036  24.785  1.00  0.00     0.021 C 
BRANCH   2   3
ATOM      3  C   UNL A   1      33.639  24.623  24.237  1.00  0.00     0.116 C 
BRANCH   3   4
ATOM      4  N   UNL A   1      34.706  24.240  23.346  1.00  0.00    -0.354 N 
ATOM      5  C   UNL A   1      35.712  23.334  23.524  1.00  0.00     0.249 C 
ATOM      6  O   UNL A   1      36.493  23.167  22.580  1.00  0.00    -0.272 OA
ATOM      7  H   UNL A   1      34.710  24.702  22.477  1.00  0.00     0.163 HD
BRANCH   5   8
ATOM      8  C   UNL A   1      35.893  22.541  24.842  1.00  0.00     0.207 C 
ATOM      9  C   UNL A   1      34.310  21.554  26.279  1.00  0.00     0.138 C 
ATOM     10  C   UNL A   1      34.735  22.859  26.941  1.00  0.00     0.037 C 
ATOM     11  O   UNL A   1      34.955  21.477  24.999  1.00  0.00    -0.363 OA
ATOM     12  C   UNL A   1      35.883  23.381  26.106  1.00  0.00     0.045 C 
BRANCH   9  13
ATOM     13  C   UNL A   1      32.795  21.423  26.029  1.00  0.00     0.148 C 
BRANCH  13  14
ATOM     14  N   UNL A   1      32.496  21.195  24.631  1.00  0.00    -0.347 N 
ATOM     15  C   UNL A   1      32.492  20.059  23.859  1.00  0.00     0.289 C 
ATOM     16  O   UNL A   1      32.043  20.209  22.720  1.00  0.00    -0.266 OA
ATOM     17  H   UNL A   1      32.249  22.010  24.138  1.00  0.00     0.164 HD
BRANCH  15  18
ATOM     18  C   UNL A   1      32.975  18.790  24.352  1.00  0.00     0.224 A 
ATOM     19  C   UNL A   1      34.791  15.732  25.272  1.00  0.00     0.070 C 
ATOM     20  C   UNL A   1      33.885  16.877  25.021  1.00  0.00     0.081 A 
ATOM     21  C   UNL A   1      34.110  18.017  24.216  1.00  0.00     0.083 A 
ATOM     22  N   UNL A   1      32.674  16.917  25.576  1.00  0.00    -0.084 NA
ATOM     23  O   UNL A   1      32.107  18.104  25.160  1.00  0.00    -0.351 OA
ENDBRANCH  15  18
ENDBRANCH  13  14
ENDBRANCH   9  13
ENDBRANCH   5   8
ENDBRANCH   3   4
ENDBRANCH   2   3
ENDBRANCH   1   2
BRANCH   1  24
ATOM     24  C   UNL A   1      31.999  27.595  25.777  1.00  0.00     0.002 C 
BRANCH  24  25
ATOM     25  C   UNL A   1      32.065  28.623  26.911  1.00  0.00     0.021 C 
BRANCH  25  26
ATOM     26  C   UNL A   1      33.469  29.112  27.252  1.00  0.00     0.116 C 
BRANCH  26  27
ATOM     27  N   UNL A   1      33.496  30.542  27.511  1.00  0.00    -0.352 N 
ATOM     28  C   UNL A   1      34.407  31.289  28.214  1.00  0.00     0.251 C 
ATOM     29  H   UNL A   1      32.746  31.051  27.125  1.00  0.00     0.163 HD
ATOM     30  O   UNL A   1      34.132  32.445  28.522  1.00  0.00    -0.269 OA
BRANCH  28  31
ATOM     31  C   UNL A   1      35.705  30.700  28.605  1.00  0.00     0.039 A 
ATOM     32  C   UNL A   1      36.868  31.137  27.966  1.00  0.00     0.014 A 
ATOM     33  C   UNL A   1      35.773  29.698  29.578  1.00  0.00     0.014 A 
ATOM     34  C   UNL A   1      38.105  30.604  28.339  1.00  0.00     0.010 A 
ATOM     35  C   UNL A   1      37.012  29.221  29.998  1.00  0.00     0.010 A 
ATOM     36  C   UNL A   1      38.190  29.663  29.377  1.00  0.00    -0.014 A 
BRANCH  36  37
ATOM     37  C   UNL A   1      39.500  29.114  29.814  1.00  0.00     0.031 A 
ATOM     38  C   UNL A   1      40.259  29.778  30.931  1.00  0.00     0.074 A 
ATOM     39  C   UNL A   1      40.030  28.056  29.169  1.00  0.00     0.049 A 
ATOM     40  N   UNL A   1      41.449  29.506  31.401  1.00  0.00    -0.248 NA
ATOM     41  C   UNL A   1      39.604  30.922  31.582  1.00  0.00     0.031 C 
ATOM     42  C   UNL A   1      39.404  27.349  28.049  1.00  0.00     0.029 A 
ATOM     43  N   UNL A   1      41.219  27.395  29.352  1.00  0.00    -0.354 N 
ATOM     44  C   UNL A   1      41.691  30.450  32.393  1.00  0.00     0.074 A 
ATOM     45  C   UNL A   1      40.550  31.341  32.408  1.00  0.00     0.031 C 
ATOM     46  C   UNL A   1      40.202  26.341  27.664  1.00  0.00     0.029 A 
ATOM     47  C   UNL A   1      41.417  26.356  28.472  1.00  0.00     0.049 A 
ATOM     48  H   UNL A   1      41.869  27.642  30.049  1.00  0.00     0.167 HD
ATOM     49  C   UNL A   1      42.754  30.549  33.231  1.00  0.00     0.034 A 
ATOM     50  C   UNL A   1      42.463  25.519  28.325  1.00  0.00     0.034 A 
ATOM     51  C   UNL A   1      43.876  29.642  33.210  1.00  0.00     0.049 A 
ATOM     52  C   UNL A   1      43.647  25.666  29.248  1.00  0.00     0.074 A 
ATOM     53  C   UNL A   1      44.981  29.617  34.043  1.00  0.00     0.029 A 
ATOM     54  N   UNL A   1      44.042  28.600  32.305  1.00  0.00    -0.354 N 
ATOM     55  N   UNL A   1      43.840  26.537  30.212  1.00  0.00    -0.248 NA
ATOM     56  C   UNL A   1      44.747  24.710  29.071  1.00  0.00     0.031 C 
ATOM     57  C   UNL A   1      45.845  28.612  33.597  1.00  0.00     0.029 A 
ATOM     58  C   UNL A   1      45.244  27.951  32.538  1.00  0.00     0.049 A 
ATOM     59  H   UNL A   1      43.398  28.359  31.599  1.00  0.00     0.167 HD
ATOM     60  C   UNL A   1      45.069  26.210  30.777  1.00  0.00     0.074 A 
ATOM     61  C   UNL A   1      45.563  25.055  30.056  1.00  0.00     0.031 C 
ATOM     62  C   UNL A   1      45.729  26.805  31.804  1.00  0.00     0.034 A 
BRANCH  49  63
ATOM     63  C   UNL A   1      42.760  31.695  34.216  1.00  0.00     0.023 A 
ATOM     64  C   UNL A   1      42.191  31.573  35.496  1.00  0.00     0.031 A 
ATOM     65  C   UNL A   1      43.317  32.937  33.862  1.00  0.00     0.131 A 
ATOM     66  C   UNL A   1      42.119  32.691  36.342  1.00  0.00     0.055 A 
ATOM     67  C   UNL A   1      43.322  34.021  34.742  1.00  0.00     0.041 A 
ATOM     68  F   UNL A   1      43.855  33.124  32.647  1.00  0.00    -0.206 F 
ATOM     69  C   UNL A   1      42.706  33.907  35.985  1.00  0.00     0.022 A 
BRANCH  66  70
ATOM     70  S   UNL A   1      41.112  32.575  37.846  1.00  0.00     0.124 S 
ATOM     71  O   UNL A   1      41.970  31.770  38.712  1.00  0.00    -0.237 OA
ATOM     72  O   UNL A   1      40.950  33.973  38.226  1.00  0.00    -0.237 OA
ATOM     73  O   UNL A   1      39.895  31.905  37.391  1.00  0.00    -0.744 OA
ENDBRANCH  66  70
ENDBRANCH  49  63
BRANCH  50  74
ATOM     74  C   UNL A   1      42.452  24.475  27.260  1.00  0.00     0.023 A 
ATOM     75  C   UNL A   1      41.648  23.331  27.377  1.00  0.00     0.031 A 
ATOM     76  C   UNL A   1      43.281  24.585  26.129  1.00  0.00     0.131 A 
ATOM     77  C   UNL A   1      41.725  22.319  26.409  1.00  0.00     0.055 A 
ATOM     78  C   UNL A   1      43.311  23.602  25.138  1.00  0.00     0.041 A 
ATOM     79  F   UNL A   1      44.067  25.661  25.965  1.00  0.00    -0.206 F 
ATOM     80  C   UNL A   1      42.541  22.452  25.283  1.00  0.00     0.022 A 
BRANCH  77  81
ATOM     81  S   UNL A   1      40.811  20.778  26.692  1.00  0.00     0.124 S 
ATOM     82  O   UNL A   1      41.638  19.807  25.984  1.00  0.00    -0.237 OA
ATOM     83  O   UNL A   1      40.819  20.685  28.149  1.00  0.00    -0.237 OA
ATOM     84  O   UNL A   1      39.504  21.042  26.093  1.00  0.00    -0.744 OA
ENDBRANCH  77  81
ENDBRANCH  50  74
BRANCH  62  85
ATOM     85  C   UNL A   1      47.034  26.181  32.236  1.00  0.00     0.023 A 
ATOM     86  C   UNL A   1      47.085  25.161  33.201  1.00  0.00     0.031 A 
ATOM     87  C   UNL A   1      48.246  26.622  31.676  1.00  0.00     0.131 A 
ATOM     88  C   UNL A   1      48.326  24.656  33.619  1.00  0.00     0.055 A 
ATOM     89  C   UNL A   1      49.472  26.071  32.048  1.00  0.00     0.041 A 
ATOM     90  F   UNL A   1      48.257  27.595  30.751  1.00  0.00    -0.206 F 
ATOM     91  C   UNL A   1      49.518  25.092  33.036  1.00  0.00     0.022 A 
BRANCH  88  92
ATOM     92  S   UNL A   1      48.368  23.488  35.005  1.00  0.00     0.124 S 
ATOM     93  O   UNL A   1      47.029  22.911  34.958  1.00  0.00    -0.237 OA
ATOM     94  O   UNL A   1      49.460  22.596  34.629  1.00  0.00    -0.237 OA
ATOM     95  O   UNL A   1      48.636  24.339  36.164  1.00  0.00    -0.744 OA
ENDBRANCH  88  92
ENDBRANCH  62  85
ENDBRANCH  36  37
ENDBRANCH  28  31
ENDBRANCH  26  27
ENDBRANCH  25  26
ENDBRANCH  24  25
ENDBRANCH   1  24
TORSDOF 19
ENDMDL
