MODEL 1
REMARK VINA RESULT:     -10.4      0.000      0.000
REMARK SMILES O=C(CC[N@H+]1CCC[C@H](c2nccn2Cc2cscn2)C1)NCCCCCCNC(=O)c1ccc(-c2c3nc(c(-c4cc(S(=O)(=O)[O-])ccc4F)c4ccc([nH]4)c(-c4cc(S(=O)(=O)[O-])ccc4F)c4nc(c(-c5cc(S(=O)(=O)[O-])ccc5F)c5ccc2[nH]5)C=C4)C=C3)cc1
REMARK SMILES IDX 24 1 23 2 22 3 1 4 2 5 3 7 4 8 5 9 6 10 21 11 7 13 9 14 8 15
REMARK SMILES IDX 10 16 11 17 14 18 12 19 13 20 15 21 16 22 17 23 20 24 18 25
REMARK SMILES IDX 19 26 25 27 26 28 27 29 28 30 29 31 30 32 31 34 32 35 33 36
REMARK SMILES IDX 94 37 34 38 93 39 35 40 36 41 37 42 87 43 38 44 92 45 86 46
REMARK SMILES IDX 88 47 39 48 91 49 85 50 84 51 40 53 72 54 52 55 71 56 53 57
REMARK SMILES IDX 56 58 70 59 89 60 54 61 55 62 69 64 90 65 57 66 41 67 42 68
REMARK SMILES IDX 50 69 43 70 49 71 51 72 48 73 44 74 45 75 46 76 47 77 73 78
REMARK SMILES IDX 74 79 82 80 75 81 81 82 83 83 80 84 76 85 77 86 78 87 79 88
REMARK SMILES IDX 58 89 59 90 67 91 60 92 66 93 68 94 65 95 61 96 62 97 63 98
REMARK SMILES IDX 64 99
REMARK H PARENT 22 6 5 12 29 33 88 52 56 63
REMARK Flexibility Score: inf
ROOT
ATOM      1  C   UNL A   1      34.564  35.956  28.326  1.00  0.00     0.021 C 
ENDROOT
BRANCH   1   2
ATOM      2  C   UNL A   1      33.515  37.025  28.802  1.00  0.00     0.116 C 
BRANCH   2   3
ATOM      3  N   UNL A   1      33.281  37.228  30.253  1.00  0.00    -0.356 N 
ATOM      4  O   UNL A   1      32.243  35.202  30.629  1.00  0.00    -0.275 OA
ATOM      5  C   UNL A   1      32.723  36.237  31.085  1.00  0.00     0.225 C 
ATOM      6  H   UNL A   1      33.527  38.094  30.651  1.00  0.00     0.163 HD
BRANCH   5   7
ATOM      7  C   UNL A   1      32.786  36.499  32.623  1.00  0.00     0.161 C 
BRANCH   7   8
ATOM      8  C   UNL A   1      34.204  36.491  33.337  1.00  0.00     0.272 C 
BRANCH   8   9
ATOM      9  N   UNL A   1      35.041  35.265  33.250  1.00  0.00    -0.334 N 
ATOM     10  C   UNL A   1      34.339  33.965  33.227  1.00  0.00     0.262 C 
ATOM     11  C   UNL A   1      36.054  35.279  32.187  1.00  0.00     0.273 C 
ATOM     12  H   UNL A   1      35.503  35.325  34.157  1.00  0.00     0.348 HD
ATOM     13  C   UNL A   1      35.310  32.775  33.458  1.00  0.00     0.062 C 
ATOM     14  C   UNL A   1      37.070  34.117  32.324  1.00  0.00     0.111 C 
ATOM     15  C   UNL A   1      36.426  32.745  32.434  1.00  0.00     0.023 C 
BRANCH  14  16
ATOM     16  C   UNL A   1      38.125  34.307  33.387  1.00  0.00     0.117 A 
ATOM     17  N   UNL A   1      37.805  34.814  34.578  1.00  0.00    -0.241 NA
ATOM     18  N   UNL A   1      39.314  33.627  33.530  1.00  0.00    -0.328 N 
ATOM     19  C   UNL A   1      38.350  33.938  35.467  1.00  0.00     0.131 A 
ATOM     20  C   UNL A   1      39.059  33.007  34.762  1.00  0.00     0.108 A 
BRANCH  18  21
ATOM     21  C   UNL A   1      40.268  32.986  32.608  1.00  0.00     0.180 C 
BRANCH  21  22
ATOM     22  C   UNL A   1      41.107  33.562  31.454  1.00  0.00     0.071 A 
ATOM     23  C   UNL A   1      40.638  33.940  30.197  1.00  0.00     0.092 A 
ATOM     24  N   UNL A   1      42.313  34.205  31.701  1.00  0.00    -0.248 NA
ATOM     25  S   UNL A   1      41.685  35.021  29.368  1.00  0.00    -0.130 S 
ATOM     26  C   UNL A   1      42.706  34.984  30.719  1.00  0.00     0.175 A 
ENDBRANCH  21  22
ENDBRANCH  18  21
ENDBRANCH  14  16
ENDBRANCH   8   9
ENDBRANCH   7   8
ENDBRANCH   5   7
ENDBRANCH   2   3
ENDBRANCH   1   2
BRANCH   1  27
ATOM     27  C   UNL A   1      34.262  34.445  28.057  1.00  0.00     0.002 C 
BRANCH  27  28
ATOM     28  C   UNL A   1      35.100  33.380  28.762  1.00  0.00     0.002 C 
BRANCH  28  29
ATOM     29  C   UNL A   1      36.017  32.465  27.961  1.00  0.00     0.021 C 
BRANCH  29  30
ATOM     30  C   UNL A   1      35.849  30.984  28.249  1.00  0.00     0.116 C 
BRANCH  30  31
ATOM     31  N   UNL A   1      35.902  30.602  29.665  1.00  0.00    -0.352 N 
ATOM     32  C   UNL A   1      36.753  29.636  30.196  1.00  0.00     0.251 C 
ATOM     33  H   UNL A   1      35.290  31.061  30.284  1.00  0.00     0.163 HD
ATOM     34  O   UNL A   1      36.533  29.080  31.266  1.00  0.00    -0.269 OA
BRANCH  32  35
ATOM     35  C   UNL A   1      37.954  29.322  29.401  1.00  0.00     0.039 A 
ATOM     36  C   UNL A   1      38.957  30.266  29.169  1.00  0.00     0.014 A 
ATOM     37  C   UNL A   1      38.152  27.970  29.141  1.00  0.00     0.014 A 
ATOM     38  C   UNL A   1      40.223  29.807  28.805  1.00  0.00     0.010 A 
ATOM     39  C   UNL A   1      39.436  27.520  28.955  1.00  0.00     0.010 A 
ATOM     40  C   UNL A   1      40.480  28.423  28.761  1.00  0.00    -0.014 A 
BRANCH  40  41
ATOM     41  C   UNL A   1      41.851  27.906  28.693  1.00  0.00     0.031 A 
ATOM     42  C   UNL A   1      42.058  26.776  27.743  1.00  0.00     0.074 A 
ATOM     43  C   UNL A   1      42.918  28.507  29.269  1.00  0.00     0.049 A 
ATOM     44  N   UNL A   1      42.228  25.534  28.052  1.00  0.00    -0.248 NA
ATOM     45  C   UNL A   1      41.906  27.002  26.298  1.00  0.00     0.031 C 
ATOM     46  C   UNL A   1      42.956  29.760  30.030  1.00  0.00     0.029 A 
ATOM     47  N   UNL A   1      44.237  28.167  29.200  1.00  0.00    -0.354 N 
ATOM     48  C   UNL A   1      42.480  24.865  26.859  1.00  0.00     0.074 A 
ATOM     49  C   UNL A   1      42.046  25.762  25.819  1.00  0.00     0.031 C 
ATOM     50  C   UNL A   1      44.230  30.196  30.135  1.00  0.00     0.029 A 
ATOM     51  C   UNL A   1      45.112  29.166  29.622  1.00  0.00     0.049 A 
ATOM     52  H   UNL A   1      44.546  27.289  28.880  1.00  0.00     0.167 HD
ATOM     53  C   UNL A   1      43.258  23.744  26.839  1.00  0.00     0.034 A 
ATOM     54  C   UNL A   1      46.472  29.159  29.580  1.00  0.00     0.034 A 
ATOM     55  C   UNL A   1      43.470  23.246  28.185  1.00  0.00     0.049 A 
ATOM     56  C   UNL A   1      46.883  27.734  29.581  1.00  0.00     0.074 A 
ATOM     57  C   UNL A   1      42.634  22.869  29.220  1.00  0.00     0.029 A 
ATOM     58  N   UNL A   1      44.696  23.478  28.776  1.00  0.00    -0.354 N 
ATOM     59  N   UNL A   1      46.668  26.940  30.596  1.00  0.00    -0.248 NA
ATOM     60  C   UNL A   1      47.055  27.061  28.302  1.00  0.00     0.031 C 
ATOM     61  C   UNL A   1      43.238  23.417  30.391  1.00  0.00     0.029 A 
ATOM     62  C   UNL A   1      44.457  23.993  30.027  1.00  0.00     0.049 A 
ATOM     63  H   UNL A   1      45.578  23.306  28.375  1.00  0.00     0.167 HD
ATOM     64  C   UNL A   1      46.210  25.759  30.031  1.00  0.00     0.074 A 
ATOM     65  C   UNL A   1      46.586  25.849  28.620  1.00  0.00     0.031 C 
ATOM     66  C   UNL A   1      45.318  24.956  30.689  1.00  0.00     0.034 A 
BRANCH  53  67
ATOM     67  C   UNL A   1      44.148  23.302  25.693  1.00  0.00     0.023 A 
ATOM     68  C   UNL A   1      44.046  21.954  25.294  1.00  0.00     0.031 A 
ATOM     69  C   UNL A   1      45.265  24.005  25.191  1.00  0.00     0.131 A 
ATOM     70  C   UNL A   1      45.078  21.331  24.571  1.00  0.00     0.055 A 
ATOM     71  C   UNL A   1      46.252  23.398  24.406  1.00  0.00     0.041 A 
ATOM     72  F   UNL A   1      45.519  25.280  25.498  1.00  0.00    -0.206 F 
ATOM     73  C   UNL A   1      46.185  22.045  24.125  1.00  0.00     0.022 A 
BRANCH  70  74
ATOM     74  S   UNL A   1      45.038  19.528  24.410  1.00  0.00     0.124 S 
ATOM     75  O   UNL A   1      44.702  19.371  22.999  1.00  0.00    -0.237 OA
ATOM     76  O   UNL A   1      46.398  19.163  24.793  1.00  0.00    -0.237 OA
ATOM     77  O   UNL A   1      43.995  19.128  25.350  1.00  0.00    -0.744 OA
ENDBRANCH  70  74
ENDBRANCH  53  67
BRANCH  54  78
ATOM     78  C   UNL A   1      47.383  30.307  29.318  1.00  0.00     0.023 A 
ATOM     79  C   UNL A   1      47.298  31.115  28.163  1.00  0.00     0.031 A 
ATOM     80  C   UNL A   1      48.224  30.777  30.354  1.00  0.00     0.131 A 
ATOM     81  C   UNL A   1      48.024  32.330  28.085  1.00  0.00     0.055 A 
ATOM     82  C   UNL A   1      48.940  31.973  30.271  1.00  0.00     0.041 A 
ATOM     83  F   UNL A   1      48.311  30.130  31.528  1.00  0.00    -0.206 F 
ATOM     84  C   UNL A   1      48.834  32.761  29.138  1.00  0.00     0.022 A 
BRANCH  81  85
ATOM     85  S   UNL A   1      47.843  33.433  26.644  1.00  0.00     0.124 S 
ATOM     86  O   UNL A   1      46.689  32.864  25.959  1.00  0.00    -0.237 OA
ATOM     87  O   UNL A   1      47.653  34.738  27.269  1.00  0.00    -0.237 OA
ATOM     88  O   UNL A   1      49.115  33.278  25.937  1.00  0.00    -0.744 OA
ENDBRANCH  81  85
ENDBRANCH  54  78
BRANCH  66  89
ATOM     89  C   UNL A   1      45.047  25.225  32.160  1.00  0.00     0.023 A 
ATOM     90  C   UNL A   1      45.790  24.683  33.234  1.00  0.00     0.031 A 
ATOM     91  C   UNL A   1      44.053  26.171  32.474  1.00  0.00     0.131 A 
ATOM     92  C   UNL A   1      45.510  25.074  34.560  1.00  0.00     0.055 A 
ATOM     93  C   UNL A   1      43.798  26.577  33.783  1.00  0.00     0.041 A 
ATOM     94  F   UNL A   1      43.329  26.747  31.500  1.00  0.00    -0.206 F 
ATOM     95  C   UNL A   1      44.520  26.023  34.833  1.00  0.00     0.022 A 
BRANCH  92  96
ATOM     96  S   UNL A   1      46.414  24.334  35.959  1.00  0.00     0.124 S 
ATOM     97  O   UNL A   1      45.800  23.020  36.107  1.00  0.00    -0.237 OA
ATOM     98  O   UNL A   1      47.796  24.342  35.484  1.00  0.00    -0.237 OA
ATOM     99  O   UNL A   1      46.146  25.259  37.062  1.00  0.00    -0.744 OA
ENDBRANCH  92  96
ENDBRANCH  66  89
ENDBRANCH  40  41
ENDBRANCH  32  35
ENDBRANCH  30  31
ENDBRANCH  29  30
ENDBRANCH  28  29
ENDBRANCH  27  28
ENDBRANCH   1  27
TORSDOF 21
ENDMDL
MODEL 2
REMARK VINA RESULT:     -10.2      1.955      2.255
REMARK SMILES O=C(CC[N@H+]1CCC[C@H](c2nccn2Cc2cscn2)C1)NCCCCCCNC(=O)c1ccc(-c2c3nc(c(-c4cc(S(=O)(=O)[O-])ccc4F)c4ccc([nH]4)c(-c4cc(S(=O)(=O)[O-])ccc4F)c4nc(c(-c5cc(S(=O)(=O)[O-])ccc5F)c5ccc2[nH]5)C=C4)C=C3)cc1
REMARK SMILES IDX 24 1 23 2 22 3 1 4 2 5 3 7 4 8 5 9 6 10 21 11 7 13 9 14 8 15
REMARK SMILES IDX 10 16 11 17 14 18 12 19 13 20 15 21 16 22 17 23 20 24 18 25
REMARK SMILES IDX 19 26 25 27 26 28 27 29 28 30 29 31 30 32 31 34 32 35 33 36
REMARK SMILES IDX 94 37 34 38 93 39 35 40 36 41 37 42 87 43 38 44 92 45 86 46
REMARK SMILES IDX 88 47 39 48 91 49 85 50 84 51 40 53 72 54 52 55 71 56 53 57
REMARK SMILES IDX 56 58 70 59 89 60 54 61 55 62 69 64 90 65 57 66 41 67 42 68
REMARK SMILES IDX 50 69 43 70 49 71 51 72 48 73 44 74 45 75 46 76 47 77 73 78
REMARK SMILES IDX 74 79 82 80 75 81 81 82 83 83 80 84 76 85 77 86 78 87 79 88
REMARK SMILES IDX 58 89 59 90 67 91 60 92 66 93 68 94 65 95 61 96 62 97 63 98
REMARK SMILES IDX 64 99
REMARK H PARENT 22 6 5 12 29 33 88 52 56 63
REMARK Flexibility Score: inf
ROOT
ATOM      1  C   UNL A   1      34.522  36.095  28.264  1.00  0.00     0.021 C 
ENDROOT
BRANCH   1   2
ATOM      2  C   UNL A   1      33.428  37.098  28.782  1.00  0.00     0.116 C 
BRANCH   2   3
ATOM      3  N   UNL A   1      33.229  37.276  30.241  1.00  0.00    -0.356 N 
ATOM      4  O   UNL A   1      32.282  35.207  30.623  1.00  0.00    -0.275 OA
ATOM      5  C   UNL A   1      32.734  36.256  31.077  1.00  0.00     0.225 C 
ATOM      6  H   UNL A   1      33.452  38.147  30.643  1.00  0.00     0.163 HD
BRANCH   5   7
ATOM      7  C   UNL A   1      32.830  36.503  32.615  1.00  0.00     0.161 C 
BRANCH   7   8
ATOM      8  C   UNL A   1      34.265  36.493  33.297  1.00  0.00     0.272 C 
BRANCH   8   9
ATOM      9  N   UNL A   1      35.089  35.259  33.209  1.00  0.00    -0.334 N 
ATOM     10  C   UNL A   1      34.380  33.964  33.264  1.00  0.00     0.262 C 
ATOM     11  C   UNL A   1      36.047  35.231  32.095  1.00  0.00     0.273 C 
ATOM     12  H   UNL A   1      35.597  35.346  34.089  1.00  0.00     0.348 HD
ATOM     13  C   UNL A   1      35.355  32.775  33.485  1.00  0.00     0.062 C 
ATOM     14  C   UNL A   1      37.062  34.067  32.219  1.00  0.00     0.111 C 
ATOM     15  C   UNL A   1      36.417  32.704  32.407  1.00  0.00     0.023 C 
BRANCH  14  16
ATOM     16  C   UNL A   1      38.171  34.285  33.220  1.00  0.00     0.117 A 
ATOM     17  N   UNL A   1      37.944  34.956  34.349  1.00  0.00    -0.241 NA
ATOM     18  N   UNL A   1      39.301  33.520  33.410  1.00  0.00    -0.328 N 
ATOM     19  C   UNL A   1      38.445  34.145  35.322  1.00  0.00     0.131 A 
ATOM     20  C   UNL A   1      39.042  33.077  34.715  1.00  0.00     0.108 A 
BRANCH  18  21
ATOM     21  C   UNL A   1      40.158  32.690  32.545  1.00  0.00     0.180 C 
BRANCH  21  22
ATOM     22  C   UNL A   1      41.078  33.064  31.370  1.00  0.00     0.071 A 
ATOM     23  C   UNL A   1      40.735  33.840  30.263  1.00  0.00     0.092 A 
ATOM     24  N   UNL A   1      42.459  33.071  31.518  1.00  0.00    -0.248 NA
ATOM     25  S   UNL A   1      42.090  34.508  29.445  1.00  0.00    -0.130 S 
ATOM     26  C   UNL A   1      43.084  33.780  30.607  1.00  0.00     0.175 A 
ENDBRANCH  21  22
ENDBRANCH  18  21
ENDBRANCH  14  16
ENDBRANCH   8   9
ENDBRANCH   7   8
ENDBRANCH   5   7
ENDBRANCH   2   3
ENDBRANCH   1   2
BRANCH   1  27
ATOM     27  C   UNL A   1      34.297  34.573  27.983  1.00  0.00     0.002 C 
BRANCH  27  28
ATOM     28  C   UNL A   1      35.144  33.544  28.729  1.00  0.00     0.002 C 
BRANCH  28  29
ATOM     29  C   UNL A   1      36.099  32.634  27.968  1.00  0.00     0.021 C 
BRANCH  29  30
ATOM     30  C   UNL A   1      35.905  31.150  28.223  1.00  0.00     0.116 C 
BRANCH  30  31
ATOM     31  N   UNL A   1      35.862  30.748  29.633  1.00  0.00    -0.352 N 
ATOM     32  C   UNL A   1      36.674  29.772  30.207  1.00  0.00     0.251 C 
ATOM     33  H   UNL A   1      35.212  31.200  30.218  1.00  0.00     0.163 HD
ATOM     34  O   UNL A   1      36.382  29.202  31.252  1.00  0.00    -0.269 OA
BRANCH  32  35
ATOM     35  C   UNL A   1      37.925  29.465  29.489  1.00  0.00     0.039 A 
ATOM     36  C   UNL A   1      38.977  30.379  29.410  1.00  0.00     0.014 A 
ATOM     37  C   UNL A   1      38.094  28.129  29.144  1.00  0.00     0.014 A 
ATOM     38  C   UNL A   1      40.252  29.894  29.115  1.00  0.00     0.010 A 
ATOM     39  C   UNL A   1      39.371  27.639  29.028  1.00  0.00     0.010 A 
ATOM     40  C   UNL A   1      40.460  28.508  28.988  1.00  0.00    -0.014 A 
BRANCH  40  41
ATOM     41  C   UNL A   1      41.812  27.939  28.990  1.00  0.00     0.031 A 
ATOM     42  C   UNL A   1      42.072  26.911  27.942  1.00  0.00     0.074 A 
ATOM     43  C   UNL A   1      42.838  28.423  29.728  1.00  0.00     0.049 A 
ATOM     44  N   UNL A   1      42.167  25.636  28.122  1.00  0.00    -0.248 NA
ATOM     45  C   UNL A   1      42.072  27.301  26.524  1.00  0.00     0.031 C 
ATOM     46  C   UNL A   1      42.845  29.582  30.628  1.00  0.00     0.029 A 
ATOM     47  N   UNL A   1      44.144  28.033  29.747  1.00  0.00    -0.354 N 
ATOM     48  C   UNL A   1      42.512  25.091  26.891  1.00  0.00     0.074 A 
ATOM     49  C   UNL A   1      42.214  26.115  25.923  1.00  0.00     0.031 C 
ATOM     50  C   UNL A   1      44.116  29.945  30.900  1.00  0.00     0.029 A 
ATOM     51  C   UNL A   1      45.008  28.938  30.359  1.00  0.00     0.049 A 
ATOM     52  H   UNL A   1      44.452  27.182  29.359  1.00  0.00     0.167 HD
ATOM     53  C   UNL A   1      43.248  23.945  26.817  1.00  0.00     0.034 A 
ATOM     54  C   UNL A   1      46.364  28.873  30.445  1.00  0.00     0.034 A 
ATOM     55  C   UNL A   1      43.309  23.293  28.112  1.00  0.00     0.049 A 
ATOM     56  C   UNL A   1      46.723  27.439  30.323  1.00  0.00     0.074 A 
ATOM     57  C   UNL A   1      42.362  22.844  29.014  1.00  0.00     0.029 A 
ATOM     58  N   UNL A   1      44.478  23.402  28.838  1.00  0.00    -0.354 N 
ATOM     59  N   UNL A   1      46.381  26.550  31.216  1.00  0.00    -0.248 NA
ATOM     60  C   UNL A   1      46.997  26.903  28.998  1.00  0.00     0.031 C 
ATOM     61  C   UNL A   1      42.866  23.231  30.291  1.00  0.00     0.029 A 
ATOM     62  C   UNL A   1      44.135  23.788  30.111  1.00  0.00     0.049 A 
ATOM     63  H   UNL A   1      45.389  23.235  28.505  1.00  0.00     0.167 HD
ATOM     64  C   UNL A   1      45.940  25.460  30.481  1.00  0.00     0.074 A 
ATOM     65  C   UNL A   1      46.456  25.687  29.131  1.00  0.00     0.031 C 
ATOM     66  C   UNL A   1      44.960  24.632  30.957  1.00  0.00     0.034 A 
BRANCH  53  67
ATOM     67  C   UNL A   1      44.231  23.591  25.717  1.00  0.00     0.023 A 
ATOM     68  C   UNL A   1      44.203  22.263  25.244  1.00  0.00     0.031 A 
ATOM     69  C   UNL A   1      45.356  24.351  25.332  1.00  0.00     0.131 A 
ATOM     70  C   UNL A   1      45.303  21.710  24.566  1.00  0.00     0.055 A 
ATOM     71  C   UNL A   1      46.416  23.817  24.592  1.00  0.00     0.041 A 
ATOM     72  F   UNL A   1      45.546  25.616  25.722  1.00  0.00    -0.206 F 
ATOM     73  C   UNL A   1      46.414  22.479  24.239  1.00  0.00     0.022 A 
BRANCH  70  74
ATOM     74  S   UNL A   1      45.335  19.918  24.313  1.00  0.00     0.124 S 
ATOM     75  O   UNL A   1      44.696  19.441  25.535  1.00  0.00    -0.237 OA
ATOM     76  O   UNL A   1      44.563  19.775  23.083  1.00  0.00    -0.237 OA
ATOM     77  O   UNL A   1      46.759  19.619  24.195  1.00  0.00    -0.744 OA
ENDBRANCH  70  74
ENDBRANCH  53  67
BRANCH  54  78
ATOM     78  C   UNL A   1      47.336  30.000  30.401  1.00  0.00     0.023 A 
ATOM     79  C   UNL A   1      48.045  30.456  31.535  1.00  0.00     0.031 A 
ATOM     80  C   UNL A   1      47.764  30.500  29.149  1.00  0.00     0.131 A 
ATOM     81  C   UNL A   1      49.127  31.358  31.386  1.00  0.00     0.055 A 
ATOM     82  C   UNL A   1      48.829  31.392  29.008  1.00  0.00     0.041 A 
ATOM     83  F   UNL A   1      47.216  30.066  28.002  1.00  0.00    -0.206 F 
ATOM     84  C   UNL A   1      49.524  31.818  30.127  1.00  0.00     0.022 A 
BRANCH  81  85
ATOM     85  S   UNL A   1      50.116  31.874  32.829  1.00  0.00     0.124 S 
ATOM     86  O   UNL A   1      50.829  33.038  32.318  1.00  0.00    -0.237 OA
ATOM     87  O   UNL A   1      49.093  32.126  33.838  1.00  0.00    -0.237 OA
ATOM     88  O   UNL A   1      50.959  30.707  33.097  1.00  0.00    -0.744 OA
ENDBRANCH  81  85
ENDBRANCH  54  78
BRANCH  66  89
ATOM     89  C   UNL A   1      44.555  24.750  32.416  1.00  0.00     0.023 A 
ATOM     90  C   UNL A   1      43.817  25.822  32.969  1.00  0.00     0.031 A 
ATOM     91  C   UNL A   1      44.839  23.660  33.259  1.00  0.00     0.131 A 
ATOM     92  C   UNL A   1      43.413  25.785  34.320  1.00  0.00     0.055 A 
ATOM     93  C   UNL A   1      44.415  23.613  34.587  1.00  0.00     0.041 A 
ATOM     94  F   UNL A   1      45.513  22.595  32.792  1.00  0.00    -0.206 F 
ATOM     95  C   UNL A   1      43.707  24.681  35.125  1.00  0.00     0.022 A 
BRANCH  92  96
ATOM     96  S   UNL A   1      42.519  27.189  35.062  1.00  0.00     0.124 S 
ATOM     97  O   UNL A   1      43.394  27.618  36.147  1.00  0.00    -0.237 OA
ATOM     98  O   UNL A   1      42.392  28.115  33.940  1.00  0.00    -0.237 OA
ATOM     99  O   UNL A   1      41.255  26.591  35.501  1.00  0.00    -0.744 OA
ENDBRANCH  92  96
ENDBRANCH  66  89
ENDBRANCH  40  41
ENDBRANCH  32  35
ENDBRANCH  30  31
ENDBRANCH  29  30
ENDBRANCH  28  29
ENDBRANCH  27  28
ENDBRANCH   1  27
TORSDOF 21
ENDMDL
MODEL 3
REMARK VINA RESULT:      -9.7      5.162     11.272
REMARK SMILES O=C(CC[N@H+]1CCC[C@H](c2nccn2Cc2cscn2)C1)NCCCCCCNC(=O)c1ccc(-c2c3nc(c(-c4cc(S(=O)(=O)[O-])ccc4F)c4ccc([nH]4)c(-c4cc(S(=O)(=O)[O-])ccc4F)c4nc(c(-c5cc(S(=O)(=O)[O-])ccc5F)c5ccc2[nH]5)C=C4)C=C3)cc1
REMARK SMILES IDX 24 1 23 2 22 3 1 4 2 5 3 7 4 8 5 9 6 10 21 11 7 13 9 14 8 15
REMARK SMILES IDX 10 16 11 17 14 18 12 19 13 20 15 21 16 22 17 23 20 24 18 25
REMARK SMILES IDX 19 26 25 27 26 28 27 29 28 30 29 31 30 32 31 34 32 35 33 36
REMARK SMILES IDX 94 37 34 38 93 39 35 40 36 41 37 42 87 43 38 44 92 45 86 46
REMARK SMILES IDX 88 47 39 48 91 49 85 50 84 51 40 53 72 54 52 55 71 56 53 57
REMARK SMILES IDX 56 58 70 59 89 60 54 61 55 62 69 64 90 65 57 66 41 67 42 68
REMARK SMILES IDX 50 69 43 70 49 71 51 72 48 73 44 74 45 75 46 76 47 77 73 78
REMARK SMILES IDX 74 79 82 80 75 81 81 82 83 83 80 84 76 85 77 86 78 87 79 88
REMARK SMILES IDX 58 89 59 90 67 91 60 92 66 93 68 94 65 95 61 96 62 97 63 98
REMARK SMILES IDX 64 99
REMARK H PARENT 22 6 5 12 29 33 88 52 56 63
REMARK Flexibility Score: inf
ROOT
ATOM      1  C   UNL A   1      38.141  29.680  27.997  1.00  0.00     0.021 C 
ENDROOT
BRANCH   1   2
ATOM      2  C   UNL A   1      36.648  30.169  27.958  1.00  0.00     0.116 C 
BRANCH   2   3
ATOM      3  N   UNL A   1      35.565  29.198  27.666  1.00  0.00    -0.356 N 
ATOM      4  O   UNL A   1      33.935  30.765  27.206  1.00  0.00    -0.275 OA
ATOM      5  C   UNL A   1      34.285  29.587  27.222  1.00  0.00     0.225 C 
ATOM      6  H   UNL A   1      35.749  28.238  27.789  1.00  0.00     0.163 HD
BRANCH   5   7
ATOM      7  C   UNL A   1      33.348  28.450  26.707  1.00  0.00     0.161 C 
BRANCH   7   8
ATOM      8  C   UNL A   1      33.998  27.216  25.947  1.00  0.00     0.272 C 
BRANCH   8   9
ATOM      9  N   UNL A   1      33.249  25.933  25.895  1.00  0.00    -0.334 N 
ATOM     10  C   UNL A   1      31.853  25.942  26.379  1.00  0.00     0.262 C 
ATOM     11  C   UNL A   1      33.302  25.235  24.604  1.00  0.00     0.273 C 
ATOM     12  H   UNL A   1      33.788  25.408  26.584  1.00  0.00     0.348 HD
ATOM     13  C   UNL A   1      31.295  24.506  26.574  1.00  0.00     0.062 C 
ATOM     14  C   UNL A   1      32.754  23.789  24.692  1.00  0.00     0.111 C 
ATOM     15  C   UNL A   1      31.363  23.692  25.298  1.00  0.00     0.023 C 
BRANCH  14  16
ATOM     16  C   UNL A   1      33.690  22.784  25.318  1.00  0.00     0.117 A 
ATOM     17  N   UNL A   1      34.633  23.176  26.174  1.00  0.00    -0.241 NA
ATOM     18  N   UNL A   1      33.470  21.440  25.528  1.00  0.00    -0.328 N 
ATOM     19  C   UNL A   1      34.473  22.349  27.245  1.00  0.00     0.131 A 
ATOM     20  C   UNL A   1      33.510  21.432  26.930  1.00  0.00     0.108 A 
BRANCH  18  21
ATOM     21  C   UNL A   1      32.697  20.389  24.844  1.00  0.00     0.180 C 
BRANCH  21  22
ATOM     22  C   UNL A   1      32.950  18.879  24.692  1.00  0.00     0.071 A 
ATOM     23  C   UNL A   1      34.159  18.271  24.354  1.00  0.00     0.092 A 
ATOM     24  N   UNL A   1      32.140  17.951  25.333  1.00  0.00    -0.248 NA
ATOM     25  S   UNL A   1      34.243  16.613  24.796  1.00  0.00    -0.130 S 
ATOM     26  C   UNL A   1      32.690  16.765  25.456  1.00  0.00     0.175 A 
ENDBRANCH  21  22
ENDBRANCH  18  21
ENDBRANCH  14  16
ENDBRANCH   8   9
ENDBRANCH   7   8
ENDBRANCH   5   7
ENDBRANCH   2   3
ENDBRANCH   1   2
BRANCH   1  27
ATOM     27  C   UNL A   1      38.606  28.200  28.203  1.00  0.00     0.002 C 
BRANCH  27  28
ATOM     28  C   UNL A   1      39.887  27.720  27.525  1.00  0.00     0.002 C 
BRANCH  28  29
ATOM     29  C   UNL A   1      40.101  26.239  27.241  1.00  0.00     0.021 C 
BRANCH  29  30
ATOM     30  C   UNL A   1      40.340  25.382  28.472  1.00  0.00     0.116 C 
BRANCH  30  31
ATOM     31  N   UNL A   1      41.351  24.329  28.325  1.00  0.00    -0.352 N 
ATOM     32  C   UNL A   1      42.713  24.554  28.147  1.00  0.00     0.251 C 
ATOM     33  H   UNL A   1      41.043  23.394  28.354  1.00  0.00     0.163 HD
ATOM     34  O   UNL A   1      43.464  23.712  27.668  1.00  0.00    -0.269 OA
BRANCH  32  35
ATOM     35  C   UNL A   1      43.216  25.869  28.584  1.00  0.00     0.039 A 
ATOM     36  C   UNL A   1      43.546  26.876  27.673  1.00  0.00     0.014 A 
ATOM     37  C   UNL A   1      43.076  26.133  29.942  1.00  0.00     0.014 A 
ATOM     38  C   UNL A   1      43.590  28.192  28.133  1.00  0.00     0.010 A 
ATOM     39  C   UNL A   1      42.951  27.440  30.345  1.00  0.00     0.010 A 
ATOM     40  C   UNL A   1      43.227  28.482  29.462  1.00  0.00    -0.014 A 
BRANCH  40  41
ATOM     41  C   UNL A   1      42.960  29.858  29.894  1.00  0.00     0.031 A 
ATOM     42  C   UNL A   1      43.899  30.886  29.361  1.00  0.00     0.074 A 
ATOM     43  C   UNL A   1      41.843  30.243  30.553  1.00  0.00     0.049 A 
ATOM     44  N   UNL A   1      44.837  31.483  30.017  1.00  0.00    -0.248 NA
ATOM     45  C   UNL A   1      43.917  31.178  27.920  1.00  0.00     0.031 C 
ATOM     46  C   UNL A   1      40.689  29.425  30.944  1.00  0.00     0.029 A 
ATOM     47  N   UNL A   1      41.451  31.495  30.926  1.00  0.00    -0.354 N 
ATOM     48  C   UNL A   1      45.383  32.423  29.150  1.00  0.00     0.074 A 
ATOM     49  C   UNL A   1      44.942  32.033  27.836  1.00  0.00     0.031 C 
ATOM     50  C   UNL A   1      39.647  30.223  31.263  1.00  0.00     0.029 A 
ATOM     51  C   UNL A   1      40.110  31.596  31.287  1.00  0.00     0.049 A 
ATOM     52  H   UNL A   1      42.066  32.263  30.939  1.00  0.00     0.167 HD
ATOM     53  C   UNL A   1      45.933  33.577  29.629  1.00  0.00     0.034 A 
ATOM     54  C   UNL A   1      39.413  32.719  31.608  1.00  0.00     0.034 A 
ATOM     55  C   UNL A   1      46.122  33.494  31.065  1.00  0.00     0.049 A 
ATOM     56  C   UNL A   1      40.409  33.707  32.089  1.00  0.00     0.074 A 
ATOM     57  C   UNL A   1      46.783  32.616  31.904  1.00  0.00     0.029 A 
ATOM     58  N   UNL A   1      45.234  34.172  31.876  1.00  0.00    -0.354 N 
ATOM     59  N   UNL A   1      41.103  33.533  33.182  1.00  0.00    -0.248 NA
ATOM     60  C   UNL A   1      41.008  34.615  31.122  1.00  0.00     0.031 C 
ATOM     61  C   UNL A   1      45.897  32.435  33.008  1.00  0.00     0.029 A 
ATOM     62  C   UNL A   1      44.807  33.292  32.840  1.00  0.00     0.049 A 
ATOM     63  H   UNL A   1      44.958  35.112  31.780  1.00  0.00     0.167 HD
ATOM     64  C   UNL A   1      42.395  33.904  32.845  1.00  0.00     0.074 A 
ATOM     65  C   UNL A   1      42.252  34.675  31.610  1.00  0.00     0.031 C 
ATOM     66  C   UNL A   1      43.481  33.312  33.431  1.00  0.00     0.034 A 
BRANCH  53  67
ATOM     67  C   UNL A   1      45.950  34.914  28.914  1.00  0.00     0.023 A 
ATOM     68  C   UNL A   1      44.704  35.542  28.711  1.00  0.00     0.031 A 
ATOM     69  C   UNL A   1      47.028  35.447  28.175  1.00  0.00     0.131 A 
ATOM     70  C   UNL A   1      44.539  36.528  27.723  1.00  0.00     0.055 A 
ATOM     71  C   UNL A   1      46.873  36.482  27.245  1.00  0.00     0.041 A 
ATOM     72  F   UNL A   1      48.267  34.947  28.233  1.00  0.00    -0.206 F 
ATOM     73  C   UNL A   1      45.618  37.001  26.984  1.00  0.00     0.022 A 
BRANCH  70  74
ATOM     74  S   UNL A   1      42.853  37.020  27.282  1.00  0.00     0.124 S 
ATOM     75  O   UNL A   1      43.036  38.437  26.981  1.00  0.00    -0.237 OA
ATOM     76  O   UNL A   1      42.573  36.150  26.145  1.00  0.00    -0.237 OA
ATOM     77  O   UNL A   1      42.090  36.733  28.493  1.00  0.00    -0.744 OA
ENDBRANCH  70  74
ENDBRANCH  53  67
BRANCH  54  78
ATOM     78  C   UNL A   1      37.988  33.027  31.305  1.00  0.00     0.023 A 
ATOM     79  C   UNL A   1      37.038  33.354  32.297  1.00  0.00     0.031 A 
ATOM     80  C   UNL A   1      37.594  33.239  29.962  1.00  0.00     0.131 A 
ATOM     81  C   UNL A   1      35.771  33.873  31.931  1.00  0.00     0.055 A 
ATOM     82  C   UNL A   1      36.342  33.747  29.607  1.00  0.00     0.041 A 
ATOM     83  F   UNL A   1      38.450  33.043  28.946  1.00  0.00    -0.206 F 
ATOM     84  C   UNL A   1      35.428  34.077  30.592  1.00  0.00     0.022 A 
BRANCH  81  85
ATOM     85  S   UNL A   1      34.574  34.396  33.204  1.00  0.00     0.124 S 
ATOM     86  O   UNL A   1      35.087  35.703  33.595  1.00  0.00    -0.237 OA
ATOM     87  O   UNL A   1      33.312  34.380  32.475  1.00  0.00    -0.237 OA
ATOM     88  O   UNL A   1      34.695  33.358  34.230  1.00  0.00    -0.744 OA
ENDBRANCH  81  85
ENDBRANCH  54  78
BRANCH  66  89
ATOM     89  C   UNL A   1      43.259  32.440  34.655  1.00  0.00     0.023 A 
ATOM     90  C   UNL A   1      42.712  31.136  34.634  1.00  0.00     0.031 A 
ATOM     91  C   UNL A   1      43.734  32.921  35.889  1.00  0.00     0.131 A 
ATOM     92  C   UNL A   1      42.638  30.378  35.821  1.00  0.00     0.055 A 
ATOM     93  C   UNL A   1      43.685  32.158  37.056  1.00  0.00     0.041 A 
ATOM     94  F   UNL A   1      44.291  34.141  35.976  1.00  0.00    -0.206 F 
ATOM     95  C   UNL A   1      43.128  30.886  37.028  1.00  0.00     0.022 A 
BRANCH  92  96
ATOM     96  S   UNL A   1      41.876  28.722  35.821  1.00  0.00     0.124 S 
ATOM     97  O   UNL A   1      40.486  28.984  36.176  1.00  0.00    -0.237 OA
ATOM     98  O   UNL A   1      42.109  28.265  34.454  1.00  0.00    -0.237 OA
ATOM     99  O   UNL A   1      42.638  27.999  36.842  1.00  0.00    -0.744 OA
ENDBRANCH  92  96
ENDBRANCH  66  89
ENDBRANCH  40  41
ENDBRANCH  32  35
ENDBRANCH  30  31
ENDBRANCH  29  30
ENDBRANCH  28  29
ENDBRANCH  27  28
ENDBRANCH   1  27
TORSDOF 21
ENDMDL
