MODEL 1
REMARK VINA RESULT:      -9.8      0.000      0.000
REMARK SMILES CNC(=O)NCCOCC(=O)NCCCCCCNC(=O)c1ccc(-c2c3nc(c(-c4cc(S(=O)(=O)[O-])ccc4F)c4ccc([nH]4)c(-c4cc(S(=O)(=O)[O-])ccc4F)c4nc(c(-c5cc(S(=O)(=O)[O-])ccc5F)c5ccc2[nH]5)C=C4)C=C3)cc1
REMARK SMILES IDX 15 1 14 2 13 3 12 4 10 5 11 6 9 8 8 9 7 10 6 11 5 12 1 13
REMARK SMILES IDX 2 14 3 15 4 17 16 19 17 20 18 21 19 22 20 23 21 25 22 26
REMARK SMILES IDX 23 27 84 28 24 29 83 30 25 31 26 32 27 33 77 34 28 35 82 36
REMARK SMILES IDX 76 37 78 38 29 39 81 40 75 41 74 42 30 44 62 45 42 46 61 47
REMARK SMILES IDX 43 48 46 49 60 50 79 51 44 52 45 53 59 55 80 56 47 57 31 58
REMARK SMILES IDX 32 59 40 60 33 61 39 62 41 63 38 64 34 65 35 66 36 67 37 68
REMARK SMILES IDX 63 69 64 70 72 71 65 72 71 73 73 74 70 75 66 76 67 77 68 78
REMARK SMILES IDX 69 79 48 80 49 81 57 82 50 83 56 84 58 85 55 86 51 87 52 88
REMARK SMILES IDX 53 89 54 90
REMARK H PARENT 12 7 2 16 5 18 19 24 78 43 46 54
REMARK Flexibility Score: inf
ROOT
ATOM      1  C   UNL A   1      33.988  25.548  25.643  1.00  0.00     0.002 C 
ENDROOT
BRANCH   1   2
ATOM      2  C   UNL A   1      35.226  24.669  25.422  1.00  0.00     0.021 C 
BRANCH   2   3
ATOM      3  C   UNL A   1      35.325  23.453  26.341  1.00  0.00     0.116 C 
BRANCH   3   4
ATOM      4  N   UNL A   1      36.683  22.954  26.428  1.00  0.00    -0.354 N 
ATOM      5  C   UNL A   1      37.265  21.956  25.703  1.00  0.00     0.245 C 
ATOM      6  O   UNL A   1      38.448  21.680  25.910  1.00  0.00    -0.272 OA
ATOM      7  H   UNL A   1      37.259  23.392  27.096  1.00  0.00     0.163 HD
BRANCH   5   8
ATOM      8  C   UNL A   1      36.438  21.227  24.639  1.00  0.00     0.260 C 
BRANCH   8   9
ATOM      9  O   UNL A   1      35.858  19.988  25.015  1.00  0.00    -0.370 OA
BRANCH   9  10
ATOM     10  C   UNL A   1      34.473  19.845  24.679  1.00  0.00     0.182 C 
BRANCH  10  11
ATOM     11  C   UNL A   1      34.018  18.381  24.644  1.00  0.00     0.146 C 
BRANCH  11  12
ATOM     12  N   UNL A   1      35.079  17.439  24.959  1.00  0.00    -0.336 N 
ATOM     13  C   UNL A   1      32.626  15.617  25.092  1.00  0.00     0.144 C 
ATOM     14  N   UNL A   1      33.994  15.414  25.488  1.00  0.00    -0.341 N 
ATOM     15  C   UNL A   1      35.095  16.166  25.376  1.00  0.00     0.314 C 
ATOM     16  H   UNL A   1      34.152  14.548  25.931  1.00  0.00     0.164 HD
ATOM     17  O   UNL A   1      36.182  15.656  25.652  1.00  0.00    -0.249 OA
ATOM     18  H   UNL A   1      35.980  17.819  24.840  1.00  0.00     0.165 HD
ENDBRANCH  11  12
ENDBRANCH  10  11
ENDBRANCH   9  10
ENDBRANCH   8   9
ENDBRANCH   5   8
ENDBRANCH   3   4
ENDBRANCH   2   3
ENDBRANCH   1   2
BRANCH   1  19
ATOM     19  C   UNL A   1      33.673  26.545  24.523  1.00  0.00     0.002 C 
BRANCH  19  20
ATOM     20  C   UNL A   1      33.771  28.023  24.906  1.00  0.00     0.021 C 
BRANCH  20  21
ATOM     21  C   UNL A   1      33.879  28.302  26.402  1.00  0.00     0.116 C 
BRANCH  21  22
ATOM     22  N   UNL A   1      33.764  29.717  26.708  1.00  0.00    -0.352 N 
ATOM     23  C   UNL A   1      34.556  30.507  27.500  1.00  0.00     0.251 C 
ATOM     24  H   UNL A   1      33.004  30.176  26.284  1.00  0.00     0.163 HD
ATOM     25  O   UNL A   1      34.177  31.645  27.782  1.00  0.00    -0.269 OA
BRANCH  23  26
ATOM     26  C   UNL A   1      35.842  30.001  28.033  1.00  0.00     0.039 A 
ATOM     27  C   UNL A   1      36.986  30.105  27.236  1.00  0.00     0.014 A 
ATOM     28  C   UNL A   1      35.925  29.392  29.290  1.00  0.00     0.014 A 
ATOM     29  C   UNL A   1      38.213  29.636  27.712  1.00  0.00     0.010 A 
ATOM     30  C   UNL A   1      37.161  28.989  29.792  1.00  0.00     0.010 A 
ATOM     31  C   UNL A   1      38.315  29.090  29.001  1.00  0.00    -0.014 A 
BRANCH  31  32
ATOM     32  C   UNL A   1      39.620  28.597  29.515  1.00  0.00     0.031 A 
ATOM     33  C   UNL A   1      40.311  29.315  30.643  1.00  0.00     0.074 A 
ATOM     34  C   UNL A   1      40.202  27.528  28.939  1.00  0.00     0.049 A 
ATOM     35  N   UNL A   1      41.454  29.046  31.222  1.00  0.00    -0.248 NA
ATOM     36  C   UNL A   1      39.644  30.517  31.162  1.00  0.00     0.031 C 
ATOM     37  C   UNL A   1      39.662  26.786  27.798  1.00  0.00     0.029 A 
ATOM     38  N   UNL A   1      41.377  26.882  29.230  1.00  0.00    -0.354 N 
ATOM     39  C   UNL A   1      41.649  30.051  32.164  1.00  0.00     0.074 A 
ATOM     40  C   UNL A   1      40.539  30.971  32.025  1.00  0.00     0.031 C 
ATOM     41  C   UNL A   1      40.493  25.773  27.501  1.00  0.00     0.029 A 
ATOM     42  C   UNL A   1      41.633  25.808  28.411  1.00  0.00     0.049 A 
ATOM     43  H   UNL A   1      41.979  27.160  29.958  1.00  0.00     0.167 HD
ATOM     44  C   UNL A   1      42.645  30.182  33.077  1.00  0.00     0.034 A 
ATOM     45  C   UNL A   1      42.670  24.948  28.395  1.00  0.00     0.034 A 
ATOM     46  C   UNL A   1      43.739  29.248  33.207  1.00  0.00     0.049 A 
ATOM     47  C   UNL A   1      43.750  25.090  29.434  1.00  0.00     0.074 A 
ATOM     48  C   UNL A   1      44.769  29.245  34.133  1.00  0.00     0.029 A 
ATOM     49  N   UNL A   1      43.952  28.152  32.380  1.00  0.00    -0.354 N 
ATOM     50  N   UNL A   1      43.886  26.004  30.366  1.00  0.00    -0.248 NA
ATOM     51  C   UNL A   1      44.802  24.067  29.431  1.00  0.00     0.031 C 
ATOM     52  C   UNL A   1      45.635  28.188  33.826  1.00  0.00     0.029 A 
ATOM     53  C   UNL A   1      45.109  27.483  32.755  1.00  0.00     0.049 A 
ATOM     54  H   UNL A   1      43.365  27.888  31.634  1.00  0.00     0.167 HD
ATOM     55  C   UNL A   1      45.030  25.652  31.078  1.00  0.00     0.074 A 
ATOM     56  C   UNL A   1      45.528  24.430  30.478  1.00  0.00     0.031 C 
ATOM     57  C   UNL A   1      45.612  26.279  32.133  1.00  0.00     0.034 A 
BRANCH  44  58
ATOM     58  C   UNL A   1      42.599  31.398  33.978  1.00  0.00     0.023 A 
ATOM     59  C   UNL A   1      41.861  31.404  35.176  1.00  0.00     0.031 A 
ATOM     60  C   UNL A   1      43.250  32.588  33.606  1.00  0.00     0.131 A 
ATOM     61  C   UNL A   1      41.704  32.596  35.899  1.00  0.00     0.055 A 
ATOM     62  C   UNL A   1      43.167  33.747  34.382  1.00  0.00     0.041 A 
ATOM     63  F   UNL A   1      43.955  32.655  32.466  1.00  0.00    -0.206 F 
ATOM     64  C   UNL A   1      42.373  33.762  35.525  1.00  0.00     0.022 A 
BRANCH  61  65
ATOM     65  S   UNL A   1      40.470  32.644  37.229  1.00  0.00     0.124 S 
ATOM     66  O   UNL A   1      41.288  32.334  38.400  1.00  0.00    -0.237 OA
ATOM     67  O   UNL A   1      39.968  34.010  37.144  1.00  0.00    -0.237 OA
ATOM     68  O   UNL A   1      39.518  31.602  36.852  1.00  0.00    -0.744 OA
ENDBRANCH  61  65
ENDBRANCH  44  58
BRANCH  45  69
ATOM     69  C   UNL A   1      42.727  23.869  27.370  1.00  0.00     0.023 A 
ATOM     70  C   UNL A   1      42.143  22.615  27.600  1.00  0.00     0.031 A 
ATOM     71  C   UNL A   1      43.380  24.081  26.141  1.00  0.00     0.131 A 
ATOM     72  C   UNL A   1      42.251  21.605  26.632  1.00  0.00     0.055 A 
ATOM     73  C   UNL A   1      43.448  23.086  25.164  1.00  0.00     0.041 A 
ATOM     74  F   UNL A   1      43.942  25.268  25.868  1.00  0.00    -0.206 F 
ATOM     75  C   UNL A   1      42.890  21.836  25.411  1.00  0.00     0.022 A 
BRANCH  72  76
ATOM     76  S   UNL A   1      41.584  19.961  27.010  1.00  0.00     0.124 S 
ATOM     77  O   UNL A   1      42.788  19.232  27.391  1.00  0.00    -0.237 OA
ATOM     78  O   UNL A   1      40.645  20.256  28.087  1.00  0.00    -0.237 OA
ATOM     79  O   UNL A   1      40.972  19.545  25.750  1.00  0.00    -0.744 OA
ENDBRANCH  72  76
ENDBRANCH  45  69
BRANCH  57  80
ATOM     80  C   UNL A   1      46.840  25.624  32.718  1.00  0.00     0.023 A 
ATOM     81  C   UNL A   1      48.114  25.798  32.147  1.00  0.00     0.031 A 
ATOM     82  C   UNL A   1      46.729  24.781  33.838  1.00  0.00     0.131 A 
ATOM     83  C   UNL A   1      49.211  25.082  32.651  1.00  0.00     0.055 A 
ATOM     84  C   UNL A   1      47.836  24.121  34.375  1.00  0.00     0.041 A 
ATOM     85  F   UNL A   1      45.538  24.575  34.422  1.00  0.00    -0.206 F 
ATOM     86  C   UNL A   1      49.082  24.256  33.771  1.00  0.00     0.022 A 
BRANCH  83  87
ATOM     87  S   UNL A   1      50.783  25.147  31.747  1.00  0.00     0.124 S 
ATOM     88  O   UNL A   1      51.499  24.002  32.299  1.00  0.00    -0.237 OA
ATOM     89  O   UNL A   1      50.348  25.019  30.360  1.00  0.00    -0.237 OA
ATOM     90  O   UNL A   1      51.331  26.453  32.107  1.00  0.00    -0.744 OA
ENDBRANCH  83  87
ENDBRANCH  57  80
ENDBRANCH  31  32
ENDBRANCH  23  26
ENDBRANCH  21  22
ENDBRANCH  20  21
ENDBRANCH  19  20
ENDBRANCH   1  19
TORSDOF 20
ENDMDL
MODEL 2
REMARK VINA RESULT:      -9.4      2.414      3.197
REMARK SMILES CNC(=O)NCCOCC(=O)NCCCCCCNC(=O)c1ccc(-c2c3nc(c(-c4cc(S(=O)(=O)[O-])ccc4F)c4ccc([nH]4)c(-c4cc(S(=O)(=O)[O-])ccc4F)c4nc(c(-c5cc(S(=O)(=O)[O-])ccc5F)c5ccc2[nH]5)C=C4)C=C3)cc1
REMARK SMILES IDX 15 1 14 2 13 3 12 4 10 5 11 6 9 8 8 9 7 10 6 11 5 12 1 13
REMARK SMILES IDX 2 14 3 15 4 17 16 19 17 20 18 21 19 22 20 23 21 25 22 26
REMARK SMILES IDX 23 27 84 28 24 29 83 30 25 31 26 32 27 33 77 34 28 35 82 36
REMARK SMILES IDX 76 37 78 38 29 39 81 40 75 41 74 42 30 44 62 45 42 46 61 47
REMARK SMILES IDX 43 48 46 49 60 50 79 51 44 52 45 53 59 55 80 56 47 57 31 58
REMARK SMILES IDX 32 59 40 60 33 61 39 62 41 63 38 64 34 65 35 66 36 67 37 68
REMARK SMILES IDX 63 69 64 70 72 71 65 72 71 73 73 74 70 75 66 76 67 77 68 78
REMARK SMILES IDX 69 79 48 80 49 81 57 82 50 83 56 84 58 85 55 86 51 87 52 88
REMARK SMILES IDX 53 89 54 90
REMARK H PARENT 12 7 2 16 5 18 19 24 78 43 46 54
REMARK Flexibility Score: inf
ROOT
ATOM      1  C   UNL A   1      33.680  25.685  25.711  1.00  0.00     0.002 C 
ENDROOT
BRANCH   1   2
ATOM      2  C   UNL A   1      34.732  24.634  25.331  1.00  0.00     0.021 C 
BRANCH   2   3
ATOM      3  C   UNL A   1      34.869  23.474  26.316  1.00  0.00     0.116 C 
BRANCH   3   4
ATOM      4  N   UNL A   1      35.786  22.463  25.831  1.00  0.00    -0.354 N 
ATOM      5  C   UNL A   1      35.508  21.183  25.447  1.00  0.00     0.245 C 
ATOM      6  O   UNL A   1      36.426  20.468  25.044  1.00  0.00    -0.272 OA
ATOM      7  H   UNL A   1      36.731  22.733  25.769  1.00  0.00     0.163 HD
BRANCH   5   8
ATOM      8  C   UNL A   1      34.060  20.685  25.507  1.00  0.00     0.260 C 
BRANCH   8   9
ATOM      9  O   UNL A   1      33.632  19.832  24.457  1.00  0.00    -0.370 OA
BRANCH   9  10
ATOM     10  C   UNL A   1      32.494  20.303  23.726  1.00  0.00     0.182 C 
BRANCH  10  11
ATOM     11  C   UNL A   1      32.261  21.809  23.894  1.00  0.00     0.146 C 
BRANCH  11  12
ATOM     12  N   UNL A   1      33.006  22.618  22.943  1.00  0.00    -0.336 N 
ATOM     13  C   UNL A   1      30.589  24.416  23.466  1.00  0.00     0.144 C 
ATOM     14  N   UNL A   1      31.637  24.481  22.482  1.00  0.00    -0.341 N 
ATOM     15  C   UNL A   1      32.739  23.749  22.278  1.00  0.00     0.314 C 
ATOM     16  H   UNL A   1      31.521  25.209  21.829  1.00  0.00     0.164 HD
ATOM     17  O   UNL A   1      33.560  24.148  21.450  1.00  0.00    -0.249 OA
ATOM     18  H   UNL A   1      33.900  22.254  22.745  1.00  0.00     0.165 HD
ENDBRANCH  11  12
ENDBRANCH  10  11
ENDBRANCH   9  10
ENDBRANCH   8   9
ENDBRANCH   5   8
ENDBRANCH   3   4
ENDBRANCH   2   3
ENDBRANCH   1   2
BRANCH   1  19
ATOM     19  C   UNL A   1      33.543  26.866  24.746  1.00  0.00     0.002 C 
BRANCH  19  20
ATOM     20  C   UNL A   1      34.017  28.218  25.284  1.00  0.00     0.021 C 
BRANCH  20  21
ATOM     21  C   UNL A   1      33.503  28.582  26.673  1.00  0.00     0.116 C 
BRANCH  21  22
ATOM     22  N   UNL A   1      33.479  30.018  26.893  1.00  0.00    -0.352 N 
ATOM     23  C   UNL A   1      34.330  30.805  27.623  1.00  0.00     0.251 C 
ATOM     24  H   UNL A   1      32.740  30.496  26.451  1.00  0.00     0.163 HD
ATOM     25  O   UNL A   1      34.025  31.979  27.839  1.00  0.00    -0.269 OA
BRANCH  23  26
ATOM     26  C   UNL A   1      35.593  30.255  28.168  1.00  0.00     0.039 A 
ATOM     27  C   UNL A   1      36.738  30.282  27.365  1.00  0.00     0.014 A 
ATOM     28  C   UNL A   1      35.651  29.680  29.441  1.00  0.00     0.014 A 
ATOM     29  C   UNL A   1      37.943  29.770  27.852  1.00  0.00     0.010 A 
ATOM     30  C   UNL A   1      36.870  29.235  29.952  1.00  0.00     0.010 A 
ATOM     31  C   UNL A   1      38.024  29.258  29.157  1.00  0.00    -0.014 A 
BRANCH  31  32
ATOM     32  C   UNL A   1      39.306  28.719  29.683  1.00  0.00     0.031 A 
ATOM     33  C   UNL A   1      39.963  29.356  30.879  1.00  0.00     0.074 A 
ATOM     34  C   UNL A   1      39.900  27.684  29.059  1.00  0.00     0.049 A 
ATOM     35  N   UNL A   1      41.082  29.038  31.479  1.00  0.00    -0.248 NA
ATOM     36  C   UNL A   1      39.287  30.528  31.451  1.00  0.00     0.031 C 
ATOM     37  C   UNL A   1      39.395  27.024  27.854  1.00  0.00     0.029 A 
ATOM     38  N   UNL A   1      41.059  27.009  29.348  1.00  0.00    -0.354 N 
ATOM     39  C   UNL A   1      41.251  29.978  32.490  1.00  0.00     0.074 A 
ATOM     40  C   UNL A   1      40.154  30.916  32.373  1.00  0.00     0.031 C 
ATOM     41  C   UNL A   1      40.228  26.024  27.520  1.00  0.00     0.029 A 
ATOM     42  C   UNL A   1      41.336  25.989  28.469  1.00  0.00     0.049 A 
ATOM     43  H   UNL A   1      41.637  27.233  30.112  1.00  0.00     0.167 HD
ATOM     44  C   UNL A   1      42.216  30.039  33.444  1.00  0.00     0.034 A 
ATOM     45  C   UNL A   1      42.366  25.121  28.434  1.00  0.00     0.034 A 
ATOM     46  C   UNL A   1      43.297  29.089  33.551  1.00  0.00     0.049 A 
ATOM     47  C   UNL A   1      43.410  25.184  29.516  1.00  0.00     0.074 A 
ATOM     48  C   UNL A   1      44.294  29.015  34.509  1.00  0.00     0.029 A 
ATOM     49  N   UNL A   1      43.531  28.046  32.661  1.00  0.00    -0.354 N 
ATOM     50  N   UNL A   1      43.520  26.034  30.510  1.00  0.00    -0.248 NA
ATOM     51  C   UNL A   1      44.453  24.153  29.483  1.00  0.00     0.031 C 
ATOM     52  C   UNL A   1      45.162  27.971  34.164  1.00  0.00     0.029 A 
ATOM     53  C   UNL A   1      44.668  27.342  33.032  1.00  0.00     0.049 A 
ATOM     54  H   UNL A   1      42.969  27.837  31.880  1.00  0.00     0.167 HD
ATOM     55  C   UNL A   1      44.634  25.626  31.237  1.00  0.00     0.074 A 
ATOM     56  C   UNL A   1      45.145  24.440  30.577  1.00  0.00     0.031 C 
ATOM     57  C   UNL A   1      45.184  26.177  32.350  1.00  0.00     0.034 A 
BRANCH  44  58
ATOM     58  C   UNL A   1      42.147  31.195  34.420  1.00  0.00     0.023 A 
ATOM     59  C   UNL A   1      42.856  32.391  34.201  1.00  0.00     0.031 A 
ATOM     60  C   UNL A   1      41.413  31.079  35.614  1.00  0.00     0.131 A 
ATOM     61  C   UNL A   1      42.902  33.373  35.202  1.00  0.00     0.055 A 
ATOM     62  C   UNL A   1      41.387  32.102  36.566  1.00  0.00     0.041 A 
ATOM     63  F   UNL A   1      40.730  29.957  35.892  1.00  0.00    -0.206 F 
ATOM     64  C   UNL A   1      42.152  33.248  36.372  1.00  0.00     0.022 A 
BRANCH  61  65
ATOM     65  S   UNL A   1      44.099  34.726  35.030  1.00  0.00     0.124 S 
ATOM     66  O   UNL A   1      45.005  34.190  34.017  1.00  0.00    -0.237 OA
ATOM     67  O   UNL A   1      43.257  35.840  34.609  1.00  0.00    -0.237 OA
ATOM     68  O   UNL A   1      44.675  34.847  36.367  1.00  0.00    -0.744 OA
ENDBRANCH  61  65
ENDBRANCH  44  58
BRANCH  45  69
ATOM     69  C   UNL A   1      42.451  24.111  27.342  1.00  0.00     0.023 A 
ATOM     70  C   UNL A   1      41.748  22.899  27.416  1.00  0.00     0.031 A 
ATOM     71  C   UNL A   1      43.250  24.345  26.209  1.00  0.00     0.131 A 
ATOM     72  C   UNL A   1      41.883  21.949  26.393  1.00  0.00     0.055 A 
ATOM     73  C   UNL A   1      43.347  23.414  25.173  1.00  0.00     0.041 A 
ATOM     74  F   UNL A   1      43.931  25.495  26.084  1.00  0.00    -0.206 F 
ATOM     75  C   UNL A   1      42.669  22.203  25.267  1.00  0.00     0.022 A 
BRANCH  72  76
ATOM     76  S   UNL A   1      41.050  20.348  26.576  1.00  0.00     0.124 S 
ATOM     77  O   UNL A   1      39.802  20.577  25.858  1.00  0.00    -0.237 OA
ATOM     78  O   UNL A   1      41.998  19.440  25.939  1.00  0.00    -0.237 OA
ATOM     79  O   UNL A   1      40.922  20.195  28.023  1.00  0.00    -0.744 OA
ENDBRANCH  72  76
ENDBRANCH  45  69
BRANCH  57  80
ATOM     80  C   UNL A   1      46.386  25.473  32.934  1.00  0.00     0.023 A 
ATOM     81  C   UNL A   1      46.250  24.439  33.879  1.00  0.00     0.031 A 
ATOM     82  C   UNL A   1      47.685  25.868  32.570  1.00  0.00     0.131 A 
ATOM     83  C   UNL A   1      47.391  23.889  34.483  1.00  0.00     0.055 A 
ATOM     84  C   UNL A   1      48.819  25.271  33.126  1.00  0.00     0.041 A 
ATOM     85  F   UNL A   1      47.875  26.850  31.675  1.00  0.00    -0.206 F 
ATOM     86  C   UNL A   1      48.675  24.288  34.101  1.00  0.00     0.022 A 
BRANCH  83  87
ATOM     87  S   UNL A   1      47.174  22.732  35.863  1.00  0.00     0.124 S 
ATOM     88  O   UNL A   1      47.498  21.453  35.241  1.00  0.00    -0.237 OA
ATOM     89  O   UNL A   1      48.138  23.229  36.839  1.00  0.00    -0.237 OA
ATOM     90  O   UNL A   1      45.771  22.902  36.236  1.00  0.00    -0.744 OA
ENDBRANCH  83  87
ENDBRANCH  57  80
ENDBRANCH  31  32
ENDBRANCH  23  26
ENDBRANCH  21  22
ENDBRANCH  20  21
ENDBRANCH  19  20
ENDBRANCH   1  19
TORSDOF 20
ENDMDL
MODEL 3
REMARK VINA RESULT:      -9.4      5.625     10.278
REMARK SMILES CNC(=O)NCCOCC(=O)NCCCCCCNC(=O)c1ccc(-c2c3nc(c(-c4cc(S(=O)(=O)[O-])ccc4F)c4ccc([nH]4)c(-c4cc(S(=O)(=O)[O-])ccc4F)c4nc(c(-c5cc(S(=O)(=O)[O-])ccc5F)c5ccc2[nH]5)C=C4)C=C3)cc1
REMARK SMILES IDX 15 1 14 2 13 3 12 4 10 5 11 6 9 8 8 9 7 10 6 11 5 12 1 13
REMARK SMILES IDX 2 14 3 15 4 17 16 19 17 20 18 21 19 22 20 23 21 25 22 26
REMARK SMILES IDX 23 27 84 28 24 29 83 30 25 31 26 32 27 33 77 34 28 35 82 36
REMARK SMILES IDX 76 37 78 38 29 39 81 40 75 41 74 42 30 44 62 45 42 46 61 47
REMARK SMILES IDX 43 48 46 49 60 50 79 51 44 52 45 53 59 55 80 56 47 57 31 58
REMARK SMILES IDX 32 59 40 60 33 61 39 62 41 63 38 64 34 65 35 66 36 67 37 68
REMARK SMILES IDX 63 69 64 70 72 71 65 72 71 73 73 74 70 75 66 76 67 77 68 78
REMARK SMILES IDX 69 79 48 80 49 81 57 82 50 83 56 84 58 85 55 86 51 87 52 88
REMARK SMILES IDX 53 89 54 90
REMARK H PARENT 12 7 2 16 5 18 19 24 78 43 46 54
REMARK Flexibility Score: inf
ROOT
ATOM      1  C   UNL A   1      39.912  21.857  26.898  1.00  0.00     0.002 C 
ENDROOT
BRANCH   1   2
ATOM      2  C   UNL A   1      39.535  23.339  26.768  1.00  0.00     0.021 C 
BRANCH   2   3
ATOM      3  C   UNL A   1      38.082  23.603  26.381  1.00  0.00     0.116 C 
BRANCH   3   4
ATOM      4  N   UNL A   1      37.860  23.406  24.962  1.00  0.00    -0.354 N 
ATOM      5  C   UNL A   1      36.823  22.764  24.350  1.00  0.00     0.245 C 
ATOM      6  O   UNL A   1      36.797  22.710  23.120  1.00  0.00    -0.272 OA
ATOM      7  H   UNL A   1      38.544  23.783  24.364  1.00  0.00     0.163 HD
BRANCH   5   8
ATOM      8  C   UNL A   1      35.712  22.152  25.211  1.00  0.00     0.260 C 
BRANCH   8   9
ATOM      9  O   UNL A   1      34.412  22.701  25.064  1.00  0.00    -0.370 OA
BRANCH   9  10
ATOM     10  C   UNL A   1      33.415  22.120  25.912  1.00  0.00     0.182 C 
BRANCH  10  11
ATOM     11  C   UNL A   1      31.999  22.243  25.336  1.00  0.00     0.146 C 
BRANCH  11  12
ATOM     12  N   UNL A   1      30.958  22.199  26.351  1.00  0.00    -0.336 N 
ATOM     13  C   UNL A   1      30.651  25.064  25.329  1.00  0.00     0.144 C 
ATOM     14  N   UNL A   1      30.092  24.388  26.469  1.00  0.00    -0.341 N 
ATOM     15  C   UNL A   1      30.155  23.121  26.896  1.00  0.00     0.314 C 
ATOM     16  H   UNL A   1      29.555  24.974  27.051  1.00  0.00     0.164 HD
ATOM     17  O   UNL A   1      29.420  22.781  27.825  1.00  0.00    -0.249 OA
ATOM     18  H   UNL A   1      30.814  21.295  26.716  1.00  0.00     0.165 HD
ENDBRANCH  11  12
ENDBRANCH  10  11
ENDBRANCH   9  10
ENDBRANCH   8   9
ENDBRANCH   5   8
ENDBRANCH   3   4
ENDBRANCH   2   3
ENDBRANCH   1   2
BRANCH   1  19
ATOM     19  C   UNL A   1      41.219  21.442  26.215  1.00  0.00     0.002 C 
BRANCH  19  20
ATOM     20  C   UNL A   1      41.360  19.949  25.907  1.00  0.00     0.021 C 
BRANCH  20  21
ATOM     21  C   UNL A   1      42.705  19.333  26.277  1.00  0.00     0.116 C 
BRANCH  21  22
ATOM     22  N   UNL A   1      43.547  19.111  25.115  1.00  0.00    -0.352 N 
ATOM     23  C   UNL A   1      44.303  20.003  24.400  1.00  0.00     0.251 C 
ATOM     24  H   UNL A   1      43.581  18.181  24.794  1.00  0.00     0.163 HD
ATOM     25  O   UNL A   1      44.798  19.647  23.330  1.00  0.00    -0.269 OA
BRANCH  23  26
ATOM     26  C   UNL A   1      44.509  21.386  24.888  1.00  0.00     0.039 A 
ATOM     27  C   UNL A   1      45.170  21.576  26.105  1.00  0.00     0.014 A 
ATOM     28  C   UNL A   1      44.025  22.492  24.181  1.00  0.00     0.014 A 
ATOM     29  C   UNL A   1      45.378  22.869  26.592  1.00  0.00     0.010 A 
ATOM     30  C   UNL A   1      44.296  23.783  24.631  1.00  0.00     0.010 A 
ATOM     31  C   UNL A   1      44.959  23.986  25.850  1.00  0.00    -0.014 A 
BRANCH  31  32
ATOM     32  C   UNL A   1      45.185  25.363  26.359  1.00  0.00     0.031 A 
ATOM     33  C   UNL A   1      46.544  26.001  26.243  1.00  0.00     0.074 A 
ATOM     34  C   UNL A   1      44.180  26.025  26.962  1.00  0.00     0.049 A 
ATOM     35  N   UNL A   1      46.942  27.185  26.633  1.00  0.00    -0.248 NA
ATOM     36  C   UNL A   1      47.604  25.180  25.641  1.00  0.00     0.031 C 
ATOM     37  C   UNL A   1      42.836  25.490  27.192  1.00  0.00     0.029 A 
ATOM     38  N   UNL A   1      44.131  27.288  27.497  1.00  0.00    -0.354 N 
ATOM     39  C   UNL A   1      48.300  27.247  26.337  1.00  0.00     0.074 A 
ATOM     40  C   UNL A   1      48.667  25.954  25.800  1.00  0.00     0.031 C 
ATOM     41  C   UNL A   1      42.090  26.426  27.800  1.00  0.00     0.029 A 
ATOM     42  C   UNL A   1      42.905  27.615  28.026  1.00  0.00     0.049 A 
ATOM     43  H   UNL A   1      44.901  27.901  27.501  1.00  0.00     0.167 HD
ATOM     44  C   UNL A   1      49.155  28.293  26.474  1.00  0.00     0.034 A 
ATOM     45  C   UNL A   1      42.485  28.747  28.625  1.00  0.00     0.034 A 
ATOM     46  C   UNL A   1      48.768  29.580  27.004  1.00  0.00     0.049 A 
ATOM     47  C   UNL A   1      43.438  29.906  28.742  1.00  0.00     0.074 A 
ATOM     48  C   UNL A   1      49.531  30.728  27.132  1.00  0.00     0.029 A 
ATOM     49  N   UNL A   1      47.508  29.888  27.503  1.00  0.00    -0.354 N 
ATOM     50  N   UNL A   1      44.701  29.977  28.392  1.00  0.00    -0.248 NA
ATOM     51  C   UNL A   1      42.898  31.146  29.312  1.00  0.00     0.031 C 
ATOM     52  C   UNL A   1      48.753  31.707  27.764  1.00  0.00     0.029 A 
ATOM     53  C   UNL A   1      47.479  31.197  27.964  1.00  0.00     0.049 A 
ATOM     54  H   UNL A   1      46.744  29.267  27.525  1.00  0.00     0.167 HD
ATOM     55  C   UNL A   1      45.102  31.279  28.679  1.00  0.00     0.074 A 
ATOM     56  C   UNL A   1      43.937  31.961  29.209  1.00  0.00     0.031 C 
ATOM     57  C   UNL A   1      46.319  31.859  28.516  1.00  0.00     0.034 A 
BRANCH  44  58
ATOM     58  C   UNL A   1      50.596  28.062  26.070  1.00  0.00     0.023 A 
ATOM     59  C   UNL A   1      51.003  28.107  24.723  1.00  0.00     0.031 A 
ATOM     60  C   UNL A   1      51.565  27.732  27.034  1.00  0.00     0.131 A 
ATOM     61  C   UNL A   1      52.306  27.726  24.370  1.00  0.00     0.055 A 
ATOM     62  C   UNL A   1      52.887  27.445  26.684  1.00  0.00     0.041 A 
ATOM     63  F   UNL A   1      51.238  27.654  28.334  1.00  0.00    -0.206 F 
ATOM     64  C   UNL A   1      53.258  27.420  25.343  1.00  0.00     0.022 A 
BRANCH  61  65
ATOM     65  S   UNL A   1      52.682  27.459  22.615  1.00  0.00     0.124 S 
ATOM     66  O   UNL A   1      53.791  26.511  22.693  1.00  0.00    -0.237 OA
ATOM     67  O   UNL A   1      51.424  26.931  22.099  1.00  0.00    -0.237 OA
ATOM     68  O   UNL A   1      53.046  28.790  22.136  1.00  0.00    -0.744 OA
ENDBRANCH  61  65
ENDBRANCH  44  58
BRANCH  45  69
ATOM     69  C   UNL A   1      41.093  28.841  29.146  1.00  0.00     0.023 A 
ATOM     70  C   UNL A   1      40.821  28.722  30.518  1.00  0.00     0.031 A 
ATOM     71  C   UNL A   1      40.011  29.046  28.272  1.00  0.00     0.131 A 
ATOM     72  C   UNL A   1      39.495  28.772  30.974  1.00  0.00     0.055 A 
ATOM     73  C   UNL A   1      38.698  29.137  28.736  1.00  0.00     0.041 A 
ATOM     74  F   UNL A   1      40.221  29.181  26.953  1.00  0.00    -0.206 F 
ATOM     75  C   UNL A   1      38.433  28.990  30.093  1.00  0.00     0.022 A 
BRANCH  72  76
ATOM     76  S   UNL A   1      39.171  28.499  32.738  1.00  0.00     0.124 S 
ATOM     77  O   UNL A   1      38.833  29.844  33.190  1.00  0.00    -0.237 OA
ATOM     78  O   UNL A   1      38.071  27.541  32.698  1.00  0.00    -0.237 OA
ATOM     79  O   UNL A   1      40.437  27.970  33.239  1.00  0.00    -0.744 OA
ENDBRANCH  72  76
ENDBRANCH  45  69
BRANCH  57  80
ATOM     80  C   UNL A   1      46.432  33.318  28.892  1.00  0.00     0.023 A 
ATOM     81  C   UNL A   1      46.183  34.342  27.961  1.00  0.00     0.031 A 
ATOM     82  C   UNL A   1      46.833  33.687  30.188  1.00  0.00     0.131 A 
ATOM     83  C   UNL A   1      46.409  35.681  28.316  1.00  0.00     0.055 A 
ATOM     84  C   UNL A   1      46.994  35.024  30.555  1.00  0.00     0.041 A 
ATOM     85  F   UNL A   1      47.087  32.752  31.117  1.00  0.00    -0.206 F 
ATOM     86  C   UNL A   1      46.798  36.029  29.612  1.00  0.00     0.022 A 
BRANCH  83  87
ATOM     87  S   UNL A   1      46.308  36.953  27.026  1.00  0.00     0.124 S 
ATOM     88  O   UNL A   1      46.714  36.213  25.836  1.00  0.00    -0.237 OA
ATOM     89  O   UNL A   1      44.902  37.342  27.085  1.00  0.00    -0.237 OA
ATOM     90  O   UNL A   1      47.253  37.973  27.475  1.00  0.00    -0.744 OA
ENDBRANCH  83  87
ENDBRANCH  57  80
ENDBRANCH  31  32
ENDBRANCH  23  26
ENDBRANCH  21  22
ENDBRANCH  20  21
ENDBRANCH  19  20
ENDBRANCH   1  19
TORSDOF 20
ENDMDL
