MODEL 1
REMARK VINA RESULT:     -11.9      0.000      0.000
REMARK SMILES Cc1ccc(C(F)(F)F)cc1/C=C/C(=O)NCCCCCCNC(=O)c1ccc(-c2c3nc(c(-c4cc(S(=O)(=O)[O-])ccc4F)c4ccc([nH]4)c(-c4cc(S(=O)(=O)[O-])ccc4F)c4nc(c(-c5cc(S(=O)(=O)[O-])ccc5F)c5ccc2[nH]5)C=C4)C=C3)cc1
REMARK SMILES IDX 20 1 19 2 18 3 17 4 16 5 14 6 15 7 13 9 12 10 11 11 1 12
REMARK SMILES IDX 2 13 3 14 4 15 10 16 5 17 6 18 7 19 8 20 9 21 21 22 22 23
REMARK SMILES IDX 23 24 24 25 25 27 26 28 27 29 88 30 28 31 87 32 29 33 30 34
REMARK SMILES IDX 31 35 81 36 32 37 86 38 80 39 82 40 33 41 85 42 79 43 78 44
REMARK SMILES IDX 34 46 66 47 46 48 65 49 47 50 50 51 64 52 83 53 48 54 49 55
REMARK SMILES IDX 63 57 84 58 51 59 35 60 36 61 44 62 37 63 43 64 45 65 42 66
REMARK SMILES IDX 38 67 39 68 40 69 41 70 67 71 68 72 76 73 69 74 75 75 77 76
REMARK SMILES IDX 74 77 70 78 71 79 72 80 73 81 52 82 53 83 61 84 54 85 60 86
REMARK SMILES IDX 62 87 59 88 55 89 56 90 57 91 58 92
REMARK H PARENT 16 8 23 26 82 45 50 56
REMARK Flexibility Score: inf
ROOT
ATOM      1  C   UNL A   1      32.613  29.699  25.755  1.00  0.00     0.002 C 
ENDROOT
BRANCH   1   2
ATOM      2  C   UNL A   1      32.481  29.047  24.367  1.00  0.00     0.002 C 
BRANCH   2   3
ATOM      3  C   UNL A   1      31.180  28.276  24.101  1.00  0.00     0.021 C 
BRANCH   3   4
ATOM      4  C   UNL A   1      31.381  26.834  23.641  1.00  0.00     0.116 C 
BRANCH   4   5
ATOM      5  N   UNL A   1      31.941  26.764  22.304  1.00  0.00    -0.353 N 
ATOM      6  C   UNL A   1      32.922  25.962  21.813  1.00  0.00     0.243 C 
ATOM      7  O   UNL A   1      33.137  25.895  20.605  1.00  0.00    -0.270 OA
ATOM      8  H   UNL A   1      31.551  27.392  21.654  1.00  0.00     0.163 HD
BRANCH   6   9
ATOM      9  C   UNL A   1      33.688  25.086  22.724  1.00  0.00     0.072 C 
ATOM     10  C   UNL A   1      33.565  23.749  22.737  1.00  0.00     0.014 C 
BRANCH  10  11
ATOM     11  C   UNL A   1      34.293  22.904  23.697  1.00  0.00    -0.022 A 
ATOM     12  C   UNL A   1      32.524  21.046  23.599  1.00  0.00     0.045 C 
ATOM     13  C   UNL A   1      33.811  21.643  24.101  1.00  0.00    -0.044 A 
ATOM     14  C   UNL A   1      34.539  20.906  25.053  1.00  0.00     0.004 A 
ATOM     15  C   UNL A   1      35.733  21.394  25.583  1.00  0.00     0.013 A 
ATOM     16  C   UNL A   1      35.492  23.388  24.250  1.00  0.00     0.021 A 
ATOM     17  C   UNL A   1      36.228  22.640  25.181  1.00  0.00     0.056 A 
BRANCH  17  18
ATOM     18  C   UNL A   1      37.516  23.163  25.760  1.00  0.00     0.416 C 
ATOM     19  F   UNL A   1      37.343  23.768  26.968  1.00  0.00    -0.166 F 
ATOM     20  F   UNL A   1      38.432  22.175  25.970  1.00  0.00    -0.166 F 
ATOM     21  F   UNL A   1      38.143  24.079  24.969  1.00  0.00    -0.166 F 
ENDBRANCH  17  18
ENDBRANCH  10  11
ENDBRANCH   6   9
ENDBRANCH   4   5
ENDBRANCH   3   4
ENDBRANCH   2   3
ENDBRANCH   1   2
BRANCH   1  22
ATOM     22  C   UNL A   1      34.011  29.679  26.376  1.00  0.00     0.021 C 
BRANCH  22  23
ATOM     23  C   UNL A   1      34.005  29.645  27.902  1.00  0.00     0.116 C 
BRANCH  23  24
ATOM     24  N   UNL A   1      34.631  30.799  28.521  1.00  0.00    -0.352 N 
ATOM     25  C   UNL A   1      35.923  30.917  29.037  1.00  0.00     0.251 C 
ATOM     26  H   UNL A   1      34.070  31.605  28.585  1.00  0.00     0.163 HD
ATOM     27  O   UNL A   1      36.300  31.936  29.573  1.00  0.00    -0.269 OA
BRANCH  25  28
ATOM     28  C   UNL A   1      36.866  29.796  28.810  1.00  0.00     0.039 A 
ATOM     29  C   UNL A   1      37.172  28.984  29.908  1.00  0.00     0.014 A 
ATOM     30  C   UNL A   1      37.582  29.676  27.623  1.00  0.00     0.014 A 
ATOM     31  C   UNL A   1      38.333  28.211  29.886  1.00  0.00     0.010 A 
ATOM     32  C   UNL A   1      38.776  28.974  27.627  1.00  0.00     0.010 A 
ATOM     33  C   UNL A   1      39.183  28.293  28.780  1.00  0.00    -0.014 A 
BRANCH  33  34
ATOM     34  C   UNL A   1      40.566  27.823  28.810  1.00  0.00     0.031 A 
ATOM     35  C   UNL A   1      40.931  26.471  28.335  1.00  0.00     0.074 A 
ATOM     36  C   UNL A   1      41.540  28.634  29.277  1.00  0.00     0.049 A 
ATOM     37  N   UNL A   1      41.976  25.822  28.729  1.00  0.00    -0.248 NA
ATOM     38  C   UNL A   1      40.109  25.723  27.392  1.00  0.00     0.031 C 
ATOM     39  C   UNL A   1      42.984  28.429  29.199  1.00  0.00     0.029 A 
ATOM     40  N   UNL A   1      41.387  29.683  30.180  1.00  0.00    -0.354 N 
ATOM     41  C   UNL A   1      42.104  24.707  27.937  1.00  0.00     0.074 A 
ATOM     42  C   UNL A   1      40.894  24.669  27.147  1.00  0.00     0.031 C 
ATOM     43  C   UNL A   1      43.569  29.104  30.199  1.00  0.00     0.029 A 
ATOM     44  C   UNL A   1      42.514  29.663  31.025  1.00  0.00     0.049 A 
ATOM     45  H   UNL A   1      40.635  30.318  30.221  1.00  0.00     0.167 HD
ATOM     46  C   UNL A   1      43.264  23.991  27.952  1.00  0.00     0.034 A 
ATOM     47  C   UNL A   1      42.371  29.491  32.371  1.00  0.00     0.034 A 
ATOM     48  C   UNL A   1      44.230  24.508  28.916  1.00  0.00     0.049 A 
ATOM     49  C   UNL A   1      43.054  28.252  32.916  1.00  0.00     0.074 A 
ATOM     50  C   UNL A   1      45.348  25.321  28.828  1.00  0.00     0.029 A 
ATOM     51  N   UNL A   1      43.950  24.389  30.264  1.00  0.00    -0.354 N 
ATOM     52  N   UNL A   1      43.683  27.373  32.186  1.00  0.00    -0.248 NA
ATOM     53  C   UNL A   1      42.993  27.861  34.326  1.00  0.00     0.031 C 
ATOM     54  C   UNL A   1      45.713  25.716  30.149  1.00  0.00     0.029 A 
ATOM     55  C   UNL A   1      44.828  25.128  31.034  1.00  0.00     0.049 A 
ATOM     56  H   UNL A   1      43.215  23.846  30.631  1.00  0.00     0.167 HD
ATOM     57  C   UNL A   1      44.036  26.305  32.968  1.00  0.00     0.074 A 
ATOM     58  C   UNL A   1      43.588  26.658  34.302  1.00  0.00     0.031 C 
ATOM     59  C   UNL A   1      44.625  25.179  32.471  1.00  0.00     0.034 A 
BRANCH  46  60
ATOM     60  C   UNL A   1      43.607  22.949  26.918  1.00  0.00     0.023 A 
ATOM     61  C   UNL A   1      42.972  21.691  26.968  1.00  0.00     0.031 A 
ATOM     62  C   UNL A   1      44.549  23.116  25.888  1.00  0.00     0.131 A 
ATOM     63  C   UNL A   1      43.349  20.648  26.104  1.00  0.00     0.055 A 
ATOM     64  C   UNL A   1      44.975  22.060  25.071  1.00  0.00     0.041 A 
ATOM     65  F   UNL A   1      45.064  24.321  25.600  1.00  0.00    -0.206 F 
ATOM     66  C   UNL A   1      44.383  20.811  25.188  1.00  0.00     0.022 A 
BRANCH  63  67
ATOM     67  S   UNL A   1      42.455  19.071  26.186  1.00  0.00     0.124 S 
ATOM     68  O   UNL A   1      43.382  18.154  25.532  1.00  0.00    -0.237 OA
ATOM     69  O   UNL A   1      42.277  18.896  27.623  1.00  0.00    -0.237 OA
ATOM     70  O   UNL A   1      41.226  19.340  25.440  1.00  0.00    -0.744 OA
ENDBRANCH  63  67
ENDBRANCH  46  60
BRANCH  47  71
ATOM     71  C   UNL A   1      41.112  30.097  32.901  1.00  0.00     0.023 A 
ATOM     72  C   UNL A   1      41.052  31.507  32.947  1.00  0.00     0.031 A 
ATOM     73  C   UNL A   1      39.906  29.390  32.978  1.00  0.00     0.131 A 
ATOM     74  C   UNL A   1      39.819  32.164  32.865  1.00  0.00     0.055 A 
ATOM     75  C   UNL A   1      38.674  30.054  32.999  1.00  0.00     0.041 A 
ATOM     76  F   UNL A   1      39.887  28.051  32.904  1.00  0.00    -0.206 F 
ATOM     77  C   UNL A   1      38.624  31.444  32.891  1.00  0.00     0.022 A 
BRANCH  74  78
ATOM     78  S   UNL A   1      39.810  33.923  32.402  1.00  0.00     0.124 S 
ATOM     79  O   UNL A   1      40.140  33.869  30.983  1.00  0.00    -0.237 OA
ATOM     80  O   UNL A   1      38.443  34.331  32.724  1.00  0.00    -0.237 OA
ATOM     81  O   UNL A   1      40.829  34.510  33.268  1.00  0.00    -0.744 OA
ENDBRANCH  74  78
ENDBRANCH  47  71
BRANCH  59  82
ATOM     82  C   UNL A   1      45.024  24.023  33.343  1.00  0.00     0.023 A 
ATOM     83  C   UNL A   1      46.316  23.922  33.882  1.00  0.00     0.031 A 
ATOM     84  C   UNL A   1      44.143  22.953  33.609  1.00  0.00     0.131 A 
ATOM     85  C   UNL A   1      46.666  22.839  34.706  1.00  0.00     0.055 A 
ATOM     86  C   UNL A   1      44.522  21.835  34.356  1.00  0.00     0.041 A 
ATOM     87  F   UNL A   1      42.868  22.972  33.190  1.00  0.00    -0.206 F 
ATOM     88  C   UNL A   1      45.787  21.779  34.924  1.00  0.00     0.022 A 
BRANCH  85  89
ATOM     89  S   UNL A   1      48.260  22.890  35.564  1.00  0.00     0.124 S 
ATOM     90  O   UNL A   1      49.176  22.340  34.572  1.00  0.00    -0.237 OA
ATOM     91  O   UNL A   1      48.401  24.318  35.838  1.00  0.00    -0.237 OA
ATOM     92  O   UNL A   1      48.043  22.053  36.743  1.00  0.00    -0.744 OA
ENDBRANCH  85  89
ENDBRANCH  59  82
ENDBRANCH  33  34
ENDBRANCH  25  28
ENDBRANCH  23  24
ENDBRANCH  22  23
ENDBRANCH   1  22
TORSDOF 18
ENDMDL
MODEL 2
REMARK VINA RESULT:     -11.8      4.349     10.540
REMARK SMILES Cc1ccc(C(F)(F)F)cc1/C=C/C(=O)NCCCCCCNC(=O)c1ccc(-c2c3nc(c(-c4cc(S(=O)(=O)[O-])ccc4F)c4ccc([nH]4)c(-c4cc(S(=O)(=O)[O-])ccc4F)c4nc(c(-c5cc(S(=O)(=O)[O-])ccc5F)c5ccc2[nH]5)C=C4)C=C3)cc1
REMARK SMILES IDX 20 1 19 2 18 3 17 4 16 5 14 6 15 7 13 9 12 10 11 11 1 12
REMARK SMILES IDX 2 13 3 14 4 15 10 16 5 17 6 18 7 19 8 20 9 21 21 22 22 23
REMARK SMILES IDX 23 24 24 25 25 27 26 28 27 29 88 30 28 31 87 32 29 33 30 34
REMARK SMILES IDX 31 35 81 36 32 37 86 38 80 39 82 40 33 41 85 42 79 43 78 44
REMARK SMILES IDX 34 46 66 47 46 48 65 49 47 50 50 51 64 52 83 53 48 54 49 55
REMARK SMILES IDX 63 57 84 58 51 59 35 60 36 61 44 62 37 63 43 64 45 65 42 66
REMARK SMILES IDX 38 67 39 68 40 69 41 70 67 71 68 72 76 73 69 74 75 75 77 76
REMARK SMILES IDX 74 77 70 78 71 79 72 80 73 81 52 82 53 83 61 84 54 85 60 86
REMARK SMILES IDX 62 87 59 88 55 89 56 90 57 91 58 92
REMARK H PARENT 16 8 23 26 82 45 50 56
REMARK Flexibility Score: inf
ROOT
ATOM      1  C   UNL A   1      36.373  21.295  25.687  1.00  0.00     0.002 C 
ENDROOT
BRANCH   1   2
ATOM      2  C   UNL A   1      35.012  21.778  25.158  1.00  0.00     0.002 C 
BRANCH   2   3
ATOM      3  C   UNL A   1      33.782  20.987  25.625  1.00  0.00     0.021 C 
BRANCH   3   4
ATOM      4  C   UNL A   1      32.452  21.507  25.085  1.00  0.00     0.116 C 
BRANCH   4   5
ATOM      5  N   UNL A   1      31.493  21.750  26.147  1.00  0.00    -0.353 N 
ATOM      6  C   UNL A   1      31.154  22.913  26.764  1.00  0.00     0.243 C 
ATOM      7  O   UNL A   1      30.177  22.971  27.507  1.00  0.00    -0.270 OA
ATOM      8  H   UNL A   1      31.017  20.951  26.470  1.00  0.00     0.163 HD
BRANCH   6   9
ATOM      9  C   UNL A   1      31.906  24.152  26.474  1.00  0.00     0.072 C 
ATOM     10  C   UNL A   1      31.596  24.984  25.468  1.00  0.00     0.014 C 
BRANCH  10  11
ATOM     11  C   UNL A   1      32.399  26.179  25.163  1.00  0.00    -0.022 A 
ATOM     12  C   UNL A   1      32.957  25.355  22.796  1.00  0.00     0.045 C 
ATOM     13  C   UNL A   1      33.035  26.356  23.918  1.00  0.00    -0.044 A 
ATOM     14  C   UNL A   1      33.821  27.504  23.709  1.00  0.00     0.004 A 
ATOM     15  C   UNL A   1      33.960  28.473  24.703  1.00  0.00     0.013 A 
ATOM     16  C   UNL A   1      32.559  27.158  26.160  1.00  0.00     0.021 A 
ATOM     17  C   UNL A   1      33.325  28.313  25.939  1.00  0.00     0.056 A 
BRANCH  17  18
ATOM     18  C   UNL A   1      33.483  29.361  27.010  1.00  0.00     0.416 C 
ATOM     19  F   UNL A   1      33.915  30.555  26.519  1.00  0.00    -0.166 F 
ATOM     20  F   UNL A   1      32.310  29.629  27.653  1.00  0.00    -0.166 F 
ATOM     21  F   UNL A   1      34.365  29.017  27.990  1.00  0.00    -0.166 F 
ENDBRANCH  17  18
ENDBRANCH  10  11
ENDBRANCH   6   9
ENDBRANCH   4   5
ENDBRANCH   3   4
ENDBRANCH   2   3
ENDBRANCH   1   2
BRANCH   1  22
ATOM     22  C   UNL A   1      37.608  21.932  25.047  1.00  0.00     0.021 C 
BRANCH  22  23
ATOM     23  C   UNL A   1      38.199  23.080  25.862  1.00  0.00     0.116 C 
BRANCH  23  24
ATOM     24  N   UNL A   1      39.617  22.941  26.137  1.00  0.00    -0.352 N 
ATOM     25  C   UNL A   1      40.504  23.894  26.641  1.00  0.00     0.251 C 
ATOM     26  H   UNL A   1      40.004  22.057  25.944  1.00  0.00     0.163 HD
ATOM     27  O   UNL A   1      41.683  23.652  26.779  1.00  0.00    -0.269 OA
BRANCH  25  28
ATOM     28  C   UNL A   1      39.943  25.183  27.115  1.00  0.00     0.039 A 
ATOM     29  C   UNL A   1      40.389  26.347  26.480  1.00  0.00     0.014 A 
ATOM     30  C   UNL A   1      39.175  25.261  28.272  1.00  0.00     0.014 A 
ATOM     31  C   UNL A   1      40.250  27.576  27.125  1.00  0.00     0.010 A 
ATOM     32  C   UNL A   1      39.107  26.465  28.952  1.00  0.00     0.010 A 
ATOM     33  C   UNL A   1      39.700  27.610  28.408  1.00  0.00    -0.014 A 
BRANCH  33  34
ATOM     34  C   UNL A   1      39.840  28.762  29.298  1.00  0.00     0.031 A 
ATOM     35  C   UNL A   1      38.811  29.822  29.354  1.00  0.00     0.074 A 
ATOM     36  C   UNL A   1      40.928  28.866  30.092  1.00  0.00     0.049 A 
ATOM     37  N   UNL A   1      39.043  31.037  29.726  1.00  0.00    -0.248 NA
ATOM     38  C   UNL A   1      37.430  29.597  28.949  1.00  0.00     0.031 C 
ATOM     39  C   UNL A   1      41.149  29.817  31.178  1.00  0.00     0.029 A 
ATOM     40  N   UNL A   1      42.179  28.298  29.868  1.00  0.00    -0.354 N 
ATOM     41  C   UNL A   1      37.835  31.679  29.849  1.00  0.00     0.074 A 
ATOM     42  C   UNL A   1      36.863  30.751  29.314  1.00  0.00     0.031 C 
ATOM     43  C   UNL A   1      42.470  29.981  31.343  1.00  0.00     0.029 A 
ATOM     44  C   UNL A   1      43.138  29.239  30.289  1.00  0.00     0.049 A 
ATOM     45  H   UNL A   1      42.359  27.406  29.489  1.00  0.00     0.167 HD
ATOM     46  C   UNL A   1      37.764  32.882  30.486  1.00  0.00     0.034 A 
ATOM     47  C   UNL A   1      44.053  29.740  29.409  1.00  0.00     0.034 A 
ATOM     48  C   UNL A   1      39.073  33.369  30.910  1.00  0.00     0.049 A 
ATOM     49  C   UNL A   1      43.972  31.241  29.215  1.00  0.00     0.074 A 
ATOM     50  C   UNL A   1      39.768  33.369  32.108  1.00  0.00     0.029 A 
ATOM     51  N   UNL A   1      39.982  33.753  29.942  1.00  0.00    -0.354 N 
ATOM     52  N   UNL A   1      43.082  32.013  29.777  1.00  0.00    -0.248 NA
ATOM     53  C   UNL A   1      44.837  31.975  28.289  1.00  0.00     0.031 C 
ATOM     54  C   UNL A   1      41.122  33.726  31.835  1.00  0.00     0.029 A 
ATOM     55  C   UNL A   1      41.239  33.959  30.477  1.00  0.00     0.049 A 
ATOM     56  H   UNL A   1      39.761  33.865  28.989  1.00  0.00     0.167 HD
ATOM     57  C   UNL A   1      43.191  33.278  29.262  1.00  0.00     0.074 A 
ATOM     58  C   UNL A   1      44.308  33.208  28.338  1.00  0.00     0.031 C 
ATOM     59  C   UNL A   1      42.334  34.290  29.582  1.00  0.00     0.034 A 
BRANCH  46  60
ATOM     60  C   UNL A   1      36.467  33.510  30.928  1.00  0.00     0.023 A 
ATOM     61  C   UNL A   1      35.630  34.114  29.968  1.00  0.00     0.031 A 
ATOM     62  C   UNL A   1      36.012  33.568  32.258  1.00  0.00     0.131 A 
ATOM     63  C   UNL A   1      34.475  34.819  30.347  1.00  0.00     0.055 A 
ATOM     64  C   UNL A   1      34.900  34.327  32.645  1.00  0.00     0.041 A 
ATOM     65  F   UNL A   1      36.601  32.855  33.230  1.00  0.00    -0.206 F 
ATOM     66  C   UNL A   1      34.131  34.972  31.687  1.00  0.00     0.022 A 
BRANCH  63  67
ATOM     67  S   UNL A   1      33.413  35.528  29.058  1.00  0.00     0.124 S 
ATOM     68  O   UNL A   1      32.711  34.353  28.551  1.00  0.00    -0.237 OA
ATOM     69  O   UNL A   1      32.612  36.484  29.814  1.00  0.00    -0.237 OA
ATOM     70  O   UNL A   1      34.367  36.125  28.124  1.00  0.00    -0.744 OA
ENDBRANCH  63  67
ENDBRANCH  46  60
BRANCH  47  71
ATOM     71  C   UNL A   1      44.460  28.747  28.370  1.00  0.00     0.023 A 
ATOM     72  C   UNL A   1      45.285  27.682  28.793  1.00  0.00     0.031 A 
ATOM     73  C   UNL A   1      43.781  28.603  27.154  1.00  0.00     0.131 A 
ATOM     74  C   UNL A   1      45.257  26.456  28.118  1.00  0.00     0.055 A 
ATOM     75  C   UNL A   1      43.836  27.408  26.428  1.00  0.00     0.041 A 
ATOM     76  F   UNL A   1      42.953  29.560  26.711  1.00  0.00    -0.206 F 
ATOM     77  C   UNL A   1      44.534  26.310  26.934  1.00  0.00     0.022 A 
BRANCH  74  78
ATOM     78  S   UNL A   1      45.902  24.987  28.975  1.00  0.00     0.124 S 
ATOM     79  O   UNL A   1      46.254  24.112  27.863  1.00  0.00    -0.237 OA
ATOM     80  O   UNL A   1      47.025  25.531  29.738  1.00  0.00    -0.237 OA
ATOM     81  O   UNL A   1      44.777  24.547  29.796  1.00  0.00    -0.744 OA
ENDBRANCH  74  78
ENDBRANCH  47  71
BRANCH  59  82
ATOM     82  C   UNL A   1      42.477  35.677  29.024  1.00  0.00     0.023 A 
ATOM     83  C   UNL A   1      43.340  36.618  29.610  1.00  0.00     0.031 A 
ATOM     84  C   UNL A   1      41.706  36.122  27.929  1.00  0.00     0.131 A 
ATOM     85  C   UNL A   1      43.468  37.907  29.065  1.00  0.00     0.055 A 
ATOM     86  C   UNL A   1      41.772  37.431  27.446  1.00  0.00     0.041 A 
ATOM     87  F   UNL A   1      40.891  35.291  27.260  1.00  0.00    -0.206 F 
ATOM     88  C   UNL A   1      42.669  38.330  28.005  1.00  0.00     0.022 A 
BRANCH  85  89
ATOM     89  S   UNL A   1      44.770  38.988  29.712  1.00  0.00     0.124 S 
ATOM     90  O   UNL A   1      45.953  38.138  29.651  1.00  0.00    -0.237 OA
ATOM     91  O   UNL A   1      44.732  40.095  28.759  1.00  0.00    -0.237 OA
ATOM     92  O   UNL A   1      44.307  39.317  31.058  1.00  0.00    -0.744 OA
ENDBRANCH  85  89
ENDBRANCH  59  82
ENDBRANCH  33  34
ENDBRANCH  25  28
ENDBRANCH  23  24
ENDBRANCH  22  23
ENDBRANCH   1  22
TORSDOF 18
ENDMDL
MODEL 3
REMARK VINA RESULT:     -11.4      4.631     10.784
REMARK SMILES Cc1ccc(C(F)(F)F)cc1/C=C/C(=O)NCCCCCCNC(=O)c1ccc(-c2c3nc(c(-c4cc(S(=O)(=O)[O-])ccc4F)c4ccc([nH]4)c(-c4cc(S(=O)(=O)[O-])ccc4F)c4nc(c(-c5cc(S(=O)(=O)[O-])ccc5F)c5ccc2[nH]5)C=C4)C=C3)cc1
REMARK SMILES IDX 20 1 19 2 18 3 17 4 16 5 14 6 15 7 13 9 12 10 11 11 1 12
REMARK SMILES IDX 2 13 3 14 4 15 10 16 5 17 6 18 7 19 8 20 9 21 21 22 22 23
REMARK SMILES IDX 23 24 24 25 25 27 26 28 27 29 88 30 28 31 87 32 29 33 30 34
REMARK SMILES IDX 31 35 81 36 32 37 86 38 80 39 82 40 33 41 85 42 79 43 78 44
REMARK SMILES IDX 34 46 66 47 46 48 65 49 47 50 50 51 64 52 83 53 48 54 49 55
REMARK SMILES IDX 63 57 84 58 51 59 35 60 36 61 44 62 37 63 43 64 45 65 42 66
REMARK SMILES IDX 38 67 39 68 40 69 41 70 67 71 68 72 76 73 69 74 75 75 77 76
REMARK SMILES IDX 74 77 70 78 71 79 72 80 73 81 52 82 53 83 61 84 54 85 60 86
REMARK SMILES IDX 62 87 59 88 55 89 56 90 57 91 58 92
REMARK H PARENT 16 8 23 26 82 45 50 56
REMARK Flexibility Score: inf
ROOT
ATOM      1  C   UNL A   1      37.075  23.772  25.831  1.00  0.00     0.002 C 
ENDROOT
BRANCH   1   2
ATOM      2  C   UNL A   1      35.933  23.851  24.802  1.00  0.00     0.002 C 
BRANCH   2   3
ATOM      3  C   UNL A   1      34.516  23.999  25.372  1.00  0.00     0.021 C 
BRANCH   3   4
ATOM      4  C   UNL A   1      33.808  25.295  24.983  1.00  0.00     0.116 C 
BRANCH   4   5
ATOM      5  N   UNL A   1      34.351  26.442  25.687  1.00  0.00    -0.353 N 
ATOM      6  C   UNL A   1      33.746  27.600  26.060  1.00  0.00     0.243 C 
ATOM      7  O   UNL A   1      34.302  28.384  26.826  1.00  0.00    -0.270 OA
ATOM      8  H   UNL A   1      35.302  26.370  25.931  1.00  0.00     0.163 HD
BRANCH   6   9
ATOM      9  C   UNL A   1      32.365  27.891  25.618  1.00  0.00     0.072 C 
ATOM     10  C   UNL A   1      31.996  27.922  24.328  1.00  0.00     0.014 C 
BRANCH  10  11
ATOM     11  C   UNL A   1      30.630  28.276  23.912  1.00  0.00    -0.022 A 
ATOM     12  C   UNL A   1      29.908  25.817  23.745  1.00  0.00     0.045 C 
ATOM     13  C   UNL A   1      29.653  27.298  23.640  1.00  0.00    -0.044 A 
ATOM     14  C   UNL A   1      28.378  27.706  23.207  1.00  0.00     0.004 A 
ATOM     15  C   UNL A   1      28.064  29.057  23.066  1.00  0.00     0.013 A 
ATOM     16  C   UNL A   1      30.302  29.634  23.753  1.00  0.00     0.021 A 
ATOM     17  C   UNL A   1      29.022  30.039  23.344  1.00  0.00     0.056 A 
BRANCH  17  18
ATOM     18  C   UNL A   1      28.678  31.496  23.186  1.00  0.00     0.416 C 
ATOM     19  F   UNL A   1      27.338  31.730  23.241  1.00  0.00    -0.166 F 
ATOM     20  F   UNL A   1      29.229  32.271  24.165  1.00  0.00    -0.166 F 
ATOM     21  F   UNL A   1      29.104  32.038  22.010  1.00  0.00    -0.166 F 
ENDBRANCH  17  18
ENDBRANCH  10  11
ENDBRANCH   6   9
ENDBRANCH   4   5
ENDBRANCH   3   4
ENDBRANCH   2   3
ENDBRANCH   1   2
BRANCH   1  22
ATOM     22  C   UNL A   1      38.066  22.621  25.648  1.00  0.00     0.021 C 
BRANCH  22  23
ATOM     23  C   UNL A   1      39.128  22.546  26.741  1.00  0.00     0.116 C 
BRANCH  23  24
ATOM     24  N   UNL A   1      40.475  22.821  26.276  1.00  0.00    -0.352 N 
ATOM     25  C   UNL A   1      41.131  24.051  26.182  1.00  0.00     0.251 C 
ATOM     26  H   UNL A   1      40.996  22.037  25.989  1.00  0.00     0.163 HD
ATOM     27  O   UNL A   1      42.250  24.139  25.726  1.00  0.00    -0.269 OA
BRANCH  25  28
ATOM     28  C   UNL A   1      40.462  25.240  26.763  1.00  0.00     0.039 A 
ATOM     29  C   UNL A   1      40.718  26.477  26.160  1.00  0.00     0.014 A 
ATOM     30  C   UNL A   1      39.782  25.174  27.974  1.00  0.00     0.014 A 
ATOM     31  C   UNL A   1      40.487  27.650  26.878  1.00  0.00     0.010 A 
ATOM     32  C   UNL A   1      39.627  26.330  28.721  1.00  0.00     0.010 A 
ATOM     33  C   UNL A   1      40.038  27.561  28.198  1.00  0.00    -0.014 A 
BRANCH  33  34
ATOM     34  C   UNL A   1      40.112  28.680  29.135  1.00  0.00     0.031 A 
ATOM     35  C   UNL A   1      39.051  29.708  29.193  1.00  0.00     0.074 A 
ATOM     36  C   UNL A   1      41.167  28.785  29.973  1.00  0.00     0.049 A 
ATOM     37  N   UNL A   1      39.232  30.913  29.619  1.00  0.00    -0.248 NA
ATOM     38  C   UNL A   1      37.692  29.459  28.729  1.00  0.00     0.031 C 
ATOM     39  C   UNL A   1      41.320  29.698  31.101  1.00  0.00     0.029 A 
ATOM     40  N   UNL A   1      42.441  28.261  29.774  1.00  0.00    -0.354 N 
ATOM     41  C   UNL A   1      38.002  31.516  29.721  1.00  0.00     0.074 A 
ATOM     42  C   UNL A   1      37.078  30.582  29.116  1.00  0.00     0.031 C 
ATOM     43  C   UNL A   1      42.628  29.894  31.321  1.00  0.00     0.029 A 
ATOM     44  C   UNL A   1      43.356  29.213  30.265  1.00  0.00     0.049 A 
ATOM     45  H   UNL A   1      42.662  27.391  29.368  1.00  0.00     0.167 HD
ATOM     46  C   UNL A   1      37.872  32.690  30.401  1.00  0.00     0.034 A 
ATOM     47  C   UNL A   1      44.287  29.774  29.440  1.00  0.00     0.034 A 
ATOM     48  C   UNL A   1      39.150  33.198  30.891  1.00  0.00     0.049 A 
ATOM     49  C   UNL A   1      44.169  31.278  29.300  1.00  0.00     0.074 A 
ATOM     50  C   UNL A   1      39.801  33.170  32.113  1.00  0.00     0.029 A 
ATOM     51  N   UNL A   1      40.082  33.645  29.973  1.00  0.00    -0.354 N 
ATOM     52  N   UNL A   1      43.236  32.002  29.857  1.00  0.00    -0.248 NA
ATOM     53  C   UNL A   1      45.044  32.072  28.435  1.00  0.00     0.031 C 
ATOM     54  C   UNL A   1      41.152  33.576  31.905  1.00  0.00     0.029 A 
ATOM     55  C   UNL A   1      41.312  33.866  30.562  1.00  0.00     0.049 A 
ATOM     56  H   UNL A   1      39.892  33.788  29.017  1.00  0.00     0.167 HD
ATOM     57  C   UNL A   1      43.326  33.288  29.395  1.00  0.00     0.074 A 
ATOM     58  C   UNL A   1      44.477  33.286  28.511  1.00  0.00     0.031 C 
ATOM     59  C   UNL A   1      42.428  34.262  29.721  1.00  0.00     0.034 A 
BRANCH  46  60
ATOM     60  C   UNL A   1      36.542  33.263  30.818  1.00  0.00     0.023 A 
ATOM     61  C   UNL A   1      35.740  33.914  29.859  1.00  0.00     0.031 A 
ATOM     62  C   UNL A   1      36.022  33.225  32.124  1.00  0.00     0.131 A 
ATOM     63  C   UNL A   1      34.552  34.571  30.225  1.00  0.00     0.055 A 
ATOM     64  C   UNL A   1      34.876  33.936  32.505  1.00  0.00     0.041 A 
ATOM     65  F   UNL A   1      36.579  32.460  33.076  1.00  0.00    -0.206 F 
ATOM     66  C   UNL A   1      34.141  34.628  31.554  1.00  0.00     0.022 A 
BRANCH  63  67
ATOM     67  S   UNL A   1      33.539  35.343  28.934  1.00  0.00     0.124 S 
ATOM     68  O   UNL A   1      32.623  34.267  28.570  1.00  0.00    -0.237 OA
ATOM     69  O   UNL A   1      32.955  36.478  29.642  1.00  0.00    -0.237 OA
ATOM     70  O   UNL A   1      34.515  35.696  27.903  1.00  0.00    -0.744 OA
ENDBRANCH  63  67
ENDBRANCH  46  60
BRANCH  47  71
ATOM     71  C   UNL A   1      44.761  28.833  28.380  1.00  0.00     0.023 A 
ATOM     72  C   UNL A   1      45.647  27.811  28.783  1.00  0.00     0.031 A 
ATOM     73  C   UNL A   1      44.099  28.679  27.155  1.00  0.00     0.131 A 
ATOM     74  C   UNL A   1      45.699  26.603  28.077  1.00  0.00     0.055 A 
ATOM     75  C   UNL A   1      44.232  27.508  26.400  1.00  0.00     0.041 A 
ATOM     76  F   UNL A   1      43.216  29.594  26.729  1.00  0.00    -0.206 F 
ATOM     77  C   UNL A   1      44.993  26.443  26.884  1.00  0.00     0.022 A 
BRANCH  74  78
ATOM     78  S   UNL A   1      46.428  25.156  28.902  1.00  0.00     0.124 S 
ATOM     79  O   UNL A   1      45.479  24.100  28.569  1.00  0.00    -0.237 OA
ATOM     80  O   UNL A   1      47.742  25.055  28.268  1.00  0.00    -0.237 OA
ATOM     81  O   UNL A   1      46.471  25.548  30.309  1.00  0.00    -0.744 OA
ENDBRANCH  74  78
ENDBRANCH  47  71
BRANCH  59  82
ATOM     82  C   UNL A   1      42.549  35.674  29.223  1.00  0.00     0.023 A 
ATOM     83  C   UNL A   1      43.377  36.610  29.863  1.00  0.00     0.031 A 
ATOM     84  C   UNL A   1      41.791  36.145  28.130  1.00  0.00     0.131 A 
ATOM     85  C   UNL A   1      43.486  37.922  29.374  1.00  0.00     0.055 A 
ATOM     86  C   UNL A   1      41.836  37.473  27.700  1.00  0.00     0.041 A 
ATOM     87  F   UNL A   1      41.010  35.323  27.411  1.00  0.00    -0.206 F 
ATOM     88  C   UNL A   1      42.699  38.369  28.314  1.00  0.00     0.022 A 
BRANCH  85  89
ATOM     89  S   UNL A   1      44.747  39.006  30.091  1.00  0.00     0.124 S 
ATOM     90  O   UNL A   1      45.975  38.246  29.891  1.00  0.00    -0.237 OA
ATOM     91  O   UNL A   1      44.602  40.208  29.272  1.00  0.00    -0.237 OA
ATOM     92  O   UNL A   1      44.325  39.153  31.482  1.00  0.00    -0.744 OA
ENDBRANCH  85  89
ENDBRANCH  59  82
ENDBRANCH  33  34
ENDBRANCH  25  28
ENDBRANCH  23  24
ENDBRANCH  22  23
ENDBRANCH   1  22
TORSDOF 18
ENDMDL
