MODEL 1
REMARK VINA RESULT:     -11.9      0.000      0.000
REMARK SMILES CC(=O)N[C@H]1[C@@H](O[C@H](C)C(=O)NCCCCCCNC(=O)c2ccc(-c3c4nc(c(-c5cc(S(=O)(=O)[O-])ccc5F)c5ccc([nH]5)c(-c5cc(S(=O)(=O)[O-])ccc5F)c5nc(c(-c6cc(S(=O)(=O)[O-])ccc6F)c6ccc3[nH]6)C=C5)C=C4)cc2)[C@H]2OC(C)(C)OC[C@@H]2O[C@H]1Sc1ccc(Cl)cc1
REMARK SMILES IDX 15 1 14 2 13 3 12 4 10 5 11 6 8 8 9 9 7 10 6 11 5 12 94 13
REMARK SMILES IDX 85 14 93 15 86 16 92 17 87 18 91 19 88 20 89 21 90 22 4 23
REMARK SMILES IDX 1 24 2 25 3 26 95 28 96 29 97 30 102 31 98 32 101 33 99 34
REMARK SMILES IDX 100 35 16 36 17 37 18 38 19 39 20 40 21 42 22 43 23 44 84 45
REMARK SMILES IDX 24 46 83 47 25 48 26 49 27 50 77 51 28 52 82 53 76 54 78 55
REMARK SMILES IDX 29 56 81 57 75 58 74 59 30 61 62 62 42 63 61 64 43 65 46 66
REMARK SMILES IDX 60 67 79 68 44 69 45 70 59 72 80 73 47 74 31 75 32 76 40 77
REMARK SMILES IDX 33 78 39 79 41 80 38 81 34 82 35 83 36 84 37 85 63 86 64 87
REMARK SMILES IDX 72 88 65 89 71 90 73 91 70 92 66 93 67 94 68 95 69 96 48 97
REMARK SMILES IDX 49 98 57 99 50 100 56 101 58 102 55 103 51 104 52 105 53 106
REMARK SMILES IDX 54 107
REMARK H PARENT 12 7 4 27 19 41 78 60 46 71
REMARK Flexibility Score: inf
ROOT
ATOM      1  C   UNL A   1      33.159  29.324  24.934  1.00  0.00     0.002 C 
ENDROOT
BRANCH   1   2
ATOM      2  C   UNL A   1      34.058  28.604  23.905  1.00  0.00     0.021 C 
BRANCH   2   3
ATOM      3  C   UNL A   1      33.379  28.142  22.583  1.00  0.00     0.116 C 
BRANCH   3   4
ATOM      4  N   UNL A   1      33.736  26.813  21.985  1.00  0.00    -0.354 N 
ATOM      5  C   UNL A   1      33.261  25.511  21.886  1.00  0.00     0.248 C 
ATOM      6  O   UNL A   1      33.146  25.178  20.689  1.00  0.00    -0.272 OA
ATOM      7  H   UNL A   1      34.592  26.888  21.502  1.00  0.00     0.163 HD
BRANCH   5   8
ATOM      8  C   UNL A   1      32.956  24.306  23.051  1.00  0.00     0.204 C 
ATOM      9  C   UNL A   1      32.706  22.959  22.322  1.00  0.00     0.049 C 
BRANCH   8  10
ATOM     10  O   UNL A   1      33.748  23.771  24.128  1.00  0.00    -0.360 OA
BRANCH  10  11
ATOM     11  C   UNL A   1      33.947  24.434  25.389  1.00  0.00     0.177 C 
ATOM     12  C   UNL A   1      34.591  23.373  26.266  1.00  0.00     0.153 C 
ATOM     13  C   UNL A   1      33.334  22.224  26.291  1.00  0.00     0.206 C 
ATOM     14  C   UNL A   1      32.615  24.981  25.959  1.00  0.00     0.184 C 
ATOM     15  O   UNL A   1      32.226  22.856  27.000  1.00  0.00    -0.356 OA
ATOM     16  O   UNL A   1      32.051  25.917  25.044  1.00  0.00    -0.342 OA
ATOM     17  C   UNL A   1      31.665  23.829  26.147  1.00  0.00     0.177 C 
ATOM     18  C   UNL A   1      30.702  26.303  25.332  1.00  0.00     0.163 C 
ATOM     19  C   UNL A   1      30.322  24.323  26.617  1.00  0.00     0.198 C 
ATOM     20  C   UNL A   1      30.174  26.887  24.022  1.00  0.00     0.075 C 
ATOM     21  C   UNL A   1      30.652  27.358  26.433  1.00  0.00     0.075 C 
ATOM     22  O   UNL A   1      29.817  25.217  25.633  1.00  0.00    -0.348 OA
BRANCH  12  23
ATOM     23  N   UNL A   1      36.061  23.450  25.706  1.00  0.00    -0.347 N 
ATOM     24  C   UNL A   1      38.285  24.211  26.730  1.00  0.00     0.114 C 
ATOM     25  C   UNL A   1      37.375  23.707  25.666  1.00  0.00     0.217 C 
ATOM     26  O   UNL A   1      37.881  23.457  24.561  1.00  0.00    -0.275 OA
ATOM     27  H   UNL A   1      35.931  23.055  24.813  1.00  0.00     0.163 HD
ENDBRANCH  12  23
BRANCH  13  28
ATOM     28  S   UNL A   1      32.374  20.777  25.182  1.00  0.00    -0.092 SA
BRANCH  28  29
ATOM     29  C   UNL A   1      33.094  19.122  25.119  1.00  0.00     0.010 A 
ATOM     30  C   UNL A   1      32.584  17.981  25.754  1.00  0.00     0.016 A 
ATOM     31  C   UNL A   1      34.397  18.996  24.587  1.00  0.00     0.016 A 
ATOM     32  C   UNL A   1      33.238  16.732  25.676  1.00  0.00     0.021 A 
ATOM     33  C   UNL A   1      35.068  17.760  24.520  1.00  0.00     0.021 A 
ATOM     34  C   UNL A   1      34.464  16.621  25.032  1.00  0.00     0.041 A 
ATOM     35  Cl  UNL A   1      35.229  15.088  24.876  1.00  0.00    -0.084 Cl
ENDBRANCH  28  29
ENDBRANCH  13  28
ENDBRANCH  10  11
ENDBRANCH   8  10
ENDBRANCH   5   8
ENDBRANCH   3   4
ENDBRANCH   2   3
ENDBRANCH   1   2
BRANCH   1  36
ATOM     36  C   UNL A   1      33.551  29.252  26.416  1.00  0.00     0.002 C 
BRANCH  36  37
ATOM     37  C   UNL A   1      33.328  30.500  27.285  1.00  0.00     0.021 C 
BRANCH  37  38
ATOM     38  C   UNL A   1      34.567  31.337  27.608  1.00  0.00     0.116 C 
BRANCH  38  39
ATOM     39  N   UNL A   1      34.343  32.231  28.733  1.00  0.00    -0.352 N 
ATOM     40  C   UNL A   1      34.909  32.253  29.984  1.00  0.00     0.251 C 
ATOM     41  H   UNL A   1      33.675  32.937  28.571  1.00  0.00     0.163 HD
ATOM     42  O   UNL A   1      34.348  32.870  30.884  1.00  0.00    -0.269 OA
BRANCH  40  43
ATOM     43  C   UNL A   1      36.187  31.555  30.248  1.00  0.00     0.039 A 
ATOM     44  C   UNL A   1      37.371  32.051  29.688  1.00  0.00     0.014 A 
ATOM     45  C   UNL A   1      36.207  30.369  30.984  1.00  0.00     0.014 A 
ATOM     46  C   UNL A   1      38.582  31.390  29.919  1.00  0.00     0.010 A 
ATOM     47  C   UNL A   1      37.421  29.746  31.263  1.00  0.00     0.010 A 
ATOM     48  C   UNL A   1      38.619  30.249  30.734  1.00  0.00    -0.014 A 
BRANCH  48  49
ATOM     49  C   UNL A   1      39.890  29.547  31.053  1.00  0.00     0.031 A 
ATOM     50  C   UNL A   1      40.762  30.054  32.169  1.00  0.00     0.074 A 
ATOM     51  C   UNL A   1      40.309  28.537  30.264  1.00  0.00     0.049 A 
ATOM     52  N   UNL A   1      41.986  29.721  32.485  1.00  0.00    -0.248 NA
ATOM     53  C   UNL A   1      40.187  31.110  33.016  1.00  0.00     0.031 C 
ATOM     54  C   UNL A   1      39.560  27.981  29.135  1.00  0.00     0.029 A 
ATOM     55  N   UNL A   1      41.477  27.817  30.272  1.00  0.00    -0.354 N 
ATOM     56  C   UNL A   1      42.340  30.545  33.549  1.00  0.00     0.074 A 
ATOM     57  C   UNL A   1      41.216  31.428  33.786  1.00  0.00     0.031 C 
ATOM     58  C   UNL A   1      40.283  27.006  28.564  1.00  0.00     0.029 A 
ATOM     59  C   UNL A   1      41.568  26.901  29.248  1.00  0.00     0.049 A 
ATOM     60  H   UNL A   1      42.182  27.943  30.946  1.00  0.00     0.167 HD
ATOM     61  C   UNL A   1      43.489  30.551  34.269  1.00  0.00     0.034 A 
ATOM     62  C   UNL A   1      42.582  26.091  28.886  1.00  0.00     0.034 A 
ATOM     63  C   UNL A   1      44.584  29.643  34.028  1.00  0.00     0.049 A 
ATOM     64  C   UNL A   1      43.859  26.129  29.688  1.00  0.00     0.074 A 
ATOM     65  C   UNL A   1      45.766  29.507  34.734  1.00  0.00     0.029 A 
ATOM     66  N   UNL A   1      44.633  28.718  32.992  1.00  0.00    -0.354 N 
ATOM     67  N   UNL A   1      44.164  26.884  30.717  1.00  0.00    -0.248 NA
ATOM     68  C   UNL A   1      44.926  25.205  29.280  1.00  0.00     0.031 C 
ATOM     69  C   UNL A   1      46.554  28.546  34.090  1.00  0.00     0.029 A 
ATOM     70  C   UNL A   1      45.838  28.032  33.021  1.00  0.00     0.049 A 
ATOM     71  H   UNL A   1      43.917  28.570  32.333  1.00  0.00     0.167 HD
ATOM     72  C   UNL A   1      45.449  26.509  31.095  1.00  0.00     0.074 A 
ATOM     73  C   UNL A   1      45.855  25.451  30.192  1.00  0.00     0.031 C 
ATOM     74  C   UNL A   1      46.225  26.990  32.100  1.00  0.00     0.034 A 
BRANCH  61  75
ATOM     75  C   UNL A   1      43.624  31.586  35.362  1.00  0.00     0.023 A 
ATOM     76  C   UNL A   1      42.818  31.553  36.514  1.00  0.00     0.031 A 
ATOM     77  C   UNL A   1      44.548  32.639  35.238  1.00  0.00     0.131 A 
ATOM     78  C   UNL A   1      42.889  32.596  37.450  1.00  0.00     0.055 A 
ATOM     79  C   UNL A   1      44.674  33.629  36.216  1.00  0.00     0.041 A 
ATOM     80  F   UNL A   1      45.333  32.737  34.154  1.00  0.00    -0.206 F 
ATOM     81  C   UNL A   1      43.830  33.620  37.323  1.00  0.00     0.022 A 
BRANCH  78  82
ATOM     82  S   UNL A   1      41.630  32.671  38.754  1.00  0.00     0.124 S 
ATOM     83  O   UNL A   1      42.229  31.832  39.788  1.00  0.00    -0.237 OA
ATOM     84  O   UNL A   1      41.561  34.095  39.045  1.00  0.00    -0.237 OA
ATOM     85  O   UNL A   1      40.441  32.104  38.114  1.00  0.00    -0.744 OA
ENDBRANCH  78  82
ENDBRANCH  61  75
BRANCH  62  86
ATOM     86  C   UNL A   1      42.446  25.192  27.706  1.00  0.00     0.023 A 
ATOM     87  C   UNL A   1      41.852  23.927  27.828  1.00  0.00     0.031 A 
ATOM     88  C   UNL A   1      42.932  25.572  26.441  1.00  0.00     0.131 A 
ATOM     89  C   UNL A   1      41.794  23.069  26.720  1.00  0.00     0.055 A 
ATOM     90  C   UNL A   1      42.826  24.734  25.328  1.00  0.00     0.041 A 
ATOM     91  F   UNL A   1      43.503  26.773  26.265  1.00  0.00    -0.206 F 
ATOM     92  C   UNL A   1      42.265  23.469  25.467  1.00  0.00     0.022 A 
BRANCH  89  93
ATOM     93  S   UNL A   1      41.160  21.387  26.958  1.00  0.00     0.124 S 
ATOM     94  O   UNL A   1      40.730  21.426  28.351  1.00  0.00    -0.237 OA
ATOM     95  O   UNL A   1      40.099  21.320  25.959  1.00  0.00    -0.237 OA
ATOM     96  O   UNL A   1      42.323  20.544  26.687  1.00  0.00    -0.744 OA
ENDBRANCH  89  93
ENDBRANCH  62  86
BRANCH  74  97
ATOM     97  C   UNL A   1      47.576  26.350  32.286  1.00  0.00     0.023 A 
ATOM     98  C   UNL A   1      48.691  26.753  31.534  1.00  0.00     0.031 A 
ATOM     99  C   UNL A   1      47.749  25.326  33.235  1.00  0.00     0.131 A 
ATOM    100  C   UNL A   1      49.924  26.109  31.714  1.00  0.00     0.055 A 
ATOM    101  C   UNL A   1      48.989  24.726  33.447  1.00  0.00     0.041 A 
ATOM    102  F   UNL A   1      46.713  24.903  33.978  1.00  0.00    -0.206 F 
ATOM    103  C   UNL A   1      50.085  25.110  32.678  1.00  0.00     0.022 A 
BRANCH 100 104
ATOM    104  S   UNL A   1      51.304  26.550  30.624  1.00  0.00     0.124 S 
ATOM    105  O   UNL A   1      50.843  26.049  29.334  1.00  0.00    -0.237 OA
ATOM    106  O   UNL A   1      51.360  28.002  30.761  1.00  0.00    -0.237 OA
ATOM    107  O   UNL A   1      52.440  25.831  31.200  1.00  0.00    -0.744 OA
ENDBRANCH 100 104
ENDBRANCH  74  97
ENDBRANCH  48  49
ENDBRANCH  40  43
ENDBRANCH  38  39
ENDBRANCH  37  38
ENDBRANCH  36  37
ENDBRANCH   1  36
TORSDOF 21
ENDMDL
MODEL 2
REMARK VINA RESULT:     -11.3      3.496      8.669
REMARK SMILES CC(=O)N[C@H]1[C@@H](O[C@H](C)C(=O)NCCCCCCNC(=O)c2ccc(-c3c4nc(c(-c5cc(S(=O)(=O)[O-])ccc5F)c5ccc([nH]5)c(-c5cc(S(=O)(=O)[O-])ccc5F)c5nc(c(-c6cc(S(=O)(=O)[O-])ccc6F)c6ccc3[nH]6)C=C5)C=C4)cc2)[C@H]2OC(C)(C)OC[C@@H]2O[C@H]1Sc1ccc(Cl)cc1
REMARK SMILES IDX 15 1 14 2 13 3 12 4 10 5 11 6 8 8 9 9 7 10 6 11 5 12 94 13
REMARK SMILES IDX 85 14 93 15 86 16 92 17 87 18 91 19 88 20 89 21 90 22 4 23
REMARK SMILES IDX 1 24 2 25 3 26 95 28 96 29 97 30 102 31 98 32 101 33 99 34
REMARK SMILES IDX 100 35 16 36 17 37 18 38 19 39 20 40 21 42 22 43 23 44 84 45
REMARK SMILES IDX 24 46 83 47 25 48 26 49 27 50 77 51 28 52 82 53 76 54 78 55
REMARK SMILES IDX 29 56 81 57 75 58 74 59 30 61 62 62 42 63 61 64 43 65 46 66
REMARK SMILES IDX 60 67 79 68 44 69 45 70 59 72 80 73 47 74 31 75 32 76 40 77
REMARK SMILES IDX 33 78 39 79 41 80 38 81 34 82 35 83 36 84 37 85 63 86 64 87
REMARK SMILES IDX 72 88 65 89 71 90 73 91 70 92 66 93 67 94 68 95 69 96 48 97
REMARK SMILES IDX 49 98 57 99 50 100 56 101 58 102 55 103 51 104 52 105 53 106
REMARK SMILES IDX 54 107
REMARK H PARENT 12 7 4 27 19 41 78 60 46 71
REMARK Flexibility Score: inf
ROOT
ATOM      1  C   UNL A   1      33.744  28.204  26.041  1.00  0.00     0.002 C 
ENDROOT
BRANCH   1   2
ATOM      2  C   UNL A   1      33.083  26.862  26.423  1.00  0.00     0.021 C 
BRANCH   2   3
ATOM      3  C   UNL A   1      31.582  26.909  26.827  1.00  0.00     0.116 C 
BRANCH   3   4
ATOM      4  N   UNL A   1      30.683  25.753  26.502  1.00  0.00    -0.354 N 
ATOM      5  C   UNL A   1      30.594  24.376  26.665  1.00  0.00     0.248 C 
ATOM      6  O   UNL A   1      29.530  24.073  27.244  1.00  0.00    -0.272 OA
ATOM      7  H   UNL A   1      29.895  26.077  26.008  1.00  0.00     0.163 HD
BRANCH   5   8
ATOM      8  C   UNL A   1      31.565  23.087  26.119  1.00  0.00     0.204 C 
ATOM      9  C   UNL A   1      30.677  22.095  25.323  1.00  0.00     0.049 C 
BRANCH   8  10
ATOM     10  O   UNL A   1      32.706  23.032  25.243  1.00  0.00    -0.360 OA
BRANCH  10  11
ATOM     11  C   UNL A   1      32.633  22.718  23.841  1.00  0.00     0.177 C 
ATOM     12  C   UNL A   1      33.812  21.788  23.609  1.00  0.00     0.153 C 
ATOM     13  C   UNL A   1      35.089  22.842  24.005  1.00  0.00     0.206 C 
ATOM     14  C   UNL A   1      32.676  23.998  22.970  1.00  0.00     0.184 C 
ATOM     15  O   UNL A   1      35.071  23.892  22.991  1.00  0.00    -0.356 OA
ATOM     16  O   UNL A   1      31.574  24.839  23.300  1.00  0.00    -0.342 OA
ATOM     17  C   UNL A   1      33.964  24.725  23.250  1.00  0.00     0.177 C 
ATOM     18  C   UNL A   1      31.639  26.160  22.750  1.00  0.00     0.163 C 
ATOM     19  C   UNL A   1      34.011  26.025  22.491  1.00  0.00     0.198 C 
ATOM     20  C   UNL A   1      30.666  26.983  23.594  1.00  0.00     0.075 C 
ATOM     21  C   UNL A   1      31.203  26.172  21.288  1.00  0.00     0.075 C 
ATOM     22  O   UNL A   1      32.904  26.815  22.906  1.00  0.00    -0.348 OA
BRANCH  12  23
ATOM     23  N   UNL A   1      33.198  20.461  24.197  1.00  0.00    -0.347 N 
ATOM     24  C   UNL A   1      32.750  18.145  23.192  1.00  0.00     0.114 C 
ATOM     25  C   UNL A   1      32.743  19.202  24.239  1.00  0.00     0.217 C 
ATOM     26  O   UNL A   1      32.266  18.900  25.345  1.00  0.00    -0.275 OA
ATOM     27  H   UNL A   1      33.062  20.730  25.135  1.00  0.00     0.163 HD
ENDBRANCH  12  23
BRANCH  13  28
ATOM     28  S   UNL A   1      36.073  23.759  25.566  1.00  0.00    -0.092 SA
BRANCH  28  29
ATOM     29  C   UNL A   1      37.760  23.240  25.944  1.00  0.00     0.010 A 
ATOM     30  C   UNL A   1      38.273  21.944  25.790  1.00  0.00     0.016 A 
ATOM     31  C   UNL A   1      38.575  24.138  26.669  1.00  0.00     0.016 A 
ATOM     32  C   UNL A   1      39.601  21.623  26.146  1.00  0.00     0.021 A 
ATOM     33  C   UNL A   1      39.895  23.824  27.047  1.00  0.00     0.021 A 
ATOM     34  C   UNL A   1      40.417  22.574  26.746  1.00  0.00     0.041 A 
ATOM     35  Cl  UNL A   1      42.056  22.206  27.117  1.00  0.00    -0.084 Cl
ENDBRANCH  28  29
ENDBRANCH  13  28
ENDBRANCH  10  11
ENDBRANCH   8  10
ENDBRANCH   5   8
ENDBRANCH   3   4
ENDBRANCH   2   3
ENDBRANCH   1   2
BRANCH   1  36
ATOM     36  C   UNL A   1      34.279  29.097  27.168  1.00  0.00     0.002 C 
BRANCH  36  37
ATOM     37  C   UNL A   1      33.708  30.519  27.299  1.00  0.00     0.021 C 
BRANCH  37  38
ATOM     38  C   UNL A   1      34.702  31.622  27.667  1.00  0.00     0.116 C 
BRANCH  38  39
ATOM     39  N   UNL A   1      34.036  32.804  28.190  1.00  0.00    -0.352 N 
ATOM     40  C   UNL A   1      34.159  33.437  29.402  1.00  0.00     0.251 C 
ATOM     41  H   UNL A   1      33.389  33.217  27.574  1.00  0.00     0.163 HD
ATOM     42  O   UNL A   1      33.277  34.207  29.769  1.00  0.00    -0.269 OA
BRANCH  40  43
ATOM     43  C   UNL A   1      35.347  33.210  30.256  1.00  0.00     0.039 A 
ATOM     44  C   UNL A   1      35.340  32.158  31.179  1.00  0.00     0.014 A 
ATOM     45  C   UNL A   1      36.436  34.082  30.200  1.00  0.00     0.014 A 
ATOM     46  C   UNL A   1      36.452  31.945  32.002  1.00  0.00     0.010 A 
ATOM     47  C   UNL A   1      37.565  33.833  30.976  1.00  0.00     0.010 A 
ATOM     48  C   UNL A   1      37.585  32.764  31.884  1.00  0.00    -0.014 A 
BRANCH  48  49
ATOM     49  C   UNL A   1      38.809  32.540  32.697  1.00  0.00     0.031 A 
ATOM     50  C   UNL A   1      39.945  31.735  32.127  1.00  0.00     0.074 A 
ATOM     51  C   UNL A   1      38.843  32.957  33.978  1.00  0.00     0.049 A 
ATOM     52  N   UNL A   1      41.007  31.258  32.721  1.00  0.00    -0.248 NA
ATOM     53  C   UNL A   1      39.846  31.388  30.701  1.00  0.00     0.031 C 
ATOM     54  C   UNL A   1      37.787  33.721  34.646  1.00  0.00     0.029 A 
ATOM     55  N   UNL A   1      39.788  32.775  34.957  1.00  0.00    -0.354 N 
ATOM     56  C   UNL A   1      41.689  30.529  31.752  1.00  0.00     0.074 A 
ATOM     57  C   UNL A   1      40.890  30.588  30.545  1.00  0.00     0.031 C 
ATOM     58  C   UNL A   1      38.144  33.946  35.919  1.00  0.00     0.029 A 
ATOM     59  C   UNL A   1      39.427  33.299  36.177  1.00  0.00     0.049 A 
ATOM     60  H   UNL A   1      40.643  32.315  34.800  1.00  0.00     0.167 HD
ATOM     61  C   UNL A   1      42.879  29.886  31.857  1.00  0.00     0.034 A 
ATOM     62  C   UNL A   1      40.045  33.238  37.373  1.00  0.00     0.034 A 
ATOM     63  C   UNL A   1      43.667  29.865  33.065  1.00  0.00     0.049 A 
ATOM     64  C   UNL A   1      41.356  32.501  37.472  1.00  0.00     0.074 A 
ATOM     65  C   UNL A   1      44.918  29.309  33.271  1.00  0.00     0.029 A 
ATOM     66  N   UNL A   1      43.276  30.421  34.277  1.00  0.00    -0.354 N 
ATOM     67  N   UNL A   1      42.010  31.852  36.537  1.00  0.00    -0.248 NA
ATOM     68  C   UNL A   1      42.013  32.489  38.786  1.00  0.00     0.031 C 
ATOM     69  C   UNL A   1      45.254  29.473  34.620  1.00  0.00     0.029 A 
ATOM     70  C   UNL A   1      44.245  30.191  35.242  1.00  0.00     0.049 A 
ATOM     71  H   UNL A   1      42.434  30.906  34.429  1.00  0.00     0.167 HD
ATOM     72  C   UNL A   1      43.167  31.375  37.144  1.00  0.00     0.074 A 
ATOM     73  C   UNL A   1      43.128  31.823  38.522  1.00  0.00     0.031 C 
ATOM     74  C   UNL A   1      44.175  30.637  36.613  1.00  0.00     0.034 A 
BRANCH  61  75
ATOM     75  C   UNL A   1      43.379  29.137  30.643  1.00  0.00     0.023 A 
ATOM     76  C   UNL A   1      43.162  27.757  30.486  1.00  0.00     0.031 A 
ATOM     77  C   UNL A   1      44.110  29.804  29.644  1.00  0.00     0.131 A 
ATOM     78  C   UNL A   1      43.742  27.074  29.407  1.00  0.00     0.055 A 
ATOM     79  C   UNL A   1      44.612  29.133  28.526  1.00  0.00     0.041 A 
ATOM     80  F   UNL A   1      44.366  31.118  29.745  1.00  0.00    -0.206 F 
ATOM     81  C   UNL A   1      44.444  27.757  28.411  1.00  0.00     0.022 A 
BRANCH  78  82
ATOM     82  S   UNL A   1      43.692  25.261  29.407  1.00  0.00     0.124 S 
ATOM     83  O   UNL A   1      42.273  25.006  29.176  1.00  0.00    -0.237 OA
ATOM     84  O   UNL A   1      44.590  24.919  28.314  1.00  0.00    -0.237 OA
ATOM     85  O   UNL A   1      44.171  24.905  30.744  1.00  0.00    -0.744 OA
ENDBRANCH  78  82
ENDBRANCH  61  75
BRANCH  62  86
ATOM     86  C   UNL A   1      39.431  33.873  38.573  1.00  0.00     0.023 A 
ATOM     87  C   UNL A   1      38.526  33.165  39.378  1.00  0.00     0.031 A 
ATOM     88  C   UNL A   1      39.717  35.206  38.919  1.00  0.00     0.131 A 
ATOM     89  C   UNL A   1      37.907  33.802  40.465  1.00  0.00     0.055 A 
ATOM     90  C   UNL A   1      39.137  35.821  40.031  1.00  0.00     0.041 A 
ATOM     91  F   UNL A   1      40.580  35.928  38.188  1.00  0.00    -0.206 F 
ATOM     92  C   UNL A   1      38.216  35.122  40.804  1.00  0.00     0.022 A 
BRANCH  89  93
ATOM     93  S   UNL A   1      36.630  32.901  41.385  1.00  0.00     0.124 S 
ATOM     94  O   UNL A   1      35.695  33.970  41.718  1.00  0.00    -0.237 OA
ATOM     95  O   UNL A   1      36.172  31.932  40.395  1.00  0.00    -0.237 OA
ATOM     96  O   UNL A   1      37.362  32.336  42.517  1.00  0.00    -0.744 OA
ENDBRANCH  89  93
ENDBRANCH  62  86
BRANCH  74  97
ATOM     97  C   UNL A   1      45.328  30.300  37.524  1.00  0.00     0.023 A 
ATOM     98  C   UNL A   1      45.320  29.145  38.323  1.00  0.00     0.031 A 
ATOM     99  C   UNL A   1      46.451  31.144  37.586  1.00  0.00     0.131 A 
ATOM    100  C   UNL A   1      46.397  28.885  39.182  1.00  0.00     0.055 A 
ATOM    101  C   UNL A   1      47.543  30.852  38.403  1.00  0.00     0.041 A 
ATOM    102  F   UNL A   1      46.506  32.262  36.844  1.00  0.00    -0.206 F 
ATOM    103  C   UNL A   1      47.517  29.721  39.214  1.00  0.00     0.022 A 
BRANCH 100 104
ATOM    104  S   UNL A   1      46.289  27.468  40.309  1.00  0.00     0.124 S 
ATOM    105  O   UNL A   1      45.041  27.736  41.014  1.00  0.00    -0.237 OA
ATOM    106  O   UNL A   1      46.271  26.336  39.388  1.00  0.00    -0.237 OA
ATOM    107  O   UNL A   1      47.500  27.583  41.122  1.00  0.00    -0.744 OA
ENDBRANCH 100 104
ENDBRANCH  74  97
ENDBRANCH  48  49
ENDBRANCH  40  43
ENDBRANCH  38  39
ENDBRANCH  37  38
ENDBRANCH  36  37
ENDBRANCH   1  36
TORSDOF 21
ENDMDL
MODEL 3
REMARK VINA RESULT:     -11.3      3.731      6.302
REMARK SMILES CC(=O)N[C@H]1[C@@H](O[C@H](C)C(=O)NCCCCCCNC(=O)c2ccc(-c3c4nc(c(-c5cc(S(=O)(=O)[O-])ccc5F)c5ccc([nH]5)c(-c5cc(S(=O)(=O)[O-])ccc5F)c5nc(c(-c6cc(S(=O)(=O)[O-])ccc6F)c6ccc3[nH]6)C=C5)C=C4)cc2)[C@H]2OC(C)(C)OC[C@@H]2O[C@H]1Sc1ccc(Cl)cc1
REMARK SMILES IDX 15 1 14 2 13 3 12 4 10 5 11 6 8 8 9 9 7 10 6 11 5 12 94 13
REMARK SMILES IDX 85 14 93 15 86 16 92 17 87 18 91 19 88 20 89 21 90 22 4 23
REMARK SMILES IDX 1 24 2 25 3 26 95 28 96 29 97 30 102 31 98 32 101 33 99 34
REMARK SMILES IDX 100 35 16 36 17 37 18 38 19 39 20 40 21 42 22 43 23 44 84 45
REMARK SMILES IDX 24 46 83 47 25 48 26 49 27 50 77 51 28 52 82 53 76 54 78 55
REMARK SMILES IDX 29 56 81 57 75 58 74 59 30 61 62 62 42 63 61 64 43 65 46 66
REMARK SMILES IDX 60 67 79 68 44 69 45 70 59 72 80 73 47 74 31 75 32 76 40 77
REMARK SMILES IDX 33 78 39 79 41 80 38 81 34 82 35 83 36 84 37 85 63 86 64 87
REMARK SMILES IDX 72 88 65 89 71 90 73 91 70 92 66 93 67 94 68 95 69 96 48 97
REMARK SMILES IDX 49 98 57 99 50 100 56 101 58 102 55 103 51 104 52 105 53 106
REMARK SMILES IDX 54 107
REMARK H PARENT 12 7 4 27 19 41 78 60 46 71
REMARK Flexibility Score: inf
ROOT
ATOM      1  C   UNL A   1      33.689  28.690  26.183  1.00  0.00     0.002 C 
ENDROOT
BRANCH   1   2
ATOM      2  C   UNL A   1      33.138  27.274  26.457  1.00  0.00     0.021 C 
BRANCH   2   3
ATOM      3  C   UNL A   1      31.677  27.179  26.983  1.00  0.00     0.116 C 
BRANCH   3   4
ATOM      4  N   UNL A   1      30.779  26.078  26.502  1.00  0.00    -0.354 N 
ATOM      5  C   UNL A   1      30.591  24.707  26.623  1.00  0.00     0.248 C 
ATOM      6  O   UNL A   1      29.436  24.458  27.025  1.00  0.00    -0.272 OA
ATOM      7  H   UNL A   1      30.095  26.451  25.898  1.00  0.00     0.163 HD
BRANCH   5   8
ATOM      8  C   UNL A   1      31.564  23.371  26.209  1.00  0.00     0.204 C 
ATOM      9  C   UNL A   1      30.675  22.294  25.535  1.00  0.00     0.049 C 
BRANCH   8  10
ATOM     10  O   UNL A   1      32.697  23.228  25.332  1.00  0.00    -0.360 OA
BRANCH  10  11
ATOM     11  C   UNL A   1      32.598  22.911  23.932  1.00  0.00     0.177 C 
ATOM     12  C   UNL A   1      33.769  21.975  23.681  1.00  0.00     0.153 C 
ATOM     13  C   UNL A   1      35.057  23.024  24.053  1.00  0.00     0.206 C 
ATOM     14  C   UNL A   1      32.632  24.189  23.057  1.00  0.00     0.184 C 
ATOM     15  O   UNL A   1      35.027  24.072  23.038  1.00  0.00    -0.356 OA
ATOM     16  O   UNL A   1      31.539  25.036  23.404  1.00  0.00    -0.342 OA
ATOM     17  C   UNL A   1      33.928  24.911  23.314  1.00  0.00     0.177 C 
ATOM     18  C   UNL A   1      31.601  26.356  22.851  1.00  0.00     0.163 C 
ATOM     19  C   UNL A   1      33.968  26.209  22.551  1.00  0.00     0.198 C 
ATOM     20  C   UNL A   1      30.647  27.185  23.710  1.00  0.00     0.075 C 
ATOM     21  C   UNL A   1      31.140  26.367  21.396  1.00  0.00     0.075 C 
ATOM     22  O   UNL A   1      32.872  27.005  22.984  1.00  0.00    -0.348 OA
BRANCH  12  23
ATOM     23  N   UNL A   1      33.158  20.652  24.283  1.00  0.00    -0.347 N 
ATOM     24  C   UNL A   1      32.611  18.361  23.270  1.00  0.00     0.114 C 
ATOM     25  C   UNL A   1      32.681  19.402  24.331  1.00  0.00     0.217 C 
ATOM     26  O   UNL A   1      32.256  19.093  25.456  1.00  0.00    -0.275 OA
ATOM     27  H   UNL A   1      33.077  20.910  25.230  1.00  0.00     0.163 HD
ENDBRANCH  12  23
BRANCH  13  28
ATOM     28  S   UNL A   1      36.072  23.940  25.595  1.00  0.00    -0.092 SA
BRANCH  28  29
ATOM     29  C   UNL A   1      37.725  23.345  26.010  1.00  0.00     0.010 A 
ATOM     30  C   UNL A   1      38.197  22.037  25.824  1.00  0.00     0.016 A 
ATOM     31  C   UNL A   1      38.545  24.185  26.795  1.00  0.00     0.016 A 
ATOM     32  C   UNL A   1      39.499  21.655  26.213  1.00  0.00     0.021 A 
ATOM     33  C   UNL A   1      39.839  23.809  27.206  1.00  0.00     0.021 A 
ATOM     34  C   UNL A   1      40.327  22.553  26.876  1.00  0.00     0.041 A 
ATOM     35  Cl  UNL A   1      41.938  22.112  27.288  1.00  0.00    -0.084 Cl
ENDBRANCH  28  29
ENDBRANCH  13  28
ENDBRANCH  10  11
ENDBRANCH   8  10
ENDBRANCH   5   8
ENDBRANCH   3   4
ENDBRANCH   2   3
ENDBRANCH   1   2
BRANCH   1  36
ATOM     36  C   UNL A   1      34.231  29.500  27.369  1.00  0.00     0.002 C 
BRANCH  36  37
ATOM     37  C   UNL A   1      34.049  31.026  27.347  1.00  0.00     0.021 C 
BRANCH  37  38
ATOM     38  C   UNL A   1      35.045  31.844  28.170  1.00  0.00     0.116 C 
BRANCH  38  39
ATOM     39  N   UNL A   1      34.421  33.005  28.786  1.00  0.00    -0.352 N 
ATOM     40  C   UNL A   1      34.473  33.468  30.078  1.00  0.00     0.251 C 
ATOM     41  H   UNL A   1      33.869  33.547  28.176  1.00  0.00     0.163 HD
ATOM     42  O   UNL A   1      33.619  34.259  30.465  1.00  0.00    -0.269 OA
BRANCH  40  43
ATOM     43  C   UNL A   1      35.552  33.034  30.993  1.00  0.00     0.039 A 
ATOM     44  C   UNL A   1      35.468  31.781  31.611  1.00  0.00     0.014 A 
ATOM     45  C   UNL A   1      36.607  33.895  31.302  1.00  0.00     0.014 A 
ATOM     46  C   UNL A   1      36.475  31.368  32.491  1.00  0.00     0.010 A 
ATOM     47  C   UNL A   1      37.638  33.459  32.130  1.00  0.00     0.010 A 
ATOM     48  C   UNL A   1      37.583  32.193  32.732  1.00  0.00    -0.014 A 
BRANCH  48  49
ATOM     49  C   UNL A   1      38.704  31.773  33.614  1.00  0.00     0.031 A 
ATOM     50  C   UNL A   1      38.789  32.310  35.017  1.00  0.00     0.074 A 
ATOM     51  C   UNL A   1      39.696  31.011  33.113  1.00  0.00     0.049 A 
ATOM     52  N   UNL A   1      39.770  32.235  35.878  1.00  0.00    -0.248 NA
ATOM     53  C   UNL A   1      37.625  33.071  35.495  1.00  0.00     0.031 C 
ATOM     54  C   UNL A   1      39.733  30.457  31.758  1.00  0.00     0.029 A 
ATOM     55  N   UNL A   1      40.877  30.593  33.673  1.00  0.00    -0.354 N 
ATOM     56  C   UNL A   1      39.356  32.962  36.989  1.00  0.00     0.074 A 
ATOM     57  C   UNL A   1      38.055  33.513  36.667  1.00  0.00     0.031 C 
ATOM     58  C   UNL A   1      40.874  29.770  31.593  1.00  0.00     0.029 A 
ATOM     59  C   UNL A   1      41.674  29.876  32.809  1.00  0.00     0.049 A 
ATOM     60  H   UNL A   1      41.129  30.786  34.604  1.00  0.00     0.167 HD
ATOM     61  C   UNL A   1      39.995  33.139  38.172  1.00  0.00     0.034 A 
ATOM     62  C   UNL A   1      42.920  29.388  32.970  1.00  0.00     0.034 A 
ATOM     63  C   UNL A   1      41.281  32.558  38.476  1.00  0.00     0.049 A 
ATOM     64  C   UNL A   1      43.621  29.613  34.285  1.00  0.00     0.074 A 
ATOM     65  C   UNL A   1      41.993  32.607  39.662  1.00  0.00     0.029 A 
ATOM     66  N   UNL A   1      42.050  31.824  37.582  1.00  0.00    -0.354 N 
ATOM     67  N   UNL A   1      43.200  30.267  35.343  1.00  0.00    -0.248 NA
ATOM     68  C   UNL A   1      44.963  29.034  34.430  1.00  0.00     0.031 C 
ATOM     69  C   UNL A   1      43.217  31.959  39.465  1.00  0.00     0.029 A 
ATOM     70  C   UNL A   1      43.243  31.445  38.178  1.00  0.00     0.049 A 
ATOM     71  H   UNL A   1      41.787  31.605  36.659  1.00  0.00     0.167 HD
ATOM     72  C   UNL A   1      44.215  30.158  36.286  1.00  0.00     0.074 A 
ATOM     73  C   UNL A   1      45.263  29.363  35.678  1.00  0.00     0.031 C 
ATOM     74  C   UNL A   1      44.278  30.663  37.545  1.00  0.00     0.034 A 
BRANCH  61  75
ATOM     75  C   UNL A   1      39.324  34.013  39.206  1.00  0.00     0.023 A 
ATOM     76  C   UNL A   1      39.509  35.407  39.227  1.00  0.00     0.031 A 
ATOM     77  C   UNL A   1      38.516  33.444  40.206  1.00  0.00     0.131 A 
ATOM     78  C   UNL A   1      38.967  36.171  40.271  1.00  0.00     0.055 A 
ATOM     79  C   UNL A   1      37.907  34.222  41.194  1.00  0.00     0.041 A 
ATOM     80  F   UNL A   1      38.315  32.118  40.252  1.00  0.00    -0.206 F 
ATOM     81  C   UNL A   1      38.145  35.593  41.241  1.00  0.00     0.022 A 
BRANCH  78  82
ATOM     82  S   UNL A   1      39.477  37.905  40.425  1.00  0.00     0.124 S 
ATOM     83  O   UNL A   1      40.858  37.847  39.955  1.00  0.00    -0.237 OA
ATOM     84  O   UNL A   1      38.533  38.591  39.555  1.00  0.00    -0.237 OA
ATOM     85  O   UNL A   1      39.325  38.181  41.855  1.00  0.00    -0.744 OA
ENDBRANCH  78  82
ENDBRANCH  61  75
BRANCH  62  86
ATOM     86  C   UNL A   1      43.593  28.656  31.859  1.00  0.00     0.023 A 
ATOM     87  C   UNL A   1      44.206  29.352  30.807  1.00  0.00     0.031 A 
ATOM     88  C   UNL A   1      43.609  27.250  31.817  1.00  0.00     0.131 A 
ATOM     89  C   UNL A   1      44.775  28.645  29.736  1.00  0.00     0.055 A 
ATOM     90  C   UNL A   1      44.220  26.550  30.775  1.00  0.00     0.041 A 
ATOM     91  F   UNL A   1      43.042  26.534  32.801  1.00  0.00    -0.206 F 
ATOM     92  C   UNL A   1      44.798  27.248  29.720  1.00  0.00     0.022 A 
BRANCH  89  93
ATOM     93  S   UNL A   1      45.420  29.582  28.324  1.00  0.00     0.124 S 
ATOM     94  O   UNL A   1      46.599  28.803  27.964  1.00  0.00    -0.237 OA
ATOM     95  O   UNL A   1      44.302  29.525  27.389  1.00  0.00    -0.237 OA
ATOM     96  O   UNL A   1      45.691  30.903  28.888  1.00  0.00    -0.744 OA
ENDBRANCH  89  93
ENDBRANCH  62  86
BRANCH  74  97
ATOM     97  C   UNL A   1      45.511  30.340  38.350  1.00  0.00     0.023 A 
ATOM     98  C   UNL A   1      45.578  29.201  39.168  1.00  0.00     0.031 A 
ATOM     99  C   UNL A   1      46.636  31.183  38.290  1.00  0.00     0.131 A 
ATOM    100  C   UNL A   1      46.731  28.954  39.927  1.00  0.00     0.055 A 
ATOM    101  C   UNL A   1      47.799  30.904  39.006  1.00  0.00     0.041 A 
ATOM    102  F   UNL A   1      46.621  32.287  37.525  1.00  0.00    -0.206 F 
ATOM    103  C   UNL A   1      47.849  29.789  39.838  1.00  0.00     0.022 A 
BRANCH 100 104
ATOM    104  S   UNL A   1      46.728  27.559  41.085  1.00  0.00     0.124 S 
ATOM    105  O   UNL A   1      47.708  27.987  42.076  1.00  0.00    -0.237 OA
ATOM    106  O   UNL A   1      45.340  27.525  41.533  1.00  0.00    -0.237 OA
ATOM    107  O   UNL A   1      47.137  26.425  40.256  1.00  0.00    -0.744 OA
ENDBRANCH 100 104
ENDBRANCH  74  97
ENDBRANCH  48  49
ENDBRANCH  40  43
ENDBRANCH  38  39
ENDBRANCH  37  38
ENDBRANCH  36  37
ENDBRANCH   1  36
TORSDOF 21
ENDMDL
