MODEL 1
REMARK VINA RESULT:     -12.1      0.000      0.000
REMARK SMILES C[C@H]1CC[C@@](NC(=O)N[C@H]2CCOC2)(C(=O)NCCCCCCNC(=O)c2ccc(-c3c4nc(c(-c5cc(S(=O)(=O)[O-])ccc5F)c5ccc([nH]5)c(-c5cc(S(=O)(=O)[O-])ccc5F)c5nc(c(-c6cc(S(=O)(=O)[O-])ccc6F)c6ccc3[nH]6)C=C5)C=C4)cc2)CC1
REMARK SMILES IDX 21 1 20 2 19 3 18 4 17 5 15 6 16 7 5 9 1 10 2 11 91 12 3 13
REMARK SMILES IDX 90 14 4 15 6 16 7 17 8 19 9 20 10 22 11 23 14 24 12 25 13 26
REMARK SMILES IDX 22 27 23 28 24 29 25 30 26 32 27 33 28 34 89 35 29 36 88 37
REMARK SMILES IDX 30 38 31 39 32 40 82 41 33 42 87 43 81 44 83 45 34 46 86 47
REMARK SMILES IDX 80 48 79 49 35 51 67 52 47 53 66 54 48 55 51 56 65 57 84 58
REMARK SMILES IDX 49 59 50 60 64 62 85 63 52 64 36 65 37 66 45 67 38 68 44 69
REMARK SMILES IDX 46 70 43 71 39 72 40 73 41 74 42 75 68 76 69 77 77 78 70 79
REMARK SMILES IDX 76 80 78 81 75 82 71 83 72 84 73 85 74 86 53 87 54 88 62 89
REMARK SMILES IDX 55 90 61 91 63 92 60 93 56 94 57 95 58 96 59 97
REMARK H PARENT 17 8 6 18 9 21 24 31 83 50 51 61
REMARK Flexibility Score: inf
ROOT
ATOM      1  C   UNL A   1      31.648  31.004  26.076  1.00  0.00     0.002 C 
ENDROOT
BRANCH   1   2
ATOM      2  C   UNL A   1      31.879  29.651  26.754  1.00  0.00     0.002 C 
BRANCH   2   3
ATOM      3  C   UNL A   1      31.769  28.446  25.811  1.00  0.00     0.021 C 
BRANCH   3   4
ATOM      4  C   UNL A   1      31.596  27.136  26.562  1.00  0.00     0.116 C 
BRANCH   4   5
ATOM      5  N   UNL A   1      32.597  26.189  26.117  1.00  0.00    -0.354 N 
ATOM      6  C   UNL A   1      32.504  25.145  25.251  1.00  0.00     0.245 C 
ATOM      7  O   UNL A   1      33.565  24.565  24.996  1.00  0.00    -0.272 OA
ATOM      8  H   UNL A   1      33.492  26.322  26.506  1.00  0.00     0.163 HD
BRANCH   6   9
ATOM      9  C   UNL A   1      31.130  24.657  24.721  1.00  0.00     0.120 C 
ATOM     10  C   UNL A   1      33.006  26.426  21.392  1.00  0.00     0.007 C 
ATOM     11  C   UNL A   1      31.839  25.600  21.950  1.00  0.00    -0.014 C 
ATOM     12  C   UNL A   1      30.999  26.478  22.902  1.00  0.00     0.006 C 
ATOM     13  C   UNL A   1      32.378  24.284  22.533  1.00  0.00     0.006 C 
ATOM     14  C   UNL A   1      30.280  25.740  24.033  1.00  0.00     0.039 C 
ATOM     15  C   UNL A   1      31.460  23.651  23.579  1.00  0.00     0.039 C 
BRANCH   9  16
ATOM     16  N   UNL A   1      30.328  23.981  25.774  1.00  0.00    -0.324 N 
ATOM     17  C   UNL A   1      30.502  23.006  26.673  1.00  0.00     0.315 C 
ATOM     18  H   UNL A   1      29.418  24.355  25.825  1.00  0.00     0.166 HD
ATOM     19  O   UNL A   1      29.683  22.956  27.596  1.00  0.00    -0.249 OA
ATOM     20  N   UNL A   1      31.440  22.053  26.656  1.00  0.00    -0.333 N 
ATOM     21  H   UNL A   1      31.401  21.482  27.456  1.00  0.00     0.165 HD
BRANCH  20  22
ATOM     22  C   UNL A   1      32.498  21.653  25.754  1.00  0.00     0.112 C 
ATOM     23  C   UNL A   1      33.829  21.391  26.414  1.00  0.00     0.056 C 
ATOM     24  C   UNL A   1      32.293  20.347  24.986  1.00  0.00     0.185 C 
ATOM     25  C   UNL A   1      34.571  20.737  25.270  1.00  0.00     0.162 C 
ATOM     26  O   UNL A   1      33.612  19.884  24.624  1.00  0.00    -0.379 OA
ENDBRANCH  20  22
ENDBRANCH   9  16
ENDBRANCH   6   9
ENDBRANCH   4   5
ENDBRANCH   3   4
ENDBRANCH   2   3
ENDBRANCH   1   2
BRANCH   1  27
ATOM     27  C   UNL A   1      31.508  32.187  27.035  1.00  0.00     0.021 C 
BRANCH  27  28
ATOM     28  C   UNL A   1      32.830  32.819  27.460  1.00  0.00     0.116 C 
BRANCH  28  29
ATOM     29  N   UNL A   1      32.703  34.240  27.727  1.00  0.00    -0.352 N 
ATOM     30  C   UNL A   1      33.370  34.997  28.653  1.00  0.00     0.251 C 
ATOM     31  H   UNL A   1      32.052  34.725  27.168  1.00  0.00     0.163 HD
ATOM     32  O   UNL A   1      33.032  36.163  28.850  1.00  0.00    -0.269 OA
BRANCH  30  33
ATOM     33  C   UNL A   1      34.464  34.388  29.435  1.00  0.00     0.039 A 
ATOM     34  C   UNL A   1      34.136  33.633  30.560  1.00  0.00     0.014 A 
ATOM     35  C   UNL A   1      35.801  34.544  29.052  1.00  0.00     0.014 A 
ATOM     36  C   UNL A   1      35.149  32.996  31.277  1.00  0.00     0.010 A 
ATOM     37  C   UNL A   1      36.802  33.845  29.723  1.00  0.00     0.010 A 
ATOM     38  C   UNL A   1      36.486  33.071  30.848  1.00  0.00    -0.014 A 
BRANCH  38  39
ATOM     39  C   UNL A   1      37.542  32.329  31.582  1.00  0.00     0.031 A 
ATOM     40  C   UNL A   1      38.274  31.191  30.927  1.00  0.00     0.074 A 
ATOM     41  C   UNL A   1      37.837  32.690  32.847  1.00  0.00     0.049 A 
ATOM     42  N   UNL A   1      39.275  30.482  31.383  1.00  0.00    -0.248 NA
ATOM     43  C   UNL A   1      37.806  30.778  29.595  1.00  0.00     0.031 C 
ATOM     44  C   UNL A   1      37.147  33.739  33.605  1.00  0.00     0.029 A 
ATOM     45  N   UNL A   1      38.800  32.238  33.711  1.00  0.00    -0.354 N 
ATOM     46  C   UNL A   1      39.559  29.545  30.396  1.00  0.00     0.074 A 
ATOM     47  C   UNL A   1      38.574  29.728  29.351  1.00  0.00     0.031 C 
ATOM     48  C   UNL A   1      37.745  33.884  34.798  1.00  0.00     0.029 A 
ATOM     49  C   UNL A   1      38.833  32.918  34.907  1.00  0.00     0.049 A 
ATOM     50  H   UNL A   1      39.411  31.497  33.496  1.00  0.00     0.167 HD
ATOM     51  C   UNL A   1      40.565  28.637  30.353  1.00  0.00     0.034 A 
ATOM     52  C   UNL A   1      39.652  32.784  35.968  1.00  0.00     0.034 A 
ATOM     53  C   UNL A   1      41.537  28.470  31.408  1.00  0.00     0.049 A 
ATOM     54  C   UNL A   1      40.759  31.763  35.898  1.00  0.00     0.074 A 
ATOM     55  C   UNL A   1      42.628  27.620  31.450  1.00  0.00     0.029 A 
ATOM     56  N   UNL A   1      41.529  29.160  32.614  1.00  0.00    -0.354 N 
ATOM     57  N   UNL A   1      41.062  30.936  34.923  1.00  0.00    -0.248 NA
ATOM     58  C   UNL A   1      41.644  31.673  37.064  1.00  0.00     0.031 C 
ATOM     59  C   UNL A   1      43.232  27.740  32.707  1.00  0.00     0.029 A 
ATOM     60  C   UNL A   1      42.572  28.728  33.421  1.00  0.00     0.049 A 
ATOM     61  H   UNL A   1      40.877  29.855  32.862  1.00  0.00     0.167 HD
ATOM     62  C   UNL A   1      42.189  30.242  35.354  1.00  0.00     0.074 A 
ATOM     63  C   UNL A   1      42.529  30.776  36.657  1.00  0.00     0.031 C 
ATOM     64  C   UNL A   1      42.880  29.249  34.733  1.00  0.00     0.034 A 
BRANCH  51  65
ATOM     65  C   UNL A   1      40.645  27.743  29.135  1.00  0.00     0.023 A 
ATOM     66  C   UNL A   1      41.579  27.973  28.109  1.00  0.00     0.031 A 
ATOM     67  C   UNL A   1      39.762  26.659  28.985  1.00  0.00     0.131 A 
ATOM     68  C   UNL A   1      41.557  27.184  26.948  1.00  0.00     0.055 A 
ATOM     69  C   UNL A   1      39.801  25.824  27.866  1.00  0.00     0.041 A 
ATOM     70  F   UNL A   1      38.832  26.401  29.918  1.00  0.00    -0.206 F 
ATOM     71  C   UNL A   1      40.693  26.093  26.832  1.00  0.00     0.022 A 
BRANCH  68  72
ATOM     72  S   UNL A   1      42.572  27.692  25.533  1.00  0.00     0.124 S 
ATOM     73  O   UNL A   1      43.840  28.017  26.182  1.00  0.00    -0.237 OA
ATOM     74  O   UNL A   1      42.570  26.496  24.698  1.00  0.00    -0.237 OA
ATOM     75  O   UNL A   1      41.850  28.837  24.986  1.00  0.00    -0.744 OA
ENDBRANCH  68  72
ENDBRANCH  51  65
BRANCH  52  76
ATOM     76  C   UNL A   1      39.469  33.634  37.179  1.00  0.00     0.023 A 
ATOM     77  C   UNL A   1      38.768  33.162  38.301  1.00  0.00     0.031 A 
ATOM     78  C   UNL A   1      39.959  34.951  37.218  1.00  0.00     0.131 A 
ATOM     79  C   UNL A   1      38.530  34.015  39.389  1.00  0.00     0.055 A 
ATOM     80  C   UNL A   1      39.771  35.778  38.327  1.00  0.00     0.041 A 
ATOM     81  F   UNL A   1      40.641  35.453  36.175  1.00  0.00    -0.206 F 
ATOM     82  C   UNL A   1      39.039  35.315  39.415  1.00  0.00     0.022 A 
BRANCH  79  83
ATOM     83  S   UNL A   1      37.463  33.432  40.735  1.00  0.00     0.124 S 
ATOM     84  O   UNL A   1      36.346  32.851  40.000  1.00  0.00    -0.237 OA
ATOM     85  O   UNL A   1      38.336  32.489  41.427  1.00  0.00    -0.237 OA
ATOM     86  O   UNL A   1      37.155  34.652  41.478  1.00  0.00    -0.744 OA
ENDBRANCH  79  83
ENDBRANCH  52  76
BRANCH  64  87
ATOM     87  C   UNL A   1      44.084  28.703  35.466  1.00  0.00     0.023 A 
ATOM     88  C   UNL A   1      43.975  27.614  36.350  1.00  0.00     0.031 A 
ATOM     89  C   UNL A   1      45.343  29.310  35.321  1.00  0.00     0.131 A 
ATOM     90  C   UNL A   1      45.080  27.223  37.119  1.00  0.00     0.055 A 
ATOM     91  C   UNL A   1      46.460  28.864  36.032  1.00  0.00     0.041 A 
ATOM     92  F   UNL A   1      45.510  30.355  34.495  1.00  0.00    -0.206 F 
ATOM     93  C   UNL A   1      46.326  27.829  36.952  1.00  0.00     0.022 A 
BRANCH  90  94
ATOM     94  S   UNL A   1      44.827  26.008  38.442  1.00  0.00     0.124 S 
ATOM     95  O   UNL A   1      44.031  26.766  39.402  1.00  0.00    -0.237 OA
ATOM     96  O   UNL A   1      44.132  24.930  37.747  1.00  0.00    -0.237 OA
ATOM     97  O   UNL A   1      46.186  25.689  38.877  1.00  0.00    -0.744 OA
ENDBRANCH  90  94
ENDBRANCH  64  87
ENDBRANCH  38  39
ENDBRANCH  30  33
ENDBRANCH  28  29
ENDBRANCH  27  28
ENDBRANCH   1  27
TORSDOF 18
ENDMDL
MODEL 2
REMARK VINA RESULT:     -12.0      1.808      7.571
REMARK SMILES C[C@H]1CC[C@@](NC(=O)N[C@H]2CCOC2)(C(=O)NCCCCCCNC(=O)c2ccc(-c3c4nc(c(-c5cc(S(=O)(=O)[O-])ccc5F)c5ccc([nH]5)c(-c5cc(S(=O)(=O)[O-])ccc5F)c5nc(c(-c6cc(S(=O)(=O)[O-])ccc6F)c6ccc3[nH]6)C=C5)C=C4)cc2)CC1
REMARK SMILES IDX 21 1 20 2 19 3 18 4 17 5 15 6 16 7 5 9 1 10 2 11 91 12 3 13
REMARK SMILES IDX 90 14 4 15 6 16 7 17 8 19 9 20 10 22 11 23 14 24 12 25 13 26
REMARK SMILES IDX 22 27 23 28 24 29 25 30 26 32 27 33 28 34 89 35 29 36 88 37
REMARK SMILES IDX 30 38 31 39 32 40 82 41 33 42 87 43 81 44 83 45 34 46 86 47
REMARK SMILES IDX 80 48 79 49 35 51 67 52 47 53 66 54 48 55 51 56 65 57 84 58
REMARK SMILES IDX 49 59 50 60 64 62 85 63 52 64 36 65 37 66 45 67 38 68 44 69
REMARK SMILES IDX 46 70 43 71 39 72 40 73 41 74 42 75 68 76 69 77 77 78 70 79
REMARK SMILES IDX 76 80 78 81 75 82 71 83 72 84 73 85 74 86 53 87 54 88 62 89
REMARK SMILES IDX 55 90 61 91 63 92 60 93 56 94 57 95 58 96 59 97
REMARK H PARENT 17 8 6 18 9 21 24 31 83 50 51 61
REMARK Flexibility Score: inf
ROOT
ATOM      1  C   UNL A   1      32.070  30.289  26.105  1.00  0.00     0.002 C 
ENDROOT
BRANCH   1   2
ATOM      2  C   UNL A   1      32.689  29.255  27.051  1.00  0.00     0.002 C 
BRANCH   2   3
ATOM      3  C   UNL A   1      31.682  28.261  27.643  1.00  0.00     0.021 C 
BRANCH   3   4
ATOM      4  C   UNL A   1      31.199  27.247  26.618  1.00  0.00     0.116 C 
BRANCH   4   5
ATOM      5  N   UNL A   1      32.297  26.379  26.245  1.00  0.00    -0.354 N 
ATOM      6  C   UNL A   1      32.338  25.324  25.389  1.00  0.00     0.245 C 
ATOM      7  O   UNL A   1      33.454  24.827  25.204  1.00  0.00    -0.272 OA
ATOM      8  H   UNL A   1      33.154  26.586  26.683  1.00  0.00     0.163 HD
BRANCH   6   9
ATOM      9  C   UNL A   1      31.040  24.722  24.787  1.00  0.00     0.120 C 
ATOM     10  C   UNL A   1      32.998  26.542  21.534  1.00  0.00     0.007 C 
ATOM     11  C   UNL A   1      31.860  25.646  22.040  1.00  0.00    -0.014 C 
ATOM     12  C   UNL A   1      30.899  26.483  22.911  1.00  0.00     0.006 C 
ATOM     13  C   UNL A   1      32.453  24.389  22.695  1.00  0.00     0.006 C 
ATOM     14  C   UNL A   1      30.162  25.722  24.015  1.00  0.00     0.039 C 
ATOM     15  C   UNL A   1      31.516  23.715  23.698  1.00  0.00     0.039 C 
BRANCH   9  16
ATOM     16  N   UNL A   1      30.222  24.015  25.806  1.00  0.00    -0.324 N 
ATOM     17  C   UNL A   1      30.405  23.072  26.738  1.00  0.00     0.315 C 
ATOM     18  H   UNL A   1      29.288  24.327  25.793  1.00  0.00     0.166 HD
ATOM     19  O   UNL A   1      29.536  22.986  27.611  1.00  0.00    -0.249 OA
ATOM     20  N   UNL A   1      31.404  22.186  26.801  1.00  0.00    -0.333 N 
ATOM     21  H   UNL A   1      31.354  21.630  27.611  1.00  0.00     0.165 HD
BRANCH  20  22
ATOM     22  C   UNL A   1      32.539  21.840  25.974  1.00  0.00     0.112 C 
ATOM     23  C   UNL A   1      33.833  21.644  26.724  1.00  0.00     0.056 C 
ATOM     24  C   UNL A   1      32.453  20.526  25.197  1.00  0.00     0.185 C 
ATOM     25  C   UNL A   1      34.684  21.030  25.636  1.00  0.00     0.162 C 
ATOM     26  O   UNL A   1      33.815  20.130  24.927  1.00  0.00    -0.379 OA
ENDBRANCH  20  22
ENDBRANCH   9  16
ENDBRANCH   6   9
ENDBRANCH   4   5
ENDBRANCH   3   4
ENDBRANCH   2   3
ENDBRANCH   1   2
BRANCH   1  27
ATOM     27  C   UNL A   1      31.744  31.636  26.751  1.00  0.00     0.021 C 
BRANCH  27  28
ATOM     28  C   UNL A   1      32.959  32.402  27.268  1.00  0.00     0.116 C 
BRANCH  28  29
ATOM     29  N   UNL A   1      32.629  33.759  27.663  1.00  0.00    -0.352 N 
ATOM     30  C   UNL A   1      33.245  34.548  28.597  1.00  0.00     0.251 C 
ATOM     31  H   UNL A   1      31.862  34.167  27.197  1.00  0.00     0.163 HD
ATOM     32  O   UNL A   1      32.743  35.625  28.918  1.00  0.00    -0.269 OA
BRANCH  30  33
ATOM     33  C   UNL A   1      34.487  34.077  29.242  1.00  0.00     0.039 A 
ATOM     34  C   UNL A   1      34.383  33.247  30.357  1.00  0.00     0.014 A 
ATOM     35  C   UNL A   1      35.743  34.432  28.738  1.00  0.00     0.014 A 
ATOM     36  C   UNL A   1      35.541  32.738  30.942  1.00  0.00     0.010 A 
ATOM     37  C   UNL A   1      36.894  33.861  29.276  1.00  0.00     0.010 A 
ATOM     38  C   UNL A   1      36.805  33.015  30.390  1.00  0.00    -0.014 A 
BRANCH  38  39
ATOM     39  C   UNL A   1      38.022  32.407  30.984  1.00  0.00     0.031 A 
ATOM     40  C   UNL A   1      38.610  32.956  32.254  1.00  0.00     0.074 A 
ATOM     41  C   UNL A   1      38.594  31.352  30.369  1.00  0.00     0.049 A 
ATOM     42  N   UNL A   1      39.618  32.508  32.957  1.00  0.00    -0.248 NA
ATOM     43  C   UNL A   1      38.003  34.183  32.792  1.00  0.00     0.031 C 
ATOM     44  C   UNL A   1      38.145  30.776  29.097  1.00  0.00     0.029 A 
ATOM     45  N   UNL A   1      39.656  30.565  30.732  1.00  0.00    -0.354 N 
ATOM     46  C   UNL A   1      39.764  33.393  34.021  1.00  0.00     0.074 A 
ATOM     47  C   UNL A   1      38.789  34.444  33.825  1.00  0.00     0.031 C 
ATOM     48  C   UNL A   1      38.892  29.696  28.818  1.00  0.00     0.029 A 
ATOM     49  C   UNL A   1      39.894  29.525  29.864  1.00  0.00     0.049 A 
ATOM     50  H   UNL A   1      40.196  30.729  31.539  1.00  0.00     0.167 HD
ATOM     51  C   UNL A   1      40.612  33.318  35.077  1.00  0.00     0.034 A 
ATOM     52  C   UNL A   1      40.811  28.539  29.911  1.00  0.00     0.034 A 
ATOM     53  C   UNL A   1      41.578  32.259  35.252  1.00  0.00     0.049 A 
ATOM     54  C   UNL A   1      41.746  28.481  31.091  1.00  0.00     0.074 A 
ATOM     55  C   UNL A   1      42.451  32.053  36.306  1.00  0.00     0.029 A 
ATOM     56  N   UNL A   1      41.808  31.232  34.344  1.00  0.00    -0.354 N 
ATOM     57  N   UNL A   1      41.819  29.283  32.130  1.00  0.00    -0.248 NA
ATOM     58  C   UNL A   1      42.707  27.373  31.114  1.00  0.00     0.031 C 
ATOM     59  C   UNL A   1      43.257  30.951  36.001  1.00  0.00     0.029 A 
ATOM     60  C   UNL A   1      42.832  30.413  34.796  1.00  0.00     0.049 A 
ATOM     61  H   UNL A   1      41.315  31.104  33.501  1.00  0.00     0.167 HD
ATOM     62  C   UNL A   1      42.824  28.761  32.940  1.00  0.00     0.074 A 
ATOM     63  C   UNL A   1      43.297  27.557  32.286  1.00  0.00     0.031 C 
ATOM     64  C   UNL A   1      43.316  29.233  34.116  1.00  0.00     0.034 A 
BRANCH  51  65
ATOM     65  C   UNL A   1      40.542  34.424  36.105  1.00  0.00     0.023 A 
ATOM     66  C   UNL A   1      41.603  35.329  36.292  1.00  0.00     0.031 A 
ATOM     67  C   UNL A   1      39.410  34.565  36.927  1.00  0.00     0.131 A 
ATOM     68  C   UNL A   1      41.544  36.279  37.323  1.00  0.00     0.055 A 
ATOM     69  C   UNL A   1      39.321  35.568  37.895  1.00  0.00     0.041 A 
ATOM     70  F   UNL A   1      38.373  33.720  36.814  1.00  0.00    -0.206 F 
ATOM     71  C   UNL A   1      40.398  36.424  38.108  1.00  0.00     0.022 A 
BRANCH  68  72
ATOM     72  S   UNL A   1      43.040  37.225  37.720  1.00  0.00     0.124 S 
ATOM     73  O   UNL A   1      43.981  36.159  38.058  1.00  0.00    -0.237 OA
ATOM     74  O   UNL A   1      43.302  37.938  36.474  1.00  0.00    -0.237 OA
ATOM     75  O   UNL A   1      42.629  38.062  38.844  1.00  0.00    -0.744 OA
ENDBRANCH  68  72
ENDBRANCH  51  65
BRANCH  52  76
ATOM     76  C   UNL A   1      40.891  27.525  28.820  1.00  0.00     0.023 A 
ATOM     77  C   UNL A   1      41.877  27.604  27.823  1.00  0.00     0.031 A 
ATOM     78  C   UNL A   1      39.953  26.482  28.735  1.00  0.00     0.131 A 
ATOM     79  C   UNL A   1      41.870  26.692  26.757  1.00  0.00     0.055 A 
ATOM     80  C   UNL A   1      39.985  25.540  27.704  1.00  0.00     0.041 A 
ATOM     81  F   UNL A   1      38.991  26.355  29.664  1.00  0.00    -0.206 F 
ATOM     82  C   UNL A   1      40.940  25.652  26.699  1.00  0.00     0.022 A 
BRANCH  79  83
ATOM     83  S   UNL A   1      43.041  26.939  25.393  1.00  0.00     0.124 S 
ATOM     84  O   UNL A   1      42.375  27.976  24.613  1.00  0.00    -0.237 OA
ATOM     85  O   UNL A   1      44.250  27.346  26.102  1.00  0.00    -0.237 OA
ATOM     86  O   UNL A   1      43.106  25.624  24.759  1.00  0.00    -0.744 OA
ENDBRANCH  79  83
ENDBRANCH  52  76
BRANCH  64  87
ATOM     87  C   UNL A   1      44.411  28.419  34.766  1.00  0.00     0.023 A 
ATOM     88  C   UNL A   1      44.126  27.451  35.746  1.00  0.00     0.031 A 
ATOM     89  C   UNL A   1      45.759  28.651  34.441  1.00  0.00     0.131 A 
ATOM     90  C   UNL A   1      45.173  26.816  36.428  1.00  0.00     0.055 A 
ATOM     91  C   UNL A   1      46.796  27.956  35.069  1.00  0.00     0.041 A 
ATOM     92  F   UNL A   1      46.095  29.564  33.516  1.00  0.00    -0.206 F 
ATOM     93  C   UNL A   1      46.506  27.049  36.083  1.00  0.00     0.022 A 
BRANCH  90  94
ATOM     94  S   UNL A   1      44.771  25.790  37.869  1.00  0.00     0.124 S 
ATOM     95  O   UNL A   1      43.813  24.843  37.308  1.00  0.00    -0.237 OA
ATOM     96  O   UNL A   1      46.072  25.241  38.234  1.00  0.00    -0.237 OA
ATOM     97  O   UNL A   1      44.211  26.746  38.824  1.00  0.00    -0.744 OA
ENDBRANCH  90  94
ENDBRANCH  64  87
ENDBRANCH  38  39
ENDBRANCH  30  33
ENDBRANCH  28  29
ENDBRANCH  27  28
ENDBRANCH   1  27
TORSDOF 18
ENDMDL
MODEL 3
REMARK VINA RESULT:     -11.9      1.635      7.654
REMARK SMILES C[C@H]1CC[C@@](NC(=O)N[C@H]2CCOC2)(C(=O)NCCCCCCNC(=O)c2ccc(-c3c4nc(c(-c5cc(S(=O)(=O)[O-])ccc5F)c5ccc([nH]5)c(-c5cc(S(=O)(=O)[O-])ccc5F)c5nc(c(-c6cc(S(=O)(=O)[O-])ccc6F)c6ccc3[nH]6)C=C5)C=C4)cc2)CC1
REMARK SMILES IDX 21 1 20 2 19 3 18 4 17 5 15 6 16 7 5 9 1 10 2 11 91 12 3 13
REMARK SMILES IDX 90 14 4 15 6 16 7 17 8 19 9 20 10 22 11 23 14 24 12 25 13 26
REMARK SMILES IDX 22 27 23 28 24 29 25 30 26 32 27 33 28 34 89 35 29 36 88 37
REMARK SMILES IDX 30 38 31 39 32 40 82 41 33 42 87 43 81 44 83 45 34 46 86 47
REMARK SMILES IDX 80 48 79 49 35 51 67 52 47 53 66 54 48 55 51 56 65 57 84 58
REMARK SMILES IDX 49 59 50 60 64 62 85 63 52 64 36 65 37 66 45 67 38 68 44 69
REMARK SMILES IDX 46 70 43 71 39 72 40 73 41 74 42 75 68 76 69 77 77 78 70 79
REMARK SMILES IDX 76 80 78 81 75 82 71 83 72 84 73 85 74 86 53 87 54 88 62 89
REMARK SMILES IDX 55 90 61 91 63 92 60 93 56 94 57 95 58 96 59 97
REMARK H PARENT 17 8 6 18 9 21 24 31 83 50 51 61
REMARK Flexibility Score: inf
ROOT
ATOM      1  C   UNL A   1      31.861  30.108  25.975  1.00  0.00     0.002 C 
ENDROOT
BRANCH   1   2
ATOM      2  C   UNL A   1      32.630  29.246  26.981  1.00  0.00     0.002 C 
BRANCH   2   3
ATOM      3  C   UNL A   1      31.774  28.187  27.687  1.00  0.00     0.021 C 
BRANCH   3   4
ATOM      4  C   UNL A   1      31.236  27.142  26.723  1.00  0.00     0.116 C 
BRANCH   4   5
ATOM      5  N   UNL A   1      32.326  26.308  26.258  1.00  0.00    -0.354 N 
ATOM      6  C   UNL A   1      32.344  25.308  25.338  1.00  0.00     0.245 C 
ATOM      7  O   UNL A   1      33.456  24.834  25.084  1.00  0.00    -0.272 OA
ATOM      8  H   UNL A   1      33.197  26.497  26.677  1.00  0.00     0.163 HD
BRANCH   6   9
ATOM      9  C   UNL A   1      31.030  24.732  24.747  1.00  0.00     0.120 C 
ATOM     10  C   UNL A   1      32.992  26.523  21.480  1.00  0.00     0.007 C 
ATOM     11  C   UNL A   1      31.842  25.648  21.995  1.00  0.00    -0.014 C 
ATOM     12  C   UNL A   1      30.904  26.500  22.875  1.00  0.00     0.006 C 
ATOM     13  C   UNL A   1      32.417  24.378  22.641  1.00  0.00     0.006 C 
ATOM     14  C   UNL A   1      30.163  25.751  23.985  1.00  0.00     0.039 C 
ATOM     15  C   UNL A   1      31.477  23.720  23.651  1.00  0.00     0.039 C 
BRANCH   9  16
ATOM     16  N   UNL A   1      30.208  24.038  25.771  1.00  0.00    -0.324 N 
ATOM     17  C   UNL A   1      30.387  23.105  26.713  1.00  0.00     0.315 C 
ATOM     18  H   UNL A   1      29.274  24.352  25.752  1.00  0.00     0.166 HD
ATOM     19  O   UNL A   1      29.515  23.030  27.585  1.00  0.00    -0.249 OA
ATOM     20  N   UNL A   1      31.383  22.217  26.788  1.00  0.00    -0.333 N 
ATOM     21  H   UNL A   1      31.330  21.670  27.604  1.00  0.00     0.165 HD
BRANCH  20  22
ATOM     22  C   UNL A   1      32.520  21.860  25.969  1.00  0.00     0.112 C 
ATOM     23  C   UNL A   1      33.815  21.683  26.722  1.00  0.00     0.056 C 
ATOM     24  C   UNL A   1      32.438  20.532  25.216  1.00  0.00     0.185 C 
ATOM     25  C   UNL A   1      34.668  21.052  25.645  1.00  0.00     0.162 C 
ATOM     26  O   UNL A   1      33.802  20.136  24.953  1.00  0.00    -0.379 OA
ENDBRANCH  20  22
ENDBRANCH   9  16
ENDBRANCH   6   9
ENDBRANCH   4   5
ENDBRANCH   3   4
ENDBRANCH   2   3
ENDBRANCH   1   2
BRANCH   1  27
ATOM     27  C   UNL A   1      31.671  31.567  26.394  1.00  0.00     0.021 C 
BRANCH  27  28
ATOM     28  C   UNL A   1      32.813  32.143  27.225  1.00  0.00     0.116 C 
BRANCH  28  29
ATOM     29  N   UNL A   1      32.563  33.513  27.635  1.00  0.00    -0.352 N 
ATOM     30  C   UNL A   1      33.243  34.264  28.556  1.00  0.00     0.251 C 
ATOM     31  H   UNL A   1      31.805  33.961  27.193  1.00  0.00     0.163 HD
ATOM     32  O   UNL A   1      32.804  35.363  28.895  1.00  0.00    -0.269 OA
BRANCH  30  33
ATOM     33  C   UNL A   1      34.477  33.728  29.163  1.00  0.00     0.039 A 
ATOM     34  C   UNL A   1      34.365  32.704  30.102  1.00  0.00     0.014 A 
ATOM     35  C   UNL A   1      35.736  34.215  28.794  1.00  0.00     0.014 A 
ATOM     36  C   UNL A   1      35.520  32.138  30.640  1.00  0.00     0.010 A 
ATOM     37  C   UNL A   1      36.888  33.596  29.274  1.00  0.00     0.010 A 
ATOM     38  C   UNL A   1      36.791  32.558  30.210  1.00  0.00    -0.014 A 
BRANCH  38  39
ATOM     39  C   UNL A   1      38.009  31.896  30.741  1.00  0.00     0.031 A 
ATOM     40  C   UNL A   1      38.541  32.250  32.102  1.00  0.00     0.074 A 
ATOM     41  C   UNL A   1      38.632  30.968  29.987  1.00  0.00     0.049 A 
ATOM     42  N   UNL A   1      39.542  31.723  32.760  1.00  0.00    -0.248 NA
ATOM     43  C   UNL A   1      37.880  33.359  32.806  1.00  0.00     0.031 C 
ATOM     44  C   UNL A   1      38.241  30.590  28.625  1.00  0.00     0.029 A 
ATOM     45  N   UNL A   1      39.707  30.162  30.257  1.00  0.00    -0.354 N 
ATOM     46  C   UNL A   1      39.627  32.430  33.955  1.00  0.00     0.074 A 
ATOM     47  C   UNL A   1      38.626  33.473  33.894  1.00  0.00     0.031 C 
ATOM     48  C   UNL A   1      39.029  29.589  28.204  1.00  0.00     0.029 A 
ATOM     49  C   UNL A   1      40.005  29.280  29.244  1.00  0.00     0.049 A 
ATOM     50  H   UNL A   1      40.218  30.209  31.098  1.00  0.00     0.167 HD
ATOM     51  C   UNL A   1      40.445  32.210  35.014  1.00  0.00     0.034 A 
ATOM     52  C   UNL A   1      40.951  28.325  29.165  1.00  0.00     0.034 A 
ATOM     53  C   UNL A   1      41.439  31.164  35.052  1.00  0.00     0.049 A 
ATOM     54  C   UNL A   1      41.851  28.104  30.353  1.00  0.00     0.074 A 
ATOM     55  C   UNL A   1      42.286  30.815  36.090  1.00  0.00     0.029 A 
ATOM     56  N   UNL A   1      41.729  30.301  34.001  1.00  0.00    -0.354 N 
ATOM     57  N   UNL A   1      41.868  28.732  31.508  1.00  0.00    -0.248 NA
ATOM     58  C   UNL A   1      42.847  27.033  30.233  1.00  0.00     0.031 C 
ATOM     59  C   UNL A   1      43.136  29.798  35.641  1.00  0.00     0.029 A 
ATOM     60  C   UNL A   1      42.765  29.448  34.352  1.00  0.00     0.049 A 
ATOM     61  H   UNL A   1      41.265  30.296  33.132  1.00  0.00     0.167 HD
ATOM     62  C   UNL A   1      42.864  28.114  32.259  1.00  0.00     0.074 A 
ATOM     63  C   UNL A   1      43.395  27.043  31.439  1.00  0.00     0.031 C 
ATOM     64  C   UNL A   1      43.305  28.405  33.511  1.00  0.00     0.034 A 
BRANCH  51  65
ATOM     65  C   UNL A   1      40.310  33.136  36.202  1.00  0.00     0.023 A 
ATOM     66  C   UNL A   1      39.601  32.759  37.357  1.00  0.00     0.031 A 
ATOM     67  C   UNL A   1      40.877  34.423  36.173  1.00  0.00     0.131 A 
ATOM     68  C   UNL A   1      39.412  33.680  38.398  1.00  0.00     0.055 A 
ATOM     69  C   UNL A   1      40.757  35.306  37.249  1.00  0.00     0.041 A 
ATOM     70  F   UNL A   1      41.545  34.851  35.091  1.00  0.00    -0.206 F 
ATOM     71  C   UNL A   1      40.009  34.942  38.365  1.00  0.00     0.022 A 
BRANCH  68  72
ATOM     72  S   UNL A   1      38.253  33.260  39.730  1.00  0.00     0.124 S 
ATOM     73  O   UNL A   1      37.039  32.952  38.977  1.00  0.00    -0.237 OA
ATOM     74  O   UNL A   1      38.911  32.130  40.375  1.00  0.00    -0.237 OA
ATOM     75  O   UNL A   1      38.189  34.483  40.527  1.00  0.00    -0.744 OA
ENDBRANCH  68  72
ENDBRANCH  51  65
BRANCH  52  76
ATOM     76  C   UNL A   1      41.095  27.500  27.931  1.00  0.00     0.023 A 
ATOM     77  C   UNL A   1      40.676  26.160  27.896  1.00  0.00     0.031 A 
ATOM     78  C   UNL A   1      41.696  28.030  26.775  1.00  0.00     0.131 A 
ATOM     79  C   UNL A   1      40.911  25.382  26.753  1.00  0.00     0.055 A 
ATOM     80  C   UNL A   1      41.874  27.269  25.619  1.00  0.00     0.041 A 
ATOM     81  F   UNL A   1      42.111  29.308  26.750  1.00  0.00    -0.206 F 
ATOM     82  C   UNL A   1      41.493  25.931  25.609  1.00  0.00     0.022 A 
BRANCH  79  83
ATOM     83  S   UNL A   1      40.526  23.610  26.813  1.00  0.00     0.124 S 
ATOM     84  O   UNL A   1      41.564  23.050  25.956  1.00  0.00    -0.237 OA
ATOM     85  O   UNL A   1      40.648  23.323  28.239  1.00  0.00    -0.237 OA
ATOM     86  O   UNL A   1      39.167  23.538  26.279  1.00  0.00    -0.744 OA
ENDBRANCH  79  83
ENDBRANCH  52  76
BRANCH  64  87
ATOM     87  C   UNL A   1      44.407  27.528  34.061  1.00  0.00     0.023 A 
ATOM     88  C   UNL A   1      44.121  26.366  34.800  1.00  0.00     0.031 A 
ATOM     89  C   UNL A   1      45.756  27.885  33.890  1.00  0.00     0.131 A 
ATOM     90  C   UNL A   1      45.161  25.654  35.414  1.00  0.00     0.055 A 
ATOM     91  C   UNL A   1      46.792  27.126  34.438  1.00  0.00     0.041 A 
ATOM     92  F   UNL A   1      46.091  28.985  33.197  1.00  0.00    -0.206 F 
ATOM     93  C   UNL A   1      46.496  26.016  35.223  1.00  0.00     0.022 A 
BRANCH  90  94
ATOM     94  S   UNL A   1      44.734  24.334  36.583  1.00  0.00     0.124 S 
ATOM     95  O   UNL A   1      43.988  23.408  35.736  1.00  0.00    -0.237 OA
ATOM     96  O   UNL A   1      46.045  23.875  37.029  1.00  0.00    -0.237 OA
ATOM     97  O   UNL A   1      43.939  25.022  37.600  1.00  0.00    -0.744 OA
ENDBRANCH  90  94
ENDBRANCH  64  87
ENDBRANCH  38  39
ENDBRANCH  30  33
ENDBRANCH  28  29
ENDBRANCH  27  28
ENDBRANCH   1  27
TORSDOF 18
ENDMDL
