MODEL 1
REMARK VINA RESULT:     -12.4      0.000      0.000
REMARK SMILES O=C(NCCCCCCNC(=O)[C@@H]1[C@H](C(=O)NCc2ccncc2)[C@H]2C=C[C@@H]1O2)c1ccc(-c2c3nc(c(-c4cc(S(=O)(=O)[O-])ccc4F)c4ccc([nH]4)c(-c4cc(S(=O)(=O)[O-])ccc4F)c4nc(c(-c5cc(S(=O)(=O)[O-])ccc5F)c5ccc2[nH]5)C=C4)C=C3)cc1
REMARK SMILES IDX 6 1 5 2 4 3 3 4 1 5 2 6 30 8 31 9 92 10 32 11 91 12 33 13
REMARK SMILES IDX 34 14 35 15 85 16 36 17 90 18 84 19 86 20 37 21 89 22 83 23
REMARK SMILES IDX 82 24 38 26 70 27 50 28 69 29 51 30 54 31 68 32 87 33 52 34
REMARK SMILES IDX 53 35 67 37 88 38 55 39 39 40 40 41 48 42 41 43 47 44 49 45
REMARK SMILES IDX 46 46 42 47 43 48 44 49 45 50 71 51 72 52 80 53 73 54 79 55
REMARK SMILES IDX 81 56 78 57 74 58 75 59 76 60 77 61 56 62 57 63 65 64 58 65
REMARK SMILES IDX 64 66 66 67 63 68 59 69 60 70 61 71 62 72 7 73 8 74 9 75
REMARK SMILES IDX 10 76 11 77 12 79 13 80 14 81 28 82 25 83 27 84 29 85 26 86
REMARK SMILES IDX 15 87 16 88 17 89 18 91 19 92 20 93 24 94 21 95 23 96 22 97
REMARK H PARENT 3 7 86 25 54 36 10 78 17 90
REMARK Flexibility Score: inf
ROOT
ATOM      1  C   UNL A   1      32.024  27.765  26.915  1.00  0.00     0.002 C 
ENDROOT
BRANCH   1   2
ATOM      2  C   UNL A   1      31.589  29.226  26.962  1.00  0.00     0.021 C 
BRANCH   2   3
ATOM      3  C   UNL A   1      32.503  30.171  26.205  1.00  0.00     0.116 C 
BRANCH   3   4
ATOM      4  N   UNL A   1      32.250  31.571  26.525  1.00  0.00    -0.352 N 
ATOM      5  O   UNL A   1      32.542  33.526  27.619  1.00  0.00    -0.269 OA
ATOM      6  C   UNL A   1      32.980  32.426  27.322  1.00  0.00     0.251 C 
ATOM      7  H   UNL A   1      31.444  31.960  26.114  1.00  0.00     0.163 HD
BRANCH   6   8
ATOM      8  C   UNL A   1      34.293  31.974  27.833  1.00  0.00     0.039 A 
ATOM      9  C   UNL A   1      34.456  30.654  28.252  1.00  0.00     0.014 A 
ATOM     10  C   UNL A   1      35.345  32.887  27.951  1.00  0.00     0.014 A 
ATOM     11  C   UNL A   1      35.585  30.304  28.974  1.00  0.00     0.010 A 
ATOM     12  C   UNL A   1      36.536  32.490  28.569  1.00  0.00     0.010 A 
ATOM     13  C   UNL A   1      36.649  31.208  29.130  1.00  0.00    -0.014 A 
BRANCH  13  14
ATOM     14  C   UNL A   1      37.864  30.758  29.859  1.00  0.00     0.031 A 
ATOM     15  C   UNL A   1      38.109  31.151  31.292  1.00  0.00     0.074 A 
ATOM     16  C   UNL A   1      38.715  29.923  29.229  1.00  0.00     0.049 A 
ATOM     17  N   UNL A   1      39.099  30.818  32.080  1.00  0.00    -0.248 NA
ATOM     18  C   UNL A   1      37.126  32.047  31.918  1.00  0.00     0.031 C 
ATOM     19  C   UNL A   1      38.577  29.478  27.838  1.00  0.00     0.029 A 
ATOM     20  N   UNL A   1      39.831  29.265  29.673  1.00  0.00    -0.354 N 
ATOM     21  C   UNL A   1      38.883  31.491  33.279  1.00  0.00     0.074 A 
ATOM     22  C   UNL A   1      37.673  32.269  33.104  1.00  0.00     0.031 C 
ATOM     23  C   UNL A   1      39.511  28.556  27.574  1.00  0.00     0.029 A 
ATOM     24  C   UNL A   1      40.374  28.413  28.739  1.00  0.00     0.049 A 
ATOM     25  H   UNL A   1      40.207  29.389  30.574  1.00  0.00     0.167 HD
ATOM     26  C   UNL A   1      39.626  31.460  34.415  1.00  0.00     0.034 A 
ATOM     27  C   UNL A   1      41.456  27.616  28.803  1.00  0.00     0.034 A 
ATOM     28  C   UNL A   1      40.816  30.655  34.573  1.00  0.00     0.049 A 
ATOM     29  C   UNL A   1      42.255  27.595  30.074  1.00  0.00     0.074 A 
ATOM     30  C   UNL A   1      41.634  30.531  35.684  1.00  0.00     0.029 A 
ATOM     31  N   UNL A   1      41.359  29.835  33.591  1.00  0.00    -0.354 N 
ATOM     32  N   UNL A   1      42.043  28.250  31.192  1.00  0.00    -0.248 NA
ATOM     33  C   UNL A   1      43.440  26.732  30.091  1.00  0.00     0.031 C 
ATOM     34  C   UNL A   1      42.700  29.683  35.355  1.00  0.00     0.029 A 
ATOM     35  C   UNL A   1      42.511  29.220  34.063  1.00  0.00     0.049 A 
ATOM     36  H   UNL A   1      40.983  29.708  32.691  1.00  0.00     0.167 HD
ATOM     37  C   UNL A   1      43.063  27.866  32.053  1.00  0.00     0.074 A 
ATOM     38  C   UNL A   1      43.872  26.902  31.331  1.00  0.00     0.031 C 
ATOM     39  C   UNL A   1      43.315  28.275  33.323  1.00  0.00     0.034 A 
BRANCH  26  40
ATOM     40  C   UNL A   1      39.204  32.368  35.549  1.00  0.00     0.023 A 
ATOM     41  C   UNL A   1      39.643  33.701  35.644  1.00  0.00     0.031 A 
ATOM     42  C   UNL A   1      38.369  31.879  36.570  1.00  0.00     0.131 A 
ATOM     43  C   UNL A   1      39.304  34.472  36.768  1.00  0.00     0.055 A 
ATOM     44  C   UNL A   1      37.972  32.676  37.646  1.00  0.00     0.041 A 
ATOM     45  F   UNL A   1      37.934  30.609  36.548  1.00  0.00    -0.206 F 
ATOM     46  C   UNL A   1      38.452  33.977  37.757  1.00  0.00     0.022 A 
BRANCH  43  47
ATOM     47  S   UNL A   1      40.109  36.083  36.990  1.00  0.00     0.124 S 
ATOM     48  O   UNL A   1      41.496  35.692  37.230  1.00  0.00    -0.237 OA
ATOM     49  O   UNL A   1      39.845  36.746  35.718  1.00  0.00    -0.237 OA
ATOM     50  O   UNL A   1      39.423  36.655  38.147  1.00  0.00    -0.744 OA
ENDBRANCH  43  47
ENDBRANCH  26  40
BRANCH  27  51
ATOM     51  C   UNL A   1      41.857  26.800  27.622  1.00  0.00     0.023 A 
ATOM     52  C   UNL A   1      41.581  25.426  27.562  1.00  0.00     0.031 A 
ATOM     53  C   UNL A   1      42.532  27.386  26.535  1.00  0.00     0.131 A 
ATOM     54  C   UNL A   1      42.005  24.676  26.453  1.00  0.00     0.055 A 
ATOM     55  C   UNL A   1      42.904  26.648  25.412  1.00  0.00     0.041 A 
ATOM     56  F   UNL A   1      42.814  28.699  26.539  1.00  0.00    -0.206 F 
ATOM     57  C   UNL A   1      42.651  25.281  25.372  1.00  0.00     0.022 A 
BRANCH  54  58
ATOM     58  S   UNL A   1      41.763  22.880  26.476  1.00  0.00     0.124 S 
ATOM     59  O   UNL A   1      40.310  22.774  26.537  1.00  0.00    -0.237 OA
ATOM     60  O   UNL A   1      42.384  22.475  25.220  1.00  0.00    -0.237 OA
ATOM     61  O   UNL A   1      42.471  22.457  27.683  1.00  0.00    -0.744 OA
ENDBRANCH  54  58
ENDBRANCH  27  51
BRANCH  39  62
ATOM     62  C   UNL A   1      44.496  27.639  34.010  1.00  0.00     0.023 A 
ATOM     63  C   UNL A   1      44.366  26.447  34.746  1.00  0.00     0.031 A 
ATOM     64  C   UNL A   1      45.756  28.259  33.969  1.00  0.00     0.131 A 
ATOM     65  C   UNL A   1      45.460  25.952  35.469  1.00  0.00     0.055 A 
ATOM     66  C   UNL A   1      46.857  27.728  34.641  1.00  0.00     0.041 A 
ATOM     67  F   UNL A   1      45.933  29.400  33.284  1.00  0.00    -0.206 F 
ATOM     68  C   UNL A   1      46.709  26.577  35.410  1.00  0.00     0.022 A 
BRANCH  65  69
ATOM     69  S   UNL A   1      45.201  24.543  36.582  1.00  0.00     0.124 S 
ATOM     70  O   UNL A   1      44.691  25.197  37.784  1.00  0.00    -0.237 OA
ATOM     71  O   UNL A   1      44.240  23.733  35.841  1.00  0.00    -0.237 OA
ATOM     72  O   UNL A   1      46.534  23.959  36.713  1.00  0.00    -0.744 OA
ENDBRANCH  65  69
ENDBRANCH  39  62
ENDBRANCH  13  14
ENDBRANCH   6   8
ENDBRANCH   3   4
ENDBRANCH   2   3
ENDBRANCH   1   2
BRANCH   1  73
ATOM     73  C   UNL A   1      33.436  27.500  26.389  1.00  0.00     0.002 C 
BRANCH  73  74
ATOM     74  C   UNL A   1      33.531  26.483  25.247  1.00  0.00     0.021 C 
BRANCH  74  75
ATOM     75  C   UNL A   1      33.322  25.028  25.667  1.00  0.00     0.116 C 
BRANCH  75  76
ATOM     76  N   UNL A   1      32.637  24.259  24.634  1.00  0.00    -0.356 N 
ATOM     77  C   UNL A   1      32.967  23.238  23.811  1.00  0.00     0.227 C 
ATOM     78  H   UNL A   1      31.708  24.556  24.505  1.00  0.00     0.163 HD
ATOM     79  O   UNL A   1      32.039  22.796  23.119  1.00  0.00    -0.275 OA
BRANCH  77  80
ATOM     80  C   UNL A   1      34.337  22.603  23.643  1.00  0.00     0.127 C 
ATOM     81  C   UNL A   1      34.745  21.677  24.823  1.00  0.00     0.127 C 
ATOM     82  C   UNL A   1      35.583  23.474  23.531  1.00  0.00     0.155 C 
ATOM     83  C   UNL A   1      36.016  22.368  25.351  1.00  0.00     0.155 C 
ATOM     84  C   UNL A   1      36.835  22.679  23.262  1.00  0.00     0.004 C 
ATOM     85  O   UNL A   1      35.793  23.749  24.941  1.00  0.00    -0.365 OA
ATOM     86  C   UNL A   1      37.131  22.039  24.401  1.00  0.00     0.004 C 
BRANCH  81  87
ATOM     87  C   UNL A   1      33.807  21.200  25.915  1.00  0.00     0.227 C 
ATOM     88  O   UNL A   1      33.989  21.612  27.070  1.00  0.00    -0.275 OA
ATOM     89  N   UNL A   1      32.715  20.430  25.748  1.00  0.00    -0.352 N 
ATOM     90  H   UNL A   1      32.131  20.407  26.541  1.00  0.00     0.163 HD
BRANCH  89  91
ATOM     91  C   UNL A   1      32.220  19.630  24.654  1.00  0.00     0.151 C 
BRANCH  91  92
ATOM     92  C   UNL A   1      32.834  18.245  24.616  1.00  0.00    -0.026 A 
ATOM     93  C   UNL A   1      33.459  17.815  23.443  1.00  0.00     0.025 A 
ATOM     94  C   UNL A   1      32.814  17.353  25.696  1.00  0.00     0.025 A 
ATOM     95  C   UNL A   1      34.061  16.564  23.412  1.00  0.00     0.111 A 
ATOM     96  C   UNL A   1      33.428  16.114  25.564  1.00  0.00     0.111 A 
ATOM     97  N   UNL A   1      34.062  15.704  24.448  1.00  0.00    -0.265 NA
ENDBRANCH  91  92
ENDBRANCH  89  91
ENDBRANCH  81  87
ENDBRANCH  77  80
ENDBRANCH  75  76
ENDBRANCH  74  75
ENDBRANCH  73  74
ENDBRANCH   1  73
TORSDOF 19
ENDMDL
MODEL 2
REMARK VINA RESULT:     -12.0      4.950     10.726
REMARK SMILES O=C(NCCCCCCNC(=O)[C@@H]1[C@H](C(=O)NCc2ccncc2)[C@H]2C=C[C@@H]1O2)c1ccc(-c2c3nc(c(-c4cc(S(=O)(=O)[O-])ccc4F)c4ccc([nH]4)c(-c4cc(S(=O)(=O)[O-])ccc4F)c4nc(c(-c5cc(S(=O)(=O)[O-])ccc5F)c5ccc2[nH]5)C=C4)C=C3)cc1
REMARK SMILES IDX 6 1 5 2 4 3 3 4 1 5 2 6 30 8 31 9 92 10 32 11 91 12 33 13
REMARK SMILES IDX 34 14 35 15 85 16 36 17 90 18 84 19 86 20 37 21 89 22 83 23
REMARK SMILES IDX 82 24 38 26 70 27 50 28 69 29 51 30 54 31 68 32 87 33 52 34
REMARK SMILES IDX 53 35 67 37 88 38 55 39 39 40 40 41 48 42 41 43 47 44 49 45
REMARK SMILES IDX 46 46 42 47 43 48 44 49 45 50 71 51 72 52 80 53 73 54 79 55
REMARK SMILES IDX 81 56 78 57 74 58 75 59 76 60 77 61 56 62 57 63 65 64 58 65
REMARK SMILES IDX 64 66 66 67 63 68 59 69 60 70 61 71 62 72 7 73 8 74 9 75
REMARK SMILES IDX 10 76 11 77 12 79 13 80 14 81 28 82 25 83 27 84 29 85 26 86
REMARK SMILES IDX 15 87 16 88 17 89 18 91 19 92 20 93 24 94 21 95 23 96 22 97
REMARK H PARENT 3 7 86 25 54 36 10 78 17 90
REMARK Flexibility Score: inf
ROOT
ATOM      1  C   UNL A   1      34.841  22.135  24.204  1.00  0.00     0.002 C 
ENDROOT
BRANCH   1   2
ATOM      2  C   UNL A   1      35.581  21.346  25.279  1.00  0.00     0.021 C 
BRANCH   2   3
ATOM      3  C   UNL A   1      36.962  21.884  25.605  1.00  0.00     0.116 C 
BRANCH   3   4
ATOM      4  N   UNL A   1      37.965  20.830  25.703  1.00  0.00    -0.352 N 
ATOM      5  O   UNL A   1      40.035  19.965  25.968  1.00  0.00    -0.269 OA
ATOM      6  C   UNL A   1      39.283  20.917  26.097  1.00  0.00     0.251 C 
ATOM      7  H   UNL A   1      37.656  19.929  25.453  1.00  0.00     0.163 HD
BRANCH   6   8
ATOM      8  C   UNL A   1      39.774  22.196  26.655  1.00  0.00     0.039 A 
ATOM      9  C   UNL A   1      39.311  23.403  26.131  1.00  0.00     0.014 A 
ATOM     10  C   UNL A   1      40.745  22.189  27.659  1.00  0.00     0.014 A 
ATOM     11  C   UNL A   1      39.963  24.581  26.457  1.00  0.00     0.010 A 
ATOM     12  C   UNL A   1      41.311  23.398  28.079  1.00  0.00     0.010 A 
ATOM     13  C   UNL A   1      40.960  24.601  27.447  1.00  0.00    -0.014 A 
BRANCH  13  14
ATOM     14  C   UNL A   1      41.581  25.905  27.805  1.00  0.00     0.031 A 
ATOM     15  C   UNL A   1      42.959  26.274  27.324  1.00  0.00     0.074 A 
ATOM     16  C   UNL A   1      40.850  26.788  28.514  1.00  0.00     0.049 A 
ATOM     17  N   UNL A   1      43.631  27.381  27.518  1.00  0.00    -0.248 NA
ATOM     18  C   UNL A   1      43.686  25.267  26.537  1.00  0.00     0.031 C 
ATOM     19  C   UNL A   1      39.502  26.534  29.035  1.00  0.00     0.029 A 
ATOM     20  N   UNL A   1      41.105  28.082  28.885  1.00  0.00    -0.354 N 
ATOM     21  C   UNL A   1      44.871  27.191  26.915  1.00  0.00     0.074 A 
ATOM     22  C   UNL A   1      44.863  25.851  26.365  1.00  0.00     0.031 C 
ATOM     23  C   UNL A   1      39.017  27.660  29.573  1.00  0.00     0.029 A 
ATOM     24  C   UNL A   1      40.048  28.687  29.525  1.00  0.00     0.049 A 
ATOM     25  H   UNL A   1      41.961  28.535  28.708  1.00  0.00     0.167 HD
ATOM     26  C   UNL A   1      45.914  28.056  26.832  1.00  0.00     0.034 A 
ATOM     27  C   UNL A   1      39.925  29.927  30.036  1.00  0.00     0.034 A 
ATOM     28  C   UNL A   1      45.888  29.399  27.368  1.00  0.00     0.049 A 
ATOM     29  C   UNL A   1      41.092  30.865  29.922  1.00  0.00     0.074 A 
ATOM     30  C   UNL A   1      46.877  30.366  27.323  1.00  0.00     0.029 A 
ATOM     31  N   UNL A   1      44.815  29.964  28.047  1.00  0.00    -0.354 N 
ATOM     32  N   UNL A   1      42.262  30.663  29.361  1.00  0.00    -0.248 NA
ATOM     33  C   UNL A   1      40.924  32.196  30.514  1.00  0.00     0.031 C 
ATOM     34  C   UNL A   1      46.425  31.493  28.023  1.00  0.00     0.029 A 
ATOM     35  C   UNL A   1      45.126  31.258  28.443  1.00  0.00     0.049 A 
ATOM     36  H   UNL A   1      43.957  29.513  28.222  1.00  0.00     0.167 HD
ATOM     37  C   UNL A   1      42.967  31.850  29.521  1.00  0.00     0.074 A 
ATOM     38  C   UNL A   1      42.077  32.769  30.205  1.00  0.00     0.031 C 
ATOM     39  C   UNL A   1      44.234  32.153  29.141  1.00  0.00     0.034 A 
BRANCH  26  40
ATOM     40  C   UNL A   1      47.188  27.553  26.190  1.00  0.00     0.023 A 
ATOM     41  C   UNL A   1      48.224  26.969  26.941  1.00  0.00     0.031 A 
ATOM     42  C   UNL A   1      47.379  27.687  24.803  1.00  0.00     0.131 A 
ATOM     43  C   UNL A   1      49.428  26.609  26.312  1.00  0.00     0.055 A 
ATOM     44  C   UNL A   1      48.548  27.254  24.172  1.00  0.00     0.041 A 
ATOM     45  F   UNL A   1      46.435  28.255  24.035  1.00  0.00    -0.206 F 
ATOM     46  C   UNL A   1      49.588  26.725  24.930  1.00  0.00     0.022 A 
BRANCH  43  47
ATOM     47  S   UNL A   1      50.835  26.119  27.348  1.00  0.00     0.124 S 
ATOM     48  O   UNL A   1      50.220  26.046  28.671  1.00  0.00    -0.237 OA
ATOM     49  O   UNL A   1      51.233  24.846  26.759  1.00  0.00    -0.237 OA
ATOM     50  O   UNL A   1      51.789  27.214  27.172  1.00  0.00    -0.744 OA
ENDBRANCH  43  47
ENDBRANCH  26  40
BRANCH  27  51
ATOM     51  C   UNL A   1      38.665  30.334  30.719  1.00  0.00     0.023 A 
ATOM     52  C   UNL A   1      37.653  31.018  30.028  1.00  0.00     0.031 A 
ATOM     53  C   UNL A   1      38.459  30.051  32.082  1.00  0.00     0.131 A 
ATOM     54  C   UNL A   1      36.495  31.423  30.709  1.00  0.00     0.055 A 
ATOM     55  C   UNL A   1      37.283  30.408  32.741  1.00  0.00     0.041 A 
ATOM     56  F   UNL A   1      39.394  29.393  32.787  1.00  0.00    -0.206 F 
ATOM     57  C   UNL A   1      36.297  31.109  32.056  1.00  0.00     0.022 A 
BRANCH  54  58
ATOM     58  S   UNL A   1      35.277  32.432  29.824  1.00  0.00     0.124 S 
ATOM     59  O   UNL A   1      34.841  31.521  28.772  1.00  0.00    -0.237 OA
ATOM     60  O   UNL A   1      34.301  32.716  30.871  1.00  0.00    -0.237 OA
ATOM     61  O   UNL A   1      36.054  33.583  29.370  1.00  0.00    -0.744 OA
ENDBRANCH  54  58
ENDBRANCH  27  51
BRANCH  39  62
ATOM     62  C   UNL A   1      44.702  33.556  29.432  1.00  0.00     0.023 A 
ATOM     63  C   UNL A   1      44.526  34.599  28.506  1.00  0.00     0.031 A 
ATOM     64  C   UNL A   1      45.378  33.841  30.631  1.00  0.00     0.131 A 
ATOM     65  C   UNL A   1      45.081  35.860  28.762  1.00  0.00     0.055 A 
ATOM     66  C   UNL A   1      45.875  35.114  30.908  1.00  0.00     0.041 A 
ATOM     67  F   UNL A   1      45.576  32.881  31.548  1.00  0.00    -0.206 F 
ATOM     68  C   UNL A   1      45.743  36.129  29.964  1.00  0.00     0.022 A 
BRANCH  65  69
ATOM     69  S   UNL A   1      45.029  37.116  27.453  1.00  0.00     0.124 S 
ATOM     70  O   UNL A   1      43.676  36.953  26.931  1.00  0.00    -0.237 OA
ATOM     71  O   UNL A   1      45.282  38.348  28.194  1.00  0.00    -0.237 OA
ATOM     72  O   UNL A   1      46.098  36.709  26.543  1.00  0.00    -0.744 OA
ENDBRANCH  65  69
ENDBRANCH  39  62
ENDBRANCH  13  14
ENDBRANCH   6   8
ENDBRANCH   3   4
ENDBRANCH   2   3
ENDBRANCH   1   2
BRANCH   1  73
ATOM     73  C   UNL A   1      35.218  23.612  24.074  1.00  0.00     0.002 C 
BRANCH  73  74
ATOM     74  C   UNL A   1      34.331  24.587  24.855  1.00  0.00     0.021 C 
BRANCH  74  75
ATOM     75  C   UNL A   1      33.694  25.690  24.008  1.00  0.00     0.116 C 
BRANCH  75  76
ATOM     76  N   UNL A   1      32.259  25.484  23.842  1.00  0.00    -0.356 N 
ATOM     77  C   UNL A   1      31.138  26.086  24.301  1.00  0.00     0.227 C 
ATOM     78  H   UNL A   1      32.058  24.722  23.253  1.00  0.00     0.163 HD
ATOM     79  O   UNL A   1      30.076  25.647  23.837  1.00  0.00    -0.275 OA
BRANCH  77  80
ATOM     80  C   UNL A   1      31.053  27.211  25.319  1.00  0.00     0.127 C 
ATOM     81  C   UNL A   1      31.526  28.586  24.771  1.00  0.00     0.127 C 
ATOM     82  C   UNL A   1      31.851  27.139  26.616  1.00  0.00     0.155 C 
ATOM     83  C   UNL A   1      32.710  28.913  25.700  1.00  0.00     0.155 C 
ATOM     84  C   UNL A   1      31.561  28.288  27.549  1.00  0.00     0.004 C 
ATOM     85  O   UNL A   1      33.138  27.583  26.112  1.00  0.00    -0.365 OA
ATOM     86  C   UNL A   1      32.137  29.371  27.010  1.00  0.00     0.004 C 
BRANCH  81  87
ATOM     87  C   UNL A   1      31.791  28.891  23.309  1.00  0.00     0.227 C 
ATOM     88  O   UNL A   1      32.967  28.962  22.925  1.00  0.00    -0.275 OA
ATOM     89  N   UNL A   1      30.865  29.009  22.339  1.00  0.00    -0.352 N 
ATOM     90  H   UNL A   1      31.249  29.001  21.432  1.00  0.00     0.163 HD
BRANCH  89  91
ATOM     91  C   UNL A   1      29.428  29.146  22.346  1.00  0.00     0.151 C 
BRANCH  91  92
ATOM     92  C   UNL A   1      28.977  30.589  22.236  1.00  0.00    -0.026 A 
ATOM     93  C   UNL A   1      28.424  31.033  21.032  1.00  0.00     0.025 A 
ATOM     94  C   UNL A   1      29.084  31.522  23.275  1.00  0.00     0.025 A 
ATOM     95  C   UNL A   1      27.970  32.342  20.933  1.00  0.00     0.111 A 
ATOM     96  C   UNL A   1      28.618  32.815  23.076  1.00  0.00     0.111 A 
ATOM     97  N   UNL A   1      28.052  33.244  21.931  1.00  0.00    -0.265 NA
ENDBRANCH  91  92
ENDBRANCH  89  91
ENDBRANCH  81  87
ENDBRANCH  77  80
ENDBRANCH  75  76
ENDBRANCH  74  75
ENDBRANCH  73  74
ENDBRANCH   1  73
TORSDOF 19
ENDMDL
MODEL 3
REMARK VINA RESULT:     -11.8      1.939      2.794
REMARK SMILES O=C(NCCCCCCNC(=O)[C@@H]1[C@H](C(=O)NCc2ccncc2)[C@H]2C=C[C@@H]1O2)c1ccc(-c2c3nc(c(-c4cc(S(=O)(=O)[O-])ccc4F)c4ccc([nH]4)c(-c4cc(S(=O)(=O)[O-])ccc4F)c4nc(c(-c5cc(S(=O)(=O)[O-])ccc5F)c5ccc2[nH]5)C=C4)C=C3)cc1
REMARK SMILES IDX 6 1 5 2 4 3 3 4 1 5 2 6 30 8 31 9 92 10 32 11 91 12 33 13
REMARK SMILES IDX 34 14 35 15 85 16 36 17 90 18 84 19 86 20 37 21 89 22 83 23
REMARK SMILES IDX 82 24 38 26 70 27 50 28 69 29 51 30 54 31 68 32 87 33 52 34
REMARK SMILES IDX 53 35 67 37 88 38 55 39 39 40 40 41 48 42 41 43 47 44 49 45
REMARK SMILES IDX 46 46 42 47 43 48 44 49 45 50 71 51 72 52 80 53 73 54 79 55
REMARK SMILES IDX 81 56 78 57 74 58 75 59 76 60 77 61 56 62 57 63 65 64 58 65
REMARK SMILES IDX 64 66 66 67 63 68 59 69 60 70 61 71 62 72 7 73 8 74 9 75
REMARK SMILES IDX 10 76 11 77 12 79 13 80 14 81 28 82 25 83 27 84 29 85 26 86
REMARK SMILES IDX 15 87 16 88 17 89 18 91 19 92 20 93 24 94 21 95 23 96 22 97
REMARK H PARENT 3 7 86 25 54 36 10 78 17 90
REMARK Flexibility Score: inf
ROOT
ATOM      1  C   UNL A   1      32.034  27.874  26.716  1.00  0.00     0.002 C 
ENDROOT
BRANCH   1   2
ATOM      2  C   UNL A   1      33.523  27.600  26.529  1.00  0.00     0.021 C 
BRANCH   2   3
ATOM      3  C   UNL A   1      34.310  28.781  25.992  1.00  0.00     0.116 C 
BRANCH   3   4
ATOM      4  N   UNL A   1      33.757  30.061  26.415  1.00  0.00    -0.352 N 
ATOM      5  O   UNL A   1      33.497  31.856  27.764  1.00  0.00    -0.269 OA
ATOM      6  C   UNL A   1      34.170  30.892  27.434  1.00  0.00     0.251 C 
ATOM      7  H   UNL A   1      32.979  30.377  25.901  1.00  0.00     0.163 HD
BRANCH   6   8
ATOM      8  C   UNL A   1      35.433  30.579  28.139  1.00  0.00     0.039 A 
ATOM      9  C   UNL A   1      36.629  31.147  27.700  1.00  0.00     0.014 A 
ATOM     10  C   UNL A   1      35.431  29.669  29.199  1.00  0.00     0.014 A 
ATOM     11  C   UNL A   1      37.832  30.651  28.176  1.00  0.00     0.010 A 
ATOM     12  C   UNL A   1      36.646  29.267  29.765  1.00  0.00     0.010 A 
ATOM     13  C   UNL A   1      37.861  29.718  29.226  1.00  0.00    -0.014 A 
BRANCH  13  14
ATOM     14  C   UNL A   1      39.182  29.268  29.742  1.00  0.00     0.031 A 
ATOM     15  C   UNL A   1      39.767  29.844  31.004  1.00  0.00     0.074 A 
ATOM     16  C   UNL A   1      39.816  28.272  29.091  1.00  0.00     0.049 A 
ATOM     17  N   UNL A   1      40.889  29.539  31.605  1.00  0.00    -0.248 NA
ATOM     18  C   UNL A   1      39.006  30.912  31.669  1.00  0.00     0.031 C 
ATOM     19  C   UNL A   1      39.341  27.641  27.856  1.00  0.00     0.029 A 
ATOM     20  N   UNL A   1      40.963  27.584  29.389  1.00  0.00    -0.354 N 
ATOM     21  C   UNL A   1      40.990  30.401  32.695  1.00  0.00     0.074 A 
ATOM     22  C   UNL A   1      39.820  31.255  32.656  1.00  0.00     0.031 C 
ATOM     23  C   UNL A   1      40.135  26.606  27.554  1.00  0.00     0.029 A 
ATOM     24  C   UNL A   1      41.229  26.556  28.515  1.00  0.00     0.049 A 
ATOM     25  H   UNL A   1      41.540  27.805  30.156  1.00  0.00     0.167 HD
ATOM     26  C   UNL A   1      41.967  30.469  33.634  1.00  0.00     0.034 A 
ATOM     27  C   UNL A   1      42.248  25.679  28.476  1.00  0.00     0.034 A 
ATOM     28  C   UNL A   1      43.113  29.587  33.665  1.00  0.00     0.049 A 
ATOM     29  C   UNL A   1      43.312  25.772  29.532  1.00  0.00     0.074 A 
ATOM     30  C   UNL A   1      44.152  29.552  34.579  1.00  0.00     0.029 A 
ATOM     31  N   UNL A   1      43.370  28.583  32.739  1.00  0.00    -0.354 N 
ATOM     32  N   UNL A   1      43.397  26.602  30.546  1.00  0.00    -0.248 NA
ATOM     33  C   UNL A   1      44.417  24.813  29.438  1.00  0.00     0.031 C 
ATOM     34  C   UNL A   1      45.064  28.569  34.175  1.00  0.00     0.029 A 
ATOM     35  C   UNL A   1      44.560  27.939  33.048  1.00  0.00     0.049 A 
ATOM     36  H   UNL A   1      42.792  28.360  31.974  1.00  0.00     0.167 HD
ATOM     37  C   UNL A   1      44.562  26.256  31.220  1.00  0.00     0.074 A 
ATOM     38  C   UNL A   1      45.127  25.123  30.511  1.00  0.00     0.031 C 
ATOM     39  C   UNL A   1      45.118  26.823  32.320  1.00  0.00     0.034 A 
BRANCH  26  40
ATOM     40  C   UNL A   1      41.868  31.570  34.666  1.00  0.00     0.023 A 
ATOM     41  C   UNL A   1      40.925  31.536  35.708  1.00  0.00     0.031 A 
ATOM     42  C   UNL A   1      42.718  32.689  34.587  1.00  0.00     0.131 A 
ATOM     43  C   UNL A   1      40.806  32.630  36.582  1.00  0.00     0.055 A 
ATOM     44  C   UNL A   1      42.647  33.737  35.507  1.00  0.00     0.041 A 
ATOM     45  F   UNL A   1      43.625  32.789  33.603  1.00  0.00    -0.206 F 
ATOM     46  C   UNL A   1      41.676  33.719  36.504  1.00  0.00     0.022 A 
BRANCH  43  47
ATOM     47  S   UNL A   1      39.403  32.673  37.733  1.00  0.00     0.124 S 
ATOM     48  O   UNL A   1      38.673  31.465  37.358  1.00  0.00    -0.237 OA
ATOM     49  O   UNL A   1      40.061  32.642  39.034  1.00  0.00    -0.237 OA
ATOM     50  O   UNL A   1      38.727  33.927  37.405  1.00  0.00    -0.744 OA
ENDBRANCH  43  47
ENDBRANCH  26  40
BRANCH  27  51
ATOM     51  C   UNL A   1      42.322  24.662  27.388  1.00  0.00     0.023 A 
ATOM     52  C   UNL A   1      41.551  23.491  27.436  1.00  0.00     0.031 A 
ATOM     53  C   UNL A   1      43.176  24.847  26.285  1.00  0.00     0.131 A 
ATOM     54  C   UNL A   1      41.671  22.535  26.416  1.00  0.00     0.055 A 
ATOM     55  C   UNL A   1      43.252  23.919  25.247  1.00  0.00     0.041 A 
ATOM     56  F   UNL A   1      43.930  25.954  26.188  1.00  0.00    -0.206 F 
ATOM     57  C   UNL A   1      42.505  22.748  25.316  1.00  0.00     0.022 A 
BRANCH  54  58
ATOM     58  S   UNL A   1      40.773  20.969  26.585  1.00  0.00     0.124 S 
ATOM     59  O   UNL A   1      41.598  20.064  25.793  1.00  0.00    -0.237 OA
ATOM     60  O   UNL A   1      40.797  20.762  28.028  1.00  0.00    -0.237 OA
ATOM     61  O   UNL A   1      39.458  21.269  26.022  1.00  0.00    -0.744 OA
ENDBRANCH  54  58
ENDBRANCH  27  51
BRANCH  39  62
ATOM     62  C   UNL A   1      46.384  26.187  32.834  1.00  0.00     0.023 A 
ATOM     63  C   UNL A   1      46.354  25.118  33.748  1.00  0.00     0.031 A 
ATOM     64  C   UNL A   1      47.637  26.690  32.443  1.00  0.00     0.131 A 
ATOM     65  C   UNL A   1      47.550  24.634  34.294  1.00  0.00     0.055 A 
ATOM     66  C   UNL A   1      48.827  26.162  32.943  1.00  0.00     0.041 A 
ATOM     67  F   UNL A   1      47.722  27.711  31.576  1.00  0.00    -0.206 F 
ATOM     68  C   UNL A   1      48.789  25.139  33.887  1.00  0.00     0.022 A 
BRANCH  65  69
ATOM     69  S   UNL A   1      47.464  23.411  35.631  1.00  0.00     0.124 S 
ATOM     70  O   UNL A   1      48.232  22.301  35.076  1.00  0.00    -0.237 OA
ATOM     71  O   UNL A   1      48.085  24.123  36.744  1.00  0.00    -0.237 OA
ATOM     72  O   UNL A   1      46.031  23.161  35.777  1.00  0.00    -0.744 OA
ENDBRANCH  65  69
ENDBRANCH  39  62
ENDBRANCH  13  14
ENDBRANCH   6   8
ENDBRANCH   3   4
ENDBRANCH   2   3
ENDBRANCH   1   2
BRANCH   1  73
ATOM     73  C   UNL A   1      31.080  26.808  26.174  1.00  0.00     0.002 C 
BRANCH  73  74
ATOM     74  C   UNL A   1      31.281  26.434  24.702  1.00  0.00     0.021 C 
BRANCH  74  75
ATOM     75  C   UNL A   1      31.088  24.950  24.387  1.00  0.00     0.116 C 
BRANCH  75  76
ATOM     76  N   UNL A   1      31.483  24.103  25.506  1.00  0.00    -0.356 N 
ATOM     77  C   UNL A   1      32.644  23.566  25.947  1.00  0.00     0.227 C 
ATOM     78  H   UNL A   1      30.720  23.862  26.078  1.00  0.00     0.163 HD
ATOM     79  O   UNL A   1      32.568  22.958  27.025  1.00  0.00    -0.275 OA
BRANCH  77  80
ATOM     80  C   UNL A   1      33.998  23.619  25.261  1.00  0.00     0.127 C 
ATOM     81  C   UNL A   1      34.132  22.633  24.066  1.00  0.00     0.127 C 
ATOM     82  C   UNL A   1      35.269  23.292  26.035  1.00  0.00     0.155 C 
ATOM     83  C   UNL A   1      35.294  21.732  24.522  1.00  0.00     0.155 C 
ATOM     84  C   UNL A   1      36.523  23.501  25.223  1.00  0.00     0.004 C 
ATOM     85  O   UNL A   1      35.204  21.843  25.972  1.00  0.00    -0.365 OA
ATOM     86  C   UNL A   1      36.565  22.508  24.326  1.00  0.00     0.004 C 
BRANCH  81  87
ATOM     87  C   UNL A   1      32.979  21.876  23.434  1.00  0.00     0.227 C 
ATOM     88  O   UNL A   1      32.501  22.307  22.375  1.00  0.00    -0.275 OA
ATOM     89  N   UNL A   1      32.462  20.709  23.861  1.00  0.00    -0.352 N 
ATOM     90  H   UNL A   1      31.867  20.284  23.202  1.00  0.00     0.163 HD
BRANCH  89  91
ATOM     91  C   UNL A   1      32.595  19.948  25.081  1.00  0.00     0.151 C 
BRANCH  91  92
ATOM     92  C   UNL A   1      32.979  18.504  24.832  1.00  0.00    -0.026 A 
ATOM     93  C   UNL A   1      32.683  17.549  25.807  1.00  0.00     0.025 A 
ATOM     94  C   UNL A   1      33.624  18.057  23.671  1.00  0.00     0.025 A 
ATOM     95  C   UNL A   1      32.993  16.216  25.570  1.00  0.00     0.111 A 
ATOM     96  C   UNL A   1      33.911  16.705  23.532  1.00  0.00     0.111 A 
ATOM     97  N   UNL A   1      33.598  15.771  24.452  1.00  0.00    -0.265 NA
ENDBRANCH  91  92
ENDBRANCH  89  91
ENDBRANCH  81  87
ENDBRANCH  77  80
ENDBRANCH  75  76
ENDBRANCH  74  75
ENDBRANCH  73  74
ENDBRANCH   1  73
TORSDOF 19
ENDMDL
