MODEL 1
REMARK VINA RESULT:     -11.5      0.000      0.000
REMARK SMILES CC(C)c1cc(OCC(=O)NCCCCCCNC(=O)c2ccc(-c3c4nc(c(-c5cc(S(=O)(=O)[O-])ccc5F)c5ccc([nH]5)c(-c5cc(S(=O)(=O)[O-])ccc5F)c5nc(c(-c6cc(S(=O)(=O)[O-])ccc6F)c6ccc3[nH]6)C=C5)C=C4)cc2)nc(Nc2ccc(F)cc2F)n1
REMARK SMILES IDX 14 1 13 2 12 3 11 4 9 5 10 6 8 8 7 9 6 10 4 11 5 12 95 13
REMARK SMILES IDX 85 14 84 15 2 16 1 17 3 18 86 19 87 21 88 22 93 23 89 24
REMARK SMILES IDX 92 25 94 26 90 27 91 28 15 29 16 30 17 31 18 32 19 33 20 35
REMARK SMILES IDX 21 36 22 37 83 38 23 39 82 40 24 41 25 42 26 43 76 44 27 45
REMARK SMILES IDX 81 46 75 47 77 48 28 49 80 50 74 51 73 52 29 54 61 55 41 56
REMARK SMILES IDX 60 57 42 58 45 59 59 60 78 61 43 62 44 63 58 65 79 66 46 67
REMARK SMILES IDX 30 68 31 69 39 70 32 71 38 72 40 73 37 74 33 75 34 76 35 77
REMARK SMILES IDX 36 78 62 79 63 80 71 81 64 82 70 83 72 84 69 85 65 86 66 87
REMARK SMILES IDX 67 88 68 89 47 90 48 91 56 92 49 93 55 94 57 95 54 96 50 97
REMARK SMILES IDX 51 98 52 99 53 100
REMARK H PARENT 11 7 86 20 18 34 77 53 45 64
REMARK Flexibility Score: inf
ROOT
ATOM      1  C   UNL A   1      31.907  29.059  24.447  1.00  0.00     0.002 C 
ENDROOT
BRANCH   1   2
ATOM      2  C   UNL A   1      30.675  29.093  23.531  1.00  0.00     0.021 C 
BRANCH   2   3
ATOM      3  C   UNL A   1      30.535  27.884  22.608  1.00  0.00     0.116 C 
BRANCH   3   4
ATOM      4  N   UNL A   1      31.798  27.534  21.987  1.00  0.00    -0.353 N 
ATOM      5  C   UNL A   1      32.613  26.480  22.267  1.00  0.00     0.258 C 
ATOM      6  O   UNL A   1      33.663  26.351  21.633  1.00  0.00    -0.271 OA
ATOM      7  H   UNL A   1      32.105  28.135  21.271  1.00  0.00     0.163 HD
BRANCH   5   8
ATOM      8  C   UNL A   1      32.203  25.462  23.342  1.00  0.00     0.331 C 
BRANCH   8   9
ATOM      9  O   UNL A   1      31.911  24.137  22.933  1.00  0.00    -0.467 OA
BRANCH   9  10
ATOM     10  C   UNL A   1      32.725  23.130  23.366  1.00  0.00     0.218 A 
ATOM     11  C   UNL A   1      34.654  22.185  24.311  1.00  0.00     0.052 A 
ATOM     12  C   UNL A   1      34.021  23.296  23.801  1.00  0.00     0.092 A 
ATOM     13  N   UNL A   1      34.061  20.980  24.268  1.00  0.00    -0.217 NA
ATOM     14  C   UNL A   1      32.814  20.883  23.784  1.00  0.00     0.230 A 
ATOM     15  N   UNL A   1      32.120  21.931  23.330  1.00  0.00    -0.177 NA
BRANCH  11  16
ATOM     16  C   UNL A   1      36.061  22.239  24.886  1.00  0.00     0.032 C 
ATOM     17  C   UNL A   1      36.737  20.865  25.001  1.00  0.00     0.014 C 
ATOM     18  C   UNL A   1      36.974  23.160  24.060  1.00  0.00     0.014 C 
ENDBRANCH  11  16
BRANCH  14  19
ATOM     19  N   UNL A   1      32.232  19.627  23.634  1.00  0.00    -0.322 N 
ATOM     20  H   UNL A   1      31.390  19.599  23.125  1.00  0.00     0.170 HD
BRANCH  19  21
ATOM     21  C   UNL A   1      32.698  18.400  24.119  1.00  0.00     0.077 A 
ATOM     22  C   UNL A   1      32.455  18.052  25.456  1.00  0.00     0.032 A 
ATOM     23  C   UNL A   1      33.301  17.438  23.287  1.00  0.00     0.149 A 
ATOM     24  C   UNL A   1      32.788  16.781  25.932  1.00  0.00     0.041 A 
ATOM     25  C   UNL A   1      33.652  16.178  23.758  1.00  0.00     0.080 A 
ATOM     26  F   UNL A   1      33.600  17.736  22.012  1.00  0.00    -0.205 F 
ATOM     27  C   UNL A   1      33.380  15.857  25.078  1.00  0.00     0.126 A 
ATOM     28  F   UNL A   1      33.686  14.636  25.537  1.00  0.00    -0.207 F 
ENDBRANCH  19  21
ENDBRANCH  14  19
ENDBRANCH   9  10
ENDBRANCH   8   9
ENDBRANCH   5   8
ENDBRANCH   3   4
ENDBRANCH   2   3
ENDBRANCH   1   2
BRANCH   1  29
ATOM     29  C   UNL A   1      31.693  28.412  25.819  1.00  0.00     0.002 C 
BRANCH  29  30
ATOM     30  C   UNL A   1      32.960  27.884  26.496  1.00  0.00     0.021 C 
BRANCH  30  31
ATOM     31  C   UNL A   1      34.164  28.816  26.416  1.00  0.00     0.116 C 
BRANCH  31  32
ATOM     32  N   UNL A   1      33.847  30.161  26.870  1.00  0.00    -0.352 N 
ATOM     33  C   UNL A   1      34.486  30.934  27.808  1.00  0.00     0.251 C 
ATOM     34  H   UNL A   1      33.063  30.576  26.444  1.00  0.00     0.163 HD
ATOM     35  O   UNL A   1      33.954  31.966  28.210  1.00  0.00    -0.269 OA
BRANCH  33  36
ATOM     36  C   UNL A   1      35.795  30.508  28.353  1.00  0.00     0.039 A 
ATOM     37  C   UNL A   1      35.826  29.745  29.523  1.00  0.00     0.014 A 
ATOM     38  C   UNL A   1      36.988  30.856  27.713  1.00  0.00     0.014 A 
ATOM     39  C   UNL A   1      37.049  29.278  30.014  1.00  0.00     0.010 A 
ATOM     40  C   UNL A   1      38.196  30.326  28.159  1.00  0.00     0.010 A 
ATOM     41  C   UNL A   1      38.241  29.532  29.316  1.00  0.00    -0.014 A 
BRANCH  41  42
ATOM     42  C   UNL A   1      39.539  28.973  29.780  1.00  0.00     0.031 A 
ATOM     43  C   UNL A   1      40.301  29.649  30.890  1.00  0.00     0.074 A 
ATOM     44  C   UNL A   1      40.058  27.890  29.166  1.00  0.00     0.049 A 
ATOM     45  N   UNL A   1      41.474  29.352  31.388  1.00  0.00    -0.248 NA
ATOM     46  C   UNL A   1      39.671  30.829  31.499  1.00  0.00     0.031 C 
ATOM     47  C   UNL A   1      39.430  27.167  28.057  1.00  0.00     0.029 A 
ATOM     48  N   UNL A   1      41.230  27.209  29.379  1.00  0.00    -0.354 N 
ATOM     49  C   UNL A   1      41.728  30.314  32.359  1.00  0.00     0.074 A 
ATOM     50  C   UNL A   1      40.615  31.238  32.335  1.00  0.00     0.031 C 
ATOM     51  C   UNL A   1      40.207  26.129  27.711  1.00  0.00     0.029 A 
ATOM     52  C   UNL A   1      41.415  26.140  28.532  1.00  0.00     0.049 A 
ATOM     53  H   UNL A   1      41.880  27.462  30.075  1.00  0.00     0.167 HD
ATOM     54  C   UNL A   1      42.784  30.406  33.207  1.00  0.00     0.034 A 
ATOM     55  C   UNL A   1      42.443  25.277  28.417  1.00  0.00     0.034 A 
ATOM     56  C   UNL A   1      43.883  29.470  33.223  1.00  0.00     0.049 A 
ATOM     57  C   UNL A   1      43.626  25.427  29.343  1.00  0.00     0.074 A 
ATOM     58  C   UNL A   1      44.971  29.437  34.078  1.00  0.00     0.029 A 
ATOM     59  N   UNL A   1      44.043  28.412  32.339  1.00  0.00    -0.354 N 
ATOM     60  N   UNL A   1      43.825  26.311  30.293  1.00  0.00    -0.248 NA
ATOM     61  C   UNL A   1      44.717  24.457  29.186  1.00  0.00     0.031 C 
ATOM     62  C   UNL A   1      45.828  28.414  33.658  1.00  0.00     0.029 A 
ATOM     63  C   UNL A   1      45.232  27.746  32.602  1.00  0.00     0.049 A 
ATOM     64  H   UNL A   1      43.405  28.168  31.629  1.00  0.00     0.167 HD
ATOM     65  C   UNL A   1      45.047  25.977  30.872  1.00  0.00     0.074 A 
ATOM     66  C   UNL A   1      45.530  24.805  30.173  1.00  0.00     0.031 C 
ATOM     67  C   UNL A   1      45.708  26.582  31.891  1.00  0.00     0.034 A 
BRANCH  54  68
ATOM     68  C   UNL A   1      42.814  31.577  34.162  1.00  0.00     0.023 A 
ATOM     69  C   UNL A   1      42.310  31.481  35.471  1.00  0.00     0.031 A 
ATOM     70  C   UNL A   1      43.344  32.814  33.754  1.00  0.00     0.131 A 
ATOM     71  C   UNL A   1      42.278  32.616  36.296  1.00  0.00     0.055 A 
ATOM     72  C   UNL A   1      43.389  33.917  34.609  1.00  0.00     0.041 A 
ATOM     73  F   UNL A   1      43.820  32.977  32.508  1.00  0.00    -0.206 F 
ATOM     74  C   UNL A   1      42.839  33.826  35.885  1.00  0.00     0.022 A 
BRANCH  71  75
ATOM     75  S   UNL A   1      41.360  32.526  37.857  1.00  0.00     0.124 S 
ATOM     76  O   UNL A   1      40.066  32.015  37.409  1.00  0.00    -0.237 OA
ATOM     77  O   UNL A   1      42.170  31.607  38.648  1.00  0.00    -0.237 OA
ATOM     78  O   UNL A   1      41.345  33.910  38.327  1.00  0.00    -0.744 OA
ENDBRANCH  71  75
ENDBRANCH  54  68
BRANCH  55  79
ATOM     79  C   UNL A   1      42.422  24.201  27.382  1.00  0.00     0.023 A 
ATOM     80  C   UNL A   1      41.807  22.965  27.638  1.00  0.00     0.031 A 
ATOM     81  C   UNL A   1      43.065  24.371  26.143  1.00  0.00     0.131 A 
ATOM     82  C   UNL A   1      41.896  21.928  26.695  1.00  0.00     0.055 A 
ATOM     83  C   UNL A   1      43.095  23.358  25.182  1.00  0.00     0.041 A 
ATOM     84  F   UNL A   1      43.669  25.531  25.844  1.00  0.00    -0.206 F 
ATOM     85  C   UNL A   1      42.522  22.122  25.462  1.00  0.00     0.022 A 
BRANCH  82  86
ATOM     86  S   UNL A   1      41.273  20.287  27.149  1.00  0.00     0.124 S 
ATOM     87  O   UNL A   1      42.497  19.493  27.139  1.00  0.00    -0.237 OA
ATOM     88  O   UNL A   1      40.681  20.538  28.458  1.00  0.00    -0.237 OA
ATOM     89  O   UNL A   1      40.320  19.979  26.084  1.00  0.00    -0.744 OA
ENDBRANCH  82  86
ENDBRANCH  55  79
BRANCH  67  90
ATOM     90  C   UNL A   1      47.002  25.948  32.346  1.00  0.00     0.023 A 
ATOM     91  C   UNL A   1      48.223  26.195  31.692  1.00  0.00     0.031 A 
ATOM     92  C   UNL A   1      47.011  25.076  33.449  1.00  0.00     0.131 A 
ATOM     93  C   UNL A   1      49.386  25.529  32.107  1.00  0.00     0.055 A 
ATOM     94  C   UNL A   1      48.185  24.472  33.902  1.00  0.00     0.041 A 
ATOM     95  F   UNL A   1      45.875  24.799  34.111  1.00  0.00    -0.206 F 
ATOM     96  C   UNL A   1      49.378  24.685  33.221  1.00  0.00     0.022 A 
BRANCH  93  97
ATOM     97  S   UNL A   1      50.891  25.700  31.109  1.00  0.00     0.124 S 
ATOM     98  O   UNL A   1      51.211  27.113  31.280  1.00  0.00    -0.237 OA
ATOM     99  O   UNL A   1      51.801  24.757  31.753  1.00  0.00    -0.237 OA
ATOM    100  O   UNL A   1      50.457  25.320  29.766  1.00  0.00    -0.744 OA
ENDBRANCH  93  97
ENDBRANCH  67  90
ENDBRANCH  41  42
ENDBRANCH  33  36
ENDBRANCH  31  32
ENDBRANCH  30  31
ENDBRANCH  29  30
ENDBRANCH   1  29
TORSDOF 21
ENDMDL
MODEL 2
REMARK VINA RESULT:     -11.5      4.050      8.983
REMARK SMILES CC(C)c1cc(OCC(=O)NCCCCCCNC(=O)c2ccc(-c3c4nc(c(-c5cc(S(=O)(=O)[O-])ccc5F)c5ccc([nH]5)c(-c5cc(S(=O)(=O)[O-])ccc5F)c5nc(c(-c6cc(S(=O)(=O)[O-])ccc6F)c6ccc3[nH]6)C=C5)C=C4)cc2)nc(Nc2ccc(F)cc2F)n1
REMARK SMILES IDX 14 1 13 2 12 3 11 4 9 5 10 6 8 8 7 9 6 10 4 11 5 12 95 13
REMARK SMILES IDX 85 14 84 15 2 16 1 17 3 18 86 19 87 21 88 22 93 23 89 24
REMARK SMILES IDX 92 25 94 26 90 27 91 28 15 29 16 30 17 31 18 32 19 33 20 35
REMARK SMILES IDX 21 36 22 37 83 38 23 39 82 40 24 41 25 42 26 43 76 44 27 45
REMARK SMILES IDX 81 46 75 47 77 48 28 49 80 50 74 51 73 52 29 54 61 55 41 56
REMARK SMILES IDX 60 57 42 58 45 59 59 60 78 61 43 62 44 63 58 65 79 66 46 67
REMARK SMILES IDX 30 68 31 69 39 70 32 71 38 72 40 73 37 74 33 75 34 76 35 77
REMARK SMILES IDX 36 78 62 79 63 80 71 81 64 82 70 83 72 84 69 85 65 86 66 87
REMARK SMILES IDX 67 88 68 89 47 90 48 91 56 92 49 93 55 94 57 95 54 96 50 97
REMARK SMILES IDX 51 98 52 99 53 100
REMARK H PARENT 11 7 86 20 18 34 77 53 45 64
REMARK Flexibility Score: inf
ROOT
ATOM      1  C   UNL A   1      31.687  29.480  27.258  1.00  0.00     0.002 C 
ENDROOT
BRANCH   1   2
ATOM      2  C   UNL A   1      32.104  28.073  26.806  1.00  0.00     0.021 C 
BRANCH   2   3
ATOM      3  C   UNL A   1      33.585  27.928  26.462  1.00  0.00     0.116 C 
BRANCH   3   4
ATOM      4  N   UNL A   1      33.846  26.713  25.716  1.00  0.00    -0.353 N 
ATOM      5  C   UNL A   1      34.016  26.567  24.372  1.00  0.00     0.258 C 
ATOM      6  O   UNL A   1      34.220  25.440  23.915  1.00  0.00    -0.271 OA
ATOM      7  H   UNL A   1      33.907  25.887  26.248  1.00  0.00     0.163 HD
BRANCH   5   8
ATOM      8  C   UNL A   1      33.976  27.802  23.459  1.00  0.00     0.331 C 
BRANCH   8   9
ATOM      9  O   UNL A   1      32.965  27.870  22.470  1.00  0.00    -0.467 OA
BRANCH   9  10
ATOM     10  C   UNL A   1      31.660  27.810  22.870  1.00  0.00     0.218 A 
ATOM     11  C   UNL A   1      29.411  28.473  22.962  1.00  0.00     0.052 A 
ATOM     12  C   UNL A   1      30.702  28.754  22.575  1.00  0.00     0.092 A 
ATOM     13  N   UNL A   1      29.140  27.380  23.697  1.00  0.00    -0.217 NA
ATOM     14  C   UNL A   1      30.133  26.529  23.991  1.00  0.00     0.230 A 
ATOM     15  N   UNL A   1      31.396  26.710  23.595  1.00  0.00    -0.177 NA
BRANCH  11  16
ATOM     16  C   UNL A   1      28.244  29.395  22.644  1.00  0.00     0.032 C 
ATOM     17  C   UNL A   1      26.904  28.924  23.228  1.00  0.00     0.014 C 
ATOM     18  C   UNL A   1      28.507  30.828  23.132  1.00  0.00     0.014 C 
ENDBRANCH  11  16
BRANCH  14  19
ATOM     19  N   UNL A   1      29.885  25.454  24.840  1.00  0.00    -0.322 N 
ATOM     20  H   UNL A   1      28.984  25.412  25.234  1.00  0.00     0.170 HD
BRANCH  19  21
ATOM     21  C   UNL A   1      30.761  24.425  25.204  1.00  0.00     0.077 A 
ATOM     22  C   UNL A   1      31.310  24.415  26.494  1.00  0.00     0.032 A 
ATOM     23  C   UNL A   1      31.027  23.326  24.366  1.00  0.00     0.149 A 
ATOM     24  C   UNL A   1      32.080  23.333  26.931  1.00  0.00     0.041 A 
ATOM     25  C   UNL A   1      31.806  22.255  24.786  1.00  0.00     0.080 A 
ATOM     26  F   UNL A   1      30.565  23.308  23.105  1.00  0.00    -0.205 F 
ATOM     27  C   UNL A   1      32.318  22.264  26.074  1.00  0.00     0.126 A 
ATOM     28  F   UNL A   1      33.046  21.224  26.503  1.00  0.00    -0.207 F 
ENDBRANCH  19  21
ENDBRANCH  14  19
ENDBRANCH   9  10
ENDBRANCH   8   9
ENDBRANCH   5   8
ENDBRANCH   3   4
ENDBRANCH   2   3
ENDBRANCH   1   2
BRANCH   1  29
ATOM     29  C   UNL A   1      31.537  30.516  26.139  1.00  0.00     0.002 C 
BRANCH  29  30
ATOM     30  C   UNL A   1      31.437  31.970  26.605  1.00  0.00     0.021 C 
BRANCH  30  31
ATOM     31  C   UNL A   1      32.762  32.601  27.019  1.00  0.00     0.116 C 
BRANCH  31  32
ATOM     32  N   UNL A   1      32.579  33.909  27.629  1.00  0.00    -0.352 N 
ATOM     33  C   UNL A   1      33.203  34.450  28.726  1.00  0.00     0.251 C 
ATOM     34  H   UNL A   1      31.914  34.488  27.193  1.00  0.00     0.163 HD
ATOM     35  O   UNL A   1      32.772  35.490  29.219  1.00  0.00    -0.269 OA
BRANCH  33  36
ATOM     36  C   UNL A   1      34.369  33.766  29.328  1.00  0.00     0.039 A 
ATOM     37  C   UNL A   1      35.653  34.235  29.040  1.00  0.00     0.014 A 
ATOM     38  C   UNL A   1      34.200  32.667  30.176  1.00  0.00     0.014 A 
ATOM     39  C   UNL A   1      36.761  33.643  29.653  1.00  0.00     0.010 A 
ATOM     40  C   UNL A   1      35.298  32.129  30.845  1.00  0.00     0.010 A 
ATOM     41  C   UNL A   1      36.591  32.610  30.589  1.00  0.00    -0.014 A 
BRANCH  41  42
ATOM     42  C   UNL A   1      37.753  32.025  31.311  1.00  0.00     0.031 A 
ATOM     43  C   UNL A   1      38.563  30.926  30.677  1.00  0.00     0.074 A 
ATOM     44  C   UNL A   1      38.046  32.447  32.558  1.00  0.00     0.049 A 
ATOM     45  N   UNL A   1      39.568  30.248  31.170  1.00  0.00    -0.248 NA
ATOM     46  C   UNL A   1      38.173  30.517  29.320  1.00  0.00     0.031 C 
ATOM     47  C   UNL A   1      37.314  33.483  33.292  1.00  0.00     0.029 A 
ATOM     48  N   UNL A   1      39.028  32.056  33.434  1.00  0.00    -0.354 N 
ATOM     49  C   UNL A   1      39.922  29.326  30.191  1.00  0.00     0.074 A 
ATOM     50  C   UNL A   1      38.984  29.492  29.102  1.00  0.00     0.031 C 
ATOM     51  C   UNL A   1      37.893  33.666  34.489  1.00  0.00     0.029 A 
ATOM     52  C   UNL A   1      39.000  32.727  34.635  1.00  0.00     0.049 A 
ATOM     53  H   UNL A   1      39.692  31.361  33.221  1.00  0.00     0.167 HD
ATOM     54  C   UNL A   1      40.948  28.437  30.192  1.00  0.00     0.034 A 
ATOM     55  C   UNL A   1      39.767  32.591  35.736  1.00  0.00     0.034 A 
ATOM     56  C   UNL A   1      41.880  28.291  31.285  1.00  0.00     0.049 A 
ATOM     57  C   UNL A   1      40.875  31.565  35.729  1.00  0.00     0.074 A 
ATOM     58  C   UNL A   1      42.988  27.465  31.365  1.00  0.00     0.029 A 
ATOM     59  N   UNL A   1      41.808  28.975  32.492  1.00  0.00    -0.354 N 
ATOM     60  N   UNL A   1      41.230  30.739  34.772  1.00  0.00    -0.248 NA
ATOM     61  C   UNL A   1      41.689  31.462  36.946  1.00  0.00     0.031 C 
ATOM     62  C   UNL A   1      43.534  27.586  32.647  1.00  0.00     0.029 A 
ATOM     63  C   UNL A   1      42.827  28.558  33.337  1.00  0.00     0.049 A 
ATOM     64  H   UNL A   1      41.133  29.656  32.716  1.00  0.00     0.167 HD
ATOM     65  C   UNL A   1      42.334  30.045  35.261  1.00  0.00     0.074 A 
ATOM     66  C   UNL A   1      42.592  30.560  36.589  1.00  0.00     0.031 C 
ATOM     67  C   UNL A   1      43.070  29.073  34.664  1.00  0.00     0.034 A 
BRANCH  54  68
ATOM     68  C   UNL A   1      41.092  27.534  28.990  1.00  0.00     0.023 A 
ATOM     69  C   UNL A   1      42.072  27.759  28.006  1.00  0.00     0.031 A 
ATOM     70  C   UNL A   1      40.229  26.438  28.816  1.00  0.00     0.131 A 
ATOM     71  C   UNL A   1      42.116  26.948  26.862  1.00  0.00     0.055 A 
ATOM     72  C   UNL A   1      40.334  25.582  27.718  1.00  0.00     0.041 A 
ATOM     73  F   UNL A   1      39.258  26.183  29.708  1.00  0.00    -0.206 F 
ATOM     74  C   UNL A   1      41.273  25.844  26.724  1.00  0.00     0.022 A 
BRANCH  71  75
ATOM     75  S   UNL A   1      43.191  27.445  25.488  1.00  0.00     0.124 S 
ATOM     76  O   UNL A   1      43.638  26.151  24.979  1.00  0.00    -0.237 OA
ATOM     77  O   UNL A   1      42.279  28.190  24.627  1.00  0.00    -0.237 OA
ATOM     78  O   UNL A   1      44.229  28.243  26.137  1.00  0.00    -0.744 OA
ENDBRANCH  71  75
ENDBRANCH  54  68
BRANCH  55  79
ATOM     79  C   UNL A   1      39.517  33.429  36.946  1.00  0.00     0.023 A 
ATOM     80  C   UNL A   1      38.923  32.883  38.094  1.00  0.00     0.031 A 
ATOM     81  C   UNL A   1      39.818  34.803  36.952  1.00  0.00     0.131 A 
ATOM     82  C   UNL A   1      38.594  33.713  39.177  1.00  0.00     0.055 A 
ATOM     83  C   UNL A   1      39.548  35.613  38.057  1.00  0.00     0.041 A 
ATOM     84  F   UNL A   1      40.387  35.380  35.882  1.00  0.00    -0.206 F 
ATOM     85  C   UNL A   1      38.918  35.072  39.173  1.00  0.00     0.022 A 
BRANCH  82  86
ATOM     86  S   UNL A   1      37.640  33.011  40.551  1.00  0.00     0.124 S 
ATOM     87  O   UNL A   1      38.179  31.658  40.624  1.00  0.00    -0.237 OA
ATOM     88  O   UNL A   1      37.991  33.903  41.650  1.00  0.00    -0.237 OA
ATOM     89  O   UNL A   1      36.257  33.109  40.088  1.00  0.00    -0.744 OA
ENDBRANCH  82  86
ENDBRANCH  55  79
BRANCH  67  90
ATOM     90  C   UNL A   1      44.262  28.544  35.428  1.00  0.00     0.023 A 
ATOM     91  C   UNL A   1      44.149  27.479  36.339  1.00  0.00     0.031 A 
ATOM     92  C   UNL A   1      45.531  29.123  35.246  1.00  0.00     0.131 A 
ATOM     93  C   UNL A   1      45.269  27.068  37.077  1.00  0.00     0.055 A 
ATOM     94  C   UNL A   1      46.656  28.663  35.931  1.00  0.00     0.041 A 
ATOM     95  F   UNL A   1      45.699  30.147  34.393  1.00  0.00    -0.206 F 
ATOM     96  C   UNL A   1      46.526  27.640  36.864  1.00  0.00     0.022 A 
BRANCH  93  97
ATOM     97  S   UNL A   1      45.042  25.844  38.397  1.00  0.00     0.124 S 
ATOM     98  O   UNL A   1      46.406  25.367  38.607  1.00  0.00    -0.237 OA
ATOM     99  O   UNL A   1      44.477  26.650  39.475  1.00  0.00    -0.237 OA
ATOM    100  O   UNL A   1      44.127  24.869  37.808  1.00  0.00    -0.744 OA
ENDBRANCH  93  97
ENDBRANCH  67  90
ENDBRANCH  41  42
ENDBRANCH  33  36
ENDBRANCH  31  32
ENDBRANCH  30  31
ENDBRANCH  29  30
ENDBRANCH   1  29
TORSDOF 21
ENDMDL
MODEL 3
REMARK VINA RESULT:     -11.3      3.631      8.593
REMARK SMILES CC(C)c1cc(OCC(=O)NCCCCCCNC(=O)c2ccc(-c3c4nc(c(-c5cc(S(=O)(=O)[O-])ccc5F)c5ccc([nH]5)c(-c5cc(S(=O)(=O)[O-])ccc5F)c5nc(c(-c6cc(S(=O)(=O)[O-])ccc6F)c6ccc3[nH]6)C=C5)C=C4)cc2)nc(Nc2ccc(F)cc2F)n1
REMARK SMILES IDX 14 1 13 2 12 3 11 4 9 5 10 6 8 8 7 9 6 10 4 11 5 12 95 13
REMARK SMILES IDX 85 14 84 15 2 16 1 17 3 18 86 19 87 21 88 22 93 23 89 24
REMARK SMILES IDX 92 25 94 26 90 27 91 28 15 29 16 30 17 31 18 32 19 33 20 35
REMARK SMILES IDX 21 36 22 37 83 38 23 39 82 40 24 41 25 42 26 43 76 44 27 45
REMARK SMILES IDX 81 46 75 47 77 48 28 49 80 50 74 51 73 52 29 54 61 55 41 56
REMARK SMILES IDX 60 57 42 58 45 59 59 60 78 61 43 62 44 63 58 65 79 66 46 67
REMARK SMILES IDX 30 68 31 69 39 70 32 71 38 72 40 73 37 74 33 75 34 76 35 77
REMARK SMILES IDX 36 78 62 79 63 80 71 81 64 82 70 83 72 84 69 85 65 86 66 87
REMARK SMILES IDX 67 88 68 89 47 90 48 91 56 92 49 93 55 94 57 95 54 96 50 97
REMARK SMILES IDX 51 98 52 99 53 100
REMARK H PARENT 11 7 86 20 18 34 77 53 45 64
REMARK Flexibility Score: inf
ROOT
ATOM      1  C   UNL A   1      32.893  29.605  25.991  1.00  0.00     0.002 C 
ENDROOT
BRANCH   1   2
ATOM      2  C   UNL A   1      32.628  28.633  27.150  1.00  0.00     0.021 C 
BRANCH   2   3
ATOM      3  C   UNL A   1      31.375  27.776  26.987  1.00  0.00     0.116 C 
BRANCH   3   4
ATOM      4  N   UNL A   1      31.204  27.329  25.618  1.00  0.00    -0.353 N 
ATOM      5  C   UNL A   1      30.872  26.087  25.171  1.00  0.00     0.258 C 
ATOM      6  O   UNL A   1      30.783  25.893  23.956  1.00  0.00    -0.271 OA
ATOM      7  H   UNL A   1      31.346  28.012  24.924  1.00  0.00     0.163 HD
BRANCH   5   8
ATOM      8  C   UNL A   1      30.591  24.962  26.178  1.00  0.00     0.331 C 
BRANCH   8   9
ATOM      9  O   UNL A   1      31.674  24.461  26.941  1.00  0.00    -0.467 OA
BRANCH   9  10
ATOM     10  C   UNL A   1      32.567  23.627  26.330  1.00  0.00     0.218 A 
ATOM     11  C   UNL A   1      34.642  22.986  25.442  1.00  0.00     0.052 A 
ATOM     12  C   UNL A   1      33.837  23.986  25.937  1.00  0.00     0.092 A 
ATOM     13  N   UNL A   1      34.154  21.748  25.248  1.00  0.00    -0.217 NA
ATOM     14  C   UNL A   1      32.890  21.481  25.609  1.00  0.00     0.230 A 
ATOM     15  N   UNL A   1      32.075  22.391  26.151  1.00  0.00    -0.177 NA
BRANCH  11  16
ATOM     16  C   UNL A   1      36.087  23.227  25.032  1.00  0.00     0.032 C 
ATOM     17  C   UNL A   1      36.894  24.043  26.053  1.00  0.00     0.014 C 
ATOM     18  C   UNL A   1      36.829  21.906  24.773  1.00  0.00     0.014 C 
ENDBRANCH  11  16
BRANCH  14  19
ATOM     19  N   UNL A   1      32.341  20.237  25.314  1.00  0.00    -0.322 N 
ATOM     20  H   UNL A   1      31.445  20.062  25.680  1.00  0.00     0.170 HD
BRANCH  19  21
ATOM     21  C   UNL A   1      32.907  19.203  24.559  1.00  0.00     0.077 A 
ATOM     22  C   UNL A   1      33.781  18.299  25.181  1.00  0.00     0.032 A 
ATOM     23  C   UNL A   1      32.545  18.957  23.222  1.00  0.00     0.149 A 
ATOM     24  C   UNL A   1      34.256  17.180  24.489  1.00  0.00     0.041 A 
ATOM     25  C   UNL A   1      33.028  17.857  22.522  1.00  0.00     0.080 A 
ATOM     26  F   UNL A   1      31.751  19.818  22.565  1.00  0.00    -0.205 F 
ATOM     27  C   UNL A   1      33.873  16.970  23.169  1.00  0.00     0.126 A 
ATOM     28  F   UNL A   1      34.322  15.890  22.516  1.00  0.00    -0.207 F 
ENDBRANCH  19  21
ENDBRANCH  14  19
ENDBRANCH   9  10
ENDBRANCH   8   9
ENDBRANCH   5   8
ENDBRANCH   3   4
ENDBRANCH   2   3
ENDBRANCH   1   2
BRANCH   1  29
ATOM     29  C   UNL A   1      31.818  30.672  25.765  1.00  0.00     0.002 C 
BRANCH  29  30
ATOM     30  C   UNL A   1      31.672  31.701  26.889  1.00  0.00     0.021 C 
BRANCH  30  31
ATOM     31  C   UNL A   1      32.950  32.460  27.231  1.00  0.00     0.116 C 
BRANCH  31  32
ATOM     32  N   UNL A   1      32.686  33.846  27.582  1.00  0.00    -0.352 N 
ATOM     33  C   UNL A   1      33.228  34.605  28.589  1.00  0.00     0.251 C 
ATOM     34  H   UNL A   1      32.025  34.305  27.016  1.00  0.00     0.163 HD
ATOM     35  O   UNL A   1      32.734  35.697  28.862  1.00  0.00    -0.269 OA
BRANCH  33  36
ATOM     36  C   UNL A   1      34.385  34.096  29.361  1.00  0.00     0.039 A 
ATOM     37  C   UNL A   1      34.152  33.301  30.484  1.00  0.00     0.014 A 
ATOM     38  C   UNL A   1      35.695  34.400  28.977  1.00  0.00     0.014 A 
ATOM     39  C   UNL A   1      35.232  32.757  31.185  1.00  0.00     0.010 A 
ATOM     40  C   UNL A   1      36.767  33.794  29.629  1.00  0.00     0.010 A 
ATOM     41  C   UNL A   1      36.548  32.967  30.742  1.00  0.00    -0.014 A 
BRANCH  41  42
ATOM     42  C   UNL A   1      37.704  32.329  31.427  1.00  0.00     0.031 A 
ATOM     43  C   UNL A   1      38.440  31.191  30.770  1.00  0.00     0.074 A 
ATOM     44  C   UNL A   1      38.058  32.739  32.662  1.00  0.00     0.049 A 
ATOM     45  N   UNL A   1      39.427  30.467  31.232  1.00  0.00    -0.248 NA
ATOM     46  C   UNL A   1      37.986  30.799  29.427  1.00  0.00     0.031 C 
ATOM     47  C   UNL A   1      37.401  33.809  33.416  1.00  0.00     0.029 A 
ATOM     48  N   UNL A   1      39.049  32.303  33.506  1.00  0.00    -0.354 N 
ATOM     49  C   UNL A   1      39.704  29.527  30.245  1.00  0.00     0.074 A 
ATOM     50  C   UNL A   1      38.740  29.736  29.186  1.00  0.00     0.031 C 
ATOM     51  C   UNL A   1      38.027  33.967  34.593  1.00  0.00     0.029 A 
ATOM     52  C   UNL A   1      39.093  32.976  34.706  1.00  0.00     0.049 A 
ATOM     53  H   UNL A   1      39.672  31.576  33.274  1.00  0.00     0.167 HD
ATOM     54  C   UNL A   1      40.686  28.591  30.215  1.00  0.00     0.034 A 
ATOM     55  C   UNL A   1      39.888  32.806  35.781  1.00  0.00     0.034 A 
ATOM     56  C   UNL A   1      41.646  28.403  31.277  1.00  0.00     0.049 A 
ATOM     57  C   UNL A   1      40.945  31.729  35.741  1.00  0.00     0.074 A 
ATOM     58  C   UNL A   1      42.715  27.525  31.324  1.00  0.00     0.029 A 
ATOM     59  N   UNL A   1      41.647  29.091  32.484  1.00  0.00    -0.354 N 
ATOM     60  N   UNL A   1      41.228  30.885  34.776  1.00  0.00    -0.248 NA
ATOM     61  C   UNL A   1      41.793  31.589  36.930  1.00  0.00     0.031 C 
ATOM     62  C   UNL A   1      43.309  27.623  32.587  1.00  0.00     0.029 A 
ATOM     63  C   UNL A   1      42.672  28.628  33.296  1.00  0.00     0.049 A 
ATOM     64  H   UNL A   1      41.013  29.804  32.727  1.00  0.00     0.167 HD
ATOM     65  C   UNL A   1      42.314  30.140  35.230  1.00  0.00     0.074 A 
ATOM     66  C   UNL A   1      42.640  30.645  36.547  1.00  0.00     0.031 C 
ATOM     67  C   UNL A   1      42.983  29.134  34.613  1.00  0.00     0.034 A 
BRANCH  54  68
ATOM     68  C   UNL A   1      40.748  27.680  29.012  1.00  0.00     0.023 A 
ATOM     69  C   UNL A   1      41.696  27.863  27.990  1.00  0.00     0.031 A 
ATOM     70  C   UNL A   1      39.836  26.618  28.876  1.00  0.00     0.131 A 
ATOM     71  C   UNL A   1      41.663  27.048  26.848  1.00  0.00     0.055 A 
ATOM     72  C   UNL A   1      39.864  25.756  27.779  1.00  0.00     0.041 A 
ATOM     73  F   UNL A   1      38.892  26.404  29.807  1.00  0.00    -0.206 F 
ATOM     74  C   UNL A   1      40.773  25.978  26.747  1.00  0.00     0.022 A 
BRANCH  71  75
ATOM     75  S   UNL A   1      42.702  27.499  25.432  1.00  0.00     0.124 S 
ATOM     76  O   UNL A   1      43.931  27.933  26.093  1.00  0.00    -0.237 OA
ATOM     77  O   UNL A   1      42.785  26.247  24.689  1.00  0.00    -0.237 OA
ATOM     78  O   UNL A   1      41.947  28.565  24.777  1.00  0.00    -0.744 OA
ENDBRANCH  71  75
ENDBRANCH  54  68
BRANCH  55  79
ATOM     79  C   UNL A   1      39.718  33.658  36.995  1.00  0.00     0.023 A 
ATOM     80  C   UNL A   1      40.651  34.658  37.314  1.00  0.00     0.031 A 
ATOM     81  C   UNL A   1      38.652  33.446  37.888  1.00  0.00     0.131 A 
ATOM     82  C   UNL A   1      40.534  35.369  38.517  1.00  0.00     0.055 A 
ATOM     83  C   UNL A   1      38.504  34.201  39.053  1.00  0.00     0.041 A 
ATOM     84  F   UNL A   1      37.730  32.504  37.635  1.00  0.00    -0.206 F 
ATOM     85  C   UNL A   1      39.457  35.159  39.382  1.00  0.00     0.022 A 
BRANCH  82  86
ATOM     86  S   UNL A   1      41.870  36.501  38.990  1.00  0.00     0.124 S 
ATOM     87  O   UNL A   1      42.908  35.570  39.418  1.00  0.00    -0.237 OA
ATOM     88  O   UNL A   1      42.119  37.214  37.742  1.00  0.00    -0.237 OA
ATOM     89  O   UNL A   1      41.272  37.304  40.056  1.00  0.00    -0.744 OA
ENDBRANCH  82  86
ENDBRANCH  55  79
BRANCH  67  90
ATOM     90  C   UNL A   1      44.173  28.550  35.339  1.00  0.00     0.023 A 
ATOM     91  C   UNL A   1      44.036  27.512  36.278  1.00  0.00     0.031 A 
ATOM     92  C   UNL A   1      45.465  29.048  35.091  1.00  0.00     0.131 A 
ATOM     93  C   UNL A   1      45.161  27.050  36.978  1.00  0.00     0.055 A 
ATOM     94  C   UNL A   1      46.589  28.535  35.739  1.00  0.00     0.041 A 
ATOM     95  F   UNL A   1      45.656  30.041  34.208  1.00  0.00    -0.206 F 
ATOM     96  C   UNL A   1      46.439  27.541  36.700  1.00  0.00     0.022 A 
BRANCH  93  97
ATOM     97  S   UNL A   1      44.919  25.870  38.335  1.00  0.00     0.124 S 
ATOM     98  O   UNL A   1      43.784  26.452  39.045  1.00  0.00    -0.237 OA
ATOM     99  O   UNL A   1      44.653  24.625  37.622  1.00  0.00    -0.237 OA
ATOM    100  O   UNL A   1      46.189  25.911  39.056  1.00  0.00    -0.744 OA
ENDBRANCH  93  97
ENDBRANCH  67  90
ENDBRANCH  41  42
ENDBRANCH  33  36
ENDBRANCH  31  32
ENDBRANCH  30  31
ENDBRANCH  29  30
ENDBRANCH   1  29
TORSDOF 21
ENDMDL
