MODEL 1
REMARK VINA RESULT:     -11.4      0.000      0.000
REMARK SMILES Cc1nsc(NC(=O)CC[C@H](C)CC[NH3+])c1C(=O)NCCCCCCNC(=O)c1ccc(-c2c3nc(c(-c4cc(S(=O)(=O)[O-])ccc4F)c4ccc([nH]4)c(-c4cc(S(=O)(=O)[O-])ccc4F)c4nc(c(-c5cc(S(=O)(=O)[O-])ccc5F)c5ccc2[nH]5)C=C4)C=C3)cc1
REMARK SMILES IDX 20 1 19 2 17 3 18 4 16 6 1 7 2 8 3 9 4 10 5 11 6 12 7 13
REMARK SMILES IDX 8 15 9 16 10 17 11 18 12 19 13 20 14 21 15 22 21 26 22 27
REMARK SMILES IDX 23 28 24 29 25 30 26 31 27 32 28 34 29 35 30 36 91 37 31 38
REMARK SMILES IDX 90 39 32 40 33 41 34 42 84 43 35 44 89 45 83 46 85 47 36 48
REMARK SMILES IDX 88 49 82 50 81 51 37 53 69 54 49 55 68 56 50 57 53 58 67 59
REMARK SMILES IDX 86 60 51 61 52 62 66 64 87 65 54 66 38 67 39 68 47 69 40 70
REMARK SMILES IDX 46 71 48 72 45 73 41 74 42 75 43 76 44 77 70 78 71 79 79 80
REMARK SMILES IDX 72 81 78 82 80 83 77 84 73 85 74 86 75 87 76 88 55 89 56 90
REMARK SMILES IDX 64 91 57 92 63 93 65 94 62 95 58 96 59 97 60 98 61 99
REMARK H PARENT 19 5 6 14 15 23 15 24 15 25 26 33 85 52 53 63
REMARK Flexibility Score: inf
ROOT
ATOM      1  C   UNL A   1      33.479  26.802  25.067  1.00  0.00     0.116 C 
ENDROOT
BRANCH   1   2
ATOM      2  N   UNL A   1      33.811  25.683  25.906  1.00  0.00    -0.352 N 
ATOM      3  C   UNL A   1      33.547  24.343  25.801  1.00  0.00     0.256 C 
ATOM      4  O   UNL A   1      33.984  23.665  26.740  1.00  0.00    -0.269 OA
ATOM      5  H   UNL A   1      34.329  25.926  26.708  1.00  0.00     0.163 HD
BRANCH   3   6
ATOM      6  C   UNL A   1      32.792  23.682  24.718  1.00  0.00     0.097 A 
ATOM      7  C   UNL A   1      30.314  24.721  24.479  1.00  0.00     0.069 C 
ATOM      8  C   UNL A   1      31.467  23.852  24.118  1.00  0.00     0.066 A 
ATOM      9  N   UNL A   1      31.206  23.091  23.051  1.00  0.00    -0.195 NA
ATOM     10  S   UNL A   1      32.505  22.171  22.693  1.00  0.00    -0.017 S 
ATOM     11  C   UNL A   1      33.393  22.591  24.070  1.00  0.00     0.129 A 
BRANCH  11  12
ATOM     12  N   UNL A   1      34.585  21.957  24.368  1.00  0.00    -0.316 N 
ATOM     13  C   UNL A   1      34.824  20.721  24.904  1.00  0.00     0.225 C 
ATOM     14  H   UNL A   1      35.392  22.482  24.163  1.00  0.00     0.170 HD
ATOM     15  O   UNL A   1      36.003  20.380  25.060  1.00  0.00    -0.275 OA
BRANCH  13  16
ATOM     16  C   UNL A   1      33.721  19.802  25.408  1.00  0.00     0.101 C 
BRANCH  16  17
ATOM     17  C   UNL A   1      33.266  18.674  24.464  1.00  0.00     0.013 C 
BRANCH  17  18
ATOM     18  C   UNL A   1      34.223  17.476  24.285  1.00  0.00    -0.008 C 
ATOM     19  C   UNL A   1      34.073  16.864  22.883  1.00  0.00     0.008 C 
BRANCH  18  20
ATOM     20  C   UNL A   1      33.989  16.382  25.354  1.00  0.00     0.064 C 
BRANCH  20  21
ATOM     21  C   UNL A   1      32.498  16.132  25.643  1.00  0.00     0.259 C 
BRANCH  21  22
ATOM     22  N   UNL A   1      32.139  14.731  25.443  1.00  0.00    -0.358 N 
ATOM     23  H   UNL A   1      32.186  14.237  26.335  1.00  0.00     0.344 HD
ATOM     24  H   UNL A   1      32.787  14.303  24.783  1.00  0.00     0.344 HD
ATOM     25  H   UNL A   1      31.189  14.672  25.074  1.00  0.00     0.344 HD
ENDBRANCH  21  22
ENDBRANCH  20  21
ENDBRANCH  18  20
ENDBRANCH  17  18
ENDBRANCH  16  17
ENDBRANCH  13  16
ENDBRANCH  11  12
ENDBRANCH   3   6
ENDBRANCH   1   2
BRANCH   1  26
ATOM     26  C   UNL A   1      32.182  27.521  25.427  1.00  0.00     0.021 C 
BRANCH  26  27
ATOM     27  C   UNL A   1      32.026  27.952  26.890  1.00  0.00     0.002 C 
BRANCH  27  28
ATOM     28  C   UNL A   1      32.457  29.378  27.263  1.00  0.00     0.002 C 
BRANCH  28  29
ATOM     29  C   UNL A   1      33.850  29.839  26.815  1.00  0.00     0.021 C 
BRANCH  29  30
ATOM     30  C   UNL A   1      35.007  29.312  27.653  1.00  0.00     0.116 C 
BRANCH  30  31
ATOM     31  N   UNL A   1      35.260  30.105  28.847  1.00  0.00    -0.352 N 
ATOM     32  C   UNL A   1      36.336  30.017  29.713  1.00  0.00     0.251 C 
ATOM     33  H   UNL A   1      34.583  30.787  29.065  1.00  0.00     0.163 HD
ATOM     34  O   UNL A   1      36.251  30.477  30.840  1.00  0.00    -0.269 OA
BRANCH  32  35
ATOM     35  C   UNL A   1      37.570  29.337  29.259  1.00  0.00     0.039 A 
ATOM     36  C   UNL A   1      38.189  29.720  28.068  1.00  0.00     0.014 A 
ATOM     37  C   UNL A   1      38.119  28.322  30.043  1.00  0.00     0.014 A 
ATOM     38  C   UNL A   1      39.414  29.146  27.725  1.00  0.00     0.010 A 
ATOM     39  C   UNL A   1      39.378  27.831  29.758  1.00  0.00     0.010 A 
ATOM     40  C   UNL A   1      40.031  28.226  28.594  1.00  0.00    -0.014 A 
BRANCH  40  41
ATOM     41  C   UNL A   1      41.430  27.833  28.371  1.00  0.00     0.031 A 
ATOM     42  C   UNL A   1      41.584  26.514  27.693  1.00  0.00     0.074 A 
ATOM     43  C   UNL A   1      42.503  28.640  28.548  1.00  0.00     0.049 A 
ATOM     44  N   UNL A   1      42.053  25.421  28.194  1.00  0.00    -0.248 NA
ATOM     45  C   UNL A   1      41.004  26.343  26.350  1.00  0.00     0.031 C 
ATOM     46  C   UNL A   1      42.495  30.051  28.950  1.00  0.00     0.029 A 
ATOM     47  N   UNL A   1      43.832  28.403  28.317  1.00  0.00    -0.354 N 
ATOM     48  C   UNL A   1      42.072  24.497  27.152  1.00  0.00     0.074 A 
ATOM     49  C   UNL A   1      41.232  25.048  26.124  1.00  0.00     0.031 C 
ATOM     50  C   UNL A   1      43.708  30.601  28.723  1.00  0.00     0.029 A 
ATOM     51  C   UNL A   1      44.630  29.547  28.338  1.00  0.00     0.049 A 
ATOM     52  H   UNL A   1      44.193  27.502  28.149  1.00  0.00     0.167 HD
ATOM     53  C   UNL A   1      42.999  23.499  27.128  1.00  0.00     0.034 A 
ATOM     54  C   UNL A   1      45.965  29.647  28.103  1.00  0.00     0.034 A 
ATOM     55  C   UNL A   1      43.637  23.375  28.419  1.00  0.00     0.049 A 
ATOM     56  C   UNL A   1      46.558  28.328  28.399  1.00  0.00     0.074 A 
ATOM     57  C   UNL A   1      43.290  22.911  29.669  1.00  0.00     0.029 A 
ATOM     58  N   UNL A   1      44.754  24.159  28.573  1.00  0.00    -0.354 N 
ATOM     59  N   UNL A   1      46.560  27.812  29.596  1.00  0.00    -0.248 NA
ATOM     60  C   UNL A   1      46.838  27.391  27.319  1.00  0.00     0.031 C 
ATOM     61  C   UNL A   1      44.078  23.659  30.596  1.00  0.00     0.029 A 
ATOM     62  C   UNL A   1      44.915  24.520  29.886  1.00  0.00     0.049 A 
ATOM     63  H   UNL A   1      45.357  24.424  27.842  1.00  0.00     0.167 HD
ATOM     64  C   UNL A   1      46.383  26.461  29.387  1.00  0.00     0.074 A 
ATOM     65  C   UNL A   1      46.758  26.240  27.995  1.00  0.00     0.031 C 
ATOM     66  C   UNL A   1      45.653  25.713  30.261  1.00  0.00     0.034 A 
BRANCH  53  67
ATOM     67  C   UNL A   1      43.682  22.955  25.882  1.00  0.00     0.023 A 
ATOM     68  C   UNL A   1      43.765  21.550  25.751  1.00  0.00     0.031 A 
ATOM     69  C   UNL A   1      44.504  23.695  25.003  1.00  0.00     0.131 A 
ATOM     70  C   UNL A   1      44.686  20.952  24.870  1.00  0.00     0.055 A 
ATOM     71  C   UNL A   1      45.380  23.095  24.091  1.00  0.00     0.041 A 
ATOM     72  F   UNL A   1      44.583  25.029  25.032  1.00  0.00    -0.206 F 
ATOM     73  C   UNL A   1      45.499  21.717  24.041  1.00  0.00     0.022 A 
BRANCH  70  74
ATOM     74  S   UNL A   1      44.925  19.155  24.942  1.00  0.00     0.124 S 
ATOM     75  O   UNL A   1      46.246  19.053  25.551  1.00  0.00    -0.237 OA
ATOM     76  O   UNL A   1      43.797  18.735  25.766  1.00  0.00    -0.237 OA
ATOM     77  O   UNL A   1      44.855  18.750  23.540  1.00  0.00    -0.744 OA
ENDBRANCH  70  74
ENDBRANCH  53  67
BRANCH  54  78
ATOM     78  C   UNL A   1      46.726  30.758  27.477  1.00  0.00     0.023 A 
ATOM     79  C   UNL A   1      46.112  31.866  26.854  1.00  0.00     0.031 A 
ATOM     80  C   UNL A   1      48.110  30.857  27.738  1.00  0.00     0.131 A 
ATOM     81  C   UNL A   1      46.875  33.015  26.537  1.00  0.00     0.055 A 
ATOM     82  C   UNL A   1      48.856  31.996  27.428  1.00  0.00     0.041 A 
ATOM     83  F   UNL A   1      48.759  29.877  28.389  1.00  0.00    -0.206 F 
ATOM     84  C   UNL A   1      48.238  33.086  26.837  1.00  0.00     0.022 A 
BRANCH  81  85
ATOM     85  S   UNL A   1      46.079  34.485  25.806  1.00  0.00     0.124 S 
ATOM     86  O   UNL A   1      47.224  35.310  25.438  1.00  0.00    -0.237 OA
ATOM     87  O   UNL A   1      45.313  33.910  24.708  1.00  0.00    -0.237 OA
ATOM     88  O   UNL A   1      45.269  35.017  26.904  1.00  0.00    -0.744 OA
ENDBRANCH  81  85
ENDBRANCH  54  78
BRANCH  66  89
ATOM     89  C   UNL A   1      45.494  26.250  31.664  1.00  0.00     0.023 A 
ATOM     90  C   UNL A   1      44.384  26.987  32.132  1.00  0.00     0.031 A 
ATOM     91  C   UNL A   1      46.523  25.964  32.576  1.00  0.00     0.131 A 
ATOM     92  C   UNL A   1      44.345  27.424  33.470  1.00  0.00     0.055 A 
ATOM     93  C   UNL A   1      46.471  26.379  33.905  1.00  0.00     0.041 A 
ATOM     94  F   UNL A   1      47.597  25.255  32.190  1.00  0.00    -0.206 F 
ATOM     95  C   UNL A   1      45.383  27.118  34.356  1.00  0.00     0.022 A 
BRANCH  92  96
ATOM     96  S   UNL A   1      42.945  28.420  34.079  1.00  0.00     0.124 S 
ATOM     97  O   UNL A   1      43.586  29.606  34.636  1.00  0.00    -0.237 OA
ATOM     98  O   UNL A   1      42.156  28.632  32.869  1.00  0.00    -0.237 OA
ATOM     99  O   UNL A   1      42.311  27.549  35.070  1.00  0.00    -0.744 OA
ENDBRANCH  92  96
ENDBRANCH  66  89
ENDBRANCH  40  41
ENDBRANCH  32  35
ENDBRANCH  30  31
ENDBRANCH  29  30
ENDBRANCH  28  29
ENDBRANCH  27  28
ENDBRANCH  26  27
ENDBRANCH   1  26
TORSDOF 23
ENDMDL
MODEL 2
REMARK VINA RESULT:     -11.0      4.380      6.539
REMARK SMILES Cc1nsc(NC(=O)CC[C@H](C)CC[NH3+])c1C(=O)NCCCCCCNC(=O)c1ccc(-c2c3nc(c(-c4cc(S(=O)(=O)[O-])ccc4F)c4ccc([nH]4)c(-c4cc(S(=O)(=O)[O-])ccc4F)c4nc(c(-c5cc(S(=O)(=O)[O-])ccc5F)c5ccc2[nH]5)C=C4)C=C3)cc1
REMARK SMILES IDX 20 1 19 2 17 3 18 4 16 6 1 7 2 8 3 9 4 10 5 11 6 12 7 13
REMARK SMILES IDX 8 15 9 16 10 17 11 18 12 19 13 20 14 21 15 22 21 26 22 27
REMARK SMILES IDX 23 28 24 29 25 30 26 31 27 32 28 34 29 35 30 36 91 37 31 38
REMARK SMILES IDX 90 39 32 40 33 41 34 42 84 43 35 44 89 45 83 46 85 47 36 48
REMARK SMILES IDX 88 49 82 50 81 51 37 53 69 54 49 55 68 56 50 57 53 58 67 59
REMARK SMILES IDX 86 60 51 61 52 62 66 64 87 65 54 66 38 67 39 68 47 69 40 70
REMARK SMILES IDX 46 71 48 72 45 73 41 74 42 75 43 76 44 77 70 78 71 79 79 80
REMARK SMILES IDX 72 81 78 82 80 83 77 84 73 85 74 86 75 87 76 88 55 89 56 90
REMARK SMILES IDX 64 91 57 92 63 93 65 94 62 95 58 96 59 97 60 98 61 99
REMARK H PARENT 19 5 6 14 15 23 15 24 15 25 26 33 85 52 53 63
REMARK Flexibility Score: inf
ROOT
ATOM      1  C   UNL A   1      33.787  27.003  25.825  1.00  0.00     0.116 C 
ENDROOT
BRANCH   1   2
ATOM      2  N   UNL A   1      32.846  26.249  26.606  1.00  0.00    -0.352 N 
ATOM      3  C   UNL A   1      32.314  24.996  26.449  1.00  0.00     0.256 C 
ATOM      4  O   UNL A   1      31.503  24.675  27.327  1.00  0.00    -0.269 OA
ATOM      5  H   UNL A   1      32.523  26.721  27.408  1.00  0.00     0.163 HD
BRANCH   3   6
ATOM      6  C   UNL A   1      32.599  24.056  25.347  1.00  0.00     0.097 A 
ATOM      7  C   UNL A   1      35.175  23.257  25.385  1.00  0.00     0.069 C 
ATOM      8  C   UNL A   1      33.765  23.284  24.911  1.00  0.00     0.066 A 
ATOM      9  N   UNL A   1      33.563  22.444  23.892  1.00  0.00    -0.195 NA
ATOM     10  S   UNL A   1      32.002  22.504  23.423  1.00  0.00    -0.017 S 
ATOM     11  C   UNL A   1      31.578  23.805  24.416  1.00  0.00     0.129 A 
BRANCH  11  12
ATOM     12  N   UNL A   1      30.335  24.401  24.316  1.00  0.00    -0.316 N 
ATOM     13  C   UNL A   1      29.962  25.588  23.746  1.00  0.00     0.225 C 
ATOM     14  H   UNL A   1      29.599  23.889  24.722  1.00  0.00     0.170 HD
ATOM     15  O   UNL A   1      28.762  25.890  23.778  1.00  0.00    -0.275 OA
BRANCH  13  16
ATOM     16  C   UNL A   1      30.955  26.589  23.175  1.00  0.00     0.101 C 
BRANCH  16  17
ATOM     17  C   UNL A   1      30.390  27.691  22.261  1.00  0.00     0.013 C 
BRANCH  17  18
ATOM     18  C   UNL A   1      30.837  29.141  22.546  1.00  0.00    -0.008 C 
ATOM     19  C   UNL A   1      32.304  29.179  23.002  1.00  0.00     0.008 C 
BRANCH  18  20
ATOM     20  C   UNL A   1      29.947  29.824  23.612  1.00  0.00     0.064 C 
BRANCH  20  21
ATOM     21  C   UNL A   1      28.973  30.853  23.012  1.00  0.00     0.259 C 
BRANCH  21  22
ATOM     22  N   UNL A   1      29.553  31.535  21.859  1.00  0.00    -0.358 N 
ATOM     23  H   UNL A   1      30.551  31.675  22.013  1.00  0.00     0.344 HD
ATOM     24  H   UNL A   1      29.098  32.439  21.734  1.00  0.00     0.344 HD
ATOM     25  H   UNL A   1      29.415  30.967  21.023  1.00  0.00     0.344 HD
ENDBRANCH  21  22
ENDBRANCH  20  21
ENDBRANCH  18  20
ENDBRANCH  17  18
ENDBRANCH  16  17
ENDBRANCH  13  16
ENDBRANCH  11  12
ENDBRANCH   3   6
ENDBRANCH   1   2
BRANCH   1  26
ATOM     26  C   UNL A   1      34.073  28.413  26.337  1.00  0.00     0.021 C 
BRANCH  26  27
ATOM     27  C   UNL A   1      33.008  29.036  27.246  1.00  0.00     0.002 C 
BRANCH  27  28
ATOM     28  C   UNL A   1      31.742  29.597  26.581  1.00  0.00     0.002 C 
BRANCH  28  29
ATOM     29  C   UNL A   1      31.494  31.107  26.685  1.00  0.00     0.021 C 
BRANCH  29  30
ATOM     30  C   UNL A   1      32.724  31.945  27.006  1.00  0.00     0.116 C 
BRANCH  30  31
ATOM     31  N   UNL A   1      32.404  33.314  27.384  1.00  0.00    -0.352 N 
ATOM     32  C   UNL A   1      33.032  34.102  28.332  1.00  0.00     0.251 C 
ATOM     33  H   UNL A   1      31.649  33.729  26.906  1.00  0.00     0.163 HD
ATOM     34  O   UNL A   1      32.459  35.074  28.794  1.00  0.00    -0.269 OA
BRANCH  32  35
ATOM     35  C   UNL A   1      34.391  33.731  28.789  1.00  0.00     0.039 A 
ATOM     36  C   UNL A   1      34.558  32.884  29.886  1.00  0.00     0.014 A 
ATOM     37  C   UNL A   1      35.502  34.220  28.102  1.00  0.00     0.014 A 
ATOM     38  C   UNL A   1      35.843  32.454  30.222  1.00  0.00     0.010 A 
ATOM     39  C   UNL A   1      36.759  33.714  28.368  1.00  0.00     0.010 A 
ATOM     40  C   UNL A   1      36.944  32.840  29.435  1.00  0.00    -0.014 A 
BRANCH  40  41
ATOM     41  C   UNL A   1      38.244  32.177  29.619  1.00  0.00     0.031 A 
ATOM     42  C   UNL A   1      38.260  30.752  29.182  1.00  0.00     0.074 A 
ATOM     43  C   UNL A   1      39.398  32.804  29.947  1.00  0.00     0.049 A 
ATOM     44  N   UNL A   1      38.368  29.701  29.924  1.00  0.00    -0.248 NA
ATOM     45  C   UNL A   1      37.961  30.447  27.772  1.00  0.00     0.031 C 
ATOM     46  C   UNL A   1      39.600  34.244  30.143  1.00  0.00     0.029 A 
ATOM     47  N   UNL A   1      40.665  32.303  30.086  1.00  0.00    -0.354 N 
ATOM     48  C   UNL A   1      38.417  28.617  29.051  1.00  0.00     0.074 A 
ATOM     49  C   UNL A   1      37.956  29.112  27.784  1.00  0.00     0.031 C 
ATOM     50  C   UNL A   1      40.922  34.526  30.153  1.00  0.00     0.029 A 
ATOM     51  C   UNL A   1      41.662  33.276  30.151  1.00  0.00     0.049 A 
ATOM     52  H   UNL A   1      40.856  31.338  30.134  1.00  0.00     0.167 HD
ATOM     53  C   UNL A   1      39.097  27.485  29.391  1.00  0.00     0.034 A 
ATOM     54  C   UNL A   1      43.006  33.100  30.243  1.00  0.00     0.034 A 
ATOM     55  C   UNL A   1      39.399  27.485  30.804  1.00  0.00     0.049 A 
ATOM     56  C   UNL A   1      43.230  31.773  30.849  1.00  0.00     0.074 A 
ATOM     57  C   UNL A   1      38.699  27.320  31.979  1.00  0.00     0.029 A 
ATOM     58  N   UNL A   1      40.595  28.078  31.124  1.00  0.00    -0.354 N 
ATOM     59  N   UNL A   1      42.865  31.486  32.067  1.00  0.00    -0.248 NA
ATOM     60  C   UNL A   1      43.534  30.623  30.006  1.00  0.00     0.031 C 
ATOM     61  C   UNL A   1      39.408  28.073  32.964  1.00  0.00     0.029 A 
ATOM     62  C   UNL A   1      40.540  28.635  32.375  1.00  0.00     0.049 A 
ATOM     63  H   UNL A   1      41.384  28.100  30.536  1.00  0.00     0.167 HD
ATOM     64  C   UNL A   1      42.457  30.171  32.002  1.00  0.00     0.074 A 
ATOM     65  C   UNL A   1      43.069  29.644  30.788  1.00  0.00     0.031 C 
ATOM     66  C   UNL A   1      41.414  29.729  32.759  1.00  0.00     0.034 A 
BRANCH  53  67
ATOM     67  C   UNL A   1      39.902  26.617  28.435  1.00  0.00     0.023 A 
ATOM     68  C   UNL A   1      41.014  27.216  27.799  1.00  0.00     0.031 A 
ATOM     69  C   UNL A   1      39.482  25.385  27.886  1.00  0.00     0.131 A 
ATOM     70  C   UNL A   1      41.581  26.655  26.639  1.00  0.00     0.055 A 
ATOM     71  C   UNL A   1      40.083  24.806  26.763  1.00  0.00     0.041 A 
ATOM     72  F   UNL A   1      38.415  24.716  28.336  1.00  0.00    -0.206 F 
ATOM     73  C   UNL A   1      41.118  25.454  26.114  1.00  0.00     0.022 A 
BRANCH  70  74
ATOM     74  S   UNL A   1      42.828  27.606  25.727  1.00  0.00     0.124 S 
ATOM     75  O   UNL A   1      41.998  28.511  24.940  1.00  0.00    -0.237 OA
ATOM     76  O   UNL A   1      43.596  28.209  26.811  1.00  0.00    -0.237 OA
ATOM     77  O   UNL A   1      43.535  26.584  24.958  1.00  0.00    -0.744 OA
ENDBRANCH  70  74
ENDBRANCH  53  67
BRANCH  54  78
ATOM     78  C   UNL A   1      44.101  33.932  29.683  1.00  0.00     0.023 A 
ATOM     79  C   UNL A   1      44.527  33.854  28.339  1.00  0.00     0.031 A 
ATOM     80  C   UNL A   1      44.566  35.031  30.437  1.00  0.00     0.131 A 
ATOM     81  C   UNL A   1      45.364  34.860  27.799  1.00  0.00     0.055 A 
ATOM     82  C   UNL A   1      45.388  36.024  29.898  1.00  0.00     0.041 A 
ATOM     83  F   UNL A   1      44.156  35.220  31.703  1.00  0.00    -0.206 F 
ATOM     84  C   UNL A   1      45.780  35.948  28.571  1.00  0.00     0.022 A 
BRANCH  81  85
ATOM     85  S   UNL A   1      45.855  34.815  26.042  1.00  0.00     0.124 S 
ATOM     86  O   UNL A   1      46.822  33.725  26.016  1.00  0.00    -0.237 OA
ATOM     87  O   UNL A   1      44.584  34.573  25.371  1.00  0.00    -0.237 OA
ATOM     88  O   UNL A   1      46.423  36.145  25.813  1.00  0.00    -0.744 OA
ENDBRANCH  81  85
ENDBRANCH  54  78
BRANCH  66  89
ATOM     89  C   UNL A   1      41.071  30.528  33.995  1.00  0.00     0.023 A 
ATOM     90  C   UNL A   1      39.978  31.414  34.114  1.00  0.00     0.031 A 
ATOM     91  C   UNL A   1      41.894  30.347  35.119  1.00  0.00     0.131 A 
ATOM     92  C   UNL A   1      39.754  32.094  35.327  1.00  0.00     0.055 A 
ATOM     93  C   UNL A   1      41.657  31.004  36.324  1.00  0.00     0.041 A 
ATOM     94  F   UNL A   1      42.940  29.506  35.068  1.00  0.00    -0.206 F 
ATOM     95  C   UNL A   1      40.589  31.887  36.431  1.00  0.00     0.022 A 
BRANCH  92  96
ATOM     96  S   UNL A   1      38.379  33.280  35.484  1.00  0.00     0.124 S 
ATOM     97  O   UNL A   1      37.426  32.587  36.343  1.00  0.00    -0.237 OA
ATOM     98  O   UNL A   1      39.031  34.448  36.068  1.00  0.00    -0.237 OA
ATOM     99  O   UNL A   1      37.929  33.465  34.102  1.00  0.00    -0.744 OA
ENDBRANCH  92  96
ENDBRANCH  66  89
ENDBRANCH  40  41
ENDBRANCH  32  35
ENDBRANCH  30  31
ENDBRANCH  29  30
ENDBRANCH  28  29
ENDBRANCH  27  28
ENDBRANCH  26  27
ENDBRANCH   1  26
TORSDOF 23
ENDMDL
MODEL 3
REMARK VINA RESULT:     -10.8      2.611      7.609
REMARK SMILES Cc1nsc(NC(=O)CC[C@H](C)CC[NH3+])c1C(=O)NCCCCCCNC(=O)c1ccc(-c2c3nc(c(-c4cc(S(=O)(=O)[O-])ccc4F)c4ccc([nH]4)c(-c4cc(S(=O)(=O)[O-])ccc4F)c4nc(c(-c5cc(S(=O)(=O)[O-])ccc5F)c5ccc2[nH]5)C=C4)C=C3)cc1
REMARK SMILES IDX 20 1 19 2 17 3 18 4 16 6 1 7 2 8 3 9 4 10 5 11 6 12 7 13
REMARK SMILES IDX 8 15 9 16 10 17 11 18 12 19 13 20 14 21 15 22 21 26 22 27
REMARK SMILES IDX 23 28 24 29 25 30 26 31 27 32 28 34 29 35 30 36 91 37 31 38
REMARK SMILES IDX 90 39 32 40 33 41 34 42 84 43 35 44 89 45 83 46 85 47 36 48
REMARK SMILES IDX 88 49 82 50 81 51 37 53 69 54 49 55 68 56 50 57 53 58 67 59
REMARK SMILES IDX 86 60 51 61 52 62 66 64 87 65 54 66 38 67 39 68 47 69 40 70
REMARK SMILES IDX 46 71 48 72 45 73 41 74 42 75 43 76 44 77 70 78 71 79 79 80
REMARK SMILES IDX 72 81 78 82 80 83 77 84 73 85 74 86 75 87 76 88 55 89 56 90
REMARK SMILES IDX 64 91 57 92 63 93 65 94 62 95 58 96 59 97 60 98 61 99
REMARK H PARENT 19 5 6 14 15 23 15 24 15 25 26 33 85 52 53 63
REMARK Flexibility Score: inf
ROOT
ATOM      1  C   UNL A   1      32.214  27.920  27.015  1.00  0.00     0.116 C 
ENDROOT
BRANCH   1   2
ATOM      2  N   UNL A   1      31.128  26.980  26.939  1.00  0.00    -0.352 N 
ATOM      3  C   UNL A   1      30.441  26.452  25.878  1.00  0.00     0.256 C 
ATOM      4  O   UNL A   1      29.538  25.669  26.197  1.00  0.00    -0.269 OA
ATOM      5  H   UNL A   1      30.821  26.652  27.815  1.00  0.00     0.163 HD
BRANCH   3   6
ATOM      6  C   UNL A   1      30.667  26.756  24.451  1.00  0.00     0.097 A 
ATOM      7  C   UNL A   1      30.191  29.356  23.916  1.00  0.00     0.069 C 
ATOM      8  C   UNL A   1      30.616  27.962  23.620  1.00  0.00     0.066 A 
ATOM      9  N   UNL A   1      31.008  27.815  22.351  1.00  0.00    -0.195 NA
ATOM     10  S   UNL A   1      31.476  26.275  22.088  1.00  0.00    -0.017 S 
ATOM     11  C   UNL A   1      30.975  25.687  23.593  1.00  0.00     0.129 A 
BRANCH  11  12
ATOM     12  N   UNL A   1      31.003  24.334  23.874  1.00  0.00    -0.316 N 
ATOM     13  C   UNL A   1      31.964  23.572  24.478  1.00  0.00     0.225 C 
ATOM     14  H   UNL A   1      30.200  23.839  23.591  1.00  0.00     0.170 HD
ATOM     15  O   UNL A   1      31.734  22.365  24.625  1.00  0.00    -0.275 OA
BRANCH  13  16
ATOM     16  C   UNL A   1      33.330  24.112  24.877  1.00  0.00     0.101 C 
BRANCH  16  17
ATOM     17  C   UNL A   1      34.506  23.805  23.933  1.00  0.00     0.013 C 
BRANCH  17  18
ATOM     18  C   UNL A   1      35.572  22.807  24.436  1.00  0.00    -0.008 C 
ATOM     19  C   UNL A   1      36.716  22.674  23.418  1.00  0.00     0.008 C 
BRANCH  18  20
ATOM     20  C   UNL A   1      34.970  21.411  24.723  1.00  0.00     0.064 C 
BRANCH  20  21
ATOM     21  C   UNL A   1      34.652  21.189  26.212  1.00  0.00     0.259 C 
BRANCH  21  22
ATOM     22  N   UNL A   1      33.524  20.279  26.392  1.00  0.00    -0.358 N 
ATOM     23  H   UNL A   1      32.754  20.776  26.840  1.00  0.00     0.344 HD
ATOM     24  H   UNL A   1      33.809  19.495  26.979  1.00  0.00     0.344 HD
ATOM     25  H   UNL A   1      33.220  19.930  25.483  1.00  0.00     0.344 HD
ENDBRANCH  21  22
ENDBRANCH  20  21
ENDBRANCH  18  20
ENDBRANCH  17  18
ENDBRANCH  16  17
ENDBRANCH  13  16
ENDBRANCH  11  12
ENDBRANCH   3   6
ENDBRANCH   1   2
BRANCH   1  26
ATOM     26  C   UNL A   1      31.802  29.389  27.006  1.00  0.00     0.021 C 
BRANCH  26  27
ATOM     27  C   UNL A   1      32.882  30.397  26.595  1.00  0.00     0.002 C 
BRANCH  27  28
ATOM     28  C   UNL A   1      33.682  31.081  27.714  1.00  0.00     0.002 C 
BRANCH  28  29
ATOM     29  C   UNL A   1      35.213  31.031  27.626  1.00  0.00     0.021 C 
BRANCH  29  30
ATOM     30  C   UNL A   1      35.922  32.344  27.926  1.00  0.00     0.116 C 
BRANCH  30  31
ATOM     31  N   UNL A   1      35.833  32.738  29.325  1.00  0.00    -0.352 N 
ATOM     32  C   UNL A   1      36.425  32.129  30.418  1.00  0.00     0.251 C 
ATOM     33  H   UNL A   1      35.285  33.534  29.516  1.00  0.00     0.163 HD
ATOM     34  O   UNL A   1      35.992  32.336  31.539  1.00  0.00    -0.269 OA
BRANCH  32  35
ATOM     35  C   UNL A   1      37.564  31.209  30.199  1.00  0.00     0.039 A 
ATOM     36  C   UNL A   1      38.857  31.712  30.047  1.00  0.00     0.014 A 
ATOM     37  C   UNL A   1      37.336  29.834  30.164  1.00  0.00     0.014 A 
ATOM     38  C   UNL A   1      39.927  30.819  29.964  1.00  0.00     0.010 A 
ATOM     39  C   UNL A   1      38.400  28.953  30.186  1.00  0.00     0.010 A 
ATOM     40  C   UNL A   1      39.701  29.434  30.073  1.00  0.00    -0.014 A 
BRANCH  40  41
ATOM     41  C   UNL A   1      40.837  28.519  30.258  1.00  0.00     0.031 A 
ATOM     42  C   UNL A   1      41.247  28.349  31.680  1.00  0.00     0.074 A 
ATOM     43  C   UNL A   1      41.358  27.721  29.296  1.00  0.00     0.049 A 
ATOM     44  N   UNL A   1      42.338  28.752  32.240  1.00  0.00    -0.248 NA
ATOM     45  C   UNL A   1      40.264  27.808  32.634  1.00  0.00     0.031 C 
ATOM     46  C   UNL A   1      40.888  27.575  27.914  1.00  0.00     0.029 A 
ATOM     47  N   UNL A   1      42.366  26.796  29.369  1.00  0.00    -0.354 N 
ATOM     48  C   UNL A   1      42.295  28.284  33.551  1.00  0.00     0.074 A 
ATOM     49  C   UNL A   1      40.929  27.906  33.787  1.00  0.00     0.031 C 
ATOM     50  C   UNL A   1      41.447  26.480  27.351  1.00  0.00     0.029 A 
ATOM     51  C   UNL A   1      42.451  25.955  28.260  1.00  0.00     0.049 A 
ATOM     52  H   UNL A   1      42.977  26.730  30.138  1.00  0.00     0.167 HD
ATOM     53  C   UNL A   1      43.445  27.995  34.222  1.00  0.00     0.034 A 
ATOM     54  C   UNL A   1      43.306  24.919  28.052  1.00  0.00     0.034 A 
ATOM     55  C   UNL A   1      44.584  28.555  33.530  1.00  0.00     0.049 A 
ATOM     56  C   UNL A   1      44.500  25.168  28.884  1.00  0.00     0.074 A 
ATOM     57  C   UNL A   1      45.115  29.810  33.323  1.00  0.00     0.029 A 
ATOM     58  N   UNL A   1      45.139  27.721  32.591  1.00  0.00    -0.354 N 
ATOM     59  N   UNL A   1      45.295  26.181  28.685  1.00  0.00    -0.248 NA
ATOM     60  C   UNL A   1      44.643  24.513  30.178  1.00  0.00     0.031 C 
ATOM     61  C   UNL A   1      45.796  29.744  32.070  1.00  0.00     0.029 A 
ATOM     62  C   UNL A   1      45.703  28.445  31.572  1.00  0.00     0.049 A 
ATOM     63  H   UNL A   1      45.134  26.738  32.643  1.00  0.00     0.167 HD
ATOM     64  C   UNL A   1      45.687  26.563  29.950  1.00  0.00     0.074 A 
ATOM     65  C   UNL A   1      45.427  25.403  30.794  1.00  0.00     0.031 C 
ATOM     66  C   UNL A   1      45.885  27.878  30.248  1.00  0.00     0.034 A 
BRANCH  53  67
ATOM     67  C   UNL A   1      43.634  26.847  35.201  1.00  0.00     0.023 A 
ATOM     68  C   UNL A   1      44.033  27.177  36.517  1.00  0.00     0.031 A 
ATOM     69  C   UNL A   1      43.751  25.481  34.858  1.00  0.00     0.131 A 
ATOM     70  C   UNL A   1      44.601  26.213  37.371  1.00  0.00     0.055 A 
ATOM     71  C   UNL A   1      44.267  24.517  35.731  1.00  0.00     0.041 A 
ATOM     72  F   UNL A   1      43.466  25.011  33.639  1.00  0.00    -0.206 F 
ATOM     73  C   UNL A   1      44.725  24.884  36.984  1.00  0.00     0.022 A 
BRANCH  70  74
ATOM     74  S   UNL A   1      45.330  26.757  38.941  1.00  0.00     0.124 S 
ATOM     75  O   UNL A   1      44.163  26.798  39.815  1.00  0.00    -0.237 OA
ATOM     76  O   UNL A   1      46.300  25.699  39.204  1.00  0.00    -0.237 OA
ATOM     77  O   UNL A   1      45.905  28.059  38.612  1.00  0.00    -0.744 OA
ENDBRANCH  70  74
ENDBRANCH  53  67
BRANCH  54  78
ATOM     78  C   UNL A   1      43.079  23.649  27.317  1.00  0.00     0.023 A 
ATOM     79  C   UNL A   1      43.945  23.168  26.310  1.00  0.00     0.031 A 
ATOM     80  C   UNL A   1      42.113  22.747  27.813  1.00  0.00     0.131 A 
ATOM     81  C   UNL A   1      43.835  21.832  25.857  1.00  0.00     0.055 A 
ATOM     82  C   UNL A   1      42.013  21.427  27.365  1.00  0.00     0.041 A 
ATOM     83  F   UNL A   1      41.295  23.099  28.819  1.00  0.00    -0.206 F 
ATOM     84  C   UNL A   1      42.883  20.961  26.393  1.00  0.00     0.022 A 
BRANCH  81  85
ATOM     85  S   UNL A   1      44.999  21.174  24.615  1.00  0.00     0.124 S 
ATOM     86  O   UNL A   1      45.103  22.279  23.669  1.00  0.00    -0.237 OA
ATOM     87  O   UNL A   1      46.182  20.892  25.418  1.00  0.00    -0.237 OA
ATOM     88  O   UNL A   1      44.313  19.988  24.099  1.00  0.00    -0.744 OA
ENDBRANCH  81  85
ENDBRANCH  54  78
BRANCH  66  89
ATOM     89  C   UNL A   1      46.168  28.812  29.095  1.00  0.00     0.023 A 
ATOM     90  C   UNL A   1      45.222  29.670  28.492  1.00  0.00     0.031 A 
ATOM     91  C   UNL A   1      47.486  28.845  28.610  1.00  0.00     0.131 A 
ATOM     92  C   UNL A   1      45.612  30.507  27.428  1.00  0.00     0.055 A 
ATOM     93  C   UNL A   1      47.873  29.690  27.573  1.00  0.00     0.041 A 
ATOM     94  F   UNL A   1      48.431  28.061  29.155  1.00  0.00    -0.206 F 
ATOM     95  C   UNL A   1      46.934  30.521  26.972  1.00  0.00     0.022 A 
BRANCH  92  96
ATOM     96  S   UNL A   1      44.393  31.582  26.603  1.00  0.00     0.124 S 
ATOM     97  O   UNL A   1      45.161  32.211  25.534  1.00  0.00    -0.237 OA
ATOM     98  O   UNL A   1      43.368  30.634  26.177  1.00  0.00    -0.237 OA
ATOM     99  O   UNL A   1      43.969  32.496  27.666  1.00  0.00    -0.744 OA
ENDBRANCH  92  96
ENDBRANCH  66  89
ENDBRANCH  40  41
ENDBRANCH  32  35
ENDBRANCH  30  31
ENDBRANCH  29  30
ENDBRANCH  28  29
ENDBRANCH  27  28
ENDBRANCH  26  27
ENDBRANCH   1  26
TORSDOF 23
ENDMDL
