MODEL 1
REMARK VINA RESULT:     -11.4      0.000      0.000
REMARK SMILES O=C(NCCCCCCNC(=O)[C@H](CO)NC(=O)[C@H](Cc1c[nH]c2ccccc12)NC(=O)c1ccc(F)cc1)c1ccc(-c2c3nc(c(-c4cc(S(=O)(=O)[O-])ccc4F)c4ccc([nH]4)c(-c4cc(S(=O)(=O)[O-])ccc4F)c4nc(c(-c5cc(S(=O)(=O)[O-])ccc5F)c5ccc2[nH]5)C=C4)C=C3)cc1
REMARK SMILES IDX 7 1 6 2 5 3 4 4 3 5 1 6 2 7 40 9 41 10 102 11 42 12 101 13
REMARK SMILES IDX 43 14 44 15 45 16 95 17 46 18 100 19 94 20 96 21 47 22 99 23
REMARK SMILES IDX 93 24 92 25 48 27 80 28 60 29 79 30 61 31 64 32 78 33 97 34
REMARK SMILES IDX 62 35 63 36 77 38 98 39 65 40 49 41 50 42 58 43 51 44 57 45
REMARK SMILES IDX 59 46 56 47 52 48 53 49 54 50 55 51 81 52 82 53 90 54 83 55
REMARK SMILES IDX 89 56 91 57 88 58 84 59 85 60 86 61 87 62 66 63 67 64 75 65
REMARK SMILES IDX 68 66 74 67 76 68 73 69 69 70 70 71 71 72 72 73 8 74 9 75
REMARK SMILES IDX 10 76 11 77 12 79 13 80 16 81 17 82 18 84 19 85 30 86 31 87
REMARK SMILES IDX 32 89 33 90 34 91 39 92 35 93 38 94 36 95 37 96 20 97 21 98
REMARK SMILES IDX 22 99 29 100 23 101 24 102 28 103 25 105 27 106 26 107
REMARK SMILES IDX 14 108 15 109
REMARK H PARENT 3 8 96 26 64 37 10 78 16 83 30 88 23 104 15 110
REMARK Flexibility Score: inf
ROOT
ATOM      1  C   UNL A   1      36.043  20.494  25.027  1.00  0.00     0.002 C 
ENDROOT
BRANCH   1   2
ATOM      2  C   UNL A   1      37.272  19.577  24.999  1.00  0.00     0.002 C 
BRANCH   2   3
ATOM      3  C   UNL A   1      38.629  20.285  24.948  1.00  0.00     0.021 C 
BRANCH   3   4
ATOM      4  C   UNL A   1      39.484  20.129  26.201  1.00  0.00     0.116 C 
BRANCH   4   5
ATOM      5  N   UNL A   1      40.637  19.272  25.970  1.00  0.00    -0.352 N 
ATOM      6  O   UNL A   1      42.785  18.774  25.517  1.00  0.00    -0.269 OA
ATOM      7  C   UNL A   1      41.972  19.596  25.929  1.00  0.00     0.251 C 
ATOM      8  H   UNL A   1      40.431  18.321  25.822  1.00  0.00     0.163 HD
BRANCH   7   9
ATOM      9  C   UNL A   1      42.429  20.933  26.372  1.00  0.00     0.039 A 
ATOM     10  C   UNL A   1      42.640  21.957  25.445  1.00  0.00     0.014 A 
ATOM     11  C   UNL A   1      42.609  21.178  27.737  1.00  0.00     0.014 A 
ATOM     12  C   UNL A   1      43.145  23.181  25.869  1.00  0.00     0.010 A 
ATOM     13  C   UNL A   1      43.042  22.437  28.170  1.00  0.00     0.010 A 
ATOM     14  C   UNL A   1      43.333  23.442  27.237  1.00  0.00    -0.014 A 
BRANCH  14  15
ATOM     15  C   UNL A   1      43.755  24.806  27.649  1.00  0.00     0.031 A 
ATOM     16  C   UNL A   1      45.177  25.266  27.504  1.00  0.00     0.074 A 
ATOM     17  C   UNL A   1      42.809  25.655  28.098  1.00  0.00     0.049 A 
ATOM     18  N   UNL A   1      45.678  26.455  27.715  1.00  0.00    -0.248 NA
ATOM     19  C   UNL A   1      46.164  24.265  27.076  1.00  0.00     0.031 C 
ATOM     20  C   UNL A   1      41.399  25.308  28.296  1.00  0.00     0.029 A 
ATOM     21  N   UNL A   1      42.872  26.985  28.422  1.00  0.00    -0.354 N 
ATOM     22  C   UNL A   1      47.041  26.347  27.464  1.00  0.00     0.074 A 
ATOM     23  C   UNL A   1      47.290  24.965  27.105  1.00  0.00     0.031 C 
ATOM     24  C   UNL A   1      40.717  26.413  28.624  1.00  0.00     0.029 A 
ATOM     25  C   UNL A   1      41.646  27.533  28.716  1.00  0.00     0.049 A 
ATOM     26  H   UNL A   1      43.712  27.497  28.442  1.00  0.00     0.167 HD
ATOM     27  C   UNL A   1      47.991  27.313  27.521  1.00  0.00     0.034 A 
ATOM     28  C   UNL A   1      41.300  28.798  29.023  1.00  0.00     0.034 A 
ATOM     29  C   UNL A   1      47.723  28.688  27.866  1.00  0.00     0.049 A 
ATOM     30  C   UNL A   1      42.369  29.848  29.089  1.00  0.00     0.074 A 
ATOM     31  C   UNL A   1      48.608  29.753  27.909  1.00  0.00     0.029 A 
ATOM     32  N   UNL A   1      46.482  29.189  28.236  1.00  0.00    -0.354 N 
ATOM     33  N   UNL A   1      43.652  29.727  28.847  1.00  0.00    -0.248 NA
ATOM     34  C   UNL A   1      41.949  31.200  29.481  1.00  0.00     0.031 C 
ATOM     35  C   UNL A   1      47.913  30.884  28.357  1.00  0.00     0.029 A 
ATOM     36  C   UNL A   1      46.584  30.539  28.536  1.00  0.00     0.049 A 
ATOM     37  H   UNL A   1      45.651  28.663  28.278  1.00  0.00     0.167 HD
ATOM     38  C   UNL A   1      44.197  30.986  29.060  1.00  0.00     0.074 A 
ATOM     39  C   UNL A   1      43.101  31.857  29.439  1.00  0.00     0.031 C 
ATOM     40  C   UNL A   1      45.488  31.384  28.946  1.00  0.00     0.034 A 
BRANCH  27  41
ATOM     41  C   UNL A   1      49.416  26.908  27.244  1.00  0.00     0.023 A 
ATOM     42  C   UNL A   1      50.036  27.179  26.013  1.00  0.00     0.031 A 
ATOM     43  C   UNL A   1      50.166  26.246  28.232  1.00  0.00     0.131 A 
ATOM     44  C   UNL A   1      51.352  26.744  25.783  1.00  0.00     0.055 A 
ATOM     45  C   UNL A   1      51.495  25.871  28.019  1.00  0.00     0.041 A 
ATOM     46  F   UNL A   1      49.617  25.948  29.420  1.00  0.00    -0.206 F 
ATOM     47  C   UNL A   1      52.093  26.112  26.786  1.00  0.00     0.022 A 
BRANCH  44  48
ATOM     48  S   UNL A   1      52.053  26.934  24.122  1.00  0.00     0.124 S 
ATOM     49  O   UNL A   1      52.860  25.721  24.003  1.00  0.00    -0.237 OA
ATOM     50  O   UNL A   1      50.863  26.992  23.282  1.00  0.00    -0.237 OA
ATOM     51  O   UNL A   1      52.815  28.177  24.211  1.00  0.00    -0.744 OA
ENDBRANCH  44  48
ENDBRANCH  27  41
BRANCH  28  52
ATOM     52  C   UNL A   1      39.875  29.113  29.295  1.00  0.00     0.023 A 
ATOM     53  C   UNL A   1      39.394  29.197  30.609  1.00  0.00     0.031 A 
ATOM     54  C   UNL A   1      38.995  29.415  28.240  1.00  0.00     0.131 A 
ATOM     55  C   UNL A   1      38.062  29.578  30.837  1.00  0.00     0.055 A 
ATOM     56  C   UNL A   1      37.682  29.820  28.473  1.00  0.00     0.041 A 
ATOM     57  F   UNL A   1      39.424  29.369  26.968  1.00  0.00    -0.206 F 
ATOM     58  C   UNL A   1      37.209  29.904  29.778  1.00  0.00     0.022 A 
BRANCH  55  59
ATOM     59  S   UNL A   1      37.462  29.680  32.546  1.00  0.00     0.124 S 
ATOM     60  O   UNL A   1      38.484  30.514  33.169  1.00  0.00    -0.237 OA
ATOM     61  O   UNL A   1      36.149  30.294  32.377  1.00  0.00    -0.237 OA
ATOM     62  O   UNL A   1      37.439  28.285  32.982  1.00  0.00    -0.744 OA
ENDBRANCH  55  59
ENDBRANCH  28  52
BRANCH  40  63
ATOM     63  C   UNL A   1      45.786  32.829  29.230  1.00  0.00     0.023 A 
ATOM     64  C   UNL A   1      45.635  33.813  28.239  1.00  0.00     0.031 A 
ATOM     65  C   UNL A   1      46.190  33.228  30.515  1.00  0.00     0.131 A 
ATOM     66  C   UNL A   1      45.907  35.154  28.546  1.00  0.00     0.055 A 
ATOM     67  C   UNL A   1      46.424  34.567  30.825  1.00  0.00     0.041 A 
ATOM     68  F   UNL A   1      46.346  32.320  31.492  1.00  0.00    -0.206 F 
ATOM     69  C   UNL A   1      46.286  35.539  29.836  1.00  0.00     0.022 A 
BRANCH  66  70
ATOM     70  S   UNL A   1      45.775  36.399  27.235  1.00  0.00     0.124 S 
ATOM     71  O   UNL A   1      46.735  35.905  26.253  1.00  0.00    -0.237 OA
ATOM     72  O   UNL A   1      44.369  36.311  26.851  1.00  0.00    -0.237 OA
ATOM     73  O   UNL A   1      46.155  37.642  27.904  1.00  0.00    -0.744 OA
ENDBRANCH  66  70
ENDBRANCH  40  63
ENDBRANCH  14  15
ENDBRANCH   7   9
ENDBRANCH   4   5
ENDBRANCH   3   4
ENDBRANCH   2   3
ENDBRANCH   1   2
BRANCH   1  74
ATOM     74  C   UNL A   1      36.150  21.761  24.173  1.00  0.00     0.021 C 
BRANCH  74  75
ATOM     75  C   UNL A   1      34.830  22.511  23.986  1.00  0.00     0.116 C 
BRANCH  75  76
ATOM     76  N   UNL A   1      33.694  21.611  24.041  1.00  0.00    -0.354 N 
ATOM     77  C   UNL A   1      32.810  21.337  25.043  1.00  0.00     0.244 C 
ATOM     78  H   UNL A   1      33.533  21.109  23.208  1.00  0.00     0.163 HD
ATOM     79  O   UNL A   1      32.067  20.366  24.862  1.00  0.00    -0.273 OA
BRANCH  77  80
ATOM     80  C   UNL A   1      32.852  22.076  26.409  1.00  0.00     0.197 C 
BRANCH  80  81
ATOM     81  N   UNL A   1      31.532  22.535  26.853  1.00  0.00    -0.340 N 
ATOM     82  C   UNL A   1      30.849  23.698  26.657  1.00  0.00     0.243 C 
ATOM     83  H   UNL A   1      31.045  21.875  27.397  1.00  0.00     0.164 HD
ATOM     84  O   UNL A   1      29.738  23.771  27.195  1.00  0.00    -0.273 OA
BRANCH  82  85
ATOM     85  C   UNL A   1      31.309  24.808  25.685  1.00  0.00     0.176 C 
BRANCH  85  86
ATOM     86  N   UNL A   1      32.769  24.899  25.595  1.00  0.00    -0.340 N 
ATOM     87  C   UNL A   1      33.572  26.002  25.707  1.00  0.00     0.251 C 
ATOM     88  H   UNL A   1      33.237  24.048  25.431  1.00  0.00     0.164 HD
ATOM     89  O   UNL A   1      34.787  25.875  25.580  1.00  0.00    -0.269 OA
BRANCH  87  90
ATOM     90  C   UNL A   1      32.976  27.338  25.909  1.00  0.00     0.040 A 
ATOM     91  C   UNL A   1      33.221  28.392  25.019  1.00  0.00     0.017 A 
ATOM     92  C   UNL A   1      32.165  27.530  27.034  1.00  0.00     0.017 A 
ATOM     93  C   UNL A   1      32.700  29.657  25.294  1.00  0.00     0.040 A 
ATOM     94  C   UNL A   1      31.637  28.794  27.298  1.00  0.00     0.040 A 
ATOM     95  C   UNL A   1      31.917  29.847  26.431  1.00  0.00     0.123 A 
ATOM     96  F   UNL A   1      31.424  31.063  26.694  1.00  0.00    -0.207 F 
ENDBRANCH  87  90
ENDBRANCH  85  86
BRANCH  85  97
ATOM     97  C   UNL A   1      30.646  24.612  24.320  1.00  0.00     0.072 C 
BRANCH  97  98
ATOM     98  C   UNL A   1      30.974  25.646  23.292  1.00  0.00    -0.020 A 
ATOM     99  C   UNL A   1      31.863  25.508  22.243  1.00  0.00     0.087 A 
ATOM    100  C   UNL A   1      30.479  26.989  23.244  1.00  0.00     0.003 A 
ATOM    101  N   UNL A   1      31.926  26.700  21.572  1.00  0.00    -0.361 N 
ATOM    102  C   UNL A   1      31.100  27.624  22.169  1.00  0.00     0.046 A 
ATOM    103  C   UNL A   1      29.574  27.733  24.031  1.00  0.00     0.010 A 
ATOM    104  H   UNL A   1      32.482  26.870  20.776  1.00  0.00     0.166 HD
ATOM    105  C   UNL A   1      30.869  28.967  21.846  1.00  0.00     0.026 A 
ATOM    106  C   UNL A   1      29.330  29.076  23.722  1.00  0.00     0.001 A 
ATOM    107  C   UNL A   1      29.974  29.682  22.646  1.00  0.00     0.002 A 
ENDBRANCH  97  98
ENDBRANCH  85  97
ENDBRANCH  82  85
ENDBRANCH  80  81
BRANCH  80 108
ATOM    108  C   UNL A   1      33.462  21.115  27.458  1.00  0.00     0.191 C 
BRANCH 108 109
ATOM    109  O   UNL A   1      34.702  21.574  27.996  1.00  0.00    -0.394 OA
ATOM    110  H   UNL A   1      34.624  22.512  28.231  1.00  0.00     0.210 HD
ENDBRANCH 108 109
ENDBRANCH  80 108
ENDBRANCH  77  80
ENDBRANCH  75  76
ENDBRANCH  74  75
ENDBRANCH   1  74
TORSDOF 24
ENDMDL
MODEL 2
REMARK VINA RESULT:     -11.3      0.819      7.292
REMARK SMILES O=C(NCCCCCCNC(=O)[C@H](CO)NC(=O)[C@H](Cc1c[nH]c2ccccc12)NC(=O)c1ccc(F)cc1)c1ccc(-c2c3nc(c(-c4cc(S(=O)(=O)[O-])ccc4F)c4ccc([nH]4)c(-c4cc(S(=O)(=O)[O-])ccc4F)c4nc(c(-c5cc(S(=O)(=O)[O-])ccc5F)c5ccc2[nH]5)C=C4)C=C3)cc1
REMARK SMILES IDX 7 1 6 2 5 3 4 4 3 5 1 6 2 7 40 9 41 10 102 11 42 12 101 13
REMARK SMILES IDX 43 14 44 15 45 16 95 17 46 18 100 19 94 20 96 21 47 22 99 23
REMARK SMILES IDX 93 24 92 25 48 27 80 28 60 29 79 30 61 31 64 32 78 33 97 34
REMARK SMILES IDX 62 35 63 36 77 38 98 39 65 40 49 41 50 42 58 43 51 44 57 45
REMARK SMILES IDX 59 46 56 47 52 48 53 49 54 50 55 51 81 52 82 53 90 54 83 55
REMARK SMILES IDX 89 56 91 57 88 58 84 59 85 60 86 61 87 62 66 63 67 64 75 65
REMARK SMILES IDX 68 66 74 67 76 68 73 69 69 70 70 71 71 72 72 73 8 74 9 75
REMARK SMILES IDX 10 76 11 77 12 79 13 80 16 81 17 82 18 84 19 85 30 86 31 87
REMARK SMILES IDX 32 89 33 90 34 91 39 92 35 93 38 94 36 95 37 96 20 97 21 98
REMARK SMILES IDX 22 99 29 100 23 101 24 102 28 103 25 105 27 106 26 107
REMARK SMILES IDX 14 108 15 109
REMARK H PARENT 3 8 96 26 64 37 10 78 16 83 30 88 23 104 15 110
REMARK Flexibility Score: inf
ROOT
ATOM      1  C   UNL A   1      36.023  20.104  24.970  1.00  0.00     0.002 C 
ENDROOT
BRANCH   1   2
ATOM      2  C   UNL A   1      37.282  19.229  24.969  1.00  0.00     0.002 C 
BRANCH   2   3
ATOM      3  C   UNL A   1      38.613  19.979  24.851  1.00  0.00     0.021 C 
BRANCH   3   4
ATOM      4  C   UNL A   1      39.385  20.128  26.158  1.00  0.00     0.116 C 
BRANCH   4   5
ATOM      5  N   UNL A   1      40.559  19.271  26.199  1.00  0.00    -0.352 N 
ATOM      6  O   UNL A   1      42.739  18.741  26.025  1.00  0.00    -0.269 OA
ATOM      7  C   UNL A   1      41.890  19.611  26.194  1.00  0.00     0.251 C 
ATOM      8  H   UNL A   1      40.372  18.304  26.235  1.00  0.00     0.163 HD
BRANCH   7   9
ATOM      9  C   UNL A   1      42.300  21.020  26.384  1.00  0.00     0.039 A 
ATOM     10  C   UNL A   1      42.574  21.516  27.661  1.00  0.00     0.014 A 
ATOM     11  C   UNL A   1      42.454  21.846  25.265  1.00  0.00     0.014 A 
ATOM     12  C   UNL A   1      42.882  22.863  27.829  1.00  0.00     0.010 A 
ATOM     13  C   UNL A   1      42.841  23.182  25.430  1.00  0.00     0.010 A 
ATOM     14  C   UNL A   1      43.038  23.705  26.715  1.00  0.00    -0.014 A 
BRANCH  14  15
ATOM     15  C   UNL A   1      43.489  25.103  26.939  1.00  0.00     0.031 A 
ATOM     16  C   UNL A   1      42.605  26.116  27.609  1.00  0.00     0.074 A 
ATOM     17  C   UNL A   1      44.748  25.428  26.587  1.00  0.00     0.049 A 
ATOM     18  N   UNL A   1      42.891  27.340  27.972  1.00  0.00    -0.248 NA
ATOM     19  C   UNL A   1      41.223  25.710  27.899  1.00  0.00     0.031 C 
ATOM     20  C   UNL A   1      45.688  24.527  25.914  1.00  0.00     0.029 A 
ATOM     21  N   UNL A   1      45.471  26.576  26.783  1.00  0.00    -0.354 N 
ATOM     22  C   UNL A   1      41.724  27.859  28.520  1.00  0.00     0.074 A 
ATOM     23  C   UNL A   1      40.718  26.822  28.419  1.00  0.00     0.031 C 
ATOM     24  C   UNL A   1      46.885  25.123  25.830  1.00  0.00     0.029 A 
ATOM     25  C   UNL A   1      46.784  26.467  26.388  1.00  0.00     0.049 A 
ATOM     26  H   UNL A   1      45.089  27.396  27.168  1.00  0.00     0.167 HD
ATOM     27  C   UNL A   1      41.518  29.086  29.061  1.00  0.00     0.034 A 
ATOM     28  C   UNL A   1      47.801  27.346  26.469  1.00  0.00     0.034 A 
ATOM     29  C   UNL A   1      42.535  30.103  29.166  1.00  0.00     0.049 A 
ATOM     30  C   UNL A   1      47.548  28.699  27.064  1.00  0.00     0.074 A 
ATOM     31  C   UNL A   1      42.440  31.361  29.739  1.00  0.00     0.029 A 
ATOM     32  N   UNL A   1      43.832  29.985  28.684  1.00  0.00    -0.354 N 
ATOM     33  N   UNL A   1      46.437  29.172  27.577  1.00  0.00    -0.248 NA
ATOM     34  C   UNL A   1      48.674  29.640  27.079  1.00  0.00     0.031 C 
ATOM     35  C   UNL A   1      43.660  32.022  29.553  1.00  0.00     0.029 A 
ATOM     36  C   UNL A   1      44.536  31.156  28.918  1.00  0.00     0.049 A 
ATOM     37  H   UNL A   1      44.198  29.186  28.240  1.00  0.00     0.167 HD
ATOM     38  C   UNL A   1      46.729  30.470  27.975  1.00  0.00     0.074 A 
ATOM     39  C   UNL A   1      48.124  30.702  27.654  1.00  0.00     0.031 C 
ATOM     40  C   UNL A   1      45.915  31.384  28.560  1.00  0.00     0.034 A 
BRANCH  27  41
ATOM     41  C   UNL A   1      40.127  29.410  29.544  1.00  0.00     0.023 A 
ATOM     42  C   UNL A   1      39.808  29.446  30.911  1.00  0.00     0.031 A 
ATOM     43  C   UNL A   1      39.108  29.694  28.617  1.00  0.00     0.131 A 
ATOM     44  C   UNL A   1      38.488  29.711  31.313  1.00  0.00     0.055 A 
ATOM     45  C   UNL A   1      37.812  30.017  29.026  1.00  0.00     0.041 A 
ATOM     46  F   UNL A   1      39.354  29.657  27.299  1.00  0.00    -0.206 F 
ATOM     47  C   UNL A   1      37.494  30.019  30.381  1.00  0.00     0.022 A 
BRANCH  44  48
ATOM     48  S   UNL A   1      38.068  29.556  33.070  1.00  0.00     0.124 S 
ATOM     49  O   UNL A   1      37.300  30.778  33.297  1.00  0.00    -0.237 OA
ATOM     50  O   UNL A   1      37.309  28.311  33.105  1.00  0.00    -0.237 OA
ATOM     51  O   UNL A   1      39.369  29.512  33.732  1.00  0.00    -0.744 OA
ENDBRANCH  44  48
ENDBRANCH  27  41
BRANCH  28  52
ATOM     52  C   UNL A   1      49.139  26.954  25.960  1.00  0.00     0.023 A 
ATOM     53  C   UNL A   1      49.625  27.460  24.746  1.00  0.00     0.031 A 
ATOM     54  C   UNL A   1      49.982  26.128  26.725  1.00  0.00     0.131 A 
ATOM     55  C   UNL A   1      50.926  27.137  24.331  1.00  0.00     0.055 A 
ATOM     56  C   UNL A   1      51.284  25.833  26.322  1.00  0.00     0.041 A 
ATOM     57  F   UNL A   1      49.562  25.642  27.904  1.00  0.00    -0.206 F 
ATOM     58  C   UNL A   1      51.762  26.338  25.118  1.00  0.00     0.022 A 
BRANCH  55  59
ATOM     59  S   UNL A   1      51.534  27.804  22.757  1.00  0.00     0.124 S 
ATOM     60  O   UNL A   1      50.349  28.488  22.249  1.00  0.00    -0.237 OA
ATOM     61  O   UNL A   1      52.634  28.661  23.188  1.00  0.00    -0.237 OA
ATOM     62  O   UNL A   1      51.935  26.611  22.015  1.00  0.00    -0.744 OA
ENDBRANCH  55  59
ENDBRANCH  28  52
BRANCH  40  63
ATOM     63  C   UNL A   1      46.515  32.720  28.895  1.00  0.00     0.023 A 
ATOM     64  C   UNL A   1      46.491  33.781  27.976  1.00  0.00     0.031 A 
ATOM     65  C   UNL A   1      47.083  32.942  30.161  1.00  0.00     0.131 A 
ATOM     66  C   UNL A   1      47.047  35.019  28.330  1.00  0.00     0.055 A 
ATOM     67  C   UNL A   1      47.601  34.185  30.521  1.00  0.00     0.041 A 
ATOM     68  F   UNL A   1      47.126  31.955  31.070  1.00  0.00    -0.206 F 
ATOM     69  C   UNL A   1      47.588  35.231  29.602  1.00  0.00     0.022 A 
BRANCH  66  70
ATOM     70  S   UNL A   1      47.070  36.354  27.104  1.00  0.00     0.124 S 
ATOM     71  O   UNL A   1      46.885  37.535  27.943  1.00  0.00    -0.237 OA
ATOM     72  O   UNL A   1      48.389  36.207  26.495  1.00  0.00    -0.237 OA
ATOM     73  O   UNL A   1      45.946  36.034  26.227  1.00  0.00    -0.744 OA
ENDBRANCH  66  70
ENDBRANCH  40  63
ENDBRANCH  14  15
ENDBRANCH   7   9
ENDBRANCH   4   5
ENDBRANCH   3   4
ENDBRANCH   2   3
ENDBRANCH   1   2
BRANCH   1  74
ATOM     74  C   UNL A   1      36.265  21.603  24.769  1.00  0.00     0.021 C 
BRANCH  74  75
ATOM     75  C   UNL A   1      35.101  22.348  24.111  1.00  0.00     0.116 C 
BRANCH  75  76
ATOM     76  N   UNL A   1      33.891  21.549  24.110  1.00  0.00    -0.354 N 
ATOM     77  C   UNL A   1      32.925  21.378  25.058  1.00  0.00     0.244 C 
ATOM     78  H   UNL A   1      33.740  21.042  23.279  1.00  0.00     0.163 HD
ATOM     79  O   UNL A   1      32.113  20.469  24.849  1.00  0.00    -0.273 OA
BRANCH  77  80
ATOM     80  C   UNL A   1      32.946  22.146  26.409  1.00  0.00     0.197 C 
BRANCH  80  81
ATOM     81  N   UNL A   1      31.614  22.587  26.837  1.00  0.00    -0.340 N 
ATOM     82  C   UNL A   1      30.914  23.736  26.628  1.00  0.00     0.243 C 
ATOM     83  H   UNL A   1      31.133  21.922  27.382  1.00  0.00     0.164 HD
ATOM     84  O   UNL A   1      29.797  23.795  27.155  1.00  0.00    -0.273 OA
BRANCH  82  85
ATOM     85  C   UNL A   1      31.365  24.848  25.652  1.00  0.00     0.176 C 
BRANCH  85  86
ATOM     86  N   UNL A   1      32.824  24.920  25.528  1.00  0.00    -0.340 N 
ATOM     87  C   UNL A   1      33.642  26.015  25.610  1.00  0.00     0.251 C 
ATOM     88  H   UNL A   1      33.278  24.062  25.362  1.00  0.00     0.164 HD
ATOM     89  O   UNL A   1      34.852  25.871  25.456  1.00  0.00    -0.269 OA
BRANCH  87  90
ATOM     90  C   UNL A   1      33.067  27.360  25.812  1.00  0.00     0.040 A 
ATOM     91  C   UNL A   1      32.246  27.648  26.909  1.00  0.00     0.017 A 
ATOM     92  C   UNL A   1      33.355  28.344  24.858  1.00  0.00     0.017 A 
ATOM     93  C   UNL A   1      31.662  28.911  27.015  1.00  0.00     0.040 A 
ATOM     94  C   UNL A   1      32.778  29.609  24.977  1.00  0.00     0.040 A 
ATOM     95  C   UNL A   1      31.929  29.877  26.048  1.00  0.00     0.123 A 
ATOM     96  F   UNL A   1      31.363  31.085  26.150  1.00  0.00    -0.207 F 
ENDBRANCH  87  90
ENDBRANCH  85  86
BRANCH  85  97
ATOM     97  C   UNL A   1      30.667  24.671  24.303  1.00  0.00     0.072 C 
BRANCH  97  98
ATOM     98  C   UNL A   1      30.962  25.723  23.284  1.00  0.00    -0.020 A 
ATOM     99  C   UNL A   1      31.871  25.632  22.248  1.00  0.00     0.087 A 
ATOM    100  C   UNL A   1      30.405  27.042  23.233  1.00  0.00     0.003 A 
ATOM    101  N   UNL A   1      31.888  26.829  21.582  1.00  0.00    -0.361 N 
ATOM    102  C   UNL A   1      31.011  27.710  22.171  1.00  0.00     0.046 A 
ATOM    103  C   UNL A   1      29.454  27.739  24.010  1.00  0.00     0.010 A 
ATOM    104  H   UNL A   1      32.447  27.029  20.796  1.00  0.00     0.166 HD
ATOM    105  C   UNL A   1      30.723  29.042  21.850  1.00  0.00     0.026 A 
ATOM    106  C   UNL A   1      29.153  29.071  23.703  1.00  0.00     0.001 A 
ATOM    107  C   UNL A   1      29.783  29.711  22.639  1.00  0.00     0.002 A 
ENDBRANCH  97  98
ENDBRANCH  85  97
ENDBRANCH  82  85
ENDBRANCH  80  81
BRANCH  80 108
ATOM    108  C   UNL A   1      33.571  21.219  27.480  1.00  0.00     0.191 C 
BRANCH 108 109
ATOM    109  O   UNL A   1      33.295  19.835  27.263  1.00  0.00    -0.394 OA
ATOM    110  H   UNL A   1      34.101  19.389  26.958  1.00  0.00     0.210 HD
ENDBRANCH 108 109
ENDBRANCH  80 108
ENDBRANCH  77  80
ENDBRANCH  75  76
ENDBRANCH  74  75
ENDBRANCH   1  74
TORSDOF 24
ENDMDL
MODEL 3
REMARK VINA RESULT:     -10.9      1.524      7.269
REMARK SMILES O=C(NCCCCCCNC(=O)[C@H](CO)NC(=O)[C@H](Cc1c[nH]c2ccccc12)NC(=O)c1ccc(F)cc1)c1ccc(-c2c3nc(c(-c4cc(S(=O)(=O)[O-])ccc4F)c4ccc([nH]4)c(-c4cc(S(=O)(=O)[O-])ccc4F)c4nc(c(-c5cc(S(=O)(=O)[O-])ccc5F)c5ccc2[nH]5)C=C4)C=C3)cc1
REMARK SMILES IDX 7 1 6 2 5 3 4 4 3 5 1 6 2 7 40 9 41 10 102 11 42 12 101 13
REMARK SMILES IDX 43 14 44 15 45 16 95 17 46 18 100 19 94 20 96 21 47 22 99 23
REMARK SMILES IDX 93 24 92 25 48 27 80 28 60 29 79 30 61 31 64 32 78 33 97 34
REMARK SMILES IDX 62 35 63 36 77 38 98 39 65 40 49 41 50 42 58 43 51 44 57 45
REMARK SMILES IDX 59 46 56 47 52 48 53 49 54 50 55 51 81 52 82 53 90 54 83 55
REMARK SMILES IDX 89 56 91 57 88 58 84 59 85 60 86 61 87 62 66 63 67 64 75 65
REMARK SMILES IDX 68 66 74 67 76 68 73 69 69 70 70 71 71 72 72 73 8 74 9 75
REMARK SMILES IDX 10 76 11 77 12 79 13 80 16 81 17 82 18 84 19 85 30 86 31 87
REMARK SMILES IDX 32 89 33 90 34 91 39 92 35 93 38 94 36 95 37 96 20 97 21 98
REMARK SMILES IDX 22 99 29 100 23 101 24 102 28 103 25 105 27 106 26 107
REMARK SMILES IDX 14 108 15 109
REMARK H PARENT 3 8 96 26 64 37 10 78 16 83 30 88 23 104 15 110
REMARK Flexibility Score: inf
ROOT
ATOM      1  C   UNL A   1      36.097  21.351  24.716  1.00  0.00     0.002 C 
ENDROOT
BRANCH   1   2
ATOM      2  C   UNL A   1      36.609  19.932  24.992  1.00  0.00     0.002 C 
BRANCH   2   3
ATOM      3  C   UNL A   1      38.108  19.711  24.768  1.00  0.00     0.021 C 
BRANCH   3   4
ATOM      4  C   UNL A   1      38.995  20.066  25.956  1.00  0.00     0.116 C 
BRANCH   4   5
ATOM      5  N   UNL A   1      40.149  19.186  26.057  1.00  0.00    -0.352 N 
ATOM      6  O   UNL A   1      42.328  18.622  26.024  1.00  0.00    -0.269 OA
ATOM      7  C   UNL A   1      41.483  19.503  26.155  1.00  0.00     0.251 C 
ATOM      8  H   UNL A   1      39.945  18.223  26.056  1.00  0.00     0.163 HD
BRANCH   7   9
ATOM      9  C   UNL A   1      41.901  20.899  26.409  1.00  0.00     0.039 A 
ATOM     10  C   UNL A   1      41.875  21.849  25.386  1.00  0.00     0.014 A 
ATOM     11  C   UNL A   1      42.287  21.275  27.701  1.00  0.00     0.014 A 
ATOM     12  C   UNL A   1      42.346  23.136  25.623  1.00  0.00     0.010 A 
ATOM     13  C   UNL A   1      42.686  22.592  27.956  1.00  0.00     0.010 A 
ATOM     14  C   UNL A   1      42.739  23.528  26.914  1.00  0.00    -0.014 A 
BRANCH  14  15
ATOM     15  C   UNL A   1      43.116  24.946  27.142  1.00  0.00     0.031 A 
ATOM     16  C   UNL A   1      42.235  25.877  27.926  1.00  0.00     0.074 A 
ATOM     17  C   UNL A   1      44.311  25.367  26.685  1.00  0.00     0.049 A 
ATOM     18  N   UNL A   1      42.474  27.107  28.302  1.00  0.00    -0.248 NA
ATOM     19  C   UNL A   1      40.918  25.369  28.331  1.00  0.00     0.031 C 
ATOM     20  C   UNL A   1      45.239  24.552  25.895  1.00  0.00     0.029 A 
ATOM     21  N   UNL A   1      44.973  26.556  26.850  1.00  0.00    -0.354 N 
ATOM     22  C   UNL A   1      41.333  27.530  28.975  1.00  0.00     0.074 A 
ATOM     23  C   UNL A   1      40.393  26.429  28.933  1.00  0.00     0.031 C 
ATOM     24  C   UNL A   1      46.381  25.231  25.720  1.00  0.00     0.029 A 
ATOM     25  C   UNL A   1      46.246  26.549  26.331  1.00  0.00     0.049 A 
ATOM     26  H   UNL A   1      44.576  27.337  27.298  1.00  0.00     0.167 HD
ATOM     27  C   UNL A   1      41.099  28.724  29.575  1.00  0.00     0.034 A 
ATOM     28  C   UNL A   1      47.206  27.493  26.346  1.00  0.00     0.034 A 
ATOM     29  C   UNL A   1      42.053  29.805  29.619  1.00  0.00     0.049 A 
ATOM     30  C   UNL A   1      46.922  28.809  27.007  1.00  0.00     0.074 A 
ATOM     31  C   UNL A   1      41.930  31.037  30.240  1.00  0.00     0.029 A 
ATOM     32  N   UNL A   1      43.303  29.790  29.013  1.00  0.00    -0.354 N 
ATOM     33  N   UNL A   1      45.837  29.190  27.639  1.00  0.00    -0.248 NA
ATOM     34  C   UNL A   1      47.980  29.824  26.949  1.00  0.00     0.031 C 
ATOM     35  C   UNL A   1      43.081  31.786  29.963  1.00  0.00     0.029 A 
ATOM     36  C   UNL A   1      43.947  31.000  29.220  1.00  0.00     0.049 A 
ATOM     37  H   UNL A   1      43.676  29.031  28.510  1.00  0.00     0.167 HD
ATOM     38  C   UNL A   1      46.080  30.493  28.052  1.00  0.00     0.074 A 
ATOM     39  C   UNL A   1      47.419  30.829  27.609  1.00  0.00     0.031 C 
ATOM     40  C   UNL A   1      45.267  31.332  28.742  1.00  0.00     0.034 A 
BRANCH  27  41
ATOM     41  C   UNL A   1      39.743  28.938  30.197  1.00  0.00     0.023 A 
ATOM     42  C   UNL A   1      38.714  29.608  29.516  1.00  0.00     0.031 A 
ATOM     43  C   UNL A   1      39.478  28.457  31.491  1.00  0.00     0.131 A 
ATOM     44  C   UNL A   1      37.479  29.822  30.151  1.00  0.00     0.055 A 
ATOM     45  C   UNL A   1      38.228  28.619  32.094  1.00  0.00     0.041 A 
ATOM     46  F   UNL A   1      40.431  27.825  32.193  1.00  0.00    -0.206 F 
ATOM     47  C   UNL A   1      37.223  29.313  31.427  1.00  0.00     0.022 A 
BRANCH  44  48
ATOM     48  S   UNL A   1      36.244  30.858  29.323  1.00  0.00     0.124 S 
ATOM     49  O   UNL A   1      35.536  29.875  28.506  1.00  0.00    -0.237 OA
ATOM     50  O   UNL A   1      35.494  31.413  30.443  1.00  0.00    -0.237 OA
ATOM     51  O   UNL A   1      37.049  31.820  28.573  1.00  0.00    -0.744 OA
ENDBRANCH  44  48
ENDBRANCH  27  41
BRANCH  28  52
ATOM     52  C   UNL A   1      48.512  27.208  25.700  1.00  0.00     0.023 A 
ATOM     53  C   UNL A   1      48.711  27.459  24.335  1.00  0.00     0.031 A 
ATOM     54  C   UNL A   1      49.604  26.756  26.463  1.00  0.00     0.131 A 
ATOM     55  C   UNL A   1      49.980  27.258  23.770  1.00  0.00     0.055 A 
ATOM     56  C   UNL A   1      50.869  26.585  25.903  1.00  0.00     0.041 A 
ATOM     57  F   UNL A   1      49.460  26.527  27.778  1.00  0.00    -0.206 F 
ATOM     58  C   UNL A   1      51.062  26.837  24.549  1.00  0.00     0.022 A 
BRANCH  55  59
ATOM     59  S   UNL A   1      50.213  27.590  22.002  1.00  0.00     0.124 S 
ATOM     60  O   UNL A   1      51.667  27.657  21.904  1.00  0.00    -0.237 OA
ATOM     61  O   UNL A   1      49.582  26.428  21.383  1.00  0.00    -0.237 OA
ATOM     62  O   UNL A   1      49.512  28.855  21.798  1.00  0.00    -0.744 OA
ENDBRANCH  55  59
ENDBRANCH  28  52
BRANCH  40  63
ATOM     63  C   UNL A   1      45.807  32.697  29.064  1.00  0.00     0.023 A 
ATOM     64  C   UNL A   1      45.514  33.807  28.256  1.00  0.00     0.031 A 
ATOM     65  C   UNL A   1      46.592  32.892  30.213  1.00  0.00     0.131 A 
ATOM     66  C   UNL A   1      46.023  35.068  28.598  1.00  0.00     0.055 A 
ATOM     67  C   UNL A   1      47.065  34.154  30.568  1.00  0.00     0.041 A 
ATOM     68  F   UNL A   1      46.896  31.858  31.014  1.00  0.00    -0.206 F 
ATOM     69  C   UNL A   1      46.784  35.251  29.757  1.00  0.00     0.022 A 
BRANCH  66  70
ATOM     70  S   UNL A   1      45.692  36.475  27.503  1.00  0.00     0.124 S 
ATOM     71  O   UNL A   1      44.278  36.729  27.761  1.00  0.00    -0.237 OA
ATOM     72  O   UNL A   1      46.621  37.488  27.994  1.00  0.00    -0.237 OA
ATOM     73  O   UNL A   1      45.996  35.952  26.172  1.00  0.00    -0.744 OA
ENDBRANCH  66  70
ENDBRANCH  40  63
ENDBRANCH  14  15
ENDBRANCH   7   9
ENDBRANCH   4   5
ENDBRANCH   3   4
ENDBRANCH   2   3
ENDBRANCH   1   2
BRANCH   1  74
ATOM     74  C   UNL A   1      35.975  22.255  25.946  1.00  0.00     0.021 C 
BRANCH  74  75
ATOM     75  C   UNL A   1      34.615  22.193  26.644  1.00  0.00     0.116 C 
BRANCH  75  76
ATOM     76  N   UNL A   1      33.705  21.298  25.956  1.00  0.00    -0.354 N 
ATOM     77  C   UNL A   1      32.433  21.485  25.496  1.00  0.00     0.244 C 
ATOM     78  H   UNL A   1      34.068  20.397  25.790  1.00  0.00     0.163 HD
ATOM     79  O   UNL A   1      31.832  20.469  25.131  1.00  0.00    -0.273 OA
BRANCH  77  80
ATOM     80  C   UNL A   1      31.711  22.857  25.598  1.00  0.00     0.197 C 
BRANCH  80  81
ATOM     81  N   UNL A   1      30.815  23.117  24.467  1.00  0.00    -0.340 N 
ATOM     82  C   UNL A   1      30.578  24.230  23.717  1.00  0.00     0.243 C 
ATOM     83  H   UNL A   1      30.280  22.335  24.197  1.00  0.00     0.164 HD
ATOM     84  O   UNL A   1      29.728  24.114  22.827  1.00  0.00    -0.273 OA
BRANCH  82  85
ATOM     85  C   UNL A   1      31.422  25.522  23.813  1.00  0.00     0.176 C 
BRANCH  85  86
ATOM     86  N   UNL A   1      32.786  25.261  24.282  1.00  0.00    -0.340 N 
ATOM     87  C   UNL A   1      33.560  26.004  25.134  1.00  0.00     0.251 C 
ATOM     88  H   UNL A   1      33.203  24.439  23.937  1.00  0.00     0.164 HD
ATOM     89  O   UNL A   1      34.699  25.624  25.393  1.00  0.00    -0.269 OA
BRANCH  87  90
ATOM     90  C   UNL A   1      33.054  27.279  25.679  1.00  0.00     0.040 A 
ATOM     91  C   UNL A   1      33.616  28.508  25.310  1.00  0.00     0.017 A 
ATOM     92  C   UNL A   1      31.996  27.226  26.595  1.00  0.00     0.017 A 
ATOM     93  C   UNL A   1      33.157  29.680  25.911  1.00  0.00     0.040 A 
ATOM     94  C   UNL A   1      31.532  28.403  27.184  1.00  0.00     0.040 A 
ATOM     95  C   UNL A   1      32.123  29.617  26.843  1.00  0.00     0.123 A 
ATOM     96  F   UNL A   1      31.689  30.743  27.421  1.00  0.00    -0.207 F 
ENDBRANCH  87  90
ENDBRANCH  85  86
BRANCH  85  97
ATOM     97  C   UNL A   1      31.391  26.265  22.476  1.00  0.00     0.072 C 
BRANCH  97  98
ATOM     98  C   UNL A   1      31.005  27.706  22.551  1.00  0.00    -0.020 A 
ATOM     99  C   UNL A   1      31.852  28.790  22.427  1.00  0.00     0.087 A 
ATOM    100  C   UNL A   1      29.701  28.227  22.830  1.00  0.00     0.003 A 
ATOM    101  N   UNL A   1      31.122  29.933  22.621  1.00  0.00    -0.361 N 
ATOM    102  C   UNL A   1      29.809  29.616  22.879  1.00  0.00     0.046 A 
ATOM    103  C   UNL A   1      28.438  27.643  23.068  1.00  0.00     0.010 A 
ATOM    104  H   UNL A   1      31.485  30.848  22.579  1.00  0.00     0.166 HD
ATOM    105  C   UNL A   1      28.721  30.451  23.163  1.00  0.00     0.026 A 
ATOM    106  C   UNL A   1      27.339  28.462  23.352  1.00  0.00     0.001 A 
ATOM    107  C   UNL A   1      27.484  29.846  23.402  1.00  0.00     0.002 A 
ENDBRANCH  97  98
ENDBRANCH  85  97
ENDBRANCH  82  85
ENDBRANCH  80  81
BRANCH  80 108
ATOM    108  C   UNL A   1      30.915  22.884  26.925  1.00  0.00     0.191 C 
BRANCH 108 109
ATOM    109  O   UNL A   1      29.940  23.925  26.981  1.00  0.00    -0.394 OA
ATOM    110  H   UNL A   1      29.782  24.269  26.089  1.00  0.00     0.210 HD
ENDBRANCH 108 109
ENDBRANCH  80 108
ENDBRANCH  77  80
ENDBRANCH  75  76
ENDBRANCH  74  75
ENDBRANCH   1  74
TORSDOF 24
ENDMDL
