MODEL 1
REMARK VINA RESULT:     -11.9      0.000      0.000
REMARK SMILES NC(=O)C[C@H](NC(=O)C1(c2ccccc2)CCN(C(=O)[C@@H]2CCC[NH2+]2)CC1)C(=O)NCCCCCCNC(=O)c1ccc(-c2c3nc(c(-c4cc(S(=O)(=O)[O-])ccc4F)c4ccc([nH]4)c(-c4cc(S(=O)(=O)[O-])ccc4F)c4nc(c(-c5cc(S(=O)(=O)[O-])ccc5F)c5ccc2[nH]5)C=C4)C=C3)cc1
REMARK SMILES IDX 33 1 32 2 31 3 30 4 28 5 29 6 5 8 4 9 2 10 1 11 3 14 6 15
REMARK SMILES IDX 7 16 8 18 9 19 16 20 27 21 17 22 26 23 18 24 19 25 20 26
REMARK SMILES IDX 10 27 11 28 15 29 12 30 14 31 13 32 21 33 22 34 25 35 23 36
REMARK SMILES IDX 24 37 34 40 35 41 36 42 37 43 38 44 39 46 40 47 41 48 102 49
REMARK SMILES IDX 42 50 101 51 43 52 44 53 45 54 95 55 46 56 100 57 94 58
REMARK SMILES IDX 96 59 47 60 99 61 93 62 92 63 48 65 80 66 60 67 79 68 61 69
REMARK SMILES IDX 64 70 78 71 97 72 62 73 63 74 77 76 98 77 65 78 49 79 50 80
REMARK SMILES IDX 58 81 51 82 57 83 59 84 56 85 52 86 53 87 54 88 55 89 81 90
REMARK SMILES IDX 82 91 90 92 83 93 89 94 91 95 88 96 84 97 85 98 86 99 87 100
REMARK SMILES IDX 66 101 67 102 75 103 68 104 74 105 76 106 73 107 69 108
REMARK SMILES IDX 70 109 71 110 72 111
REMARK H PARENT 30 7 1 12 1 13 6 17 25 38 25 39 37 45 96 64 64 75
REMARK Flexibility Score: inf
ROOT
ATOM      1  C   UNL A   1      32.339  22.783  27.295  1.00  0.00     0.002 C 
ENDROOT
BRANCH   1   2
ATOM      2  C   UNL A   1      31.056  23.090  26.530  1.00  0.00     0.021 C 
BRANCH   2   3
ATOM      3  C   UNL A   1      30.312  24.357  26.963  1.00  0.00     0.116 C 
BRANCH   3   4
ATOM      4  N   UNL A   1      29.415  24.945  25.750  1.00  0.00    -0.354 N 
ATOM      5  C   UNL A   1      29.408  26.049  24.140  1.00  0.00     0.243 C 
ATOM      6  O   UNL A   1      28.515  26.139  23.216  1.00  0.00    -0.273 OA
ATOM      7  H   UNL A   1      28.499  24.608  25.876  1.00  0.00     0.163 HD
BRANCH   5   8
ATOM      8  C   UNL A   1      30.628  27.211  23.531  1.00  0.00     0.180 C 
BRANCH   8   9
ATOM      9  C   UNL A   1      30.416  28.656  24.058  1.00  0.00     0.134 C 
BRANCH   9  10
ATOM     10  C   UNL A   1      29.895  29.611  23.021  1.00  0.00     0.220 C 
ATOM     11  N   UNL A   1      29.746  30.899  23.442  1.00  0.00    -0.370 N 
ATOM     12  H   UNL A   1      29.408  31.584  22.821  1.00  0.00     0.159 HD
ATOM     13  H   UNL A   1      29.974  31.145  24.368  1.00  0.00     0.159 HD
ATOM     14  O   UNL A   1      29.627  29.280  21.872  1.00  0.00    -0.275 OA
ENDBRANCH   9  10
ENDBRANCH   8   9
BRANCH   8  15
ATOM     15  N   UNL A   1      31.583  27.070  22.408  1.00  0.00    -0.343 N 
ATOM     16  C   UNL A   1      32.688  26.279  22.314  1.00  0.00     0.231 C 
ATOM     17  H   UNL A   1      31.392  27.625  21.618  1.00  0.00     0.164 HD
ATOM     18  O   UNL A   1      33.270  26.192  21.236  1.00  0.00    -0.274 OA
BRANCH  16  19
ATOM     19  C   UNL A   1      33.146  25.574  23.585  1.00  0.00     0.077 C 
ATOM     20  C   UNL A   1      34.539  24.937  23.341  1.00  0.00     0.043 C 
ATOM     21  C   UNL A   1      32.092  24.505  23.964  1.00  0.00     0.043 C 
ATOM     22  C   UNL A   1      34.512  23.597  22.604  1.00  0.00     0.121 C 
ATOM     23  C   UNL A   1      32.169  23.240  23.111  1.00  0.00     0.121 C 
ATOM     24  N   UNL A   1      33.520  22.704  23.189  1.00  0.00    -0.337 N 
ATOM     25  C   UNL A   1      33.951  21.569  23.871  1.00  0.00     0.280 C 
ATOM     26  O   UNL A   1      35.158  21.398  24.095  1.00  0.00    -0.268 OA
BRANCH  19  27
ATOM     27  C   UNL A   1      33.243  26.680  24.641  1.00  0.00    -0.032 A 
ATOM     28  C   UNL A   1      32.381  26.504  26.268  1.00  0.00     0.005 A 
ATOM     29  C   UNL A   1      34.074  28.265  24.239  1.00  0.00     0.005 A 
ATOM     30  C   UNL A   1      32.432  27.868  27.476  1.00  0.00     0.000 A 
ATOM     31  C   UNL A   1      34.127  29.618  25.461  1.00  0.00     0.000 A 
ATOM     32  C   UNL A   1      33.317  29.414  27.101  1.00  0.00     0.000 A 
ENDBRANCH  19  27
BRANCH  25  33
ATOM     33  C   UNL A   1      32.954  20.495  24.364  1.00  0.00     0.272 C 
ATOM     34  C   UNL A   1      33.336  19.764  25.638  1.00  0.00     0.081 C 
ATOM     35  N   UNL A   1      32.675  19.460  23.344  1.00  0.00    -0.336 N 
ATOM     36  C   UNL A   1      32.587  18.447  25.543  1.00  0.00     0.068 C 
ATOM     37  C   UNL A   1      32.169  18.298  24.086  1.00  0.00     0.261 C 
ATOM     38  H   UNL A   1      33.529  19.217  22.841  1.00  0.00     0.346 HD
ATOM     39  H   UNL A   1      32.002  19.787  22.651  1.00  0.00     0.346 HD
ENDBRANCH  25  33
ENDBRANCH  16  19
ENDBRANCH   8  15
ENDBRANCH   5   8
ENDBRANCH   3   4
ENDBRANCH   2   3
ENDBRANCH   1   2
BRANCH   1  40
ATOM     40  C   UNL A   1      33.596  23.536  26.855  1.00  0.00     0.002 C 
BRANCH  40  41
ATOM     41  C   UNL A   1      34.934  22.837  27.100  1.00  0.00     0.021 C 
BRANCH  41  42
ATOM     42  C   UNL A   1      36.120  23.386  26.316  1.00  0.00     0.116 C 
BRANCH  42  43
ATOM     43  N   UNL A   1      37.203  22.423  26.235  1.00  0.00    -0.352 N 
ATOM     44  C   UNL A   1      38.550  22.658  26.316  1.00  0.00     0.251 C 
ATOM     45  H   UNL A   1      36.937  21.485  26.104  1.00  0.00     0.163 HD
ATOM     46  O   UNL A   1      39.353  21.791  25.990  1.00  0.00    -0.269 OA
BRANCH  44  47
ATOM     47  C   UNL A   1      39.002  23.981  26.780  1.00  0.00     0.039 A 
ATOM     48  C   UNL A   1      38.895  24.296  28.134  1.00  0.00     0.014 A 
ATOM     49  C   UNL A   1      39.570  24.884  25.874  1.00  0.00     0.014 A 
ATOM     50  C   UNL A   1      39.384  25.519  28.588  1.00  0.00     0.010 A 
ATOM     51  C   UNL A   1      40.128  26.065  26.342  1.00  0.00     0.010 A 
ATOM     52  C   UNL A   1      40.014  26.404  27.697  1.00  0.00    -0.014 A 
BRANCH  52  53
ATOM     53  C   UNL A   1      40.495  27.727  28.157  1.00  0.00     0.031 A 
ATOM     54  C   UNL A   1      41.957  28.055  28.045  1.00  0.00     0.074 A 
ATOM     55  C   UNL A   1      39.628  28.608  28.690  1.00  0.00     0.049 A 
ATOM     56  N   UNL A   1      42.593  29.141  28.399  1.00  0.00    -0.248 NA
ATOM     57  C   UNL A   1      42.823  27.005  27.487  1.00  0.00     0.031 C 
ATOM     58  C   UNL A   1      38.194  28.374  28.874  1.00  0.00     0.029 A 
ATOM     59  N   UNL A   1      39.823  29.876  29.167  1.00  0.00    -0.354 N 
ATOM     60  C   UNL A   1      43.933  28.902  28.111  1.00  0.00     0.074 A 
ATOM     61  C   UNL A   1      44.023  27.540  27.633  1.00  0.00     0.031 C 
ATOM     62  C   UNL A   1      37.633  29.481  29.388  1.00  0.00     0.029 A 
ATOM     63  C   UNL A   1      38.670  30.484  29.605  1.00  0.00     0.049 A 
ATOM     64  H   UNL A   1      40.705  30.313  29.194  1.00  0.00     0.167 HD
ATOM     65  C   UNL A   1      44.985  29.751  28.205  1.00  0.00     0.034 A 
ATOM     66  C   UNL A   1      38.479  31.714  30.120  1.00  0.00     0.034 A 
ATOM     67  C   UNL A   1      44.867  31.105  28.689  1.00  0.00     0.049 A 
ATOM     68  C   UNL A   1      39.667  32.630  30.258  1.00  0.00     0.074 A 
ATOM     69  C   UNL A   1      45.849  32.071  28.805  1.00  0.00     0.029 A 
ATOM     70  N   UNL A   1      43.688  31.680  29.149  1.00  0.00    -0.354 N 
ATOM     71  N   UNL A   1      40.924  32.409  29.944  1.00  0.00    -0.248 NA
ATOM     72  C   UNL A   1      39.410  33.965  30.810  1.00  0.00     0.031 C 
ATOM     73  C   UNL A   1      45.279  33.206  29.396  1.00  0.00     0.029 A 
ATOM     74  C   UNL A   1      43.923  32.977  29.577  1.00  0.00     0.049 A 
ATOM     75  H   UNL A   1      42.812  31.232  29.167  1.00  0.00     0.167 HD
ATOM     76  C   UNL A   1      41.601  33.589  30.234  1.00  0.00     0.074 A 
ATOM     77  C   UNL A   1      40.610  34.520  30.735  1.00  0.00     0.031 C 
ATOM     78  C   UNL A   1      42.921  33.881  30.093  1.00  0.00     0.034 A 
BRANCH  65  79
ATOM     79  C   UNL A   1      46.340  29.212  27.805  1.00  0.00     0.023 A 
ATOM     80  C   UNL A   1      46.659  28.945  26.460  1.00  0.00     0.031 A 
ATOM     81  C   UNL A   1      47.299  28.889  28.781  1.00  0.00     0.131 A 
ATOM     82  C   UNL A   1      47.853  28.282  26.139  1.00  0.00     0.055 A 
ATOM     83  C   UNL A   1      48.526  28.313  28.444  1.00  0.00     0.041 A 
ATOM     84  F   UNL A   1      47.049  29.099  30.083  1.00  0.00    -0.206 F 
ATOM     85  C   UNL A   1      48.801  27.986  27.119  1.00  0.00     0.022 A 
BRANCH  82  86
ATOM     86  S   UNL A   1      48.064  27.650  24.450  1.00  0.00     0.124 S 
ATOM     87  O   UNL A   1      47.114  28.472  23.706  1.00  0.00    -0.237 OA
ATOM     88  O   UNL A   1      49.475  27.910  24.191  1.00  0.00    -0.237 OA
ATOM     89  O   UNL A   1      47.699  26.239  24.564  1.00  0.00    -0.744 OA
ENDBRANCH  82  86
ENDBRANCH  65  79
BRANCH  66  90
ATOM     90  C   UNL A   1      37.115  32.154  30.529  1.00  0.00     0.023 A 
ATOM     91  C   UNL A   1      36.248  32.763  29.607  1.00  0.00     0.031 A 
ATOM     92  C   UNL A   1      36.665  31.990  31.851  1.00  0.00     0.131 A 
ATOM     93  C   UNL A   1      34.988  33.218  30.026  1.00  0.00     0.055 A 
ATOM     94  C   UNL A   1      35.392  32.402  32.252  1.00  0.00     0.041 A 
ATOM     95  F   UNL A   1      37.452  31.408  32.770  1.00  0.00    -0.206 F 
ATOM     96  C   UNL A   1      34.550  33.030  31.339  1.00  0.00     0.022 A 
BRANCH  93  97
ATOM     97  S   UNL A   1      33.951  34.119  28.842  1.00  0.00     0.124 S 
ATOM     98  O   UNL A   1      34.887  35.108  28.320  1.00  0.00    -0.237 OA
ATOM     99  O   UNL A   1      33.552  33.061  27.921  1.00  0.00    -0.237 OA
ATOM    100  O   UNL A   1      32.875  34.655  29.674  1.00  0.00    -0.744 OA
ENDBRANCH  93  97
ENDBRANCH  66  90
BRANCH  78 101
ATOM    101  C   UNL A   1      43.348  35.281  30.458  1.00  0.00     0.023 A 
ATOM    102  C   UNL A   1      43.278  36.340  29.536  1.00  0.00     0.031 A 
ATOM    103  C   UNL A   1      43.844  35.555  31.745  1.00  0.00     0.131 A 
ATOM    104  C   UNL A   1      43.751  37.611  29.895  1.00  0.00     0.055 A 
ATOM    105  C   UNL A   1      44.256  36.835  32.116  1.00  0.00     0.041 A 
ATOM    106  F   UNL A   1      43.935  34.581  32.665  1.00  0.00    -0.206 F 
ATOM    107  C   UNL A   1      44.224  37.869  31.184  1.00  0.00     0.022 A 
BRANCH 104 108
ATOM    108  S   UNL A   1      43.829  38.902  28.623  1.00  0.00     0.124 S 
ATOM    109  O   UNL A   1      44.986  38.483  27.838  1.00  0.00    -0.237 OA
ATOM    110  O   UNL A   1      42.533  38.772  27.966  1.00  0.00    -0.237 OA
ATOM    111  O   UNL A   1      44.014  40.131  29.393  1.00  0.00    -0.744 OA
ENDBRANCH 104 108
ENDBRANCH  78 101
ENDBRANCH  52  53
ENDBRANCH  44  47
ENDBRANCH  42  43
ENDBRANCH  41  42
ENDBRANCH  40  41
ENDBRANCH   1  40
TORSDOF 22
ENDMDL
MODEL 2
REMARK VINA RESULT:     -11.0      2.305      7.414
REMARK SMILES NC(=O)C[C@H](NC(=O)C1(c2ccccc2)CCN(C(=O)[C@@H]2CCC[NH2+]2)CC1)C(=O)NCCCCCCNC(=O)c1ccc(-c2c3nc(c(-c4cc(S(=O)(=O)[O-])ccc4F)c4ccc([nH]4)c(-c4cc(S(=O)(=O)[O-])ccc4F)c4nc(c(-c5cc(S(=O)(=O)[O-])ccc5F)c5ccc2[nH]5)C=C4)C=C3)cc1
REMARK SMILES IDX 33 1 32 2 31 3 30 4 28 5 29 6 5 8 4 9 2 10 1 11 3 14 6 15
REMARK SMILES IDX 7 16 8 18 9 19 16 20 27 21 17 22 26 23 18 24 19 25 20 26
REMARK SMILES IDX 10 27 11 28 15 29 12 30 14 31 13 32 21 33 22 34 25 35 23 36
REMARK SMILES IDX 24 37 34 40 35 41 36 42 37 43 38 44 39 46 40 47 41 48 102 49
REMARK SMILES IDX 42 50 101 51 43 52 44 53 45 54 95 55 46 56 100 57 94 58
REMARK SMILES IDX 96 59 47 60 99 61 93 62 92 63 48 65 80 66 60 67 79 68 61 69
REMARK SMILES IDX 64 70 78 71 97 72 62 73 63 74 77 76 98 77 65 78 49 79 50 80
REMARK SMILES IDX 58 81 51 82 57 83 59 84 56 85 52 86 53 87 54 88 55 89 81 90
REMARK SMILES IDX 82 91 90 92 83 93 89 94 91 95 88 96 84 97 85 98 86 99 87 100
REMARK SMILES IDX 66 101 67 102 75 103 68 104 74 105 76 106 73 107 69 108
REMARK SMILES IDX 70 109 71 110 72 111
REMARK H PARENT 30 7 1 12 1 13 6 17 25 38 25 39 37 45 96 64 64 75
REMARK Flexibility Score: inf
ROOT
ATOM      1  C   UNL A   1      31.749  22.338  26.526  1.00  0.00     0.002 C 
ENDROOT
BRANCH   1   2
ATOM      2  C   UNL A   1      30.410  22.997  26.841  1.00  0.00     0.021 C 
BRANCH   2   3
ATOM      3  C   UNL A   1      30.415  24.527  26.876  1.00  0.00     0.116 C 
BRANCH   3   4
ATOM      4  N   UNL A   1      29.324  25.134  25.845  1.00  0.00    -0.354 N 
ATOM      5  C   UNL A   1      29.046  26.213  24.242  1.00  0.00     0.243 C 
ATOM      6  O   UNL A   1      27.996  26.327  23.505  1.00  0.00    -0.273 OA
ATOM      7  H   UNL A   1      28.437  24.837  26.153  1.00  0.00     0.163 HD
BRANCH   5   8
ATOM      8  C   UNL A   1      30.169  27.315  23.384  1.00  0.00     0.180 C 
BRANCH   8   9
ATOM      9  C   UNL A   1      30.028  28.798  23.822  1.00  0.00     0.134 C 
BRANCH   9  10
ATOM     10  C   UNL A   1      29.252  29.646  22.853  1.00  0.00     0.220 C 
ATOM     11  N   UNL A   1      27.907  29.695  23.075  1.00  0.00    -0.370 N 
ATOM     12  H   UNL A   1      27.330  30.229  22.483  1.00  0.00     0.159 HD
ATOM     13  H   UNL A   1      27.513  29.196  23.826  1.00  0.00     0.159 HD
ATOM     14  O   UNL A   1      29.770  30.265  21.932  1.00  0.00    -0.275 OA
ENDBRANCH   9  10
ENDBRANCH   8   9
BRANCH   8  15
ATOM     15  N   UNL A   1      30.961  27.080  22.155  1.00  0.00    -0.343 N 
ATOM     16  C   UNL A   1      32.031  26.258  21.966  1.00  0.00     0.231 C 
ATOM     17  H   UNL A   1      30.674  27.588  21.363  1.00  0.00     0.164 HD
ATOM     18  O   UNL A   1      32.460  26.089  20.827  1.00  0.00    -0.274 OA
BRANCH  16  19
ATOM     19  C   UNL A   1      32.645  25.623  23.208  1.00  0.00     0.077 C 
ATOM     20  C   UNL A   1      34.060  25.091  22.861  1.00  0.00     0.043 C 
ATOM     21  C   UNL A   1      31.715  24.485  23.693  1.00  0.00     0.043 C 
ATOM     22  C   UNL A   1      34.081  23.735  22.155  1.00  0.00     0.121 C 
ATOM     23  C   UNL A   1      31.823  23.208  22.860  1.00  0.00     0.121 C 
ATOM     24  N   UNL A   1      33.215  22.782  22.837  1.00  0.00    -0.337 N 
ATOM     25  C   UNL A   1      33.789  21.702  23.502  1.00  0.00     0.280 C 
ATOM     26  O   UNL A   1      35.020  21.632  23.629  1.00  0.00    -0.268 OA
BRANCH  19  27
ATOM     27  C   UNL A   1      32.738  26.760  24.231  1.00  0.00    -0.032 A 
ATOM     28  C   UNL A   1      33.468  28.392  23.757  1.00  0.00     0.005 A 
ATOM     29  C   UNL A   1      32.281  26.463  25.982  1.00  0.00     0.005 A 
ATOM     30  C   UNL A   1      33.653  29.704  25.010  1.00  0.00     0.000 A 
ATOM     31  C   UNL A   1      32.461  27.787  27.223  1.00  0.00     0.000 A 
ATOM     32  C   UNL A   1      33.135  29.427  26.733  1.00  0.00     0.000 A 
ENDBRANCH  19  27
BRANCH  25  33
ATOM     33  C   UNL A   1      32.925  20.566  24.096  1.00  0.00     0.272 C 
ATOM     34  C   UNL A   1      33.627  19.627  25.060  1.00  0.00     0.081 C 
ATOM     35  N   UNL A   1      32.296  19.722  23.057  1.00  0.00    -0.336 N 
ATOM     36  C   UNL A   1      32.809  18.350  24.988  1.00  0.00     0.068 C 
ATOM     37  C   UNL A   1      31.968  18.453  23.722  1.00  0.00     0.261 C 
ATOM     38  H   UNL A   1      32.945  19.562  22.287  1.00  0.00     0.346 HD
ATOM     39  H   UNL A   1      31.466  20.165  22.663  1.00  0.00     0.346 HD
ENDBRANCH  25  33
ENDBRANCH  16  19
ENDBRANCH   8  15
ENDBRANCH   5   8
ENDBRANCH   3   4
ENDBRANCH   2   3
ENDBRANCH   1   2
BRANCH   1  40
ATOM     40  C   UNL A   1      33.002  23.066  27.014  1.00  0.00     0.002 C 
BRANCH  40  41
ATOM     41  C   UNL A   1      34.241  22.205  27.264  1.00  0.00     0.021 C 
BRANCH  41  42
ATOM     42  C   UNL A   1      35.533  22.703  26.628  1.00  0.00     0.116 C 
BRANCH  42  43
ATOM     43  N   UNL A   1      36.352  21.608  26.143  1.00  0.00    -0.352 N 
ATOM     44  C   UNL A   1      37.681  21.629  25.813  1.00  0.00     0.251 C 
ATOM     45  H   UNL A   1      35.896  20.742  26.038  1.00  0.00     0.163 HD
ATOM     46  O   UNL A   1      38.182  20.698  25.191  1.00  0.00    -0.269 OA
BRANCH  44  47
ATOM     47  C   UNL A   1      38.480  22.804  26.203  1.00  0.00     0.039 A 
ATOM     48  C   UNL A   1      39.624  22.617  26.978  1.00  0.00     0.014 A 
ATOM     49  C   UNL A   1      38.111  24.079  25.760  1.00  0.00     0.014 A 
ATOM     50  C   UNL A   1      40.420  23.717  27.291  1.00  0.00     0.010 A 
ATOM     51  C   UNL A   1      38.947  25.159  26.005  1.00  0.00     0.010 A 
ATOM     52  C   UNL A   1      40.093  24.991  26.796  1.00  0.00    -0.014 A 
BRANCH  52  53
ATOM     53  C   UNL A   1      40.902  26.176  27.162  1.00  0.00     0.031 A 
ATOM     54  C   UNL A   1      40.294  27.238  28.034  1.00  0.00     0.074 A 
ATOM     55  C   UNL A   1      42.157  26.301  26.693  1.00  0.00     0.049 A 
ATOM     56  N   UNL A   1      40.814  28.359  28.460  1.00  0.00    -0.248 NA
ATOM     57  C   UNL A   1      38.902  27.021  28.455  1.00  0.00     0.031 C 
ATOM     58  C   UNL A   1      42.829  25.343  25.813  1.00  0.00     0.029 A 
ATOM     59  N   UNL A   1      43.093  27.280  26.896  1.00  0.00    -0.354 N 
ATOM     60  C   UNL A   1      39.810  28.982  29.196  1.00  0.00     0.074 A 
ATOM     61  C   UNL A   1      38.632  28.153  29.084  1.00  0.00     0.031 C 
ATOM     62  C   UNL A   1      44.084  25.763  25.585  1.00  0.00     0.029 A 
ATOM     63  C   UNL A   1      44.292  27.036  26.268  1.00  0.00     0.049 A 
ATOM     64  H   UNL A   1      42.924  28.083  27.440  1.00  0.00     0.167 HD
ATOM     65  C   UNL A   1      39.877  30.123  29.924  1.00  0.00     0.034 A 
ATOM     66  C   UNL A   1      45.427  27.761  26.253  1.00  0.00     0.034 A 
ATOM     67  C   UNL A   1      41.067  30.934  30.015  1.00  0.00     0.049 A 
ATOM     68  C   UNL A   1      45.470  29.049  27.033  1.00  0.00     0.074 A 
ATOM     69  C   UNL A   1      41.271  32.094  30.740  1.00  0.00     0.029 A 
ATOM     70  N   UNL A   1      42.257  30.670  29.345  1.00  0.00    -0.354 N 
ATOM     71  N   UNL A   1      44.529  29.609  27.759  1.00  0.00    -0.248 NA
ATOM     72  C   UNL A   1      46.731  29.798  27.000  1.00  0.00     0.031 C 
ATOM     73  C   UNL A   1      42.559  32.566  30.457  1.00  0.00     0.029 A 
ATOM     74  C   UNL A   1      43.188  31.661  29.616  1.00  0.00     0.049 A 
ATOM     75  H   UNL A   1      42.416  29.893  28.763  1.00  0.00     0.167 HD
ATOM     76  C   UNL A   1      45.096  30.762  28.293  1.00  0.00     0.074 A 
ATOM     77  C   UNL A   1      46.463  30.808  27.814  1.00  0.00     0.031 C 
ATOM     78  C   UNL A   1      44.541  31.695  29.110  1.00  0.00     0.034 A 
BRANCH  65  79
ATOM     79  C   UNL A   1      38.617  30.557  30.638  1.00  0.00     0.023 A 
ATOM     80  C   UNL A   1      37.578  31.223  29.959  1.00  0.00     0.031 A 
ATOM     81  C   UNL A   1      38.478  30.372  32.024  1.00  0.00     0.131 A 
ATOM     82  C   UNL A   1      36.505  31.768  30.679  1.00  0.00     0.055 A 
ATOM     83  C   UNL A   1      37.360  30.837  32.721  1.00  0.00     0.041 A 
ATOM     84  F   UNL A   1      39.442  29.762  32.733  1.00  0.00    -0.206 F 
ATOM     85  C   UNL A   1      36.376  31.559  32.052  1.00  0.00     0.022 A 
BRANCH  82  86
ATOM     86  S   UNL A   1      35.381  32.908  29.823  1.00  0.00     0.124 S 
ATOM     87  O   UNL A   1      34.302  33.047  30.798  1.00  0.00    -0.237 OA
ATOM     88  O   UNL A   1      36.218  34.085  29.623  1.00  0.00    -0.237 OA
ATOM     89  O   UNL A   1      35.020  32.185  28.606  1.00  0.00    -0.744 OA
ENDBRANCH  82  86
ENDBRANCH  65  79
BRANCH  66  90
ATOM     90  C   UNL A   1      46.614  27.283  25.489  1.00  0.00     0.023 A 
ATOM     91  C   UNL A   1      46.918  27.812  24.225  1.00  0.00     0.031 A 
ATOM     92  C   UNL A   1      47.451  26.277  26.003  1.00  0.00     0.131 A 
ATOM     93  C   UNL A   1      48.010  27.310  23.500  1.00  0.00     0.055 A 
ATOM     94  C   UNL A   1      48.564  25.814  25.298  1.00  0.00     0.041 A 
ATOM     95  F   UNL A   1      47.209  25.742  27.210  1.00  0.00    -0.206 F 
ATOM     96  C   UNL A   1      48.842  26.323  24.033  1.00  0.00     0.022 A 
BRANCH  93  97
ATOM     97  S   UNL A   1      48.291  27.923  21.816  1.00  0.00     0.124 S 
ATOM     98  O   UNL A   1      47.149  28.809  21.627  1.00  0.00    -0.237 OA
ATOM     99  O   UNL A   1      49.593  28.569  21.942  1.00  0.00    -0.237 OA
ATOM    100  O   UNL A   1      48.279  26.706  21.006  1.00  0.00    -0.744 OA
ENDBRANCH  93  97
ENDBRANCH  66  90
BRANCH  78 101
ATOM    101  C   UNL A   1      45.438  32.823  29.558  1.00  0.00     0.023 A 
ATOM    102  C   UNL A   1      46.187  32.745  30.746  1.00  0.00     0.031 A 
ATOM    103  C   UNL A   1      45.533  33.996  28.790  1.00  0.00     0.131 A 
ATOM    104  C   UNL A   1      46.953  33.844  31.161  1.00  0.00     0.055 A 
ATOM    105  C   UNL A   1      46.346  35.063  29.177  1.00  0.00     0.041 A 
ATOM    106  F   UNL A   1      44.839  34.126  27.648  1.00  0.00    -0.206 F 
ATOM    107  C   UNL A   1      47.051  34.996  30.375  1.00  0.00     0.022 A 
BRANCH 104 108
ATOM    108  S   UNL A   1      47.748  33.785  32.790  1.00  0.00     0.124 S 
ATOM    109  O   UNL A   1      48.823  34.761  32.638  1.00  0.00    -0.237 OA
ATOM    110  O   UNL A   1      46.660  34.171  33.682  1.00  0.00    -0.237 OA
ATOM    111  O   UNL A   1      48.185  32.395  32.910  1.00  0.00    -0.744 OA
ENDBRANCH 104 108
ENDBRANCH  78 101
ENDBRANCH  52  53
ENDBRANCH  44  47
ENDBRANCH  42  43
ENDBRANCH  41  42
ENDBRANCH  40  41
ENDBRANCH   1  40
TORSDOF 22
ENDMDL
MODEL 3
REMARK VINA RESULT:     -10.8      1.176      2.190
REMARK SMILES NC(=O)C[C@H](NC(=O)C1(c2ccccc2)CCN(C(=O)[C@@H]2CCC[NH2+]2)CC1)C(=O)NCCCCCCNC(=O)c1ccc(-c2c3nc(c(-c4cc(S(=O)(=O)[O-])ccc4F)c4ccc([nH]4)c(-c4cc(S(=O)(=O)[O-])ccc4F)c4nc(c(-c5cc(S(=O)(=O)[O-])ccc5F)c5ccc2[nH]5)C=C4)C=C3)cc1
REMARK SMILES IDX 33 1 32 2 31 3 30 4 28 5 29 6 5 8 4 9 2 10 1 11 3 14 6 15
REMARK SMILES IDX 7 16 8 18 9 19 16 20 27 21 17 22 26 23 18 24 19 25 20 26
REMARK SMILES IDX 10 27 11 28 15 29 12 30 14 31 13 32 21 33 22 34 25 35 23 36
REMARK SMILES IDX 24 37 34 40 35 41 36 42 37 43 38 44 39 46 40 47 41 48 102 49
REMARK SMILES IDX 42 50 101 51 43 52 44 53 45 54 95 55 46 56 100 57 94 58
REMARK SMILES IDX 96 59 47 60 99 61 93 62 92 63 48 65 80 66 60 67 79 68 61 69
REMARK SMILES IDX 64 70 78 71 97 72 62 73 63 74 77 76 98 77 65 78 49 79 50 80
REMARK SMILES IDX 58 81 51 82 57 83 59 84 56 85 52 86 53 87 54 88 55 89 81 90
REMARK SMILES IDX 82 91 90 92 83 93 89 94 91 95 88 96 84 97 85 98 86 99 87 100
REMARK SMILES IDX 66 101 67 102 75 103 68 104 74 105 76 106 73 107 69 108
REMARK SMILES IDX 70 109 71 110 72 111
REMARK H PARENT 30 7 1 12 1 13 6 17 25 38 25 39 37 45 96 64 64 75
REMARK Flexibility Score: inf
ROOT
ATOM      1  C   UNL A   1      34.454  24.312  22.724  1.00  0.00     0.002 C 
ENDROOT
BRANCH   1   2
ATOM      2  C   UNL A   1      34.438  25.832  22.849  1.00  0.00     0.021 C 
BRANCH   2   3
ATOM      3  C   UNL A   1      33.463  26.564  21.923  1.00  0.00     0.116 C 
BRANCH   3   4
ATOM      4  N   UNL A   1      32.623  27.684  22.735  1.00  0.00    -0.354 N 
ATOM      5  C   UNL A   1      31.002  28.056  23.758  1.00  0.00     0.243 C 
ATOM      6  O   UNL A   1      30.723  29.065  24.508  1.00  0.00    -0.273 OA
ATOM      7  H   UNL A   1      33.142  28.520  22.698  1.00  0.00     0.163 HD
BRANCH   5   8
ATOM      8  C   UNL A   1      29.496  27.100  23.921  1.00  0.00     0.180 C 
BRANCH   8   9
ATOM      9  C   UNL A   1      28.469  27.374  22.788  1.00  0.00     0.134 C 
BRANCH   9  10
ATOM     10  C   UNL A   1      27.598  28.574  23.035  1.00  0.00     0.220 C 
ATOM     11  N   UNL A   1      28.138  29.768  22.656  1.00  0.00    -0.370 N 
ATOM     12  H   UNL A   1      27.630  30.601  22.785  1.00  0.00     0.159 HD
ATOM     13  H   UNL A   1      29.037  29.798  22.255  1.00  0.00     0.159 HD
ATOM     14  O   UNL A   1      26.479  28.508  23.527  1.00  0.00    -0.275 OA
ENDBRANCH   9  10
ENDBRANCH   8   9
BRANCH   8  15
ATOM     15  N   UNL A   1      28.979  26.351  25.090  1.00  0.00    -0.343 N 
ATOM     16  C   UNL A   1      29.640  25.508  25.930  1.00  0.00     0.231 C 
ATOM     17  H   UNL A   1      28.024  26.482  25.288  1.00  0.00     0.164 HD
ATOM     18  O   UNL A   1      29.067  25.097  26.937  1.00  0.00    -0.274 OA
BRANCH  16  19
ATOM     19  C   UNL A   1      31.056  25.105  25.535  1.00  0.00     0.077 C 
ATOM     20  C   UNL A   1      31.133  24.960  23.993  1.00  0.00     0.043 C 
ATOM     21  C   UNL A   1      31.409  23.776  26.247  1.00  0.00     0.043 C 
ATOM     22  C   UNL A   1      30.601  23.636  23.445  1.00  0.00     0.121 C 
ATOM     23  C   UNL A   1      30.768  22.547  25.604  1.00  0.00     0.121 C 
ATOM     24  N   UNL A   1      31.139  22.510  24.196  1.00  0.00    -0.337 N 
ATOM     25  C   UNL A   1      32.037  21.647  23.572  1.00  0.00     0.280 C 
ATOM     26  O   UNL A   1      32.474  21.914  22.444  1.00  0.00    -0.268 OA
BRANCH  19  27
ATOM     27  C   UNL A   1      31.944  26.260  26.008  1.00  0.00    -0.032 A 
ATOM     28  C   UNL A   1      33.759  26.255  25.653  1.00  0.00     0.005 A 
ATOM     29  C   UNL A   1      31.249  27.579  27.076  1.00  0.00     0.005 A 
ATOM     30  C   UNL A   1      34.816  27.592  26.301  1.00  0.00     0.000 A 
ATOM     31  C   UNL A   1      32.315  28.916  27.708  1.00  0.00     0.000 A 
ATOM     32  C   UNL A   1      34.109  28.937  27.304  1.00  0.00     0.000 A 
ENDBRANCH  19  27
BRANCH  25  33
ATOM     33  C   UNL A   1      32.511  20.343  24.253  1.00  0.00     0.272 C 
ATOM     34  C   UNL A   1      33.977  20.286  24.639  1.00  0.00     0.081 C 
ATOM     35  N   UNL A   1      32.237  19.138  23.438  1.00  0.00    -0.336 N 
ATOM     36  C   UNL A   1      34.288  18.801  24.683  1.00  0.00     0.068 C 
ATOM     37  C   UNL A   1      33.159  18.107  23.931  1.00  0.00     0.261 C 
ATOM     38  H   UNL A   1      32.411  19.329  22.451  1.00  0.00     0.346 HD
ATOM     39  H   UNL A   1      31.263  18.843  23.519  1.00  0.00     0.346 HD
ENDBRANCH  25  33
ENDBRANCH  16  19
ENDBRANCH   8  15
ENDBRANCH   5   8
ENDBRANCH   3   4
ENDBRANCH   2   3
ENDBRANCH   1   2
BRANCH   1  40
ATOM     40  C   UNL A   1      34.977  23.532  23.932  1.00  0.00     0.002 C 
BRANCH  40  41
ATOM     41  C   UNL A   1      36.460  23.701  24.266  1.00  0.00     0.021 C 
BRANCH  41  42
ATOM     42  C   UNL A   1      36.820  23.609  25.743  1.00  0.00     0.116 C 
BRANCH  42  43
ATOM     43  N   UNL A   1      37.778  22.549  26.000  1.00  0.00    -0.352 N 
ATOM     44  C   UNL A   1      39.076  22.666  26.417  1.00  0.00     0.251 C 
ATOM     45  H   UNL A   1      37.453  21.631  25.855  1.00  0.00     0.163 HD
ATOM     46  O   UNL A   1      39.837  21.706  26.360  1.00  0.00    -0.269 OA
BRANCH  44  47
ATOM     47  C   UNL A   1      39.537  23.976  26.912  1.00  0.00     0.039 A 
ATOM     48  C   UNL A   1      40.080  24.887  26.007  1.00  0.00     0.014 A 
ATOM     49  C   UNL A   1      39.386  24.306  28.263  1.00  0.00     0.014 A 
ATOM     50  C   UNL A   1      40.454  26.151  26.458  1.00  0.00     0.010 A 
ATOM     51  C   UNL A   1      39.683  25.591  28.692  1.00  0.00     0.010 A 
ATOM     52  C   UNL A   1      40.246  26.515  27.799  1.00  0.00    -0.014 A 
BRANCH  52  53
ATOM     53  C   UNL A   1      40.682  27.837  28.302  1.00  0.00     0.031 A 
ATOM     54  C   UNL A   1      42.149  28.164  28.326  1.00  0.00     0.074 A 
ATOM     55  C   UNL A   1      39.770  28.718  28.752  1.00  0.00     0.049 A 
ATOM     56  N   UNL A   1      42.750  29.250  28.738  1.00  0.00    -0.248 NA
ATOM     57  C   UNL A   1      43.062  27.113  27.851  1.00  0.00     0.031 C 
ATOM     58  C   UNL A   1      38.325  28.485  28.802  1.00  0.00     0.029 A 
ATOM     59  N   UNL A   1      39.921  29.986  29.245  1.00  0.00    -0.354 N 
ATOM     60  C   UNL A   1      44.111  29.009  28.576  1.00  0.00     0.074 A 
ATOM     61  C   UNL A   1      44.244  27.647  28.108  1.00  0.00     0.031 C 
ATOM     62  C   UNL A   1      37.720  29.592  29.262  1.00  0.00     0.029 A 
ATOM     63  C   UNL A   1      38.733  30.595  29.575  1.00  0.00     0.049 A 
ATOM     64  H   UNL A   1      40.797  30.422  29.354  1.00  0.00     0.167 HD
ATOM     65  C   UNL A   1      45.150  29.858  28.767  1.00  0.00     0.034 A 
ATOM     66  C   UNL A   1      38.495  31.825  30.070  1.00  0.00     0.034 A 
ATOM     67  C   UNL A   1      44.988  31.212  29.239  1.00  0.00     0.049 A 
ATOM     68  C   UNL A   1      39.666  32.740  30.318  1.00  0.00     0.074 A 
ATOM     69  C   UNL A   1      45.957  32.178  29.446  1.00  0.00     0.029 A 
ATOM     70  N   UNL A   1      43.772  31.787  29.587  1.00  0.00    -0.354 N 
ATOM     71  N   UNL A   1      40.946  32.518  30.122  1.00  0.00    -0.248 NA
ATOM     72  C   UNL A   1      39.360  34.076  30.843  1.00  0.00     0.031 C 
ATOM     73  C   UNL A   1      45.334  33.312  29.981  1.00  0.00     0.029 A 
ATOM     74  C   UNL A   1      43.968  33.084  30.036  1.00  0.00     0.049 A 
ATOM     75  H   UNL A   1      42.898  31.340  29.523  1.00  0.00     0.167 HD
ATOM     76  C   UNL A   1      41.595  33.698  30.474  1.00  0.00     0.074 A 
ATOM     77  C   UNL A   1      40.562  34.630  30.881  1.00  0.00     0.031 C 
ATOM     78  C   UNL A   1      42.922  33.989  30.456  1.00  0.00     0.034 A 
BRANCH  65  79
ATOM     79  C   UNL A   1      46.536  29.317  28.495  1.00  0.00     0.023 A 
ATOM     80  C   UNL A   1      46.992  29.084  27.183  1.00  0.00     0.031 A 
ATOM     81  C   UNL A   1      47.387  28.960  29.556  1.00  0.00     0.131 A 
ATOM     82  C   UNL A   1      48.208  28.420  26.970  1.00  0.00     0.055 A 
ATOM     83  C   UNL A   1      48.639  28.383  29.332  1.00  0.00     0.041 A 
ATOM     84  F   UNL A   1      47.005  29.137  30.830  1.00  0.00    -0.206 F 
ATOM     85  C   UNL A   1      49.047  28.089  28.034  1.00  0.00     0.022 A 
BRANCH  82  86
ATOM     86  S   UNL A   1      48.589  27.832  25.295  1.00  0.00     0.124 S 
ATOM     87  O   UNL A   1      47.437  28.318  24.541  1.00  0.00    -0.237 OA
ATOM     88  O   UNL A   1      49.861  28.487  25.013  1.00  0.00    -0.237 OA
ATOM     89  O   UNL A   1      48.656  26.380  25.449  1.00  0.00    -0.744 OA
ENDBRANCH  82  86
ENDBRANCH  65  79
BRANCH  66  90
ATOM     90  C   UNL A   1      37.100  32.266  30.350  1.00  0.00     0.023 A 
ATOM     91  C   UNL A   1      36.241  32.646  29.307  1.00  0.00     0.031 A 
ATOM     92  C   UNL A   1      36.610  32.332  31.666  1.00  0.00     0.131 A 
ATOM     93  C   UNL A   1      34.948  33.108  29.597  1.00  0.00     0.055 A 
ATOM     94  C   UNL A   1      35.307  32.749  31.947  1.00  0.00     0.041 A 
ATOM     95  F   UNL A   1      37.388  31.973  32.700  1.00  0.00    -0.206 F 
ATOM     96  C   UNL A   1      34.471  33.151  30.909  1.00  0.00     0.022 A 
BRANCH  93  97
ATOM     97  S   UNL A   1      33.916  33.717  28.236  1.00  0.00     0.124 S 
ATOM     98  O   UNL A   1      32.926  34.517  28.947  1.00  0.00    -0.237 OA
ATOM     99  O   UNL A   1      34.881  34.456  27.429  1.00  0.00    -0.237 OA
ATOM    100  O   UNL A   1      33.405  32.492  27.623  1.00  0.00    -0.744 OA
ENDBRANCH  93  97
ENDBRANCH  66  90
BRANCH  78 101
ATOM    101  C   UNL A   1      43.314  35.389  30.860  1.00  0.00     0.023 A 
ATOM    102  C   UNL A   1      43.438  36.423  29.916  1.00  0.00     0.031 A 
ATOM    103  C   UNL A   1      43.581  35.686  32.208  1.00  0.00     0.131 A 
ATOM    104  C   UNL A   1      43.873  37.693  30.324  1.00  0.00     0.055 A 
ATOM    105  C   UNL A   1      43.953  36.966  32.618  1.00  0.00     0.041 A 
ATOM    106  F   UNL A   1      43.480  34.736  33.151  1.00  0.00    -0.206 F 
ATOM    107  C   UNL A   1      44.115  37.975  31.672  1.00  0.00     0.022 A 
BRANCH 104 108
ATOM    108  S   UNL A   1      44.210  38.946  29.058  1.00  0.00     0.124 S 
ATOM    109  O   UNL A   1      43.131  38.711  28.104  1.00  0.00    -0.237 OA
ATOM    110  O   UNL A   1      44.127  40.189  29.819  1.00  0.00    -0.237 OA
ATOM    111  O   UNL A   1      45.548  38.601  28.580  1.00  0.00    -0.744 OA
ENDBRANCH 104 108
ENDBRANCH  78 101
ENDBRANCH  52  53
ENDBRANCH  44  47
ENDBRANCH  42  43
ENDBRANCH  41  42
ENDBRANCH  40  41
ENDBRANCH   1  40
TORSDOF 22
ENDMDL
