MODEL 1
REMARK VINA RESULT:     -11.0      0.000      0.000
REMARK SMILES CC(C)[NH2+][C@]1(C(=O)NCCCCCCNC(=O)c2ccc(-c3c4nc(c(-c5cc(S(=O)(=O)[O-])ccc5F)c5ccc([nH]5)c(-c5cc(S(=O)(=O)[O-])ccc5F)c5nc(c(-c6cc(S(=O)(=O)[O-])ccc6F)c6ccc3[nH]6)C=C5)C=C4)cc2)CCC[C@H]([N@@H+](C)C2CCCCC2)C1
REMARK SMILES IDX 12 1 11 2 10 3 9 4 8 5 6 6 7 7 5 9 81 10 93 11 82 12 84 13
REMARK SMILES IDX 83 14 4 15 2 18 1 19 3 20 85 21 86 22 87 24 88 25 92 26
REMARK SMILES IDX 89 27 91 28 90 29 13 30 14 31 15 32 16 33 17 35 18 36 19 37
REMARK SMILES IDX 80 38 20 39 79 40 21 41 22 42 23 43 73 44 24 45 78 46 72 47
REMARK SMILES IDX 74 48 25 49 77 50 71 51 70 52 26 54 58 55 38 56 57 57 39 58
REMARK SMILES IDX 42 59 56 60 75 61 40 62 41 63 55 65 76 66 43 67 27 68 28 69
REMARK SMILES IDX 36 70 29 71 35 72 37 73 34 74 30 75 31 76 32 77 33 78 59 79
REMARK SMILES IDX 60 80 68 81 61 82 67 83 69 84 66 85 62 86 63 87 64 88 65 89
REMARK SMILES IDX 44 90 45 91 53 92 46 93 52 94 54 95 51 96 47 97 48 98 49 99
REMARK SMILES IDX 50 100
REMARK H PARENT 8 8 4 16 4 17 85 23 15 34 74 53 42 64
REMARK Flexibility Score: inf
ROOT
ATOM      1  C   UNL A   1      37.282  20.399  24.641  1.00  0.00     0.002 C 
ENDROOT
BRANCH   1   2
ATOM      2  C   UNL A   1      37.612  21.846  25.034  1.00  0.00     0.002 C 
BRANCH   2   3
ATOM      3  C   UNL A   1      36.786  22.907  24.305  1.00  0.00     0.021 C 
BRANCH   3   4
ATOM      4  C   UNL A   1      36.158  23.914  25.263  1.00  0.00     0.116 C 
BRANCH   4   5
ATOM      5  N   UNL A   1      35.591  23.236  26.414  1.00  0.00    -0.351 N 
ATOM      6  C   UNL A   1      34.353  22.961  26.883  1.00  0.00     0.281 C 
ATOM      7  O   UNL A   1      34.348  22.380  27.986  1.00  0.00    -0.268 OA
ATOM      8  H   UNL A   1      36.291  22.884  27.009  1.00  0.00     0.163 HD
BRANCH   6   9
ATOM      9  C   UNL A   1      32.955  23.255  26.185  1.00  0.00     0.181 C 
ATOM     10  C   UNL A   1      31.860  22.685  27.111  1.00  0.00     0.079 C 
ATOM     11  C   UNL A   1      32.665  24.766  26.091  1.00  0.00     0.144 C 
ATOM     12  C   UNL A   1      30.425  23.038  26.696  1.00  0.00     0.013 C 
ATOM     13  C   UNL A   1      31.324  25.211  25.487  1.00  0.00     0.190 C 
ATOM     14  C   UNL A   1      30.210  24.507  26.316  1.00  0.00     0.065 C 
BRANCH   9  15
ATOM     15  N   UNL A   1      33.139  22.588  24.854  1.00  0.00    -0.331 N 
ATOM     16  H   UNL A   1      32.693  23.197  24.168  1.00  0.00     0.347 HD
ATOM     17  H   UNL A   1      34.149  22.453  24.826  1.00  0.00     0.347 HD
BRANCH  15  18
ATOM     18  C   UNL A   1      32.651  21.240  24.577  1.00  0.00     0.176 C 
ATOM     19  C   UNL A   1      32.291  21.181  23.085  1.00  0.00     0.075 C 
ATOM     20  C   UNL A   1      33.669  20.123  24.842  1.00  0.00     0.075 C 
ENDBRANCH  15  18
ENDBRANCH   9  15
BRANCH  13  21
ATOM     21  N   UNL A   1      31.379  25.155  24.021  1.00  0.00    -0.332 N 
ATOM     22  C   UNL A   1      30.432  24.331  23.305  1.00  0.00     0.333 C 
ATOM     23  H   UNL A   1      32.171  24.518  23.931  1.00  0.00     0.348 HD
BRANCH  21  24
ATOM     24  C   UNL A   1      31.876  26.378  23.332  1.00  0.00     0.184 C 
ATOM     25  C   UNL A   1      31.377  27.718  23.920  1.00  0.00     0.065 C 
ATOM     26  C   UNL A   1      33.417  26.469  23.149  1.00  0.00     0.065 C 
ATOM     27  C   UNL A   1      31.751  28.891  23.011  1.00  0.00     0.006 C 
ATOM     28  C   UNL A   1      33.825  27.666  22.282  1.00  0.00     0.006 C 
ATOM     29  C   UNL A   1      33.257  28.980  22.800  1.00  0.00     0.000 C 
ENDBRANCH  21  24
ENDBRANCH  13  21
ENDBRANCH   6   9
ENDBRANCH   4   5
ENDBRANCH   3   4
ENDBRANCH   2   3
ENDBRANCH   1   2
BRANCH   1  30
ATOM     30  C   UNL A   1      38.340  19.361  25.028  1.00  0.00     0.021 C 
BRANCH  30  31
ATOM     31  C   UNL A   1      39.283  19.806  26.142  1.00  0.00     0.116 C 
BRANCH  31  32
ATOM     32  N   UNL A   1      40.512  19.031  26.140  1.00  0.00    -0.352 N 
ATOM     33  C   UNL A   1      41.815  19.455  26.101  1.00  0.00     0.251 C 
ATOM     34  H   UNL A   1      40.390  18.054  26.170  1.00  0.00     0.163 HD
ATOM     35  O   UNL A   1      42.702  18.652  25.835  1.00  0.00    -0.269 OA
BRANCH  33  36
ATOM     36  C   UNL A   1      42.141  20.872  26.370  1.00  0.00     0.039 A 
ATOM     37  C   UNL A   1      42.422  21.257  27.682  1.00  0.00     0.014 A 
ATOM     38  C   UNL A   1      42.132  21.822  25.344  1.00  0.00     0.014 A 
ATOM     39  C   UNL A   1      42.738  22.588  27.958  1.00  0.00     0.010 A 
ATOM     40  C   UNL A   1      42.514  23.135  25.609  1.00  0.00     0.010 A 
ATOM     41  C   UNL A   1      42.812  23.532  26.920  1.00  0.00    -0.014 A 
BRANCH  41  42
ATOM     42  C   UNL A   1      43.206  24.937  27.200  1.00  0.00     0.031 A 
ATOM     43  C   UNL A   1      42.246  25.876  27.876  1.00  0.00     0.074 A 
ATOM     44  C   UNL A   1      44.420  25.370  26.806  1.00  0.00     0.049 A 
ATOM     45  N   UNL A   1      42.403  27.138  28.185  1.00  0.00    -0.248 NA
ATOM     46  C   UNL A   1      40.926  25.332  28.227  1.00  0.00     0.031 C 
ATOM     47  C   UNL A   1      45.415  24.560  26.099  1.00  0.00     0.029 A 
ATOM     48  N   UNL A   1      45.023  26.594  26.938  1.00  0.00    -0.354 N 
ATOM     49  C   UNL A   1      41.202  27.540  28.761  1.00  0.00     0.074 A 
ATOM     50  C   UNL A   1      40.308  26.403  28.699  1.00  0.00     0.031 C 
ATOM     51  C   UNL A   1      46.516  25.299  25.891  1.00  0.00     0.029 A 
ATOM     52  C   UNL A   1      46.292  26.645  26.407  1.00  0.00     0.049 A 
ATOM     53  H   UNL A   1      44.590  27.364  27.373  1.00  0.00     0.167 HD
ATOM     54  C   UNL A   1      40.886  28.738  29.313  1.00  0.00     0.034 A 
ATOM     55  C   UNL A   1      47.172  27.664  26.339  1.00  0.00     0.034 A 
ATOM     56  C   UNL A   1      41.796  29.858  29.370  1.00  0.00     0.049 A 
ATOM     57  C   UNL A   1      46.790  28.991  26.942  1.00  0.00     0.074 A 
ATOM     58  C   UNL A   1      41.602  31.100  29.953  1.00  0.00     0.029 A 
ATOM     59  N   UNL A   1      43.070  29.878  28.814  1.00  0.00    -0.354 N 
ATOM     60  N   UNL A   1      45.672  29.337  27.538  1.00  0.00    -0.248 NA
ATOM     61  C   UNL A   1      47.794  30.059  26.874  1.00  0.00     0.031 C 
ATOM     62  C   UNL A   1      42.727  31.889  29.689  1.00  0.00     0.029 A 
ATOM     63  C   UNL A   1      43.658  31.119  29.010  1.00  0.00     0.049 A 
ATOM     64  H   UNL A   1      43.493  29.122  28.348  1.00  0.00     0.167 HD
ATOM     65  C   UNL A   1      45.851  30.658  27.939  1.00  0.00     0.074 A 
ATOM     66  C   UNL A   1      47.191  31.035  27.536  1.00  0.00     0.031 C 
ATOM     67  C   UNL A   1      44.988  31.487  28.582  1.00  0.00     0.034 A 
BRANCH  54  68
ATOM     68  C   UNL A   1      39.492  28.901  29.872  1.00  0.00     0.023 A 
ATOM     69  C   UNL A   1      38.453  29.471  29.115  1.00  0.00     0.031 A 
ATOM     70  C   UNL A   1      39.200  28.503  31.189  1.00  0.00     0.131 A 
ATOM     71  C   UNL A   1      37.198  29.699  29.702  1.00  0.00     0.055 A 
ATOM     72  C   UNL A   1      37.927  28.656  31.741  1.00  0.00     0.041 A 
ATOM     73  F   UNL A   1      40.154  27.970  31.970  1.00  0.00    -0.206 F 
ATOM     74  C   UNL A   1      36.921  29.270  31.002  1.00  0.00     0.022 A 
BRANCH  71  75
ATOM     75  S   UNL A   1      35.982  30.691  28.792  1.00  0.00     0.124 S 
ATOM     76  O   UNL A   1      36.847  31.537  27.973  1.00  0.00    -0.237 OA
ATOM     77  O   UNL A   1      35.219  29.675  28.077  1.00  0.00    -0.237 OA
ATOM     78  O   UNL A   1      35.254  31.393  29.847  1.00  0.00    -0.744 OA
ENDBRANCH  71  75
ENDBRANCH  54  68
BRANCH  55  79
ATOM     79  C   UNL A   1      48.493  27.475  25.677  1.00  0.00     0.023 A 
ATOM     80  C   UNL A   1      48.626  27.586  24.283  1.00  0.00     0.031 A 
ATOM     81  C   UNL A   1      49.637  27.145  26.425  1.00  0.00     0.131 A 
ATOM     82  C   UNL A   1      49.863  27.323  23.677  1.00  0.00     0.055 A 
ATOM     83  C   UNL A   1      50.879  26.937  25.821  1.00  0.00     0.041 A 
ATOM     84  F   UNL A   1      49.567  27.035  27.761  1.00  0.00    -0.206 F 
ATOM     85  C   UNL A   1      50.993  27.012  24.437  1.00  0.00     0.022 A 
BRANCH  82  86
ATOM     86  S   UNL A   1      49.956  27.311  21.865  1.00  0.00     0.124 S 
ATOM     87  O   UNL A   1      49.706  28.711  21.544  1.00  0.00    -0.237 OA
ATOM     88  O   UNL A   1      51.316  26.833  21.637  1.00  0.00    -0.237 OA
ATOM     89  O   UNL A   1      48.897  26.381  21.477  1.00  0.00    -0.744 OA
ENDBRANCH  82  86
ENDBRANCH  55  79
BRANCH  67  90
ATOM     90  C   UNL A   1      45.493  32.871  28.911  1.00  0.00     0.023 A 
ATOM     91  C   UNL A   1      45.285  33.957  28.044  1.00  0.00     0.031 A 
ATOM     92  C   UNL A   1      46.214  33.099  30.096  1.00  0.00     0.131 A 
ATOM     93  C   UNL A   1      45.849  35.207  28.340  1.00  0.00     0.055 A 
ATOM     94  C   UNL A   1      46.717  34.361  30.418  1.00  0.00     0.041 A 
ATOM     95  F   UNL A   1      46.445  32.098  30.961  1.00  0.00    -0.206 F 
ATOM     96  C   UNL A   1      46.549  35.419  29.530  1.00  0.00     0.022 A 
BRANCH  93  97
ATOM     97  S   UNL A   1      45.744  36.525  27.099  1.00  0.00     0.124 S 
ATOM     98  O   UNL A   1      44.304  36.628  26.887  1.00  0.00    -0.237 OA
ATOM     99  O   UNL A   1      46.369  37.651  27.785  1.00  0.00    -0.237 OA
ATOM    100  O   UNL A   1      46.500  35.991  25.967  1.00  0.00    -0.744 OA
ENDBRANCH  93  97
ENDBRANCH  67  90
ENDBRANCH  41  42
ENDBRANCH  33  36
ENDBRANCH  31  32
ENDBRANCH  30  31
ENDBRANCH   1  30
TORSDOF 20
ENDMDL
MODEL 2
REMARK VINA RESULT:     -11.0      1.953      2.307
REMARK SMILES CC(C)[NH2+][C@]1(C(=O)NCCCCCCNC(=O)c2ccc(-c3c4nc(c(-c5cc(S(=O)(=O)[O-])ccc5F)c5ccc([nH]5)c(-c5cc(S(=O)(=O)[O-])ccc5F)c5nc(c(-c6cc(S(=O)(=O)[O-])ccc6F)c6ccc3[nH]6)C=C5)C=C4)cc2)CCC[C@H]([N@@H+](C)C2CCCCC2)C1
REMARK SMILES IDX 12 1 11 2 10 3 9 4 8 5 6 6 7 7 5 9 81 10 93 11 82 12 84 13
REMARK SMILES IDX 83 14 4 15 2 18 1 19 3 20 85 21 86 22 87 24 88 25 92 26
REMARK SMILES IDX 89 27 91 28 90 29 13 30 14 31 15 32 16 33 17 35 18 36 19 37
REMARK SMILES IDX 80 38 20 39 79 40 21 41 22 42 23 43 73 44 24 45 78 46 72 47
REMARK SMILES IDX 74 48 25 49 77 50 71 51 70 52 26 54 58 55 38 56 57 57 39 58
REMARK SMILES IDX 42 59 56 60 75 61 40 62 41 63 55 65 76 66 43 67 27 68 28 69
REMARK SMILES IDX 36 70 29 71 35 72 37 73 34 74 30 75 31 76 32 77 33 78 59 79
REMARK SMILES IDX 60 80 68 81 61 82 67 83 69 84 66 85 62 86 63 87 64 88 65 89
REMARK SMILES IDX 44 90 45 91 53 92 46 93 52 94 54 95 51 96 47 97 48 98 49 99
REMARK SMILES IDX 50 100
REMARK H PARENT 8 8 4 16 4 17 85 23 15 34 74 53 42 64
REMARK Flexibility Score: inf
ROOT
ATOM      1  C   UNL A   1      37.309  20.685  24.633  1.00  0.00     0.002 C 
ENDROOT
BRANCH   1   2
ATOM      2  C   UNL A   1      37.670  22.135  24.985  1.00  0.00     0.002 C 
BRANCH   2   3
ATOM      3  C   UNL A   1      36.734  23.187  24.388  1.00  0.00     0.021 C 
BRANCH   3   4
ATOM      4  C   UNL A   1      36.103  24.077  25.455  1.00  0.00     0.116 C 
BRANCH   4   5
ATOM      5  N   UNL A   1      35.524  23.271  26.513  1.00  0.00    -0.351 N 
ATOM      6  C   UNL A   1      34.282  22.913  26.909  1.00  0.00     0.281 C 
ATOM      7  O   UNL A   1      34.262  22.225  27.948  1.00  0.00    -0.268 OA
ATOM      8  H   UNL A   1      36.216  22.883  27.094  1.00  0.00     0.163 HD
BRANCH   6   9
ATOM      9  C   UNL A   1      32.898  23.231  26.195  1.00  0.00     0.181 C 
ATOM     10  C   UNL A   1      31.786  22.625  27.077  1.00  0.00     0.079 C 
ATOM     11  C   UNL A   1      32.607  24.744  26.152  1.00  0.00     0.144 C 
ATOM     12  C   UNL A   1      30.358  22.992  26.647  1.00  0.00     0.013 C 
ATOM     13  C   UNL A   1      31.277  25.210  25.538  1.00  0.00     0.190 C 
ATOM     14  C   UNL A   1      30.148  24.475  26.318  1.00  0.00     0.065 C 
BRANCH   9  15
ATOM     15  N   UNL A   1      33.109  22.615  24.844  1.00  0.00    -0.331 N 
ATOM     16  H   UNL A   1      32.661  23.240  24.174  1.00  0.00     0.347 HD
ATOM     17  H   UNL A   1      34.122  22.498  24.823  1.00  0.00     0.347 HD
BRANCH  15  18
ATOM     18  C   UNL A   1      32.647  21.269  24.513  1.00  0.00     0.176 C 
ATOM     19  C   UNL A   1      32.281  21.265  23.022  1.00  0.00     0.075 C 
ATOM     20  C   UNL A   1      33.689  20.164  24.728  1.00  0.00     0.075 C 
ENDBRANCH  15  18
ENDBRANCH   9  15
BRANCH  13  21
ATOM     21  N   UNL A   1      31.362  25.209  24.073  1.00  0.00    -0.332 N 
ATOM     22  C   UNL A   1      30.418  24.427  23.308  1.00  0.00     0.333 C 
ATOM     23  H   UNL A   1      32.146  24.565  23.974  1.00  0.00     0.348 HD
BRANCH  21  24
ATOM     24  C   UNL A   1      31.888  26.450  23.442  1.00  0.00     0.184 C 
ATOM     25  C   UNL A   1      31.642  27.753  24.236  1.00  0.00     0.065 C 
ATOM     26  C   UNL A   1      33.385  26.410  23.023  1.00  0.00     0.065 C 
ATOM     27  C   UNL A   1      32.009  28.984  23.403  1.00  0.00     0.006 C 
ATOM     28  C   UNL A   1      33.795  27.656  22.229  1.00  0.00     0.006 C 
ATOM     29  C   UNL A   1      33.467  28.948  22.963  1.00  0.00     0.000 C 
ENDBRANCH  21  24
ENDBRANCH  13  21
ENDBRANCH   6   9
ENDBRANCH   4   5
ENDBRANCH   3   4
ENDBRANCH   2   3
ENDBRANCH   1   2
BRANCH   1  30
ATOM     30  C   UNL A   1      38.344  19.635  25.051  1.00  0.00     0.021 C 
BRANCH  30  31
ATOM     31  C   UNL A   1      39.469  20.174  25.929  1.00  0.00     0.116 C 
BRANCH  31  32
ATOM     32  N   UNL A   1      40.571  19.231  26.021  1.00  0.00    -0.352 N 
ATOM     33  C   UNL A   1      41.920  19.462  26.071  1.00  0.00     0.251 C 
ATOM     34  H   UNL A   1      40.306  18.282  26.051  1.00  0.00     0.163 HD
ATOM     35  O   UNL A   1      42.698  18.535  25.876  1.00  0.00    -0.269 OA
BRANCH  33  36
ATOM     36  C   UNL A   1      42.429  20.822  26.351  1.00  0.00     0.039 A 
ATOM     37  C   UNL A   1      42.747  21.653  25.275  1.00  0.00     0.014 A 
ATOM     38  C   UNL A   1      42.631  21.261  27.663  1.00  0.00     0.014 A 
ATOM     39  C   UNL A   1      43.223  22.943  25.516  1.00  0.00     0.010 A 
ATOM     40  C   UNL A   1      43.042  22.570  27.902  1.00  0.00     0.010 A 
ATOM     41  C   UNL A   1      43.350  23.421  26.831  1.00  0.00    -0.014 A 
BRANCH  41  42
ATOM     42  C   UNL A   1      43.800  24.812  27.091  1.00  0.00     0.031 A 
ATOM     43  C   UNL A   1      42.843  25.830  27.646  1.00  0.00     0.074 A 
ATOM     44  C   UNL A   1      45.066  25.161  26.789  1.00  0.00     0.049 A 
ATOM     45  N   UNL A   1      43.046  27.094  27.920  1.00  0.00    -0.248 NA
ATOM     46  C   UNL A   1      41.468  25.375  27.901  1.00  0.00     0.031 C 
ATOM     47  C   UNL A   1      46.069  24.267  26.202  1.00  0.00     0.029 A 
ATOM     48  N   UNL A   1      45.727  26.354  26.927  1.00  0.00    -0.354 N 
ATOM     49  C   UNL A   1      41.827  27.585  28.374  1.00  0.00     0.074 A 
ATOM     50  C   UNL A   1      40.877  26.498  28.276  1.00  0.00     0.031 C 
ATOM     51  C   UNL A   1      47.225  24.935  26.062  1.00  0.00     0.029 A 
ATOM     52  C   UNL A   1      47.037  26.313  26.506  1.00  0.00     0.049 A 
ATOM     53  H   UNL A   1      45.305  27.164  27.294  1.00  0.00     0.167 HD
ATOM     54  C   UNL A   1      41.536  28.821  28.851  1.00  0.00     0.034 A 
ATOM     55  C   UNL A   1      47.978  27.277  26.478  1.00  0.00     0.034 A 
ATOM     56  C   UNL A   1      42.502  29.891  28.945  1.00  0.00     0.049 A 
ATOM     57  C   UNL A   1      47.624  28.648  26.995  1.00  0.00     0.074 A 
ATOM     58  C   UNL A   1      42.333  31.164  29.462  1.00  0.00     0.029 A 
ATOM     59  N   UNL A   1      43.818  29.817  28.502  1.00  0.00    -0.354 N 
ATOM     60  N   UNL A   1      46.482  29.080  27.479  1.00  0.00    -0.248 NA
ATOM     61  C   UNL A   1      48.692  29.655  26.975  1.00  0.00     0.031 C 
ATOM     62  C   UNL A   1      43.520  31.879  29.269  1.00  0.00     0.029 A 
ATOM     63  C   UNL A   1      44.459  31.031  28.703  1.00  0.00     0.049 A 
ATOM     64  H   UNL A   1      44.234  29.019  28.104  1.00  0.00     0.167 HD
ATOM     65  C   UNL A   1      46.704  30.405  27.844  1.00  0.00     0.074 A 
ATOM     66  C   UNL A   1      48.094  30.689  27.545  1.00  0.00     0.031 C 
ATOM     67  C   UNL A   1      45.840  31.306  28.379  1.00  0.00     0.034 A 
BRANCH  54  68
ATOM     68  C   UNL A   1      40.112  29.084  29.281  1.00  0.00     0.023 A 
ATOM     69  C   UNL A   1      39.737  29.085  30.637  1.00  0.00     0.031 A 
ATOM     70  C   UNL A   1      39.108  29.313  28.324  1.00  0.00     0.131 A 
ATOM     71  C   UNL A   1      38.386  29.232  30.992  1.00  0.00     0.055 A 
ATOM     72  C   UNL A   1      37.779  29.541  28.688  1.00  0.00     0.041 A 
ATOM     73  F   UNL A   1      39.398  29.304  27.013  1.00  0.00    -0.206 F 
ATOM     74  C   UNL A   1      37.409  29.487  30.028  1.00  0.00     0.022 A 
BRANCH  71  75
ATOM     75  S   UNL A   1      37.909  28.942  32.718  1.00  0.00     0.124 S 
ATOM     76  O   UNL A   1      36.631  29.646  32.792  1.00  0.00    -0.237 OA
ATOM     77  O   UNL A   1      37.843  27.488  32.787  1.00  0.00    -0.237 OA
ATOM     78  O   UNL A   1      38.995  29.556  33.481  1.00  0.00    -0.744 OA
ENDBRANCH  71  75
ENDBRANCH  54  68
BRANCH  55  79
ATOM     79  C   UNL A   1      49.337  26.988  25.941  1.00  0.00     0.023 A 
ATOM     80  C   UNL A   1      50.415  26.726  26.802  1.00  0.00     0.031 A 
ATOM     81  C   UNL A   1      49.587  27.005  24.557  1.00  0.00     0.131 A 
ATOM     82  C   UNL A   1      51.701  26.538  26.275  1.00  0.00     0.055 A 
ATOM     83  C   UNL A   1      50.859  26.763  24.034  1.00  0.00     0.041 A 
ATOM     84  F   UNL A   1      48.591  27.242  23.690  1.00  0.00    -0.206 F 
ATOM     85  C   UNL A   1      51.928  26.542  24.896  1.00  0.00     0.022 A 
BRANCH  82  86
ATOM     86  S   UNL A   1      53.094  26.370  27.424  1.00  0.00     0.124 S 
ATOM     87  O   UNL A   1      53.839  25.266  26.830  1.00  0.00    -0.237 OA
ATOM     88  O   UNL A   1      53.718  27.686  27.335  1.00  0.00    -0.237 OA
ATOM     89  O   UNL A   1      52.448  26.073  28.701  1.00  0.00    -0.744 OA
ENDBRANCH  82  86
ENDBRANCH  55  79
BRANCH  67  90
ATOM     90  C   UNL A   1      46.395  32.672  28.698  1.00  0.00     0.023 A 
ATOM     91  C   UNL A   1      46.365  33.719  27.760  1.00  0.00     0.031 A 
ATOM     92  C   UNL A   1      46.985  32.923  29.949  1.00  0.00     0.131 A 
ATOM     93  C   UNL A   1      46.974  34.946  28.062  1.00  0.00     0.055 A 
ATOM     94  C   UNL A   1      47.532  34.167  30.268  1.00  0.00     0.041 A 
ATOM     95  F   UNL A   1      47.044  31.959  30.884  1.00  0.00    -0.206 F 
ATOM     96  C   UNL A   1      47.541  35.182  29.316  1.00  0.00     0.022 A 
BRANCH  93  97
ATOM     97  S   UNL A   1      47.106  36.195  26.754  1.00  0.00     0.124 S 
ATOM     98  O   UNL A   1      48.020  35.555  25.813  1.00  0.00    -0.237 OA
ATOM     99  O   UNL A   1      45.723  36.329  26.308  1.00  0.00    -0.237 OA
ATOM    100  O   UNL A   1      47.650  37.362  27.448  1.00  0.00    -0.744 OA
ENDBRANCH  93  97
ENDBRANCH  67  90
ENDBRANCH  41  42
ENDBRANCH  33  36
ENDBRANCH  31  32
ENDBRANCH  30  31
ENDBRANCH   1  30
TORSDOF 20
ENDMDL
MODEL 3
REMARK VINA RESULT:     -10.8      5.230      8.861
REMARK SMILES CC(C)[NH2+][C@]1(C(=O)NCCCCCCNC(=O)c2ccc(-c3c4nc(c(-c5cc(S(=O)(=O)[O-])ccc5F)c5ccc([nH]5)c(-c5cc(S(=O)(=O)[O-])ccc5F)c5nc(c(-c6cc(S(=O)(=O)[O-])ccc6F)c6ccc3[nH]6)C=C5)C=C4)cc2)CCC[C@H]([N@@H+](C)C2CCCCC2)C1
REMARK SMILES IDX 12 1 11 2 10 3 9 4 8 5 6 6 7 7 5 9 81 10 93 11 82 12 84 13
REMARK SMILES IDX 83 14 4 15 2 18 1 19 3 20 85 21 86 22 87 24 88 25 92 26
REMARK SMILES IDX 89 27 91 28 90 29 13 30 14 31 15 32 16 33 17 35 18 36 19 37
REMARK SMILES IDX 80 38 20 39 79 40 21 41 22 42 23 43 73 44 24 45 78 46 72 47
REMARK SMILES IDX 74 48 25 49 77 50 71 51 70 52 26 54 58 55 38 56 57 57 39 58
REMARK SMILES IDX 42 59 56 60 75 61 40 62 41 63 55 65 76 66 43 67 27 68 28 69
REMARK SMILES IDX 36 70 29 71 35 72 37 73 34 74 30 75 31 76 32 77 33 78 59 79
REMARK SMILES IDX 60 80 68 81 61 82 67 83 69 84 66 85 62 86 63 87 64 88 65 89
REMARK SMILES IDX 44 90 45 91 53 92 46 93 52 94 54 95 51 96 47 97 48 98 49 99
REMARK SMILES IDX 50 100
REMARK H PARENT 8 8 4 16 4 17 85 23 15 34 74 53 42 64
REMARK Flexibility Score: inf
ROOT
ATOM      1  C   UNL A   1      31.848  27.717  26.601  1.00  0.00     0.002 C 
ENDROOT
BRANCH   1   2
ATOM      2  C   UNL A   1      31.766  28.083  25.113  1.00  0.00     0.002 C 
BRANCH   2   3
ATOM      3  C   UNL A   1      30.838  27.189  24.288  1.00  0.00     0.021 C 
BRANCH   3   4
ATOM      4  C   UNL A   1      30.336  25.985  25.080  1.00  0.00     0.116 C 
BRANCH   4   5
ATOM      5  N   UNL A   1      30.182  24.833  24.211  1.00  0.00    -0.351 N 
ATOM      6  C   UNL A   1      30.843  23.677  23.982  1.00  0.00     0.281 C 
ATOM      7  O   UNL A   1      30.355  22.989  23.065  1.00  0.00    -0.268 OA
ATOM      8  H   UNL A   1      29.386  24.916  23.637  1.00  0.00     0.163 HD
BRANCH   6   9
ATOM      9  C   UNL A   1      32.108  23.105  24.757  1.00  0.00     0.181 C 
ATOM     10  C   UNL A   1      32.360  24.038  25.960  1.00  0.00     0.079 C 
ATOM     11  C   UNL A   1      31.829  21.717  25.368  1.00  0.00     0.144 C 
ATOM     12  C   UNL A   1      33.432  23.541  26.941  1.00  0.00     0.013 C 
ATOM     13  C   UNL A   1      32.940  21.052  26.196  1.00  0.00     0.190 C 
ATOM     14  C   UNL A   1      33.318  22.060  27.320  1.00  0.00     0.065 C 
BRANCH   9  15
ATOM     15  N   UNL A   1      33.144  23.093  23.672  1.00  0.00    -0.331 N 
ATOM     16  H   UNL A   1      33.655  22.217  23.778  1.00  0.00     0.347 HD
ATOM     17  H   UNL A   1      32.576  23.248  22.840  1.00  0.00     0.347 HD
BRANCH  15  18
ATOM     18  C   UNL A   1      34.156  24.139  23.541  1.00  0.00     0.176 C 
ATOM     19  C   UNL A   1      35.468  23.456  23.129  1.00  0.00     0.075 C 
ATOM     20  C   UNL A   1      33.844  25.202  22.481  1.00  0.00     0.075 C 
ENDBRANCH  15  18
ENDBRANCH   9  15
BRANCH  13  21
ATOM     21  N   UNL A   1      33.937  20.436  25.312  1.00  0.00    -0.332 N 
ATOM     22  C   UNL A   1      35.332  20.779  25.468  1.00  0.00     0.333 C 
ATOM     23  H   UNL A   1      33.773  21.011  24.486  1.00  0.00     0.348 HD
BRANCH  21  24
ATOM     24  C   UNL A   1      33.622  19.068  24.815  1.00  0.00     0.184 C 
ATOM     25  C   UNL A   1      34.838  18.240  24.340  1.00  0.00     0.065 C 
ATOM     26  C   UNL A   1      32.772  18.184  25.769  1.00  0.00     0.065 C 
ATOM     27  C   UNL A   1      34.389  16.955  23.640  1.00  0.00     0.006 C 
ATOM     28  C   UNL A   1      32.349  16.866  25.110  1.00  0.00     0.006 C 
ATOM     29  C   UNL A   1      33.533  16.088  24.553  1.00  0.00     0.000 C 
ENDBRANCH  21  24
ENDBRANCH  13  21
ENDBRANCH   6   9
ENDBRANCH   4   5
ENDBRANCH   3   4
ENDBRANCH   2   3
ENDBRANCH   1   2
BRANCH   1  30
ATOM     30  C   UNL A   1      32.821  28.564  27.429  1.00  0.00     0.021 C 
BRANCH  30  31
ATOM     31  C   UNL A   1      33.795  29.396  26.599  1.00  0.00     0.116 C 
BRANCH  31  32
ATOM     32  N   UNL A   1      33.703  30.808  26.928  1.00  0.00    -0.352 N 
ATOM     33  C   UNL A   1      34.429  31.548  27.824  1.00  0.00     0.251 C 
ATOM     34  H   UNL A   1      33.014  31.308  26.432  1.00  0.00     0.163 HD
ATOM     35  O   UNL A   1      34.028  32.658  28.155  1.00  0.00    -0.269 OA
BRANCH  33  36
ATOM     36  C   UNL A   1      35.682  31.004  28.392  1.00  0.00     0.039 A 
ATOM     37  C   UNL A   1      35.605  29.920  29.268  1.00  0.00     0.014 A 
ATOM     38  C   UNL A   1      36.920  31.583  28.094  1.00  0.00     0.014 A 
ATOM     39  C   UNL A   1      36.776  29.387  29.811  1.00  0.00     0.010 A 
ATOM     40  C   UNL A   1      38.091  31.008  28.583  1.00  0.00     0.010 A 
ATOM     41  C   UNL A   1      38.029  29.910  29.452  1.00  0.00    -0.014 A 
BRANCH  41  42
ATOM     42  C   UNL A   1      39.281  29.309  29.981  1.00  0.00     0.031 A 
ATOM     43  C   UNL A   1      39.926  29.864  31.220  1.00  0.00     0.074 A 
ATOM     44  C   UNL A   1      39.851  28.286  29.314  1.00  0.00     0.049 A 
ATOM     45  N   UNL A   1      41.027  29.486  31.819  1.00  0.00    -0.248 NA
ATOM     46  C   UNL A   1      39.262  31.012  31.854  1.00  0.00     0.031 C 
ATOM     47  C   UNL A   1      39.337  27.698  28.074  1.00  0.00     0.029 A 
ATOM     48  N   UNL A   1      40.984  27.562  29.579  1.00  0.00    -0.354 N 
ATOM     49  C   UNL A   1      41.189  30.350  32.896  1.00  0.00     0.074 A 
ATOM     50  C   UNL A   1      40.109  31.310  32.827  1.00  0.00     0.031 C 
ATOM     51  C   UNL A   1      40.135  26.683  27.706  1.00  0.00     0.029 A 
ATOM     52  C   UNL A   1      41.238  26.574  28.655  1.00  0.00     0.049 A 
ATOM     53  H   UNL A   1      41.562  27.731  30.358  1.00  0.00     0.167 HD
ATOM     54  C   UNL A   1      42.139  30.328  33.865  1.00  0.00     0.034 A 
ATOM     55  C   UNL A   1      42.248  25.686  28.579  1.00  0.00     0.034 A 
ATOM     56  C   UNL A   1      43.206  29.357  33.918  1.00  0.00     0.049 A 
ATOM     57  C   UNL A   1      43.302  25.694  29.657  1.00  0.00     0.074 A 
ATOM     58  C   UNL A   1      44.190  29.207  34.881  1.00  0.00     0.029 A 
ATOM     59  N   UNL A   1      43.438  28.376  32.960  1.00  0.00    -0.354 N 
ATOM     60  N   UNL A   1      43.407  26.480  30.704  1.00  0.00    -0.248 NA
ATOM     61  C   UNL A   1      44.363  24.685  29.549  1.00  0.00     0.031 C 
ATOM     62  C   UNL A   1      45.053  28.184  34.472  1.00  0.00     0.029 A 
ATOM     63  C   UNL A   1      44.567  27.641  33.293  1.00  0.00     0.049 A 
ATOM     64  H   UNL A   1      42.883  28.226  32.162  1.00  0.00     0.167 HD
ATOM     65  C   UNL A   1      44.535  26.042  31.393  1.00  0.00     0.074 A 
ATOM     66  C   UNL A   1      45.058  24.910  30.653  1.00  0.00     0.031 C 
ATOM     67  C   UNL A   1      45.089  26.529  32.533  1.00  0.00     0.034 A 
BRANCH  54  68
ATOM     68  C   UNL A   1      42.075  31.402  34.927  1.00  0.00     0.023 A 
ATOM     69  C   UNL A   1      41.030  31.450  35.867  1.00  0.00     0.031 A 
ATOM     70  C   UNL A   1      43.057  32.405  34.988  1.00  0.00     0.131 A 
ATOM     71  C   UNL A   1      40.948  32.519  36.773  1.00  0.00     0.055 A 
ATOM     72  C   UNL A   1      43.016  33.421  35.946  1.00  0.00     0.041 A 
ATOM     73  F   UNL A   1      44.069  32.426  34.105  1.00  0.00    -0.206 F 
ATOM     74  C   UNL A   1      41.949  33.490  36.836  1.00  0.00     0.022 A 
BRANCH  71  75
ATOM     75  S   UNL A   1      39.443  32.698  37.769  1.00  0.00     0.124 S 
ATOM     76  O   UNL A   1      39.980  32.648  39.127  1.00  0.00    -0.237 OA
ATOM     77  O   UNL A   1      38.927  33.990  37.332  1.00  0.00    -0.237 OA
ATOM     78  O   UNL A   1      38.638  31.540  37.383  1.00  0.00    -0.744 OA
ENDBRANCH  71  75
ENDBRANCH  54  68
BRANCH  55  79
ATOM     79  C   UNL A   1      42.319  24.720  27.447  1.00  0.00     0.023 A 
ATOM     80  C   UNL A   1      41.561  23.537  27.457  1.00  0.00     0.031 A 
ATOM     81  C   UNL A   1      43.173  24.947  26.353  1.00  0.00     0.131 A 
ATOM     82  C   UNL A   1      41.706  22.606  26.418  1.00  0.00     0.055 A 
ATOM     83  C   UNL A   1      43.274  24.042  25.295  1.00  0.00     0.041 A 
ATOM     84  F   UNL A   1      43.913  26.065  26.290  1.00  0.00    -0.206 F 
ATOM     85  C   UNL A   1      42.548  22.856  25.331  1.00  0.00     0.022 A 
BRANCH  82  86
ATOM     86  S   UNL A   1      40.840  21.017  26.549  1.00  0.00     0.124 S 
ATOM     87  O   UNL A   1      41.705  20.141  25.768  1.00  0.00    -0.237 OA
ATOM     88  O   UNL A   1      40.835  20.795  27.992  1.00  0.00    -0.237 OA
ATOM     89  O   UNL A   1      39.532  21.294  25.958  1.00  0.00    -0.744 OA
ENDBRANCH  82  86
ENDBRANCH  55  79
BRANCH  67  90
ATOM     90  C   UNL A   1      46.308  25.810  33.057  1.00  0.00     0.023 A 
ATOM     91  C   UNL A   1      46.200  24.713  33.929  1.00  0.00     0.031 A 
ATOM     92  C   UNL A   1      47.596  26.245  32.698  1.00  0.00     0.131 A 
ATOM     93  C   UNL A   1      47.358  24.130  34.467  1.00  0.00     0.055 A 
ATOM     94  C   UNL A   1      48.745  25.619  33.185  1.00  0.00     0.041 A 
ATOM     95  F   UNL A   1      47.760  27.289  31.869  1.00  0.00    -0.206 F 
ATOM     96  C   UNL A   1      48.629  24.565  34.086  1.00  0.00     0.022 A 
BRANCH  93  97
ATOM     97  S   UNL A   1      47.176  22.863  35.751  1.00  0.00     0.124 S 
ATOM     98  O   UNL A   1      48.439  22.139  35.645  1.00  0.00    -0.237 OA
ATOM     99  O   UNL A   1      47.000  23.663  36.958  1.00  0.00    -0.237 OA
ATOM    100  O   UNL A   1      45.995  22.112  35.327  1.00  0.00    -0.744 OA
ENDBRANCH  93  97
ENDBRANCH  67  90
ENDBRANCH  41  42
ENDBRANCH  33  36
ENDBRANCH  31  32
ENDBRANCH  30  31
ENDBRANCH   1  30
TORSDOF 20
ENDMDL
