MODEL 1
REMARK VINA RESULT:     -11.6      0.000      0.000
REMARK SMILES CC[C@H]1CC(=O)N(CCn2cc(C(=O)NCCCCCCNC(=O)c3ccc(-c4c5nc(c(-c6cc(S(=O)(=O)[O-])ccc6F)c6ccc([nH]6)c(-c6cc(S(=O)(=O)[O-])ccc6F)c6nc(c(-c7cc(S(=O)(=O)[O-])ccc7F)c7ccc4[nH]7)C=C6)C=C5)cc3)nn2)C1
REMARK SMILES IDX 18 1 17 2 16 3 15 4 13 5 14 6 12 8 10 9 11 10 89 11 88 12
REMARK SMILES IDX 9 13 8 14 7 15 3 16 4 17 90 18 5 19 6 20 2 21 1 22 19 23
REMARK SMILES IDX 20 24 21 25 22 26 23 27 24 29 25 30 26 31 87 32 27 33 86 34
REMARK SMILES IDX 28 35 29 36 30 37 80 38 31 39 85 40 79 41 81 42 32 43 84 44
REMARK SMILES IDX 78 45 77 46 33 48 65 49 45 50 64 51 46 52 49 53 63 54 82 55
REMARK SMILES IDX 47 56 48 57 62 59 83 60 50 61 34 62 35 63 43 64 36 65 42 66
REMARK SMILES IDX 44 67 41 68 37 69 38 70 39 71 40 72 66 73 67 74 75 75 68 76
REMARK SMILES IDX 74 77 76 78 73 79 69 80 70 81 71 82 72 83 51 84 52 85 60 86
REMARK SMILES IDX 53 87 59 88 61 89 58 90 54 91 55 92 56 93 57 94
REMARK H PARENT 15 7 22 28 81 47 49 58
REMARK Flexibility Score: inf
ROOT
ATOM      1  C   UNL A   1      31.729  28.620  24.899  1.00  0.00     0.002 C 
ENDROOT
BRANCH   1   2
ATOM      2  C   UNL A   1      30.915  27.323  24.819  1.00  0.00     0.021 C 
BRANCH   2   3
ATOM      3  C   UNL A   1      30.817  26.745  23.409  1.00  0.00     0.116 C 
BRANCH   3   4
ATOM      4  N   UNL A   1      31.982  27.089  22.620  1.00  0.00    -0.351 N 
ATOM      5  C   UNL A   1      33.218  26.501  22.507  1.00  0.00     0.273 C 
ATOM      6  O   UNL A   1      33.962  26.949  21.632  1.00  0.00    -0.267 OA
ATOM      7  H   UNL A   1      31.865  27.891  22.062  1.00  0.00     0.163 HD
BRANCH   5   8
ATOM      8  C   UNL A   1      33.621  25.390  23.363  1.00  0.00     0.170 A 
ATOM      9  N   UNL A   1      34.081  23.491  24.310  1.00  0.00    -0.250 N 
ATOM     10  C   UNL A   1      33.646  24.029  23.136  1.00  0.00     0.145 A 
ATOM     11  N   UNL A   1      34.316  24.440  25.226  1.00  0.00    -0.067 NA
ATOM     12  N   UNL A   1      34.010  25.605  24.671  1.00  0.00    -0.125 NA
BRANCH   9  13
ATOM     13  C   UNL A   1      34.257  22.093  24.631  1.00  0.00     0.167 C 
BRANCH  13  14
ATOM     14  C   UNL A   1      32.944  21.384  24.951  1.00  0.00     0.143 C 
BRANCH  14  15
ATOM     15  N   UNL A   1      32.815  20.045  24.386  1.00  0.00    -0.341 N 
ATOM     16  C   UNL A   1      33.436  17.841  23.951  1.00  0.00     0.017 C 
ATOM     17  C   UNL A   1      32.436  18.292  22.881  1.00  0.00     0.105 C 
ATOM     18  C   UNL A   1      33.207  18.839  25.078  1.00  0.00     0.123 C 
ATOM     19  C   UNL A   1      32.365  19.784  23.101  1.00  0.00     0.222 C 
ATOM     20  O   UNL A   1      31.944  20.609  22.304  1.00  0.00    -0.275 OA
BRANCH  16  21
ATOM     21  C   UNL A   1      33.367  16.378  24.403  1.00  0.00     0.002 C 
ATOM     22  C   UNL A   1      34.609  15.830  25.090  1.00  0.00     0.004 C 
ENDBRANCH  16  21
ENDBRANCH  14  15
ENDBRANCH  13  14
ENDBRANCH   9  13
ENDBRANCH   5   8
ENDBRANCH   3   4
ENDBRANCH   2   3
ENDBRANCH   1   2
BRANCH   1  23
ATOM     23  C   UNL A   1      32.331  28.940  26.278  1.00  0.00     0.002 C 
BRANCH  23  24
ATOM     24  C   UNL A   1      33.797  29.396  26.284  1.00  0.00     0.021 C 
BRANCH  24  25
ATOM     25  C   UNL A   1      34.223  30.053  27.589  1.00  0.00     0.116 C 
BRANCH  25  26
ATOM     26  N   UNL A   1      34.754  31.395  27.370  1.00  0.00    -0.352 N 
ATOM     27  C   UNL A   1      35.884  31.967  27.909  1.00  0.00     0.251 C 
ATOM     28  H   UNL A   1      34.236  31.966  26.758  1.00  0.00     0.163 HD
ATOM     29  O   UNL A   1      36.001  33.191  27.939  1.00  0.00    -0.269 OA
BRANCH  27  30
ATOM     30  C   UNL A   1      36.939  31.097  28.459  1.00  0.00     0.039 A 
ATOM     31  C   UNL A   1      36.972  29.733  28.157  1.00  0.00     0.014 A 
ATOM     32  C   UNL A   1      37.912  31.667  29.278  1.00  0.00     0.014 A 
ATOM     33  C   UNL A   1      38.041  28.967  28.615  1.00  0.00     0.010 A 
ATOM     34  C   UNL A   1      39.027  30.940  29.623  1.00  0.00     0.010 A 
ATOM     35  C   UNL A   1      39.081  29.581  29.330  1.00  0.00    -0.014 A 
BRANCH  35  36
ATOM     36  C   UNL A   1      40.297  28.839  29.659  1.00  0.00     0.031 A 
ATOM     37  C   UNL A   1      40.534  28.645  31.116  1.00  0.00     0.074 A 
ATOM     38  C   UNL A   1      41.033  28.170  28.743  1.00  0.00     0.049 A 
ATOM     39  N   UNL A   1      41.490  29.135  31.831  1.00  0.00    -0.248 NA
ATOM     40  C   UNL A   1      39.512  27.938  31.904  1.00  0.00     0.031 C 
ATOM     41  C   UNL A   1      40.765  28.020  27.309  1.00  0.00     0.029 A 
ATOM     42  N   UNL A   1      42.119  27.370  28.929  1.00  0.00    -0.354 N 
ATOM     43  C   UNL A   1      41.332  28.604  33.109  1.00  0.00     0.074 A 
ATOM     44  C   UNL A   1      40.003  28.055  33.140  1.00  0.00     0.031 C 
ATOM     45  C   UNL A   1      41.503  27.001  26.815  1.00  0.00     0.029 A 
ATOM     46  C   UNL A   1      42.411  26.539  27.850  1.00  0.00     0.049 A 
ATOM     47  H   UNL A   1      42.652  27.377  29.757  1.00  0.00     0.167 HD
ATOM     48  C   UNL A   1      42.397  28.458  33.947  1.00  0.00     0.034 A 
ATOM     49  C   UNL A   1      43.314  25.522  27.811  1.00  0.00     0.034 A 
ATOM     50  C   UNL A   1      43.529  29.230  33.479  1.00  0.00     0.049 A 
ATOM     51  C   UNL A   1      44.304  25.794  28.880  1.00  0.00     0.074 A 
ATOM     52  C   UNL A   1      43.739  30.567  33.199  1.00  0.00     0.029 A 
ATOM     53  N   UNL A   1      44.556  28.560  32.849  1.00  0.00    -0.354 N 
ATOM     54  N   UNL A   1      45.099  26.830  28.869  1.00  0.00    -0.248 NA
ATOM     55  C   UNL A   1      44.083  25.204  30.192  1.00  0.00     0.031 C 
ATOM     56  C   UNL A   1      44.532  30.569  32.013  1.00  0.00     0.029 A 
ATOM     57  C   UNL A   1      44.840  29.245  31.693  1.00  0.00     0.049 A 
ATOM     58  H   UNL A   1      45.001  27.742  33.168  1.00  0.00     0.167 HD
ATOM     59  C   UNL A   1      45.104  27.291  30.176  1.00  0.00     0.074 A 
ATOM     60  C   UNL A   1      44.555  26.189  30.964  1.00  0.00     0.031 C 
ATOM     61  C   UNL A   1      45.281  28.617  30.460  1.00  0.00     0.034 A 
BRANCH  48  62
ATOM     62  C   UNL A   1      42.560  27.356  34.975  1.00  0.00     0.023 A 
ATOM     63  C   UNL A   1      43.377  26.263  34.617  1.00  0.00     0.031 A 
ATOM     64  C   UNL A   1      41.758  27.166  36.122  1.00  0.00     0.131 A 
ATOM     65  C   UNL A   1      43.283  25.034  35.292  1.00  0.00     0.055 A 
ATOM     66  C   UNL A   1      41.723  25.963  36.837  1.00  0.00     0.041 A 
ATOM     67  F   UNL A   1      40.898  28.087  36.569  1.00  0.00    -0.206 F 
ATOM     68  C   UNL A   1      42.459  24.875  36.402  1.00  0.00     0.022 A 
BRANCH  65  69
ATOM     69  S   UNL A   1      44.109  23.594  34.567  1.00  0.00     0.124 S 
ATOM     70  O   UNL A   1      45.236  24.220  33.886  1.00  0.00    -0.237 OA
ATOM     71  O   UNL A   1      44.427  22.805  35.751  1.00  0.00    -0.237 OA
ATOM     72  O   UNL A   1      43.087  23.024  33.692  1.00  0.00    -0.744 OA
ENDBRANCH  65  69
ENDBRANCH  48  62
BRANCH  49  73
ATOM     73  C   UNL A   1      43.179  24.213  27.110  1.00  0.00     0.023 A 
ATOM     74  C   UNL A   1      44.080  23.786  26.109  1.00  0.00     0.031 A 
ATOM     75  C   UNL A   1      42.279  23.241  27.604  1.00  0.00     0.131 A 
ATOM     76  C   UNL A   1      44.056  22.445  25.653  1.00  0.00     0.055 A 
ATOM     77  C   UNL A   1      42.258  21.922  27.147  1.00  0.00     0.041 A 
ATOM     78  F   UNL A   1      41.441  23.518  28.617  1.00  0.00    -0.206 F 
ATOM     79  C   UNL A   1      43.156  21.514  26.176  1.00  0.00     0.022 A 
BRANCH  76  80
ATOM     80  S   UNL A   1      45.278  21.856  24.433  1.00  0.00     0.124 S 
ATOM     81  O   UNL A   1      46.441  21.582  25.270  1.00  0.00    -0.237 OA
ATOM     82  O   UNL A   1      44.609  20.700  23.849  1.00  0.00    -0.237 OA
ATOM     83  O   UNL A   1      45.428  22.996  23.527  1.00  0.00    -0.744 OA
ENDBRANCH  76  80
ENDBRANCH  49  73
BRANCH  61  84
ATOM     84  C   UNL A   1      45.766  29.538  29.356  1.00  0.00     0.023 A 
ATOM     85  C   UNL A   1      44.930  30.278  28.487  1.00  0.00     0.031 A 
ATOM     86  C   UNL A   1      47.152  29.763  29.269  1.00  0.00     0.131 A 
ATOM     87  C   UNL A   1      45.492  31.188  27.569  1.00  0.00     0.055 A 
ATOM     88  C   UNL A   1      47.703  30.681  28.375  1.00  0.00     0.041 A 
ATOM     89  F   UNL A   1      48.000  29.113  30.083  1.00  0.00    -0.206 F 
ATOM     90  C   UNL A   1      46.875  31.392  27.516  1.00  0.00     0.022 A 
BRANCH  87  91
ATOM     91  S   UNL A   1      44.437  32.110  26.404  1.00  0.00     0.124 S 
ATOM     92  O   UNL A   1      44.009  33.273  27.173  1.00  0.00    -0.237 OA
ATOM     93  O   UNL A   1      45.347  32.378  25.294  1.00  0.00    -0.237 OA
ATOM     94  O   UNL A   1      43.365  31.161  26.092  1.00  0.00    -0.744 OA
ENDBRANCH  87  91
ENDBRANCH  61  84
ENDBRANCH  35  36
ENDBRANCH  27  30
ENDBRANCH  25  26
ENDBRANCH  24  25
ENDBRANCH  23  24
ENDBRANCH   1  23
TORSDOF 20
ENDMDL
MODEL 2
REMARK VINA RESULT:     -11.6      2.964      9.034
REMARK SMILES CC[C@H]1CC(=O)N(CCn2cc(C(=O)NCCCCCCNC(=O)c3ccc(-c4c5nc(c(-c6cc(S(=O)(=O)[O-])ccc6F)c6ccc([nH]6)c(-c6cc(S(=O)(=O)[O-])ccc6F)c6nc(c(-c7cc(S(=O)(=O)[O-])ccc7F)c7ccc4[nH]7)C=C6)C=C5)cc3)nn2)C1
REMARK SMILES IDX 18 1 17 2 16 3 15 4 13 5 14 6 12 8 10 9 11 10 89 11 88 12
REMARK SMILES IDX 9 13 8 14 7 15 3 16 4 17 90 18 5 19 6 20 2 21 1 22 19 23
REMARK SMILES IDX 20 24 21 25 22 26 23 27 24 29 25 30 26 31 87 32 27 33 86 34
REMARK SMILES IDX 28 35 29 36 30 37 80 38 31 39 85 40 79 41 81 42 32 43 84 44
REMARK SMILES IDX 78 45 77 46 33 48 65 49 45 50 64 51 46 52 49 53 63 54 82 55
REMARK SMILES IDX 47 56 48 57 62 59 83 60 50 61 34 62 35 63 43 64 36 65 42 66
REMARK SMILES IDX 44 67 41 68 37 69 38 70 39 71 40 72 66 73 67 74 75 75 68 76
REMARK SMILES IDX 74 77 76 78 73 79 69 80 70 81 71 82 72 83 51 84 52 85 60 86
REMARK SMILES IDX 53 87 59 88 61 89 58 90 54 91 55 92 56 93 57 94
REMARK H PARENT 15 7 22 28 81 47 49 58
REMARK Flexibility Score: inf
ROOT
ATOM      1  C   UNL A   1      40.781  20.860  27.052  1.00  0.00     0.002 C 
ENDROOT
BRANCH   1   2
ATOM      2  C   UNL A   1      39.860  20.329  25.946  1.00  0.00     0.021 C 
BRANCH   2   3
ATOM      3  C   UNL A   1      38.592  21.157  25.751  1.00  0.00     0.116 C 
BRANCH   3   4
ATOM      4  N   UNL A   1      38.793  22.528  26.171  1.00  0.00    -0.351 N 
ATOM      5  C   UNL A   1      37.984  23.636  26.102  1.00  0.00     0.273 C 
ATOM      6  O   UNL A   1      38.384  24.648  26.683  1.00  0.00    -0.267 OA
ATOM      7  H   UNL A   1      39.671  22.697  26.583  1.00  0.00     0.163 HD
BRANCH   5   8
ATOM      8  C   UNL A   1      36.707  23.612  25.397  1.00  0.00     0.170 A 
ATOM      9  N   UNL A   1      34.636  23.557  24.745  1.00  0.00    -0.250 N 
ATOM     10  C   UNL A   1      35.408  23.642  25.865  1.00  0.00     0.145 A 
ATOM     11  N   UNL A   1      35.386  23.474  23.638  1.00  0.00    -0.067 NA
ATOM     12  N   UNL A   1      36.655  23.475  24.023  1.00  0.00    -0.125 NA
BRANCH   9  13
ATOM     13  C   UNL A   1      33.193  23.513  24.667  1.00  0.00     0.167 C 
BRANCH  13  14
ATOM     14  C   UNL A   1      32.586  22.370  25.477  1.00  0.00     0.143 C 
BRANCH  14  15
ATOM     15  N   UNL A   1      32.639  21.064  24.830  1.00  0.00    -0.341 N 
ATOM     16  C   UNL A   1      33.537  18.980  24.294  1.00  0.00     0.017 C 
ATOM     17  C   UNL A   1      32.526  19.376  23.211  1.00  0.00     0.105 C 
ATOM     18  C   UNL A   1      33.150  19.872  25.467  1.00  0.00     0.123 C 
ATOM     19  C   UNL A   1      32.269  20.832  23.514  1.00  0.00     0.222 C 
ATOM     20  O   UNL A   1      31.779  21.649  22.750  1.00  0.00    -0.275 OA
BRANCH  16  21
ATOM     21  C   UNL A   1      33.630  17.494  24.657  1.00  0.00     0.002 C 
ATOM     22  C   UNL A   1      34.032  16.554  23.531  1.00  0.00     0.004 C 
ENDBRANCH  16  21
ENDBRANCH  14  15
ENDBRANCH  13  14
ENDBRANCH   9  13
ENDBRANCH   5   8
ENDBRANCH   3   4
ENDBRANCH   2   3
ENDBRANCH   1   2
BRANCH   1  23
ATOM     23  C   UNL A   1      42.181  20.227  27.109  1.00  0.00     0.002 C 
BRANCH  23  24
ATOM     24  C   UNL A   1      42.436  19.065  26.138  1.00  0.00     0.021 C 
BRANCH  24  25
ATOM     25  C   UNL A   1      43.897  18.644  26.065  1.00  0.00     0.116 C 
BRANCH  25  26
ATOM     26  N   UNL A   1      44.431  18.773  24.713  1.00  0.00    -0.352 N 
ATOM     27  C   UNL A   1      44.619  19.919  23.974  1.00  0.00     0.251 C 
ATOM     28  H   UNL A   1      44.691  17.932  24.273  1.00  0.00     0.163 HD
ATOM     29  O   UNL A   1      44.716  19.853  22.750  1.00  0.00    -0.269 OA
BRANCH  27  30
ATOM     30  C   UNL A   1      44.689  21.218  24.665  1.00  0.00     0.039 A 
ATOM     31  C   UNL A   1      43.772  22.233  24.377  1.00  0.00     0.014 A 
ATOM     32  C   UNL A   1      45.682  21.410  25.625  1.00  0.00     0.014 A 
ATOM     33  C   UNL A   1      43.811  23.409  25.122  1.00  0.00     0.010 A 
ATOM     34  C   UNL A   1      45.641  22.515  26.441  1.00  0.00     0.010 A 
ATOM     35  C   UNL A   1      44.734  23.537  26.172  1.00  0.00    -0.014 A 
BRANCH  35  36
ATOM     36  C   UNL A   1      44.671  24.678  27.084  1.00  0.00     0.031 A 
ATOM     37  C   UNL A   1      45.835  25.603  27.006  1.00  0.00     0.074 A 
ATOM     38  C   UNL A   1      43.560  25.019  27.773  1.00  0.00     0.049 A 
ATOM     39  N   UNL A   1      46.722  25.832  27.915  1.00  0.00    -0.248 NA
ATOM     40  C   UNL A   1      46.134  26.246  25.716  1.00  0.00     0.031 C 
ATOM     41  C   UNL A   1      42.241  24.380  27.730  1.00  0.00     0.029 A 
ATOM     42  N   UNL A   1      43.341  26.101  28.571  1.00  0.00    -0.354 N 
ATOM     43  C   UNL A   1      47.552  26.828  27.408  1.00  0.00     0.074 A 
ATOM     44  C   UNL A   1      47.271  26.888  25.998  1.00  0.00     0.031 C 
ATOM     45  C   UNL A   1      41.317  25.213  28.259  1.00  0.00     0.029 A 
ATOM     46  C   UNL A   1      41.997  26.364  28.826  1.00  0.00     0.049 A 
ATOM     47  H   UNL A   1      44.071  26.652  28.936  1.00  0.00     0.167 HD
ATOM     48  C   UNL A   1      48.226  27.673  28.238  1.00  0.00     0.034 A 
ATOM     49  C   UNL A   1      41.470  27.462  29.433  1.00  0.00     0.034 A 
ATOM     50  C   UNL A   1      48.238  27.162  29.593  1.00  0.00     0.049 A 
ATOM     51  C   UNL A   1      42.553  28.049  30.259  1.00  0.00     0.074 A 
ATOM     52  C   UNL A   1      48.677  25.990  30.181  1.00  0.00     0.029 A 
ATOM     53  N   UNL A   1      47.380  27.730  30.509  1.00  0.00    -0.354 N 
ATOM     54  N   UNL A   1      43.085  27.433  31.280  1.00  0.00    -0.248 NA
ATOM     55  C   UNL A   1      43.381  29.090  29.670  1.00  0.00     0.031 C 
ATOM     56  C   UNL A   1      47.674  25.668  31.142  1.00  0.00     0.029 A 
ATOM     57  C   UNL A   1      46.736  26.704  31.154  1.00  0.00     0.049 A 
ATOM     58  H   UNL A   1      47.252  28.693  30.670  1.00  0.00     0.167 HD
ATOM     59  C   UNL A   1      44.446  27.675  31.175  1.00  0.00     0.074 A 
ATOM     60  C   UNL A   1      44.556  28.790  30.235  1.00  0.00     0.031 C 
ATOM     61  C   UNL A   1      45.365  26.771  31.629  1.00  0.00     0.034 A 
BRANCH  48  62
ATOM     62  C   UNL A   1      48.559  29.121  27.934  1.00  0.00     0.023 A 
ATOM     63  C   UNL A   1      47.474  30.008  27.780  1.00  0.00     0.031 A 
ATOM     64  C   UNL A   1      49.812  29.611  27.504  1.00  0.00     0.131 A 
ATOM     65  C   UNL A   1      47.630  31.239  27.119  1.00  0.00     0.055 A 
ATOM     66  C   UNL A   1      49.975  30.869  26.913  1.00  0.00     0.041 A 
ATOM     67  F   UNL A   1      50.931  28.880  27.542  1.00  0.00    -0.206 F 
ATOM     68  C   UNL A   1      48.875  31.676  26.682  1.00  0.00     0.022 A 
BRANCH  65  69
ATOM     69  S   UNL A   1      46.138  32.161  26.666  1.00  0.00     0.124 S 
ATOM     70  O   UNL A   1      45.516  31.254  25.709  1.00  0.00    -0.237 OA
ATOM     71  O   UNL A   1      45.469  32.298  27.955  1.00  0.00    -0.237 OA
ATOM     72  O   UNL A   1      46.666  33.401  26.102  1.00  0.00    -0.744 OA
ENDBRANCH  65  69
ENDBRANCH  48  62
BRANCH  49  73
ATOM     73  C   UNL A   1      40.201  28.166  29.096  1.00  0.00     0.023 A 
ATOM     74  C   UNL A   1      39.307  28.645  30.079  1.00  0.00     0.031 A 
ATOM     75  C   UNL A   1      39.970  28.600  27.770  1.00  0.00     0.131 A 
ATOM     76  C   UNL A   1      38.249  29.517  29.719  1.00  0.00     0.055 A 
ATOM     77  C   UNL A   1      38.924  29.457  27.421  1.00  0.00     0.041 A 
ATOM     78  F   UNL A   1      40.811  28.276  26.773  1.00  0.00    -0.206 F 
ATOM     79  C   UNL A   1      38.065  29.929  28.397  1.00  0.00     0.022 A 
BRANCH  76  80
ATOM     80  S   UNL A   1      37.149  30.220  30.993  1.00  0.00     0.124 S 
ATOM     81  O   UNL A   1      36.922  29.076  31.869  1.00  0.00    -0.237 OA
ATOM     82  O   UNL A   1      37.953  31.307  31.538  1.00  0.00    -0.237 OA
ATOM     83  O   UNL A   1      35.978  30.650  30.228  1.00  0.00    -0.744 OA
ENDBRANCH  76  80
ENDBRANCH  49  73
BRANCH  61  84
ATOM     84  C   UNL A   1      44.889  25.635  32.517  1.00  0.00     0.023 A 
ATOM     85  C   UNL A   1      44.617  25.744  33.901  1.00  0.00     0.031 A 
ATOM     86  C   UNL A   1      44.585  24.413  31.891  1.00  0.00     0.131 A 
ATOM     87  C   UNL A   1      44.075  24.648  34.603  1.00  0.00     0.055 A 
ATOM     88  C   UNL A   1      44.027  23.340  32.583  1.00  0.00     0.041 A 
ATOM     89  F   UNL A   1      44.795  24.252  30.573  1.00  0.00    -0.206 F 
ATOM     90  C   UNL A   1      43.776  23.450  33.945  1.00  0.00     0.022 A 
BRANCH  87  91
ATOM     91  S   UNL A   1      43.767  24.750  36.397  1.00  0.00     0.124 S 
ATOM     92  O   UNL A   1      44.621  23.707  36.952  1.00  0.00    -0.237 OA
ATOM     93  O   UNL A   1      44.152  26.124  36.708  1.00  0.00    -0.237 OA
ATOM     94  O   UNL A   1      42.330  24.484  36.511  1.00  0.00    -0.744 OA
ENDBRANCH  87  91
ENDBRANCH  61  84
ENDBRANCH  35  36
ENDBRANCH  27  30
ENDBRANCH  25  26
ENDBRANCH  24  25
ENDBRANCH  23  24
ENDBRANCH   1  23
TORSDOF 20
ENDMDL
MODEL 3
REMARK VINA RESULT:     -11.5      2.820      7.329
REMARK SMILES CC[C@H]1CC(=O)N(CCn2cc(C(=O)NCCCCCCNC(=O)c3ccc(-c4c5nc(c(-c6cc(S(=O)(=O)[O-])ccc6F)c6ccc([nH]6)c(-c6cc(S(=O)(=O)[O-])ccc6F)c6nc(c(-c7cc(S(=O)(=O)[O-])ccc7F)c7ccc4[nH]7)C=C6)C=C5)cc3)nn2)C1
REMARK SMILES IDX 18 1 17 2 16 3 15 4 13 5 14 6 12 8 10 9 11 10 89 11 88 12
REMARK SMILES IDX 9 13 8 14 7 15 3 16 4 17 90 18 5 19 6 20 2 21 1 22 19 23
REMARK SMILES IDX 20 24 21 25 22 26 23 27 24 29 25 30 26 31 87 32 27 33 86 34
REMARK SMILES IDX 28 35 29 36 30 37 80 38 31 39 85 40 79 41 81 42 32 43 84 44
REMARK SMILES IDX 78 45 77 46 33 48 65 49 45 50 64 51 46 52 49 53 63 54 82 55
REMARK SMILES IDX 47 56 48 57 62 59 83 60 50 61 34 62 35 63 43 64 36 65 42 66
REMARK SMILES IDX 44 67 41 68 37 69 38 70 39 71 40 72 66 73 67 74 75 75 68 76
REMARK SMILES IDX 74 77 76 78 73 79 69 80 70 81 71 82 72 83 51 84 52 85 60 86
REMARK SMILES IDX 53 87 59 88 61 89 58 90 54 91 55 92 56 93 57 94
REMARK H PARENT 15 7 22 28 81 47 49 58
REMARK Flexibility Score: inf
ROOT
ATOM      1  C   UNL A   1      31.844  28.508  27.402  1.00  0.00     0.002 C 
ENDROOT
BRANCH   1   2
ATOM      2  C   UNL A   1      31.953  27.345  26.408  1.00  0.00     0.021 C 
BRANCH   2   3
ATOM      3  C   UNL A   1      30.617  26.670  26.103  1.00  0.00     0.116 C 
BRANCH   3   4
ATOM      4  N   UNL A   1      30.605  26.117  24.765  1.00  0.00    -0.351 N 
ATOM      5  C   UNL A   1      30.896  24.862  24.289  1.00  0.00     0.273 C 
ATOM      6  O   UNL A   1      30.651  24.654  23.099  1.00  0.00    -0.267 OA
ATOM      7  H   UNL A   1      30.337  26.759  24.068  1.00  0.00     0.163 HD
BRANCH   5   8
ATOM      8  C   UNL A   1      31.446  23.822  25.152  1.00  0.00     0.170 A 
ATOM      9  N   UNL A   1      32.620  22.323  26.196  1.00  0.00    -0.250 N 
ATOM     10  C   UNL A   1      32.713  23.280  25.230  1.00  0.00     0.145 A 
ATOM     11  N   UNL A   1      31.381  22.254  26.700  1.00  0.00    -0.067 NA
ATOM     12  N   UNL A   1      30.643  23.144  26.049  1.00  0.00    -0.125 NA
BRANCH   9  13
ATOM     13  C   UNL A   1      33.657  21.425  26.654  1.00  0.00     0.167 C 
BRANCH  13  14
ATOM     14  C   UNL A   1      34.624  21.016  25.546  1.00  0.00     0.143 C 
BRANCH  14  15
ATOM     15  N   UNL A   1      35.957  21.598  25.650  1.00  0.00    -0.341 N 
ATOM     16  C   UNL A   1      37.576  23.270  25.503  1.00  0.00     0.017 C 
ATOM     17  C   UNL A   1      38.272  21.905  25.472  1.00  0.00     0.105 C 
ATOM     18  C   UNL A   1      36.213  22.947  26.101  1.00  0.00     0.123 C 
ATOM     19  C   UNL A   1      37.121  20.950  25.265  1.00  0.00     0.222 C 
ATOM     20  O   UNL A   1      37.205  19.796  24.871  1.00  0.00    -0.275 OA
BRANCH  16  21
ATOM     21  C   UNL A   1      38.305  24.412  26.218  1.00  0.00     0.002 C 
ATOM     22  C   UNL A   1      38.678  24.162  27.672  1.00  0.00     0.004 C 
ENDBRANCH  16  21
ENDBRANCH  14  15
ENDBRANCH  13  14
ENDBRANCH   9  13
ENDBRANCH   5   8
ENDBRANCH   3   4
ENDBRANCH   2   3
ENDBRANCH   1   2
BRANCH   1  23
ATOM     23  C   UNL A   1      32.798  29.688  27.147  1.00  0.00     0.002 C 
BRANCH  23  24
ATOM     24  C   UNL A   1      34.084  29.362  26.374  1.00  0.00     0.021 C 
BRANCH  24  25
ATOM     25  C   UNL A   1      35.233  28.915  27.266  1.00  0.00     0.116 C 
BRANCH  25  26
ATOM     26  N   UNL A   1      35.358  29.758  28.451  1.00  0.00    -0.352 N 
ATOM     27  C   UNL A   1      36.360  29.766  29.393  1.00  0.00     0.251 C 
ATOM     28  H   UNL A   1      34.630  30.405  28.594  1.00  0.00     0.163 HD
ATOM     29  O   UNL A   1      36.155  30.246  30.507  1.00  0.00    -0.269 OA
BRANCH  27  30
ATOM     30  C   UNL A   1      37.671  29.183  29.056  1.00  0.00     0.039 A 
ATOM     31  C   UNL A   1      38.400  29.647  27.958  1.00  0.00     0.014 A 
ATOM     32  C   UNL A   1      38.175  28.166  29.865  1.00  0.00     0.014 A 
ATOM     33  C   UNL A   1      39.676  29.138  27.733  1.00  0.00     0.010 A 
ATOM     34  C   UNL A   1      39.479  27.757  29.717  1.00  0.00     0.010 A 
ATOM     35  C   UNL A   1      40.223  28.208  28.630  1.00  0.00    -0.014 A 
BRANCH  35  36
ATOM     36  C   UNL A   1      41.623  27.802  28.521  1.00  0.00     0.031 A 
ATOM     37  C   UNL A   1      41.850  26.548  27.751  1.00  0.00     0.074 A 
ATOM     38  C   UNL A   1      42.659  28.598  28.869  1.00  0.00     0.049 A 
ATOM     39  N   UNL A   1      42.297  25.421  28.193  1.00  0.00    -0.248 NA
ATOM     40  C   UNL A   1      41.396  26.493  26.351  1.00  0.00     0.031 C 
ATOM     41  C   UNL A   1      42.608  29.976  29.368  1.00  0.00     0.029 A 
ATOM     42  N   UNL A   1      43.996  28.381  28.729  1.00  0.00    -0.354 N 
ATOM     43  C   UNL A   1      42.412  24.586  27.085  1.00  0.00     0.074 A 
ATOM     44  C   UNL A   1      41.658  25.222  26.038  1.00  0.00     0.031 C 
ATOM     45  C   UNL A   1      43.828  30.544  29.252  1.00  0.00     0.029 A 
ATOM     46  C   UNL A   1      44.778  29.529  28.832  1.00  0.00     0.049 A 
ATOM     47  H   UNL A   1      44.378  27.488  28.566  1.00  0.00     0.167 HD
ATOM     48  C   UNL A   1      43.313  23.563  27.065  1.00  0.00     0.034 A 
ATOM     49  C   UNL A   1      46.106  29.652  28.563  1.00  0.00     0.034 A 
ATOM     50  C   UNL A   1      43.801  23.281  28.399  1.00  0.00     0.049 A 
ATOM     51  C   UNL A   1      46.689  28.294  28.686  1.00  0.00     0.074 A 
ATOM     52  C   UNL A   1      43.201  22.932  29.595  1.00  0.00     0.029 A 
ATOM     53  N   UNL A   1      45.057  23.734  28.740  1.00  0.00    -0.354 N 
ATOM     54  N   UNL A   1      46.725  27.633  29.812  1.00  0.00    -0.248 NA
ATOM     55  C   UNL A   1      46.786  27.474  27.489  1.00  0.00     0.031 C 
ATOM     56  C   UNL A   1      43.904  23.679  30.586  1.00  0.00     0.029 A 
ATOM     57  C   UNL A   1      44.947  24.362  29.956  1.00  0.00     0.049 A 
ATOM     58  H   UNL A   1      45.879  23.627  28.211  1.00  0.00     0.167 HD
ATOM     59  C   UNL A   1      46.388  26.332  29.473  1.00  0.00     0.074 A 
ATOM     60  C   UNL A   1      46.548  26.270  28.020  1.00  0.00     0.031 C 
ATOM     61  C   UNL A   1      45.738  25.514  30.354  1.00  0.00     0.034 A 
BRANCH  48  62
ATOM     62  C   UNL A   1      44.036  23.055  25.833  1.00  0.00     0.023 A 
ATOM     63  C   UNL A   1      43.962  21.670  25.573  1.00  0.00     0.031 A 
ATOM     64  C   UNL A   1      45.007  23.762  25.091  1.00  0.00     0.131 A 
ATOM     65  C   UNL A   1      44.890  21.039  24.728  1.00  0.00     0.055 A 
ATOM     66  C   UNL A   1      45.882  23.139  24.193  1.00  0.00     0.041 A 
ATOM     67  F   UNL A   1      45.234  25.070  25.249  1.00  0.00    -0.206 F 
ATOM     68  C   UNL A   1      45.852  21.765  24.035  1.00  0.00     0.022 A 
BRANCH  65  69
ATOM     69  S   UNL A   1      44.937  19.228  24.710  1.00  0.00     0.124 S 
ATOM     70  O   UNL A   1      43.989  18.904  25.769  1.00  0.00    -0.237 OA
ATOM     71  O   UNL A   1      44.510  18.932  23.348  1.00  0.00    -0.237 OA
ATOM     72  O   UNL A   1      46.335  18.924  25.007  1.00  0.00    -0.744 OA
ENDBRANCH  65  69
ENDBRANCH  48  62
BRANCH  49  73
ATOM     73  C   UNL A   1      46.803  30.806  27.928  1.00  0.00     0.023 A 
ATOM     74  C   UNL A   1      46.136  31.750  27.115  1.00  0.00     0.031 A 
ATOM     75  C   UNL A   1      48.120  31.135  28.323  1.00  0.00     0.131 A 
ATOM     76  C   UNL A   1      46.782  32.953  26.741  1.00  0.00     0.055 A 
ATOM     77  C   UNL A   1      48.753  32.322  27.948  1.00  0.00     0.041 A 
ATOM     78  F   UNL A   1      48.812  30.351  29.167  1.00  0.00    -0.206 F 
ATOM     79  C   UNL A   1      48.081  33.243  27.164  1.00  0.00     0.022 A 
BRANCH  76  80
ATOM     80  S   UNL A   1      45.897  34.223  25.776  1.00  0.00     0.124 S 
ATOM     81  O   UNL A   1      45.212  34.980  26.817  1.00  0.00    -0.237 OA
ATOM     82  O   UNL A   1      46.982  34.905  25.082  1.00  0.00    -0.237 OA
ATOM     83  O   UNL A   1      45.017  33.436  24.909  1.00  0.00    -0.744 OA
ENDBRANCH  76  80
ENDBRANCH  49  73
BRANCH  61  84
ATOM     84  C   UNL A   1      45.649  25.938  31.809  1.00  0.00     0.023 A 
ATOM     85  C   UNL A   1      44.504  26.498  32.425  1.00  0.00     0.031 A 
ATOM     86  C   UNL A   1      46.750  25.644  32.633  1.00  0.00     0.131 A 
ATOM     87  C   UNL A   1      44.501  26.753  33.811  1.00  0.00     0.055 A 
ATOM     88  C   UNL A   1      46.734  25.876  34.008  1.00  0.00     0.041 A 
ATOM     89  F   UNL A   1      47.858  25.087  32.117  1.00  0.00    -0.206 F 
ATOM     90  C   UNL A   1      45.612  26.438  34.602  1.00  0.00     0.022 A 
BRANCH  87  91
ATOM     91  S   UNL A   1      43.058  27.523  34.614  1.00  0.00     0.124 S 
ATOM     92  O   UNL A   1      42.394  28.230  33.526  1.00  0.00    -0.237 OA
ATOM     93  O   UNL A   1      42.344  26.369  35.157  1.00  0.00    -0.237 OA
ATOM     94  O   UNL A   1      43.657  28.394  35.628  1.00  0.00    -0.744 OA
ENDBRANCH  87  91
ENDBRANCH  61  84
ENDBRANCH  35  36
ENDBRANCH  27  30
ENDBRANCH  25  26
ENDBRANCH  24  25
ENDBRANCH  23  24
ENDBRANCH   1  23
TORSDOF 20
ENDMDL
