MODEL 1
REMARK VINA RESULT:     -12.3      0.000      0.000
REMARK SMILES O=C(NCCCCCCNC(=O)c1ccc(-c2c3nc(c(-c4cc(S(=O)(=O)[O-])ccc4F)c4ccc([nH]4)c(-c4cc(S(=O)(=O)[O-])ccc4F)c4nc(c(-c5cc(S(=O)(=O)[O-])ccc5F)c5ccc2[nH]5)C=C4)C=C3)cc1)C1=Cc2c(Cl)ccc(Cl)c2O[C@@H]1C(F)(F)F
REMARK SMILES IDX 7 1 6 2 5 3 4 4 3 5 1 6 2 7 76 9 77 10 87 11 78 12 86 13
REMARK SMILES IDX 79 14 85 15 80 16 81 17 83 18 82 19 84 20 88 21 89 22 90 23
REMARK SMILES IDX 91 24 8 25 9 26 10 27 11 28 12 30 13 31 14 32 75 33 15 34
REMARK SMILES IDX 74 35 16 36 17 37 18 38 68 39 19 40 73 41 67 42 69 43 20 44
REMARK SMILES IDX 72 45 66 46 65 47 21 49 53 50 33 51 52 52 34 53 37 54 51 55
REMARK SMILES IDX 70 56 35 57 36 58 50 60 71 61 38 62 22 63 23 64 31 65 24 66
REMARK SMILES IDX 30 67 32 68 29 69 25 70 26 71 27 72 28 73 54 74 55 75 63 76
REMARK SMILES IDX 56 77 62 78 64 79 61 80 57 81 58 82 59 83 60 84 39 85 40 86
REMARK SMILES IDX 48 87 41 88 47 89 49 90 46 91 42 92 43 93 44 94 45 95
REMARK H PARENT 3 8 10 29 69 48 37 59
REMARK Flexibility Score: inf
ROOT
ATOM      1  C   UNL A   1      31.700  30.578  26.263  1.00  0.00     0.002 C 
ENDROOT
BRANCH   1   2
ATOM      2  C   UNL A   1      32.307  29.548  27.223  1.00  0.00     0.002 C 
BRANCH   2   3
ATOM      3  C   UNL A   1      31.557  28.227  27.373  1.00  0.00     0.021 C 
BRANCH   3   4
ATOM      4  C   UNL A   1      31.171  27.521  26.079  1.00  0.00     0.116 C 
BRANCH   4   5
ATOM      5  N   UNL A   1      30.488  26.250  26.235  1.00  0.00    -0.352 N 
ATOM      6  O   UNL A   1      30.262  24.021  26.387  1.00  0.00    -0.270 OA
ATOM      7  C   UNL A   1      30.957  24.979  26.049  1.00  0.00     0.251 C 
ATOM      8  H   UNL A   1      29.546  26.313  26.517  1.00  0.00     0.163 HD
BRANCH   7   9
ATOM      9  C   UNL A   1      32.332  24.698  25.537  1.00  0.00     0.067 C 
ATOM     10  C   UNL A   1      33.178  23.851  26.149  1.00  0.00     0.027 C 
ATOM     11  C   UNL A   1      32.443  24.869  24.043  1.00  0.00     0.314 C 
ATOM     12  C   UNL A   1      33.321  22.567  25.395  1.00  0.00     0.037 A 
ATOM     13  O   UNL A   1      32.392  23.584  23.373  1.00  0.00    -0.474 OA
ATOM     14  C   UNL A   1      33.705  21.390  26.069  1.00  0.00     0.052 A 
ATOM     15  C   UNL A   1      32.802  22.479  24.087  1.00  0.00     0.148 A 
ATOM     16  Cl  UNL A   1      34.324  21.427  27.684  1.00  0.00    -0.084 Cl
ATOM     17  C   UNL A   1      33.481  20.143  25.487  1.00  0.00     0.023 A 
ATOM     18  C   UNL A   1      32.580  21.219  23.515  1.00  0.00     0.083 A 
ATOM     19  C   UNL A   1      32.897  20.057  24.222  1.00  0.00     0.026 A 
ATOM     20  Cl  UNL A   1      31.799  21.058  21.983  1.00  0.00    -0.080 Cl
BRANCH  11  21
ATOM     21  C   UNL A   1      33.682  25.678  23.629  1.00  0.00     0.429 C 
ATOM     22  F   UNL A   1      33.449  26.401  22.508  1.00  0.00    -0.167 F 
ATOM     23  F   UNL A   1      34.052  26.556  24.592  1.00  0.00    -0.167 F 
ATOM     24  F   UNL A   1      34.755  24.888  23.382  1.00  0.00    -0.167 F 
ENDBRANCH  11  21
ENDBRANCH   7   9
ENDBRANCH   4   5
ENDBRANCH   3   4
ENDBRANCH   2   3
ENDBRANCH   1   2
BRANCH   1  25
ATOM     25  C   UNL A   1      31.553  32.013  26.783  1.00  0.00     0.021 C 
BRANCH  25  26
ATOM     26  C   UNL A   1      32.841  32.713  27.212  1.00  0.00     0.116 C 
BRANCH  26  27
ATOM     27  N   UNL A   1      32.614  34.063  27.695  1.00  0.00    -0.352 N 
ATOM     28  C   UNL A   1      33.207  34.749  28.727  1.00  0.00     0.251 C 
ATOM     29  H   UNL A   1      31.923  34.566  27.207  1.00  0.00     0.163 HD
ATOM     30  O   UNL A   1      32.743  35.836  29.062  1.00  0.00    -0.269 OA
BRANCH  28  31
ATOM     31  C   UNL A   1      34.373  34.187  29.449  1.00  0.00     0.039 A 
ATOM     32  C   UNL A   1      34.140  33.388  30.574  1.00  0.00     0.014 A 
ATOM     33  C   UNL A   1      35.686  34.465  29.059  1.00  0.00     0.014 A 
ATOM     34  C   UNL A   1      35.215  32.828  31.270  1.00  0.00     0.010 A 
ATOM     35  C   UNL A   1      36.754  33.846  29.709  1.00  0.00     0.010 A 
ATOM     36  C   UNL A   1      36.532  33.025  30.825  1.00  0.00    -0.014 A 
BRANCH  36  37
ATOM     37  C   UNL A   1      37.681  32.389  31.527  1.00  0.00     0.031 A 
ATOM     38  C   UNL A   1      38.422  31.245  30.887  1.00  0.00     0.074 A 
ATOM     39  C   UNL A   1      38.029  32.811  32.758  1.00  0.00     0.049 A 
ATOM     40  N   UNL A   1      39.402  30.521  31.365  1.00  0.00    -0.248 NA
ATOM     41  C   UNL A   1      37.979  30.844  29.544  1.00  0.00     0.031 C 
ATOM     42  C   UNL A   1      37.368  33.888  33.499  1.00  0.00     0.029 A 
ATOM     43  N   UNL A   1      39.019  32.385  33.610  1.00  0.00    -0.354 N 
ATOM     44  C   UNL A   1      39.693  29.579  30.383  1.00  0.00     0.074 A 
ATOM     45  C   UNL A   1      38.732  29.778  29.319  1.00  0.00     0.031 C 
ATOM     46  C   UNL A   1      37.981  34.050  34.681  1.00  0.00     0.029 A 
ATOM     47  C   UNL A   1      39.046  33.061  34.808  1.00  0.00     0.049 A 
ATOM     48  H   UNL A   1      39.650  31.664  33.384  1.00  0.00     0.167 HD
ATOM     49  C   UNL A   1      40.685  28.652  30.359  1.00  0.00     0.034 A 
ATOM     50  C   UNL A   1      39.827  32.893  35.895  1.00  0.00     0.034 A 
ATOM     51  C   UNL A   1      41.633  28.465  31.432  1.00  0.00     0.049 A 
ATOM     52  C   UNL A   1      40.897  31.831  35.865  1.00  0.00     0.074 A 
ATOM     53  C   UNL A   1      42.698  27.582  31.498  1.00  0.00     0.029 A 
ATOM     54  N   UNL A   1      41.627  29.165  32.632  1.00  0.00    -0.354 N 
ATOM     55  N   UNL A   1      41.186  30.977  34.910  1.00  0.00    -0.248 NA
ATOM     56  C   UNL A   1      41.753  31.719  37.053  1.00  0.00     0.031 C 
ATOM     57  C   UNL A   1      43.286  27.696  32.763  1.00  0.00     0.029 A 
ATOM     58  C   UNL A   1      42.647  28.712  33.456  1.00  0.00     0.049 A 
ATOM     59  H   UNL A   1      40.991  29.880  32.864  1.00  0.00     0.167 HD
ATOM     60  C   UNL A   1      42.278  30.245  35.373  1.00  0.00     0.074 A 
ATOM     61  C   UNL A   1      42.604  30.773  36.683  1.00  0.00     0.031 C 
ATOM     62  C   UNL A   1      42.953  29.234  34.769  1.00  0.00     0.034 A 
BRANCH  49  63
ATOM     63  C   UNL A   1      40.769  27.760  29.141  1.00  0.00     0.023 A 
ATOM     64  C   UNL A   1      41.724  27.980  28.131  1.00  0.00     0.031 A 
ATOM     65  C   UNL A   1      39.862  26.700  28.963  1.00  0.00     0.131 A 
ATOM     66  C   UNL A   1      41.692  27.217  26.955  1.00  0.00     0.055 A 
ATOM     67  C   UNL A   1      39.896  25.883  27.830  1.00  0.00     0.041 A 
ATOM     68  F   UNL A   1      38.913  26.450  29.879  1.00  0.00    -0.206 F 
ATOM     69  C   UNL A   1      40.801  26.151  26.808  1.00  0.00     0.022 A 
BRANCH  66  70
ATOM     70  S   UNL A   1      42.713  27.748  25.553  1.00  0.00     0.124 S 
ATOM     71  O   UNL A   1      41.954  28.894  25.054  1.00  0.00    -0.237 OA
ATOM     72  O   UNL A   1      43.988  28.055  26.189  1.00  0.00    -0.237 OA
ATOM     73  O   UNL A   1      42.718  26.583  24.671  1.00  0.00    -0.744 OA
ENDBRANCH  66  70
ENDBRANCH  49  63
BRANCH  50  74
ATOM     74  C   UNL A   1      39.615  33.734  37.110  1.00  0.00     0.023 A 
ATOM     75  C   UNL A   1      38.955  33.227  38.240  1.00  0.00     0.031 A 
ATOM     76  C   UNL A   1      40.045  35.073  37.143  1.00  0.00     0.131 A 
ATOM     77  C   UNL A   1      38.706  34.066  39.339  1.00  0.00     0.055 A 
ATOM     78  C   UNL A   1      39.844  35.886  38.259  1.00  0.00     0.041 A 
ATOM     79  F   UNL A   1      40.685  35.607  36.089  1.00  0.00    -0.206 F 
ATOM     80  C   UNL A   1      39.160  35.386  39.361  1.00  0.00     0.022 A 
BRANCH  77  81
ATOM     81  S   UNL A   1      37.701  33.429  40.709  1.00  0.00     0.124 S 
ATOM     82  O   UNL A   1      37.609  34.597  41.577  1.00  0.00    -0.237 OA
ATOM     83  O   UNL A   1      36.472  33.038  40.025  1.00  0.00    -0.237 OA
ATOM     84  O   UNL A   1      38.501  32.324  41.230  1.00  0.00    -0.744 OA
ENDBRANCH  77  81
ENDBRANCH  50  74
BRANCH  62  85
ATOM     85  C   UNL A   1      44.140  28.661  35.506  1.00  0.00     0.023 A 
ATOM     86  C   UNL A   1      44.001  27.623  36.445  1.00  0.00     0.031 A 
ATOM     87  C   UNL A   1      45.430  29.171  35.271  1.00  0.00     0.131 A 
ATOM     88  C   UNL A   1      45.123  27.168  37.155  1.00  0.00     0.055 A 
ATOM     89  C   UNL A   1      46.551  28.669  35.933  1.00  0.00     0.041 A 
ATOM     90  F   UNL A   1      45.623  30.165  34.390  1.00  0.00    -0.206 F 
ATOM     91  C   UNL A   1      46.400  27.671  36.891  1.00  0.00     0.022 A 
BRANCH  88  92
ATOM     92  S   UNL A   1      44.877  25.979  38.502  1.00  0.00     0.124 S 
ATOM     93  O   UNL A   1      44.263  24.854  37.806  1.00  0.00    -0.237 OA
ATOM     94  O   UNL A   1      46.239  25.765  38.983  1.00  0.00    -0.237 OA
ATOM     95  O   UNL A   1      43.999  26.690  39.430  1.00  0.00    -0.744 OA
ENDBRANCH  88  92
ENDBRANCH  62  85
ENDBRANCH  36  37
ENDBRANCH  28  31
ENDBRANCH  26  27
ENDBRANCH  25  26
ENDBRANCH   1  25
TORSDOF 17
ENDMDL
MODEL 2
REMARK VINA RESULT:     -12.1      1.671      2.685
REMARK SMILES O=C(NCCCCCCNC(=O)c1ccc(-c2c3nc(c(-c4cc(S(=O)(=O)[O-])ccc4F)c4ccc([nH]4)c(-c4cc(S(=O)(=O)[O-])ccc4F)c4nc(c(-c5cc(S(=O)(=O)[O-])ccc5F)c5ccc2[nH]5)C=C4)C=C3)cc1)C1=Cc2c(Cl)ccc(Cl)c2O[C@@H]1C(F)(F)F
REMARK SMILES IDX 7 1 6 2 5 3 4 4 3 5 1 6 2 7 76 9 77 10 87 11 78 12 86 13
REMARK SMILES IDX 79 14 85 15 80 16 81 17 83 18 82 19 84 20 88 21 89 22 90 23
REMARK SMILES IDX 91 24 8 25 9 26 10 27 11 28 12 30 13 31 14 32 75 33 15 34
REMARK SMILES IDX 74 35 16 36 17 37 18 38 68 39 19 40 73 41 67 42 69 43 20 44
REMARK SMILES IDX 72 45 66 46 65 47 21 49 53 50 33 51 52 52 34 53 37 54 51 55
REMARK SMILES IDX 70 56 35 57 36 58 50 60 71 61 38 62 22 63 23 64 31 65 24 66
REMARK SMILES IDX 30 67 32 68 29 69 25 70 26 71 27 72 28 73 54 74 55 75 63 76
REMARK SMILES IDX 56 77 62 78 64 79 61 80 57 81 58 82 59 83 60 84 39 85 40 86
REMARK SMILES IDX 48 87 41 88 47 89 49 90 46 91 42 92 43 93 44 94 45 95
REMARK H PARENT 3 8 10 29 69 48 37 59
REMARK Flexibility Score: inf
ROOT
ATOM      1  C   UNL A   1      31.712  30.463  25.922  1.00  0.00     0.002 C 
ENDROOT
BRANCH   1   2
ATOM      2  C   UNL A   1      33.037  29.700  26.027  1.00  0.00     0.002 C 
BRANCH   2   3
ATOM      3  C   UNL A   1      32.952  28.235  26.448  1.00  0.00     0.021 C 
BRANCH   3   4
ATOM      4  C   UNL A   1      31.563  27.608  26.428  1.00  0.00     0.116 C 
BRANCH   4   5
ATOM      5  N   UNL A   1      31.447  26.314  27.076  1.00  0.00    -0.352 N 
ATOM      6  O   UNL A   1      31.279  24.081  27.234  1.00  0.00    -0.270 OA
ATOM      7  C   UNL A   1      31.179  25.088  26.533  1.00  0.00     0.251 C 
ATOM      8  H   UNL A   1      31.581  26.321  28.052  1.00  0.00     0.163 HD
BRANCH   7   9
ATOM      9  C   UNL A   1      30.861  24.904  25.085  1.00  0.00     0.067 C 
ATOM     10  C   UNL A   1      29.830  25.522  24.482  1.00  0.00     0.027 C 
ATOM     11  C   UNL A   1      32.076  24.565  24.260  1.00  0.00     0.314 C 
ATOM     12  C   UNL A   1      30.291  26.629  23.589  1.00  0.00     0.037 A 
ATOM     13  O   UNL A   1      32.570  25.738  23.565  1.00  0.00    -0.474 OA
ATOM     14  C   UNL A   1      29.427  27.702  23.288  1.00  0.00     0.052 A 
ATOM     15  C   UNL A   1      31.664  26.738  23.286  1.00  0.00     0.148 A 
ATOM     16  Cl  UNL A   1      27.738  27.641  23.658  1.00  0.00    -0.084 Cl
ATOM     17  C   UNL A   1      29.941  28.898  22.787  1.00  0.00     0.023 A 
ATOM     18  C   UNL A   1      32.167  27.947  22.785  1.00  0.00     0.083 A 
ATOM     19  C   UNL A   1      31.312  29.028  22.560  1.00  0.00     0.026 A 
ATOM     20  Cl  UNL A   1      33.861  28.180  22.551  1.00  0.00    -0.080 Cl
BRANCH  11  21
ATOM     21  C   UNL A   1      31.831  23.393  23.296  1.00  0.00     0.429 C 
ATOM     22  F   UNL A   1      32.549  23.530  22.157  1.00  0.00    -0.167 F 
ATOM     23  F   UNL A   1      32.192  22.208  23.847  1.00  0.00    -0.167 F 
ATOM     24  F   UNL A   1      30.528  23.282  22.940  1.00  0.00    -0.167 F 
ENDBRANCH  11  21
ENDBRANCH   7   9
ENDBRANCH   4   5
ENDBRANCH   3   4
ENDBRANCH   2   3
ENDBRANCH   1   2
BRANCH   1  25
ATOM     25  C   UNL A   1      31.573  31.736  26.764  1.00  0.00     0.021 C 
BRANCH  25  26
ATOM     26  C   UNL A   1      32.875  32.404  27.202  1.00  0.00     0.116 C 
BRANCH  26  27
ATOM     27  N   UNL A   1      32.688  33.781  27.621  1.00  0.00    -0.352 N 
ATOM     28  C   UNL A   1      33.311  34.502  28.612  1.00  0.00     0.251 C 
ATOM     29  H   UNL A   1      32.006  34.278  27.116  1.00  0.00     0.163 HD
ATOM     30  O   UNL A   1      32.879  35.615  28.898  1.00  0.00    -0.269 OA
BRANCH  28  31
ATOM     31  C   UNL A   1      34.470  33.944  29.349  1.00  0.00     0.039 A 
ATOM     32  C   UNL A   1      34.229  33.030  30.380  1.00  0.00     0.014 A 
ATOM     33  C   UNL A   1      35.781  34.336  29.066  1.00  0.00     0.014 A 
ATOM     34  C   UNL A   1      35.298  32.472  31.087  1.00  0.00     0.010 A 
ATOM     35  C   UNL A   1      36.851  33.724  29.721  1.00  0.00     0.010 A 
ATOM     36  C   UNL A   1      36.621  32.789  30.742  1.00  0.00    -0.014 A 
BRANCH  36  37
ATOM     37  C   UNL A   1      37.770  32.160  31.451  1.00  0.00     0.031 A 
ATOM     38  C   UNL A   1      38.541  31.040  30.803  1.00  0.00     0.074 A 
ATOM     39  C   UNL A   1      38.090  32.564  32.696  1.00  0.00     0.049 A 
ATOM     40  N   UNL A   1      39.526  30.324  31.283  1.00  0.00    -0.248 NA
ATOM     41  C   UNL A   1      38.128  30.658  29.445  1.00  0.00     0.031 C 
ATOM     42  C   UNL A   1      37.397  33.615  33.445  1.00  0.00     0.029 A 
ATOM     43  N   UNL A   1      39.073  32.139  33.556  1.00  0.00    -0.354 N 
ATOM     44  C   UNL A   1      39.850  29.406  30.290  1.00  0.00     0.074 A 
ATOM     45  C   UNL A   1      38.903  29.610  29.213  1.00  0.00     0.031 C 
ATOM     46  C   UNL A   1      37.988  33.766  34.641  1.00  0.00     0.029 A 
ATOM     47  C   UNL A   1      39.068  32.793  34.767  1.00  0.00     0.049 A 
ATOM     48  H   UNL A   1      39.720  31.433  33.328  1.00  0.00     0.167 HD
ATOM     49  C   UNL A   1      40.858  28.498  30.265  1.00  0.00     0.034 A 
ATOM     50  C   UNL A   1      39.834  32.618  35.864  1.00  0.00     0.034 A 
ATOM     51  C   UNL A   1      41.791  28.306  31.350  1.00  0.00     0.049 A 
ATOM     52  C   UNL A   1      40.922  31.575  35.832  1.00  0.00     0.074 A 
ATOM     53  C   UNL A   1      42.870  27.441  31.418  1.00  0.00     0.029 A 
ATOM     54  N   UNL A   1      41.752  28.984  32.563  1.00  0.00    -0.354 N 
ATOM     55  N   UNL A   1      41.242  30.744  34.867  1.00  0.00    -0.248 NA
ATOM     56  C   UNL A   1      41.760  31.455  37.032  1.00  0.00     0.031 C 
ATOM     57  C   UNL A   1      43.434  27.541  32.694  1.00  0.00     0.029 A 
ATOM     58  C   UNL A   1      42.766  28.532  33.396  1.00  0.00     0.049 A 
ATOM     59  H   UNL A   1      41.100  29.683  32.797  1.00  0.00     0.167 HD
ATOM     60  C   UNL A   1      42.338  30.023  35.335  1.00  0.00     0.074 A 
ATOM     61  C   UNL A   1      42.633  30.531  36.660  1.00  0.00     0.031 C 
ATOM     62  C   UNL A   1      43.041  29.035  34.723  1.00  0.00     0.034 A 
BRANCH  49  63
ATOM     63  C   UNL A   1      40.978  27.630  29.032  1.00  0.00     0.023 A 
ATOM     64  C   UNL A   1      41.994  27.838  28.081  1.00  0.00     0.031 A 
ATOM     65  C   UNL A   1      40.046  26.608  28.780  1.00  0.00     0.131 A 
ATOM     66  C   UNL A   1      42.000  27.103  26.887  1.00  0.00     0.055 A 
ATOM     67  C   UNL A   1      40.114  25.816  27.631  1.00  0.00     0.041 A 
ATOM     68  F   UNL A   1      39.040  26.371  29.637  1.00  0.00    -0.206 F 
ATOM     69  C   UNL A   1      41.083  26.074  26.666  1.00  0.00     0.022 A 
BRANCH  66  70
ATOM     70  S   UNL A   1      43.115  27.628  25.555  1.00  0.00     0.124 S 
ATOM     71  O   UNL A   1      43.649  26.346  25.098  1.00  0.00    -0.237 OA
ATOM     72  O   UNL A   1      42.210  28.307  24.636  1.00  0.00    -0.237 OA
ATOM     73  O   UNL A   1      44.080  28.489  26.235  1.00  0.00    -0.744 OA
ENDBRANCH  66  70
ENDBRANCH  49  63
BRANCH  50  74
ATOM     74  C   UNL A   1      39.586  33.431  37.090  1.00  0.00     0.023 A 
ATOM     75  C   UNL A   1      38.850  32.918  38.169  1.00  0.00     0.031 A 
ATOM     76  C   UNL A   1      40.060  34.752  37.186  1.00  0.00     0.131 A 
ATOM     77  C   UNL A   1      38.572  33.735  39.278  1.00  0.00     0.055 A 
ATOM     78  C   UNL A   1      39.829  35.541  38.313  1.00  0.00     0.041 A 
ATOM     79  F   UNL A   1      40.774  35.292  36.183  1.00  0.00    -0.206 F 
ATOM     80  C   UNL A   1      39.070  35.036  39.363  1.00  0.00     0.022 A 
BRANCH  77  81
ATOM     81  S   UNL A   1      37.474  33.097  40.574  1.00  0.00     0.124 S 
ATOM     82  O   UNL A   1      38.212  31.928  41.038  1.00  0.00    -0.237 OA
ATOM     83  O   UNL A   1      37.408  34.225  41.497  1.00  0.00    -0.237 OA
ATOM     84  O   UNL A   1      36.234  32.809  39.856  1.00  0.00    -0.744 OA
ENDBRANCH  77  81
ENDBRANCH  50  74
BRANCH  62  85
ATOM     85  C   UNL A   1      44.225  28.469  35.470  1.00  0.00     0.023 A 
ATOM     86  C   UNL A   1      44.088  27.415  36.391  1.00  0.00     0.031 A 
ATOM     87  C   UNL A   1      45.511  29.000  35.261  1.00  0.00     0.131 A 
ATOM     88  C   UNL A   1      45.206  26.966  37.111  1.00  0.00     0.055 A 
ATOM     89  C   UNL A   1      46.630  28.505  35.933  1.00  0.00     0.041 A 
ATOM     90  F   UNL A   1      45.703  30.010  34.397  1.00  0.00    -0.206 F 
ATOM     91  C   UNL A   1      46.479  27.491  36.874  1.00  0.00     0.022 A 
BRANCH  88  92
ATOM     92  S   UNL A   1      44.958  25.754  38.438  1.00  0.00     0.124 S 
ATOM     93  O   UNL A   1      46.327  25.479  38.858  1.00  0.00    -0.237 OA
ATOM     94  O   UNL A   1      44.136  26.497  39.389  1.00  0.00    -0.237 OA
ATOM     95  O   UNL A   1      44.279  24.647  37.768  1.00  0.00    -0.744 OA
ENDBRANCH  88  92
ENDBRANCH  62  85
ENDBRANCH  36  37
ENDBRANCH  28  31
ENDBRANCH  26  27
ENDBRANCH  25  26
ENDBRANCH   1  25
TORSDOF 17
ENDMDL
MODEL 3
REMARK VINA RESULT:     -12.1      2.437      3.359
REMARK SMILES O=C(NCCCCCCNC(=O)c1ccc(-c2c3nc(c(-c4cc(S(=O)(=O)[O-])ccc4F)c4ccc([nH]4)c(-c4cc(S(=O)(=O)[O-])ccc4F)c4nc(c(-c5cc(S(=O)(=O)[O-])ccc5F)c5ccc2[nH]5)C=C4)C=C3)cc1)C1=Cc2c(Cl)ccc(Cl)c2O[C@@H]1C(F)(F)F
REMARK SMILES IDX 7 1 6 2 5 3 4 4 3 5 1 6 2 7 76 9 77 10 87 11 78 12 86 13
REMARK SMILES IDX 79 14 85 15 80 16 81 17 83 18 82 19 84 20 88 21 89 22 90 23
REMARK SMILES IDX 91 24 8 25 9 26 10 27 11 28 12 30 13 31 14 32 75 33 15 34
REMARK SMILES IDX 74 35 16 36 17 37 18 38 68 39 19 40 73 41 67 42 69 43 20 44
REMARK SMILES IDX 72 45 66 46 65 47 21 49 53 50 33 51 52 52 34 53 37 54 51 55
REMARK SMILES IDX 70 56 35 57 36 58 50 60 71 61 38 62 22 63 23 64 31 65 24 66
REMARK SMILES IDX 30 67 32 68 29 69 25 70 26 71 27 72 28 73 54 74 55 75 63 76
REMARK SMILES IDX 56 77 62 78 64 79 61 80 57 81 58 82 59 83 60 84 39 85 40 86
REMARK SMILES IDX 48 87 41 88 47 89 49 90 46 91 42 92 43 93 44 94 45 95
REMARK H PARENT 3 8 10 29 69 48 37 59
REMARK Flexibility Score: inf
ROOT
ATOM      1  C   UNL A   1      31.217  27.757  24.442  1.00  0.00     0.002 C 
ENDROOT
BRANCH   1   2
ATOM      2  C   UNL A   1      30.458  26.453  24.711  1.00  0.00     0.002 C 
BRANCH   2   3
ATOM      3  C   UNL A   1      29.893  25.726  23.493  1.00  0.00     0.021 C 
BRANCH   3   4
ATOM      4  C   UNL A   1      30.232  24.245  23.375  1.00  0.00     0.116 C 
BRANCH   4   5
ATOM      5  N   UNL A   1      31.438  23.934  22.630  1.00  0.00    -0.352 N 
ATOM      6  O   UNL A   1      33.390  22.923  22.172  1.00  0.00    -0.270 OA
ATOM      7  C   UNL A   1      32.533  23.206  23.009  1.00  0.00     0.251 C 
ATOM      8  H   UNL A   1      31.474  24.302  21.718  1.00  0.00     0.163 HD
BRANCH   7   9
ATOM      9  C   UNL A   1      32.689  22.649  24.386  1.00  0.00     0.067 C 
ATOM     10  C   UNL A   1      33.092  21.387  24.620  1.00  0.00     0.027 C 
ATOM     11  C   UNL A   1      33.016  23.708  25.408  1.00  0.00     0.314 C 
ATOM     12  C   UNL A   1      34.499  21.337  25.124  1.00  0.00     0.037 A 
ATOM     13  O   UNL A   1      34.435  23.713  25.709  1.00  0.00    -0.474 OA
ATOM     14  C   UNL A   1      35.276  20.176  24.939  1.00  0.00     0.052 A 
ATOM     15  C   UNL A   1      35.127  22.536  25.524  1.00  0.00     0.148 A 
ATOM     16  Cl  UNL A   1      34.571  18.682  24.426  1.00  0.00    -0.084 Cl
ATOM     17  C   UNL A   1      36.665  20.235  25.053  1.00  0.00     0.023 A 
ATOM     18  C   UNL A   1      36.523  22.581  25.632  1.00  0.00     0.083 A 
ATOM     19  C   UNL A   1      37.289  21.441  25.374  1.00  0.00     0.026 A 
ATOM     20  Cl  UNL A   1      37.346  24.063  25.960  1.00  0.00    -0.080 Cl
BRANCH  11  21
ATOM     21  C   UNL A   1      32.165  23.586  26.682  1.00  0.00     0.429 C 
ATOM     22  F   UNL A   1      31.940  24.796  27.245  1.00  0.00    -0.167 F 
ATOM     23  F   UNL A   1      30.951  23.042  26.422  1.00  0.00    -0.167 F 
ATOM     24  F   UNL A   1      32.753  22.807  27.623  1.00  0.00    -0.167 F 
ENDBRANCH  11  21
ENDBRANCH   7   9
ENDBRANCH   4   5
ENDBRANCH   3   4
ENDBRANCH   2   3
ENDBRANCH   1   2
BRANCH   1  25
ATOM     25  C   UNL A   1      31.656  28.572  25.664  1.00  0.00     0.021 C 
BRANCH  25  26
ATOM     26  C   UNL A   1      32.693  29.665  25.412  1.00  0.00     0.116 C 
BRANCH  26  27
ATOM     27  N   UNL A   1      32.274  30.964  25.907  1.00  0.00    -0.352 N 
ATOM     28  C   UNL A   1      32.773  31.727  26.934  1.00  0.00     0.251 C 
ATOM     29  H   UNL A   1      31.509  31.360  25.431  1.00  0.00     0.163 HD
ATOM     30  O   UNL A   1      32.157  32.731  27.283  1.00  0.00    -0.269 OA
BRANCH  28  31
ATOM     31  C   UNL A   1      34.021  31.342  27.637  1.00  0.00     0.039 A 
ATOM     32  C   UNL A   1      34.952  32.341  27.939  1.00  0.00     0.014 A 
ATOM     33  C   UNL A   1      34.302  30.014  27.965  1.00  0.00     0.014 A 
ATOM     34  C   UNL A   1      36.133  32.017  28.614  1.00  0.00     0.010 A 
ATOM     35  C   UNL A   1      35.444  29.702  28.704  1.00  0.00     0.010 A 
ATOM     36  C   UNL A   1      36.375  30.700  29.032  1.00  0.00    -0.014 A 
BRANCH  36  37
ATOM     37  C   UNL A   1      37.603  30.352  29.800  1.00  0.00     0.031 A 
ATOM     38  C   UNL A   1      38.645  29.449  29.196  1.00  0.00     0.074 A 
ATOM     39  C   UNL A   1      37.757  30.812  31.057  1.00  0.00     0.049 A 
ATOM     40  N   UNL A   1      39.746  28.981  29.728  1.00  0.00    -0.248 NA
ATOM     41  C   UNL A   1      38.401  28.990  27.821  1.00  0.00     0.031 C 
ATOM     42  C   UNL A   1      36.802  31.666  31.765  1.00  0.00     0.029 A 
ATOM     43  N   UNL A   1      38.769  30.623  31.967  1.00  0.00    -0.354 N 
ATOM     44  C   UNL A   1      40.324  28.171  28.756  1.00  0.00     0.074 A 
ATOM     45  C   UNL A   1      39.411  28.154  27.633  1.00  0.00     0.031 C 
ATOM     46  C   UNL A   1      37.281  31.943  32.988  1.00  0.00     0.029 A 
ATOM     47  C   UNL A   1      38.551  31.250  33.173  1.00  0.00     0.049 A 
ATOM     48  H   UNL A   1      39.574  30.091  31.774  1.00  0.00     0.167 HD
ATOM     49  C   UNL A   1      41.518  27.525  28.786  1.00  0.00     0.034 A 
ATOM     50  C   UNL A   1      39.282  31.252  34.307  1.00  0.00     0.034 A 
ATOM     51  C   UNL A   1      42.415  27.550  29.916  1.00  0.00     0.049 A 
ATOM     52  C   UNL A   1      40.585  30.493  34.334  1.00  0.00     0.074 A 
ATOM     53  C   UNL A   1      43.662  26.961  30.042  1.00  0.00     0.029 A 
ATOM     54  N   UNL A   1      42.159  28.191  31.123  1.00  0.00    -0.354 N 
ATOM     55  N   UNL A   1      41.138  29.767  33.390  1.00  0.00    -0.248 NA
ATOM     56  C   UNL A   1      41.368  30.565  35.575  1.00  0.00     0.031 C 
ATOM     57  C   UNL A   1      44.124  27.181  31.344  1.00  0.00     0.029 A 
ATOM     58  C   UNL A   1      43.208  27.984  32.007  1.00  0.00     0.049 A 
ATOM     59  H   UNL A   1      41.350  28.716  31.321  1.00  0.00     0.167 HD
ATOM     60  C   UNL A   1      42.348  29.319  33.915  1.00  0.00     0.074 A 
ATOM     61  C   UNL A   1      42.450  29.873  35.250  1.00  0.00     0.031 C 
ATOM     62  C   UNL A   1      43.292  28.528  33.344  1.00  0.00     0.034 A 
BRANCH  49  63
ATOM     63  C   UNL A   1      41.898  26.717  27.564  1.00  0.00     0.023 A 
ATOM     64  C   UNL A   1      41.581  25.351  27.457  1.00  0.00     0.031 A 
ATOM     65  C   UNL A   1      42.620  27.306  26.511  1.00  0.00     0.131 A 
ATOM     66  C   UNL A   1      42.061  24.601  26.373  1.00  0.00     0.055 A 
ATOM     67  C   UNL A   1      43.014  26.574  25.388  1.00  0.00     0.041 A 
ATOM     68  F   UNL A   1      42.972  28.600  26.561  1.00  0.00    -0.206 F 
ATOM     69  C   UNL A   1      42.752  25.209  25.323  1.00  0.00     0.022 A 
BRANCH  66  70
ATOM     70  S   UNL A   1      41.917  22.794  26.442  1.00  0.00     0.124 S 
ATOM     71  O   UNL A   1      40.485  22.623  26.684  1.00  0.00    -0.237 OA
ATOM     72  O   UNL A   1      42.394  22.389  25.125  1.00  0.00    -0.237 OA
ATOM     73  O   UNL A   1      42.778  22.423  27.562  1.00  0.00    -0.744 OA
ENDBRANCH  66  70
ENDBRANCH  49  63
BRANCH  50  74
ATOM     74  C   UNL A   1      38.791  31.976  35.516  1.00  0.00     0.023 A 
ATOM     75  C   UNL A   1      38.230  31.286  36.601  1.00  0.00     0.031 A 
ATOM     76  C   UNL A   1      38.849  33.380  35.587  1.00  0.00     0.131 A 
ATOM     77  C   UNL A   1      37.709  32.002  37.692  1.00  0.00     0.055 A 
ATOM     78  C   UNL A   1      38.382  34.084  36.697  1.00  0.00     0.041 A 
ATOM     79  F   UNL A   1      39.380  34.089  34.577  1.00  0.00    -0.206 F 
ATOM     80  C   UNL A   1      37.796  33.394  37.753  1.00  0.00     0.022 A 
BRANCH  77  81
ATOM     81  S   UNL A   1      36.837  31.089  38.995  1.00  0.00     0.124 S 
ATOM     82  O   UNL A   1      35.593  31.842  39.103  1.00  0.00    -0.237 OA
ATOM     83  O   UNL A   1      36.733  29.756  38.411  1.00  0.00    -0.237 OA
ATOM     84  O   UNL A   1      37.735  31.197  40.142  1.00  0.00    -0.744 OA
ENDBRANCH  77  81
ENDBRANCH  50  74
BRANCH  62  85
ATOM     85  C   UNL A   1      44.538  28.250  34.151  1.00  0.00     0.023 A 
ATOM     86  C   UNL A   1      44.607  27.187  35.068  1.00  0.00     0.031 A 
ATOM     87  C   UNL A   1      45.672  29.070  34.004  1.00  0.00     0.131 A 
ATOM     88  C   UNL A   1      45.762  27.007  35.845  1.00  0.00     0.055 A 
ATOM     89  C   UNL A   1      46.841  28.846  34.733  1.00  0.00     0.041 A 
ATOM     90  F   UNL A   1      45.663  30.104  33.147  1.00  0.00    -0.206 F 
ATOM     91  C   UNL A   1      46.886  27.818  35.669  1.00  0.00     0.022 A 
BRANCH  88  92
ATOM     92  S   UNL A   1      45.740  25.760  37.162  1.00  0.00     0.124 S 
ATOM     93  O   UNL A   1      46.757  26.268  38.077  1.00  0.00    -0.237 OA
ATOM     94  O   UNL A   1      44.362  25.832  37.637  1.00  0.00    -0.237 OA
ATOM     95  O   UNL A   1      46.092  24.523  36.468  1.00  0.00    -0.744 OA
ENDBRANCH  88  92
ENDBRANCH  62  85
ENDBRANCH  36  37
ENDBRANCH  28  31
ENDBRANCH  26  27
ENDBRANCH  25  26
ENDBRANCH   1  25
TORSDOF 17
ENDMDL
