MODEL 1
REMARK VINA RESULT:     -13.1      0.000      0.000
REMARK SMILES Cc1ccc(C(=O)N2CCCC[C@@H]2C(=O)NCCCCCCNC(=O)c2ccc(-c3c4nc(c(-c5cc(S(=O)(=O)[O-])ccc5F)c5ccc([nH]5)c(-c5cc(S(=O)(=O)[O-])ccc5F)c5nc(c(-c6cc(S(=O)(=O)[O-])ccc6F)c6ccc3[nH]6)C=C5)C=C4)cc2)cc1S(=O)(=O)N1CCCCC1
REMARK SMILES IDX 19 1 18 2 17 3 16 4 14 5 15 6 13 8 8 9 9 10 10 11 12 12
REMARK SMILES IDX 11 13 6 14 7 15 5 16 1 17 2 18 3 19 90 20 4 21 89 22 91 23
REMARK SMILES IDX 92 24 93 25 94 26 95 27 99 28 96 29 98 30 97 31 20 32 21 33
REMARK SMILES IDX 22 34 23 35 24 36 25 38 26 39 27 40 88 41 28 42 87 43 29 44
REMARK SMILES IDX 30 45 31 46 81 47 32 48 86 49 80 50 82 51 33 52 85 53 79 54
REMARK SMILES IDX 78 55 34 57 66 58 46 59 65 60 47 61 50 62 64 63 83 64 48 65
REMARK SMILES IDX 49 66 63 68 84 69 51 70 35 71 36 72 44 73 37 74 43 75 45 76
REMARK SMILES IDX 42 77 38 78 39 79 40 80 41 81 67 82 68 83 76 84 69 85 75 86
REMARK SMILES IDX 77 87 74 88 70 89 71 90 72 91 73 92 52 93 53 94 61 95 54 96
REMARK SMILES IDX 60 97 62 98 59 99 55 100 56 101 57 102 58 103
REMARK H PARENT 16 7 23 37 82 56 50 67
REMARK Flexibility Score: inf
ROOT
ATOM      1  C   UNL A   1      32.991  27.348  26.215  1.00  0.00     0.002 C 
ENDROOT
BRANCH   1   2
ATOM      2  C   UNL A   1      32.100  26.126  26.475  1.00  0.00     0.021 C 
BRANCH   2   3
ATOM      3  C   UNL A   1      30.669  26.280  25.965  1.00  0.00     0.116 C 
BRANCH   3   4
ATOM      4  N   UNL A   1      30.348  25.212  25.039  1.00  0.00    -0.354 N 
ATOM      5  C   UNL A   1      30.366  25.207  23.680  1.00  0.00     0.242 C 
ATOM      6  O   UNL A   1      29.838  24.257  23.095  1.00  0.00    -0.273 OA
ATOM      7  H   UNL A   1      30.077  24.363  25.457  1.00  0.00     0.163 HD
BRANCH   5   8
ATOM      8  C   UNL A   1      30.954  26.389  22.877  1.00  0.00     0.174 C 
ATOM      9  N   UNL A   1      32.423  26.309  22.638  1.00  0.00    -0.327 N 
ATOM     10  C   UNL A   1      33.073  27.528  22.175  1.00  0.00     0.120 C 
ATOM     11  C   UNL A   1      32.749  28.732  23.033  1.00  0.00     0.022 C 
ATOM     12  C   UNL A   1      30.547  27.687  23.618  1.00  0.00     0.035 C 
ATOM     13  C   UNL A   1      31.244  28.937  23.098  1.00  0.00     0.004 C 
BRANCH   9  14
ATOM     14  C   UNL A   1      33.160  25.142  22.409  1.00  0.00     0.254 C 
ATOM     15  O   UNL A   1      33.275  24.649  21.286  1.00  0.00    -0.269 OA
BRANCH  14  16
ATOM     16  C   UNL A   1      33.785  24.394  23.519  1.00  0.00     0.041 A 
ATOM     17  C   UNL A   1      36.113  22.100  26.320  1.00  0.00     0.046 C 
ATOM     18  C   UNL A   1      35.172  22.798  25.395  1.00  0.00    -0.031 A 
ATOM     19  C   UNL A   1      35.687  24.037  24.936  1.00  0.00     0.005 A 
ATOM     20  C   UNL A   1      33.914  22.380  24.920  1.00  0.00     0.086 A 
ATOM     21  C   UNL A   1      35.009  24.825  24.013  1.00  0.00     0.014 A 
ATOM     22  C   UNL A   1      33.257  23.177  23.955  1.00  0.00     0.035 A 
BRANCH  20  23
ATOM     23  S   UNL A   1      32.935  20.918  25.303  1.00  0.00     0.243 S 
ATOM     24  O   UNL A   1      33.293  20.540  26.658  1.00  0.00    -0.207 OA
ATOM     25  O   UNL A   1      31.570  21.284  24.987  1.00  0.00    -0.207 OA
BRANCH  23  26
ATOM     26  N   UNL A   1      33.321  19.602  24.310  1.00  0.00    -0.198 NA
ATOM     27  C   UNL A   1      34.386  18.711  24.803  1.00  0.00     0.102 C 
ATOM     28  C   UNL A   1      32.274  19.158  23.366  1.00  0.00     0.102 C 
ATOM     29  C   UNL A   1      34.677  17.525  23.901  1.00  0.00     0.017 C 
ATOM     30  C   UNL A   1      32.638  17.921  22.557  1.00  0.00     0.017 C 
ATOM     31  C   UNL A   1      33.420  16.883  23.341  1.00  0.00     0.003 C 
ENDBRANCH  23  26
ENDBRANCH  20  23
ENDBRANCH  14  16
ENDBRANCH   9  14
ENDBRANCH   5   8
ENDBRANCH   3   4
ENDBRANCH   2   3
ENDBRANCH   1   2
BRANCH   1  32
ATOM     32  C   UNL A   1      33.231  28.259  27.427  1.00  0.00     0.002 C 
BRANCH  32  33
ATOM     33  C   UNL A   1      32.688  29.677  27.292  1.00  0.00     0.021 C 
BRANCH  33  34
ATOM     34  C   UNL A   1      33.677  30.659  26.695  1.00  0.00     0.116 C 
BRANCH  34  35
ATOM     35  N   UNL A   1      34.295  31.545  27.668  1.00  0.00    -0.352 N 
ATOM     36  C   UNL A   1      35.121  31.237  28.735  1.00  0.00     0.251 C 
ATOM     37  H   UNL A   1      34.099  32.503  27.550  1.00  0.00     0.163 HD
ATOM     38  O   UNL A   1      35.343  32.047  29.632  1.00  0.00    -0.269 OA
BRANCH  36  39
ATOM     39  C   UNL A   1      35.942  29.998  28.674  1.00  0.00     0.039 A 
ATOM     40  C   UNL A   1      36.314  29.465  29.919  1.00  0.00     0.014 A 
ATOM     41  C   UNL A   1      36.658  29.673  27.531  1.00  0.00     0.014 A 
ATOM     42  C   UNL A   1      37.574  28.909  30.065  1.00  0.00     0.010 A 
ATOM     43  C   UNL A   1      37.960  29.289  27.693  1.00  0.00     0.010 A 
ATOM     44  C   UNL A   1      38.422  28.973  28.971  1.00  0.00    -0.014 A 
BRANCH  44  45
ATOM     45  C   UNL A   1      39.826  28.653  29.007  1.00  0.00     0.031 A 
ATOM     46  C   UNL A   1      40.176  27.264  28.704  1.00  0.00     0.074 A 
ATOM     47  C   UNL A   1      40.706  29.670  29.106  1.00  0.00     0.049 A 
ATOM     48  N   UNL A   1      41.278  26.708  29.036  1.00  0.00    -0.248 NA
ATOM     49  C   UNL A   1      39.251  26.349  28.033  1.00  0.00     0.031 C 
ATOM     50  C   UNL A   1      42.137  29.679  28.839  1.00  0.00     0.029 A 
ATOM     51  N   UNL A   1      40.465  30.903  29.712  1.00  0.00    -0.354 N 
ATOM     52  C   UNL A   1      41.363  25.535  28.322  1.00  0.00     0.074 A 
ATOM     53  C   UNL A   1      40.031  25.286  27.835  1.00  0.00     0.031 C 
ATOM     54  C   UNL A   1      42.696  30.700  29.515  1.00  0.00     0.029 A 
ATOM     55  C   UNL A   1      41.661  31.268  30.363  1.00  0.00     0.049 A 
ATOM     56  H   UNL A   1      39.625  31.417  29.690  1.00  0.00     0.167 HD
ATOM     57  C   UNL A   1      42.601  25.030  28.075  1.00  0.00     0.034 A 
ATOM     58  C   UNL A   1      41.683  31.288  31.732  1.00  0.00     0.034 A 
ATOM     59  C   UNL A   1      43.615  25.868  28.720  1.00  0.00     0.049 A 
ATOM     60  C   UNL A   1      42.571  30.198  32.318  1.00  0.00     0.074 A 
ATOM     61  C   UNL A   1      44.454  26.876  28.277  1.00  0.00     0.029 A 
ATOM     62  N   UNL A   1      43.588  25.976  30.098  1.00  0.00    -0.354 N 
ATOM     63  N   UNL A   1      43.059  29.194  31.637  1.00  0.00    -0.248 NA
ATOM     64  C   UNL A   1      42.959  30.143  33.722  1.00  0.00     0.031 C 
ATOM     65  C   UNL A   1      44.904  27.606  29.419  1.00  0.00     0.029 A 
ATOM     66  C   UNL A   1      44.366  27.018  30.550  1.00  0.00     0.049 A 
ATOM     67  H   UNL A   1      43.073  25.377  30.686  1.00  0.00     0.167 HD
ATOM     68  C   UNL A   1      43.800  28.375  32.454  1.00  0.00     0.074 A 
ATOM     69  C   UNL A   1      43.671  29.000  33.763  1.00  0.00     0.031 C 
ATOM     70  C   UNL A   1      44.440  27.252  31.985  1.00  0.00     0.034 A 
BRANCH  57  71
ATOM     71  C   UNL A   1      42.933  23.983  27.044  1.00  0.00     0.023 A 
ATOM     72  C   UNL A   1      42.261  22.750  27.131  1.00  0.00     0.031 A 
ATOM     73  C   UNL A   1      43.869  24.087  25.997  1.00  0.00     0.131 A 
ATOM     74  C   UNL A   1      42.566  21.678  26.278  1.00  0.00     0.055 A 
ATOM     75  C   UNL A   1      44.198  23.009  25.161  1.00  0.00     0.041 A 
ATOM     76  F   UNL A   1      44.476  25.240  25.691  1.00  0.00    -0.206 F 
ATOM     77  C   UNL A   1      43.549  21.792  25.302  1.00  0.00     0.022 A 
BRANCH  74  78
ATOM     78  S   UNL A   1      41.642  20.134  26.476  1.00  0.00     0.124 S 
ATOM     79  O   UNL A   1      42.134  19.340  25.354  1.00  0.00    -0.237 OA
ATOM     80  O   UNL A   1      42.050  19.698  27.806  1.00  0.00    -0.237 OA
ATOM     81  O   UNL A   1      40.248  20.560  26.366  1.00  0.00    -0.744 OA
ENDBRANCH  74  78
ENDBRANCH  57  71
BRANCH  58  82
ATOM     82  C   UNL A   1      40.373  31.785  32.286  1.00  0.00     0.023 A 
ATOM     83  C   UNL A   1      39.878  31.106  33.429  1.00  0.00     0.031 A 
ATOM     84  C   UNL A   1      39.944  33.104  32.082  1.00  0.00     0.131 A 
ATOM     85  C   UNL A   1      39.206  31.817  34.439  1.00  0.00     0.055 A 
ATOM     86  C   UNL A   1      39.182  33.777  33.049  1.00  0.00     0.041 A 
ATOM     87  F   UNL A   1      40.379  33.810  31.028  1.00  0.00    -0.206 F 
ATOM     88  C   UNL A   1      38.869  33.158  34.262  1.00  0.00     0.022 A 
BRANCH  85  89
ATOM     89  S   UNL A   1      39.088  31.066  36.096  1.00  0.00     0.124 S 
ATOM     90  O   UNL A   1      39.991  31.903  36.878  1.00  0.00    -0.237 OA
ATOM     91  O   UNL A   1      37.667  31.199  36.406  1.00  0.00    -0.237 OA
ATOM     92  O   UNL A   1      39.527  29.685  35.891  1.00  0.00    -0.744 OA
ENDBRANCH  85  89
ENDBRANCH  58  82
BRANCH  70  93
ATOM     93  C   UNL A   1      45.181  26.234  32.837  1.00  0.00     0.023 A 
ATOM     94  C   UNL A   1      44.518  25.344  33.683  1.00  0.00     0.031 A 
ATOM     95  C   UNL A   1      46.601  26.137  32.857  1.00  0.00     0.131 A 
ATOM     96  C   UNL A   1      45.219  24.337  34.373  1.00  0.00     0.055 A 
ATOM     97  C   UNL A   1      47.301  25.188  33.604  1.00  0.00     0.041 A 
ATOM     98  F   UNL A   1      47.395  26.935  32.132  1.00  0.00    -0.206 F 
ATOM     99  C   UNL A   1      46.608  24.257  34.348  1.00  0.00     0.022 A 
BRANCH  96 100
ATOM    100  S   UNL A   1      44.254  23.085  35.248  1.00  0.00     0.124 S 
ATOM    101  O   UNL A   1      44.279  21.962  34.318  1.00  0.00    -0.237 OA
ATOM    102  O   UNL A   1      45.036  22.913  36.470  1.00  0.00    -0.237 OA
ATOM    103  O   UNL A   1      42.950  23.718  35.429  1.00  0.00    -0.744 OA
ENDBRANCH  96 100
ENDBRANCH  70  93
ENDBRANCH  44  45
ENDBRANCH  36  39
ENDBRANCH  34  35
ENDBRANCH  33  34
ENDBRANCH  32  33
ENDBRANCH   1  32
TORSDOF 20
ENDMDL
MODEL 2
REMARK VINA RESULT:     -12.9      2.082      2.592
REMARK SMILES Cc1ccc(C(=O)N2CCCC[C@@H]2C(=O)NCCCCCCNC(=O)c2ccc(-c3c4nc(c(-c5cc(S(=O)(=O)[O-])ccc5F)c5ccc([nH]5)c(-c5cc(S(=O)(=O)[O-])ccc5F)c5nc(c(-c6cc(S(=O)(=O)[O-])ccc6F)c6ccc3[nH]6)C=C5)C=C4)cc2)cc1S(=O)(=O)N1CCCCC1
REMARK SMILES IDX 19 1 18 2 17 3 16 4 14 5 15 6 13 8 8 9 9 10 10 11 12 12
REMARK SMILES IDX 11 13 6 14 7 15 5 16 1 17 2 18 3 19 90 20 4 21 89 22 91 23
REMARK SMILES IDX 92 24 93 25 94 26 95 27 99 28 96 29 98 30 97 31 20 32 21 33
REMARK SMILES IDX 22 34 23 35 24 36 25 38 26 39 27 40 88 41 28 42 87 43 29 44
REMARK SMILES IDX 30 45 31 46 81 47 32 48 86 49 80 50 82 51 33 52 85 53 79 54
REMARK SMILES IDX 78 55 34 57 66 58 46 59 65 60 47 61 50 62 64 63 83 64 48 65
REMARK SMILES IDX 49 66 63 68 84 69 51 70 35 71 36 72 44 73 37 74 43 75 45 76
REMARK SMILES IDX 42 77 38 78 39 79 40 80 41 81 67 82 68 83 76 84 69 85 75 86
REMARK SMILES IDX 77 87 74 88 70 89 71 90 72 91 73 92 52 93 53 94 61 95 54 96
REMARK SMILES IDX 60 97 62 98 59 99 55 100 56 101 57 102 58 103
REMARK H PARENT 16 7 23 37 82 56 50 67
REMARK Flexibility Score: inf
ROOT
ATOM      1  C   UNL A   1      33.389  29.080  26.763  1.00  0.00     0.002 C 
ENDROOT
BRANCH   1   2
ATOM      2  C   UNL A   1      32.254  28.186  27.281  1.00  0.00     0.021 C 
BRANCH   2   3
ATOM      3  C   UNL A   1      31.332  27.654  26.186  1.00  0.00     0.116 C 
BRANCH   3   4
ATOM      4  N   UNL A   1      30.919  26.298  26.493  1.00  0.00    -0.354 N 
ATOM      5  C   UNL A   1      30.899  25.196  25.699  1.00  0.00     0.242 C 
ATOM      6  O   UNL A   1      30.297  24.198  26.104  1.00  0.00    -0.273 OA
ATOM      7  H   UNL A   1      30.608  26.155  27.416  1.00  0.00     0.163 HD
BRANCH   5   8
ATOM      8  C   UNL A   1      31.537  25.205  24.292  1.00  0.00     0.174 C 
ATOM      9  N   UNL A   1      32.999  25.492  24.273  1.00  0.00    -0.327 N 
ATOM     10  C   UNL A   1      33.580  25.824  22.979  1.00  0.00     0.120 C 
ATOM     11  C   UNL A   1      32.825  26.918  22.256  1.00  0.00     0.022 C 
ATOM     12  C   UNL A   1      30.729  26.209  23.433  1.00  0.00     0.035 C 
ATOM     13  C   UNL A   1      31.367  26.522  22.087  1.00  0.00     0.004 C 
BRANCH   9  14
ATOM     14  C   UNL A   1      33.932  25.089  25.235  1.00  0.00     0.254 C 
ATOM     15  O   UNL A   1      34.436  25.882  26.032  1.00  0.00    -0.269 OA
BRANCH  14  16
ATOM     16  C   UNL A   1      34.417  23.696  25.303  1.00  0.00     0.041 A 
ATOM     17  C   UNL A   1      36.230  19.804  24.980  1.00  0.00     0.046 C 
ATOM     18  C   UNL A   1      35.450  21.072  25.098  1.00  0.00    -0.031 A 
ATOM     19  C   UNL A   1      36.264  22.173  25.465  1.00  0.00     0.005 A 
ATOM     20  C   UNL A   1      34.081  21.302  24.865  1.00  0.00     0.086 A 
ATOM     21  C   UNL A   1      35.761  23.465  25.568  1.00  0.00     0.014 A 
ATOM     22  C   UNL A   1      33.596  22.627  24.939  1.00  0.00     0.035 A 
BRANCH  20  23
ATOM     23  S   UNL A   1      32.751  20.166  24.433  1.00  0.00     0.243 S 
ATOM     24  O   UNL A   1      31.676  20.433  25.372  1.00  0.00    -0.207 OA
ATOM     25  O   UNL A   1      32.539  20.355  23.013  1.00  0.00    -0.207 OA
BRANCH  23  26
ATOM     26  N   UNL A   1      33.192  18.545  24.642  1.00  0.00    -0.198 NA
ATOM     27  C   UNL A   1      32.558  17.843  25.771  1.00  0.00     0.102 C 
ATOM     28  C   UNL A   1      33.712  17.844  23.449  1.00  0.00     0.102 C 
ATOM     29  C   UNL A   1      32.954  16.382  25.901  1.00  0.00     0.017 C 
ATOM     30  C   UNL A   1      34.015  16.368  23.667  1.00  0.00     0.017 C 
ATOM     31  C   UNL A   1      33.015  15.664  24.566  1.00  0.00     0.003 C 
ENDBRANCH  23  26
ENDBRANCH  20  23
ENDBRANCH  14  16
ENDBRANCH   9  14
ENDBRANCH   5   8
ENDBRANCH   3   4
ENDBRANCH   2   3
ENDBRANCH   1   2
BRANCH   1  32
ATOM     32  C   UNL A   1      33.039  30.567  26.609  1.00  0.00     0.002 C 
BRANCH  32  33
ATOM     33  C   UNL A   1      33.615  31.485  27.681  1.00  0.00     0.021 C 
BRANCH  33  34
ATOM     34  C   UNL A   1      35.124  31.621  27.627  1.00  0.00     0.116 C 
BRANCH  34  35
ATOM     35  N   UNL A   1      35.731  32.017  28.887  1.00  0.00    -0.352 N 
ATOM     36  C   UNL A   1      36.400  31.245  29.822  1.00  0.00     0.251 C 
ATOM     37  H   UNL A   1      35.655  32.974  29.109  1.00  0.00     0.163 HD
ATOM     38  O   UNL A   1      36.613  31.654  30.960  1.00  0.00    -0.269 OA
BRANCH  36  39
ATOM     39  C   UNL A   1      37.080  30.002  29.371  1.00  0.00     0.039 A 
ATOM     40  C   UNL A   1      37.142  28.974  30.325  1.00  0.00     0.014 A 
ATOM     41  C   UNL A   1      37.967  30.021  28.304  1.00  0.00     0.014 A 
ATOM     42  C   UNL A   1      38.283  28.192  30.401  1.00  0.00     0.010 A 
ATOM     43  C   UNL A   1      39.164  29.382  28.470  1.00  0.00     0.010 A 
ATOM     44  C   UNL A   1      39.330  28.522  29.557  1.00  0.00    -0.014 A 
BRANCH  44  45
ATOM     45  C   UNL A   1      40.658  27.971  29.649  1.00  0.00     0.031 A 
ATOM     46  C   UNL A   1      40.829  26.616  29.123  1.00  0.00     0.074 A 
ATOM     47  C   UNL A   1      41.662  28.795  30.010  1.00  0.00     0.049 A 
ATOM     48  N   UNL A   1      41.792  25.835  29.436  1.00  0.00    -0.248 NA
ATOM     49  C   UNL A   1      39.860  25.997  28.217  1.00  0.00     0.031 C 
ATOM     50  C   UNL A   1      43.100  28.611  29.871  1.00  0.00     0.029 A 
ATOM     51  N   UNL A   1      41.541  29.929  30.815  1.00  0.00    -0.354 N 
ATOM     52  C   UNL A   1      41.781  24.805  28.524  1.00  0.00     0.074 A 
ATOM     53  C   UNL A   1      40.491  24.868  27.890  1.00  0.00     0.031 C 
ATOM     54  C   UNL A   1      43.725  29.393  30.770  1.00  0.00     0.029 A 
ATOM     55  C   UNL A   1      42.697  29.972  31.620  1.00  0.00     0.049 A 
ATOM     56  H   UNL A   1      40.795  30.571  30.819  1.00  0.00     0.167 HD
ATOM     57  C   UNL A   1      42.950  24.151  28.291  1.00  0.00     0.034 A 
ATOM     58  C   UNL A   1      42.568  29.753  32.965  1.00  0.00     0.034 A 
ATOM     59  C   UNL A   1      43.999  24.684  29.165  1.00  0.00     0.049 A 
ATOM     60  C   UNL A   1      43.212  28.446  33.409  1.00  0.00     0.074 A 
ATOM     61  C   UNL A   1      45.022  25.600  28.990  1.00  0.00     0.029 A 
ATOM     62  N   UNL A   1      43.833  24.557  30.531  1.00  0.00    -0.354 N 
ATOM     63  N   UNL A   1      43.619  27.507  32.596  1.00  0.00    -0.248 NA
ATOM     64  C   UNL A   1      43.428  28.087  34.805  1.00  0.00     0.031 C 
ATOM     65  C   UNL A   1      45.445  26.038  30.282  1.00  0.00     0.029 A 
ATOM     66  C   UNL A   1      44.702  25.363  31.233  1.00  0.00     0.049 A 
ATOM     67  H   UNL A   1      43.172  23.962  30.952  1.00  0.00     0.167 HD
ATOM     68  C   UNL A   1      44.133  26.448  33.304  1.00  0.00     0.074 A 
ATOM     69  C   UNL A   1      43.952  26.852  34.692  1.00  0.00     0.031 C 
ATOM     70  C   UNL A   1      44.648  25.331  32.688  1.00  0.00     0.034 A 
BRANCH  57  71
ATOM     71  C   UNL A   1      43.237  23.255  27.115  1.00  0.00     0.023 A 
ATOM     72  C   UNL A   1      42.676  21.965  27.128  1.00  0.00     0.031 A 
ATOM     73  C   UNL A   1      44.031  23.555  25.991  1.00  0.00     0.131 A 
ATOM     74  C   UNL A   1      42.958  21.023  26.127  1.00  0.00     0.055 A 
ATOM     75  C   UNL A   1      44.340  22.608  25.003  1.00  0.00     0.041 A 
ATOM     76  F   UNL A   1      44.508  24.784  25.759  1.00  0.00    -0.206 F 
ATOM     77  C   UNL A   1      43.807  21.329  25.070  1.00  0.00     0.022 A 
BRANCH  74  78
ATOM     78  S   UNL A   1      42.185  19.391  26.241  1.00  0.00     0.124 S 
ATOM     79  O   UNL A   1      42.284  19.107  27.670  1.00  0.00    -0.237 OA
ATOM     80  O   UNL A   1      40.845  19.647  25.725  1.00  0.00    -0.237 OA
ATOM     81  O   UNL A   1      43.028  18.558  25.386  1.00  0.00    -0.744 OA
ENDBRANCH  74  78
ENDBRANCH  57  71
BRANCH  58  82
ATOM     82  C   UNL A   1      41.292  30.359  33.491  1.00  0.00     0.023 A 
ATOM     83  C   UNL A   1      41.259  31.775  33.573  1.00  0.00     0.031 A 
ATOM     84  C   UNL A   1      40.066  29.688  33.390  1.00  0.00     0.131 A 
ATOM     85  C   UNL A   1      40.070  32.471  33.295  1.00  0.00     0.055 A 
ATOM     86  C   UNL A   1      38.865  30.394  33.219  1.00  0.00     0.041 A 
ATOM     87  F   UNL A   1      40.022  28.351  33.300  1.00  0.00    -0.206 F 
ATOM     88  C   UNL A   1      38.871  31.786  33.102  1.00  0.00     0.022 A 
BRANCH  85  89
ATOM     89  S   UNL A   1      40.182  34.238  32.858  1.00  0.00     0.124 S 
ATOM     90  O   UNL A   1      39.406  34.867  33.921  1.00  0.00    -0.237 OA
ATOM     91  O   UNL A   1      41.622  34.484  32.891  1.00  0.00    -0.237 OA
ATOM     92  O   UNL A   1      39.595  34.311  31.520  1.00  0.00    -0.744 OA
ENDBRANCH  85  89
ENDBRANCH  58  82
BRANCH  70  93
ATOM     93  C   UNL A   1      45.128  24.073  33.394  1.00  0.00     0.023 A 
ATOM     94  C   UNL A   1      46.445  23.917  33.830  1.00  0.00     0.031 A 
ATOM     95  C   UNL A   1      44.281  22.955  33.631  1.00  0.00     0.131 A 
ATOM     96  C   UNL A   1      46.835  22.793  34.581  1.00  0.00     0.055 A 
ATOM     97  C   UNL A   1      44.690  21.804  34.307  1.00  0.00     0.041 A 
ATOM     98  F   UNL A   1      42.998  22.920  33.250  1.00  0.00    -0.206 F 
ATOM     99  C   UNL A   1      45.970  21.729  34.816  1.00  0.00     0.022 A 
BRANCH  96 100
ATOM    100  S   UNL A   1      48.489  22.793  35.307  1.00  0.00     0.124 S 
ATOM    101  O   UNL A   1      49.247  23.604  34.360  1.00  0.00    -0.237 OA
ATOM    102  O   UNL A   1      48.239  23.405  36.609  1.00  0.00    -0.237 OA
ATOM    103  O   UNL A   1      48.849  21.377  35.344  1.00  0.00    -0.744 OA
ENDBRANCH  96 100
ENDBRANCH  70  93
ENDBRANCH  44  45
ENDBRANCH  36  39
ENDBRANCH  34  35
ENDBRANCH  33  34
ENDBRANCH  32  33
ENDBRANCH   1  32
TORSDOF 20
ENDMDL
MODEL 3
REMARK VINA RESULT:     -12.6      2.228      3.120
REMARK SMILES Cc1ccc(C(=O)N2CCCC[C@@H]2C(=O)NCCCCCCNC(=O)c2ccc(-c3c4nc(c(-c5cc(S(=O)(=O)[O-])ccc5F)c5ccc([nH]5)c(-c5cc(S(=O)(=O)[O-])ccc5F)c5nc(c(-c6cc(S(=O)(=O)[O-])ccc6F)c6ccc3[nH]6)C=C5)C=C4)cc2)cc1S(=O)(=O)N1CCCCC1
REMARK SMILES IDX 19 1 18 2 17 3 16 4 14 5 15 6 13 8 8 9 9 10 10 11 12 12
REMARK SMILES IDX 11 13 6 14 7 15 5 16 1 17 2 18 3 19 90 20 4 21 89 22 91 23
REMARK SMILES IDX 92 24 93 25 94 26 95 27 99 28 96 29 98 30 97 31 20 32 21 33
REMARK SMILES IDX 22 34 23 35 24 36 25 38 26 39 27 40 88 41 28 42 87 43 29 44
REMARK SMILES IDX 30 45 31 46 81 47 32 48 86 49 80 50 82 51 33 52 85 53 79 54
REMARK SMILES IDX 78 55 34 57 66 58 46 59 65 60 47 61 50 62 64 63 83 64 48 65
REMARK SMILES IDX 49 66 63 68 84 69 51 70 35 71 36 72 44 73 37 74 43 75 45 76
REMARK SMILES IDX 42 77 38 78 39 79 40 80 41 81 67 82 68 83 76 84 69 85 75 86
REMARK SMILES IDX 77 87 74 88 70 89 71 90 72 91 73 92 52 93 53 94 61 95 54 96
REMARK SMILES IDX 60 97 62 98 59 99 55 100 56 101 57 102 58 103
REMARK H PARENT 16 7 23 37 82 56 50 67
REMARK Flexibility Score: inf
ROOT
ATOM      1  C   UNL A   1      32.203  29.703  27.257  1.00  0.00     0.002 C 
ENDROOT
BRANCH   1   2
ATOM      2  C   UNL A   1      31.938  28.918  25.966  1.00  0.00     0.021 C 
BRANCH   2   3
ATOM      3  C   UNL A   1      33.112  28.056  25.510  1.00  0.00     0.116 C 
BRANCH   3   4
ATOM      4  N   UNL A   1      33.106  26.787  26.212  1.00  0.00    -0.354 N 
ATOM      5  C   UNL A   1      32.367  25.671  25.981  1.00  0.00     0.242 C 
ATOM      6  O   UNL A   1      32.364  24.787  26.842  1.00  0.00    -0.273 OA
ATOM      7  H   UNL A   1      33.732  26.725  26.968  1.00  0.00     0.163 HD
BRANCH   5   8
ATOM      8  C   UNL A   1      31.486  25.534  24.719  1.00  0.00     0.174 C 
ATOM      9  N   UNL A   1      32.223  25.657  23.429  1.00  0.00    -0.327 N 
ATOM     10  C   UNL A   1      31.414  25.853  22.234  1.00  0.00     0.120 C 
ATOM     11  C   UNL A   1      30.417  26.985  22.375  1.00  0.00     0.022 C 
ATOM     12  C   UNL A   1      30.345  26.574  24.847  1.00  0.00     0.035 C 
ATOM     13  C   UNL A   1      29.520  26.743  23.579  1.00  0.00     0.004 C 
BRANCH   9  14
ATOM     14  C   UNL A   1      33.523  25.206  23.175  1.00  0.00     0.254 C 
ATOM     15  O   UNL A   1      34.280  25.790  22.398  1.00  0.00    -0.269 OA
BRANCH  14  16
ATOM     16  C   UNL A   1      34.037  23.958  23.775  1.00  0.00     0.041 A 
ATOM     17  C   UNL A   1      35.964  20.309  25.001  1.00  0.00     0.046 C 
ATOM     18  C   UNL A   1      35.147  21.493  24.603  1.00  0.00    -0.031 A 
ATOM     19  C   UNL A   1      35.904  22.691  24.588  1.00  0.00     0.005 A 
ATOM     20  C   UNL A   1      33.792  21.554  24.223  1.00  0.00     0.086 A 
ATOM     21  C   UNL A   1      35.364  23.906  24.182  1.00  0.00     0.014 A 
ATOM     22  C   UNL A   1      33.271  22.791  23.780  1.00  0.00     0.035 A 
BRANCH  20  23
ATOM     23  S   UNL A   1      32.526  20.276  24.161  1.00  0.00     0.243 S 
ATOM     24  O   UNL A   1      31.652  20.522  25.293  1.00  0.00    -0.207 OA
ATOM     25  O   UNL A   1      32.001  20.329  22.812  1.00  0.00    -0.207 OA
BRANCH  23  26
ATOM     26  N   UNL A   1      33.166  18.722  24.366  1.00  0.00    -0.198 NA
ATOM     27  C   UNL A   1      32.820  18.041  25.625  1.00  0.00     0.102 C 
ATOM     28  C   UNL A   1      33.537  17.993  23.134  1.00  0.00     0.102 C 
ATOM     29  C   UNL A   1      33.384  16.637  25.754  1.00  0.00     0.017 C 
ATOM     30  C   UNL A   1      34.028  16.571  23.366  1.00  0.00     0.017 C 
ATOM     31  C   UNL A   1      33.283  15.838  24.468  1.00  0.00     0.003 C 
ENDBRANCH  23  26
ENDBRANCH  20  23
ENDBRANCH  14  16
ENDBRANCH   9  14
ENDBRANCH   5   8
ENDBRANCH   3   4
ENDBRANCH   2   3
ENDBRANCH   1   2
BRANCH   1  32
ATOM     32  C   UNL A   1      33.221  30.846  27.137  1.00  0.00     0.002 C 
BRANCH  32  33
ATOM     33  C   UNL A   1      34.627  30.518  27.626  1.00  0.00     0.021 C 
BRANCH  33  34
ATOM     34  C   UNL A   1      35.391  31.719  28.149  1.00  0.00     0.116 C 
BRANCH  34  35
ATOM     35  N   UNL A   1      34.546  32.783  28.666  1.00  0.00    -0.352 N 
ATOM     36  C   UNL A   1      34.617  33.452  29.875  1.00  0.00     0.251 C 
ATOM     37  H   UNL A   1      33.816  33.069  28.068  1.00  0.00     0.163 HD
ATOM     38  O   UNL A   1      33.679  34.127  30.293  1.00  0.00    -0.269 OA
BRANCH  36  39
ATOM     39  C   UNL A   1      35.931  33.554  30.564  1.00  0.00     0.039 A 
ATOM     40  C   UNL A   1      36.972  34.094  29.791  1.00  0.00     0.014 A 
ATOM     41  C   UNL A   1      36.217  32.771  31.673  1.00  0.00     0.014 A 
ATOM     42  C   UNL A   1      38.248  33.573  29.920  1.00  0.00     0.010 A 
ATOM     43  C   UNL A   1      37.423  32.128  31.694  1.00  0.00     0.010 A 
ATOM     44  C   UNL A   1      38.405  32.492  30.772  1.00  0.00    -0.014 A 
BRANCH  44  45
ATOM     45  C   UNL A   1      39.597  31.689  30.862  1.00  0.00     0.031 A 
ATOM     46  C   UNL A   1      39.550  30.391  30.187  1.00  0.00     0.074 A 
ATOM     47  C   UNL A   1      40.709  32.261  31.366  1.00  0.00     0.049 A 
ATOM     48  N   UNL A   1      40.327  29.411  30.452  1.00  0.00    -0.248 NA
ATOM     49  C   UNL A   1      38.548  30.071  29.170  1.00  0.00     0.031 C 
ATOM     50  C   UNL A   1      42.094  31.820  31.274  1.00  0.00     0.029 A 
ATOM     51  N   UNL A   1      40.745  33.304  32.292  1.00  0.00    -0.354 N 
ATOM     52  C   UNL A   1      40.188  28.506  29.425  1.00  0.00     0.074 A 
ATOM     53  C   UNL A   1      38.979  28.883  28.741  1.00  0.00     0.031 C 
ATOM     54  C   UNL A   1      42.789  32.367  32.289  1.00  0.00     0.029 A 
ATOM     55  C   UNL A   1      41.830  33.038  33.151  1.00  0.00     0.049 A 
ATOM     56  H   UNL A   1      40.133  34.074  32.337  1.00  0.00     0.167 HD
ATOM     57  C   UNL A   1      41.228  27.668  29.173  1.00  0.00     0.034 A 
ATOM     58  C   UNL A   1      41.569  32.705  34.453  1.00  0.00     0.034 A 
ATOM     59  C   UNL A   1      42.294  27.892  30.153  1.00  0.00     0.049 A 
ATOM     60  C   UNL A   1      41.927  31.259  34.769  1.00  0.00     0.074 A 
ATOM     61  C   UNL A   1      43.480  28.607  30.137  1.00  0.00     0.029 A 
ATOM     62  N   UNL A   1      42.014  27.654  31.485  1.00  0.00    -0.354 N 
ATOM     63  N   UNL A   1      42.208  30.351  33.871  1.00  0.00    -0.248 NA
ATOM     64  C   UNL A   1      41.975  30.718  36.123  1.00  0.00     0.031 C 
ATOM     65  C   UNL A   1      43.886  28.815  31.491  1.00  0.00     0.029 A 
ATOM     66  C   UNL A   1      42.966  28.197  32.318  1.00  0.00     0.049 A 
ATOM     67  H   UNL A   1      41.226  27.155  31.800  1.00  0.00     0.167 HD
ATOM     68  C   UNL A   1      42.466  29.143  34.473  1.00  0.00     0.074 A 
ATOM     69  C   UNL A   1      42.267  29.424  35.889  1.00  0.00     0.031 C 
ATOM     70  C   UNL A   1      42.806  28.021  33.755  1.00  0.00     0.034 A 
BRANCH  57  71
ATOM     71  C   UNL A   1      41.425  26.865  27.914  1.00  0.00     0.023 A 
ATOM     72  C   UNL A   1      41.541  25.468  28.045  1.00  0.00     0.031 A 
ATOM     73  C   UNL A   1      41.529  27.357  26.598  1.00  0.00     0.131 A 
ATOM     74  C   UNL A   1      41.818  24.641  26.946  1.00  0.00     0.055 A 
ATOM     75  C   UNL A   1      41.836  26.538  25.501  1.00  0.00     0.041 A 
ATOM     76  F   UNL A   1      41.291  28.638  26.293  1.00  0.00    -0.206 F 
ATOM     77  C   UNL A   1      41.989  25.170  25.672  1.00  0.00     0.022 A 
BRANCH  74  78
ATOM     78  S   UNL A   1      41.948  22.858  27.225  1.00  0.00     0.124 S 
ATOM     79  O   UNL A   1      41.961  22.337  25.862  1.00  0.00    -0.237 OA
ATOM     80  O   UNL A   1      43.198  22.751  27.970  1.00  0.00    -0.237 OA
ATOM     81  O   UNL A   1      40.743  22.549  27.993  1.00  0.00    -0.744 OA
ENDBRANCH  74  78
ENDBRANCH  57  71
BRANCH  58  82
ATOM     82  C   UNL A   1      40.395  33.485  34.986  1.00  0.00     0.023 A 
ATOM     83  C   UNL A   1      39.356  32.726  35.583  1.00  0.00     0.031 A 
ATOM     84  C   UNL A   1      40.522  34.825  35.376  1.00  0.00     0.131 A 
ATOM     85  C   UNL A   1      38.669  33.225  36.703  1.00  0.00     0.055 A 
ATOM     86  C   UNL A   1      39.756  35.350  36.428  1.00  0.00     0.041 A 
ATOM     87  F   UNL A   1      41.488  35.600  34.860  1.00  0.00    -0.206 F 
ATOM     88  C   UNL A   1      38.875  34.532  37.141  1.00  0.00     0.022 A 
BRANCH  85  89
ATOM     89  S   UNL A   1      37.771  32.046  37.765  1.00  0.00     0.124 S 
ATOM     90  O   UNL A   1      36.473  32.693  37.914  1.00  0.00    -0.237 OA
ATOM     91  O   UNL A   1      37.785  30.822  36.967  1.00  0.00    -0.237 OA
ATOM     92  O   UNL A   1      38.584  31.975  38.980  1.00  0.00    -0.744 OA
ENDBRANCH  85  89
ENDBRANCH  58  82
BRANCH  70  93
ATOM     93  C   UNL A   1      42.994  26.626  34.329  1.00  0.00     0.023 A 
ATOM     94  C   UNL A   1      44.219  25.957  34.282  1.00  0.00     0.031 A 
ATOM     95  C   UNL A   1      41.931  25.891  34.925  1.00  0.00     0.131 A 
ATOM     96  C   UNL A   1      44.395  24.716  34.921  1.00  0.00     0.055 A 
ATOM     97  C   UNL A   1      42.088  24.624  35.489  1.00  0.00     0.041 A 
ATOM     98  F   UNL A   1      40.683  26.367  35.024  1.00  0.00    -0.206 F 
ATOM     99  C   UNL A   1      43.336  24.038  35.518  1.00  0.00     0.022 A 
BRANCH  96 100
ATOM    100  S   UNL A   1      46.069  24.044  35.015  1.00  0.00     0.124 S 
ATOM    101  O   UNL A   1      46.324  24.036  36.451  1.00  0.00    -0.237 OA
ATOM    102  O   UNL A   1      45.896  22.734  34.394  1.00  0.00    -0.237 OA
ATOM    103  O   UNL A   1      46.866  24.997  34.245  1.00  0.00    -0.744 OA
ENDBRANCH  96 100
ENDBRANCH  70  93
ENDBRANCH  44  45
ENDBRANCH  36  39
ENDBRANCH  34  35
ENDBRANCH  33  34
ENDBRANCH  32  33
ENDBRANCH   1  32
TORSDOF 20
ENDMDL
