MODEL 1
REMARK VINA RESULT:     -10.5      0.000      0.000
REMARK SMILES CC(C)CS(=O)(=O)Cc1c(C(=O)NCCCCCCNC(=O)c2ccc(-c3c4nc(c(-c5cc(S(=O)(=O)[O-])ccc5F)c5ccc([nH]5)c(-c5cc(S(=O)(=O)[O-])ccc5F)c5nc(c(-c6cc(S(=O)(=O)[O-])ccc6F)c6ccc3[nH]6)C=C5)C=C4)cc2)oc2ccccc12
REMARK SMILES IDX 16 1 15 2 14 3 13 4 11 5 12 6 10 8 9 9 92 10 86 11 87 12
REMARK SMILES IDX 91 13 88 14 90 15 89 16 8 17 5 18 6 19 7 20 4 21 2 22 1 23
REMARK SMILES IDX 3 24 17 25 18 26 19 27 20 28 21 29 22 31 23 32 24 33 85 34
REMARK SMILES IDX 25 35 84 36 26 37 27 38 28 39 78 40 29 41 83 42 77 43 79 44
REMARK SMILES IDX 30 45 82 46 76 47 75 48 31 50 63 51 43 52 62 53 44 54 47 55
REMARK SMILES IDX 61 56 80 57 45 58 46 59 60 61 81 62 48 63 32 64 33 65 41 66
REMARK SMILES IDX 34 67 40 68 42 69 39 70 35 71 36 72 37 73 38 74 64 75 65 76
REMARK SMILES IDX 73 77 66 78 72 79 74 80 71 81 67 82 68 83 69 84 70 85 49 86
REMARK SMILES IDX 50 87 58 88 51 89 57 90 59 91 56 92 52 93 53 94 54 95 55 96
REMARK H PARENT 13 7 20 30 79 49 47 60
REMARK Flexibility Score: inf
ROOT
ATOM      1  C   UNL A   1      33.219  22.434  26.475  1.00  0.00     0.002 C 
ENDROOT
BRANCH   1   2
ATOM      2  C   UNL A   1      32.194  23.250  27.269  1.00  0.00     0.021 C 
BRANCH   2   3
ATOM      3  C   UNL A   1      31.568  24.405  26.488  1.00  0.00     0.116 C 
BRANCH   3   4
ATOM      4  N   UNL A   1      32.118  24.488  25.148  1.00  0.00    -0.349 N 
ATOM      5  C   UNL A   1      32.589  25.554  24.423  1.00  0.00     0.287 C 
ATOM      6  O   UNL A   1      32.748  25.360  23.215  1.00  0.00    -0.266 OA
ATOM      7  H   UNL A   1      32.161  23.627  24.675  1.00  0.00     0.163 HD
BRANCH   5   8
ATOM      8  C   UNL A   1      32.816  26.852  25.035  1.00  0.00     0.196 A 
ATOM      9  C   UNL A   1      31.996  27.977  25.105  1.00  0.00     0.027 A 
ATOM     10  C   UNL A   1      32.632  28.862  26.039  1.00  0.00     0.025 A 
ATOM     11  O   UNL A   1      34.003  27.135  25.643  1.00  0.00    -0.451 OA
ATOM     12  C   UNL A   1      33.892  28.331  26.260  1.00  0.00     0.135 A 
ATOM     13  C   UNL A   1      32.303  30.056  26.705  1.00  0.00     0.012 A 
ATOM     14  C   UNL A   1      34.887  28.933  27.024  1.00  0.00     0.048 A 
ATOM     15  C   UNL A   1      33.279  30.693  27.486  1.00  0.00     0.001 A 
ATOM     16  C   UNL A   1      34.556  30.149  27.628  1.00  0.00     0.004 A 
BRANCH   9  17
ATOM     17  C   UNL A   1      30.708  28.186  24.383  1.00  0.00     0.177 C 
BRANCH  17  18
ATOM     18  S   UNL A   1      30.912  28.672  22.645  1.00  0.00     0.154 S 
ATOM     19  O   UNL A   1      30.376  27.600  21.819  1.00  0.00    -0.228 OA
ATOM     20  O   UNL A   1      32.279  29.111  22.436  1.00  0.00    -0.228 OA
BRANCH  18  21
ATOM     21  C   UNL A   1      29.892  30.120  22.384  1.00  0.00     0.140 C 
BRANCH  21  22
ATOM     22  C   UNL A   1      28.490  29.871  21.818  1.00  0.00    -0.002 C 
ATOM     23  C   UNL A   1      27.490  29.372  22.852  1.00  0.00     0.008 C 
ATOM     24  C   UNL A   1      27.959  31.175  21.211  1.00  0.00     0.008 C 
ENDBRANCH  21  22
ENDBRANCH  18  21
ENDBRANCH  17  18
ENDBRANCH   9  17
ENDBRANCH   5   8
ENDBRANCH   3   4
ENDBRANCH   2   3
ENDBRANCH   1   2
BRANCH   1  25
ATOM     25  C   UNL A   1      34.681  22.826  26.712  1.00  0.00     0.002 C 
BRANCH  25  26
ATOM     26  C   UNL A   1      35.481  23.154  25.449  1.00  0.00     0.021 C 
BRANCH  26  27
ATOM     27  C   UNL A   1      36.887  23.680  25.709  1.00  0.00     0.116 C 
BRANCH  27  28
ATOM     28  N   UNL A   1      37.830  22.605  25.966  1.00  0.00    -0.352 N 
ATOM     29  C   UNL A   1      39.134  22.685  26.387  1.00  0.00     0.251 C 
ATOM     30  H   UNL A   1      37.486  21.694  25.818  1.00  0.00     0.163 HD
ATOM     31  O   UNL A   1      39.852  21.690  26.354  1.00  0.00    -0.269 OA
BRANCH  29  32
ATOM     32  C   UNL A   1      39.670  23.983  26.854  1.00  0.00     0.039 A 
ATOM     33  C   UNL A   1      40.180  24.883  25.916  1.00  0.00     0.014 A 
ATOM     34  C   UNL A   1      39.656  24.313  28.212  1.00  0.00     0.014 A 
ATOM     35  C   UNL A   1      40.619  26.141  26.335  1.00  0.00     0.010 A 
ATOM     36  C   UNL A   1      40.022  25.593  28.617  1.00  0.00     0.010 A 
ATOM     37  C   UNL A   1      40.511  26.520  27.684  1.00  0.00    -0.014 A 
BRANCH  37  38
ATOM     38  C   UNL A   1      40.916  27.876  28.139  1.00  0.00     0.031 A 
ATOM     39  C   UNL A   1      42.373  28.253  28.178  1.00  0.00     0.074 A 
ATOM     40  C   UNL A   1      39.980  28.744  28.574  1.00  0.00     0.049 A 
ATOM     41  N   UNL A   1      42.933  29.350  28.617  1.00  0.00    -0.248 NA
ATOM     42  C   UNL A   1      43.327  27.247  27.687  1.00  0.00     0.031 C 
ATOM     43  C   UNL A   1      38.539  28.480  28.618  1.00  0.00     0.029 A 
ATOM     44  N   UNL A   1      40.097  30.020  29.070  1.00  0.00    -0.354 N 
ATOM     45  C   UNL A   1      44.303  29.163  28.466  1.00  0.00     0.074 A 
ATOM     46  C   UNL A   1      44.488  27.821  27.959  1.00  0.00     0.031 C 
ATOM     47  C   UNL A   1      37.908  29.568  29.087  1.00  0.00     0.029 A 
ATOM     48  C   UNL A   1      38.895  30.588  29.427  1.00  0.00     0.049 A 
ATOM     49  H   UNL A   1      40.960  30.484  29.160  1.00  0.00     0.167 HD
ATOM     50  C   UNL A   1      45.311  30.039  28.707  1.00  0.00     0.034 A 
ATOM     51  C   UNL A   1      38.621  31.787  29.979  1.00  0.00     0.034 A 
ATOM     52  C   UNL A   1      45.106  31.378  29.202  1.00  0.00     0.049 A 
ATOM     53  C   UNL A   1      39.761  32.731  30.270  1.00  0.00     0.074 A 
ATOM     54  C   UNL A   1      46.049  32.367  29.426  1.00  0.00     0.029 A 
ATOM     55  N   UNL A   1      43.876  31.916  29.557  1.00  0.00    -0.354 N 
ATOM     56  N   UNL A   1      41.049  32.557  30.073  1.00  0.00    -0.248 NA
ATOM     57  C   UNL A   1      39.414  34.035  30.849  1.00  0.00     0.031 C 
ATOM     58  C   UNL A   1      45.401  33.472  29.985  1.00  0.00     0.029 A 
ATOM     59  C   UNL A   1      44.041  33.209  30.032  1.00  0.00     0.049 A 
ATOM     60  H   UNL A   1      43.012  31.449  29.482  1.00  0.00     0.167 HD
ATOM     61  C   UNL A   1      41.657  33.744  30.473  1.00  0.00     0.074 A 
ATOM     62  C   UNL A   1      40.596  34.629  30.910  1.00  0.00     0.031 C 
ATOM     63  C   UNL A   1      42.973  34.077  30.471  1.00  0.00     0.034 A 
BRANCH  50  64
ATOM     64  C   UNL A   1      46.723  29.561  28.460  1.00  0.00     0.023 A 
ATOM     65  C   UNL A   1      47.489  28.964  29.478  1.00  0.00     0.031 A 
ATOM     66  C   UNL A   1      47.321  29.722  27.198  1.00  0.00     0.131 A 
ATOM     67  C   UNL A   1      48.829  28.625  29.240  1.00  0.00     0.055 A 
ATOM     68  C   UNL A   1      48.628  29.303  26.943  1.00  0.00     0.041 A 
ATOM     69  F   UNL A   1      46.649  30.305  26.192  1.00  0.00    -0.206 F 
ATOM     70  C   UNL A   1      49.396  28.765  27.971  1.00  0.00     0.022 A 
BRANCH  67  71
ATOM     71  S   UNL A   1      49.862  28.141  30.649  1.00  0.00     0.124 S 
ATOM     72  O   UNL A   1      51.132  27.839  29.993  1.00  0.00    -0.237 OA
ATOM     73  O   UNL A   1      49.841  29.337  31.481  1.00  0.00    -0.237 OA
ATOM     74  O   UNL A   1      49.165  26.982  31.204  1.00  0.00    -0.744 OA
ENDBRANCH  67  71
ENDBRANCH  50  64
BRANCH  51  75
ATOM     75  C   UNL A   1      37.217  32.166  30.308  1.00  0.00     0.023 A 
ATOM     76  C   UNL A   1      36.417  32.858  29.384  1.00  0.00     0.031 A 
ATOM     77  C   UNL A   1      36.666  31.882  31.571  1.00  0.00     0.131 A 
ATOM     78  C   UNL A   1      35.133  33.287  29.751  1.00  0.00     0.055 A 
ATOM     79  C   UNL A   1      35.366  32.260  31.912  1.00  0.00     0.041 A 
ATOM     80  F   UNL A   1      37.383  31.221  32.493  1.00  0.00    -0.206 F 
ATOM     81  C   UNL A   1      34.596  32.979  31.004  1.00  0.00     0.022 A 
BRANCH  78  82
ATOM     82  S   UNL A   1      34.208  34.339  28.600  1.00  0.00     0.124 S 
ATOM     83  O   UNL A   1      34.481  35.669  29.129  1.00  0.00    -0.237 OA
ATOM     84  O   UNL A   1      34.834  34.013  27.323  1.00  0.00    -0.237 OA
ATOM     85  O   UNL A   1      32.829  33.877  28.751  1.00  0.00    -0.744 OA
ENDBRANCH  78  82
ENDBRANCH  51  75
BRANCH  63  86
ATOM     86  C   UNL A   1      43.333  35.475  30.911  1.00  0.00     0.023 A 
ATOM     87  C   UNL A   1      43.457  36.534  29.995  1.00  0.00     0.031 A 
ATOM     88  C   UNL A   1      43.546  35.751  32.274  1.00  0.00     0.131 A 
ATOM     89  C   UNL A   1      43.829  37.809  30.447  1.00  0.00     0.055 A 
ATOM     90  C   UNL A   1      43.856  37.035  32.724  1.00  0.00     0.041 A 
ATOM     91  F   UNL A   1      43.444  34.777  33.192  1.00  0.00    -0.206 F 
ATOM     92  C   UNL A   1      44.012  38.070  31.807  1.00  0.00     0.022 A 
BRANCH  89  93
ATOM     93  S   UNL A   1      44.150  39.109  29.224  1.00  0.00     0.124 S 
ATOM     94  O   UNL A   1      45.310  39.785  29.796  1.00  0.00    -0.237 OA
ATOM     95  O   UNL A   1      44.396  38.340  28.007  1.00  0.00    -0.237 OA
ATOM     96  O   UNL A   1      42.915  39.891  29.221  1.00  0.00    -0.744 OA
ENDBRANCH  89  93
ENDBRANCH  63  86
ENDBRANCH  37  38
ENDBRANCH  29  32
ENDBRANCH  27  28
ENDBRANCH  26  27
ENDBRANCH  25  26
ENDBRANCH   1  25
TORSDOF 20
ENDMDL
MODEL 2
REMARK VINA RESULT:     -10.5      4.599      8.317
REMARK SMILES CC(C)CS(=O)(=O)Cc1c(C(=O)NCCCCCCNC(=O)c2ccc(-c3c4nc(c(-c5cc(S(=O)(=O)[O-])ccc5F)c5ccc([nH]5)c(-c5cc(S(=O)(=O)[O-])ccc5F)c5nc(c(-c6cc(S(=O)(=O)[O-])ccc6F)c6ccc3[nH]6)C=C5)C=C4)cc2)oc2ccccc12
REMARK SMILES IDX 16 1 15 2 14 3 13 4 11 5 12 6 10 8 9 9 92 10 86 11 87 12
REMARK SMILES IDX 91 13 88 14 90 15 89 16 8 17 5 18 6 19 7 20 4 21 2 22 1 23
REMARK SMILES IDX 3 24 17 25 18 26 19 27 20 28 21 29 22 31 23 32 24 33 85 34
REMARK SMILES IDX 25 35 84 36 26 37 27 38 28 39 78 40 29 41 83 42 77 43 79 44
REMARK SMILES IDX 30 45 82 46 76 47 75 48 31 50 63 51 43 52 62 53 44 54 47 55
REMARK SMILES IDX 61 56 80 57 45 58 46 59 60 61 81 62 48 63 32 64 33 65 41 66
REMARK SMILES IDX 34 67 40 68 42 69 39 70 35 71 36 72 37 73 38 74 64 75 65 76
REMARK SMILES IDX 73 77 66 78 72 79 74 80 71 81 67 82 68 83 69 84 70 85 49 86
REMARK SMILES IDX 50 87 58 88 51 89 57 90 59 91 56 92 52 93 53 94 54 95 55 96
REMARK H PARENT 13 7 20 30 79 49 47 60
REMARK Flexibility Score: inf
ROOT
ATOM      1  C   UNL A   1      33.197  29.907  26.314  1.00  0.00     0.002 C 
ENDROOT
BRANCH   1   2
ATOM      2  C   UNL A   1      33.340  28.548  25.622  1.00  0.00     0.021 C 
BRANCH   2   3
ATOM      3  C   UNL A   1      33.391  27.357  26.577  1.00  0.00     0.116 C 
BRANCH   3   4
ATOM      4  N   UNL A   1      32.191  26.548  26.469  1.00  0.00    -0.349 N 
ATOM      5  C   UNL A   1      31.955  25.350  25.842  1.00  0.00     0.287 C 
ATOM      6  O   UNL A   1      30.770  25.038  25.700  1.00  0.00    -0.266 OA
ATOM      7  H   UNL A   1      31.407  26.925  26.929  1.00  0.00     0.163 HD
BRANCH   5   8
ATOM      8  C   UNL A   1      33.039  24.539  25.313  1.00  0.00     0.196 A 
ATOM      9  C   UNL A   1      33.330  24.157  24.005  1.00  0.00     0.027 A 
ATOM     10  C   UNL A   1      34.644  23.583  24.053  1.00  0.00     0.025 A 
ATOM     11  O   UNL A   1      33.963  23.987  26.149  1.00  0.00    -0.451 OA
ATOM     12  C   UNL A   1      34.936  23.426  25.398  1.00  0.00     0.135 A 
ATOM     13  C   UNL A   1      35.610  23.158  23.124  1.00  0.00     0.012 A 
ATOM     14  C   UNL A   1      36.076  22.803  25.899  1.00  0.00     0.048 A 
ATOM     15  C   UNL A   1      36.774  22.525  23.590  1.00  0.00     0.001 A 
ATOM     16  C   UNL A   1      36.992  22.336  24.955  1.00  0.00     0.004 A 
BRANCH   9  17
ATOM     17  C   UNL A   1      32.461  24.349  22.808  1.00  0.00     0.177 C 
BRANCH  17  18
ATOM     18  S   UNL A   1      32.747  25.916  21.936  1.00  0.00     0.154 S 
ATOM     19  O   UNL A   1      33.136  25.599  20.571  1.00  0.00    -0.228 OA
ATOM     20  O   UNL A   1      33.616  26.752  22.744  1.00  0.00    -0.228 OA
BRANCH  18  21
ATOM     21  C   UNL A   1      31.176  26.771  21.869  1.00  0.00     0.140 C 
BRANCH  21  22
ATOM     22  C   UNL A   1      30.818  27.632  23.085  1.00  0.00    -0.002 C 
ATOM     23  C   UNL A   1      31.000  29.126  22.855  1.00  0.00     0.008 C 
ATOM     24  C   UNL A   1      29.358  27.369  23.469  1.00  0.00     0.008 C 
ENDBRANCH  21  22
ENDBRANCH  18  21
ENDBRANCH  17  18
ENDBRANCH   9  17
ENDBRANCH   5   8
ENDBRANCH   3   4
ENDBRANCH   2   3
ENDBRANCH   1   2
BRANCH   1  25
ATOM     25  C   UNL A   1      31.789  30.227  26.827  1.00  0.00     0.002 C 
BRANCH  25  26
ATOM     26  C   UNL A   1      31.444  31.716  26.899  1.00  0.00     0.021 C 
BRANCH  26  27
ATOM     27  C   UNL A   1      32.624  32.651  26.669  1.00  0.00     0.116 C 
BRANCH  27  28
ATOM     28  N   UNL A   1      32.423  33.945  27.299  1.00  0.00    -0.352 N 
ATOM     29  C   UNL A   1      33.049  34.474  28.400  1.00  0.00     0.251 C 
ATOM     30  H   UNL A   1      31.744  34.521  26.877  1.00  0.00     0.163 HD
ATOM     31  O   UNL A   1      32.612  35.495  28.922  1.00  0.00    -0.269 OA
BRANCH  29  32
ATOM     32  C   UNL A   1      34.234  33.790  28.963  1.00  0.00     0.039 A 
ATOM     33  C   UNL A   1      35.505  34.300  28.691  1.00  0.00     0.014 A 
ATOM     34  C   UNL A   1      34.087  32.656  29.767  1.00  0.00     0.014 A 
ATOM     35  C   UNL A   1      36.626  33.708  29.277  1.00  0.00     0.010 A 
ATOM     36  C   UNL A   1      35.196  32.115  30.411  1.00  0.00     0.010 A 
ATOM     37  C   UNL A   1      36.478  32.632  30.170  1.00  0.00    -0.014 A 
BRANCH  37  38
ATOM     38  C   UNL A   1      37.653  32.029  30.852  1.00  0.00     0.031 A 
ATOM     39  C   UNL A   1      38.477  30.984  30.148  1.00  0.00     0.074 A 
ATOM     40  C   UNL A   1      37.941  32.375  32.123  1.00  0.00     0.049 A 
ATOM     41  N   UNL A   1      39.485  30.282  30.598  1.00  0.00    -0.248 NA
ATOM     42  C   UNL A   1      38.093  30.665  28.764  1.00  0.00     0.031 C 
ATOM     43  C   UNL A   1      37.194  33.349  32.923  1.00  0.00     0.029 A 
ATOM     44  N   UNL A   1      38.932  31.943  32.971  1.00  0.00    -0.354 N 
ATOM     45  C   UNL A   1      39.848  29.432  29.558  1.00  0.00     0.074 A 
ATOM     46  C   UNL A   1      38.909  29.661  28.483  1.00  0.00     0.031 C 
ATOM     47  C   UNL A   1      37.768  33.459  34.131  1.00  0.00     0.029 A 
ATOM     48  C   UNL A   1      38.891  32.529  34.215  1.00  0.00     0.049 A 
ATOM     49  H   UNL A   1      39.608  31.277  32.711  1.00  0.00     0.167 HD
ATOM     50  C   UNL A   1      40.885  28.559  29.500  1.00  0.00     0.034 A 
ATOM     51  C   UNL A   1      39.660  32.330  35.305  1.00  0.00     0.034 A 
ATOM     52  C   UNL A   1      41.819  28.353  30.579  1.00  0.00     0.049 A 
ATOM     53  C   UNL A   1      40.785  31.328  35.227  1.00  0.00     0.074 A 
ATOM     54  C   UNL A   1      42.938  27.536  30.605  1.00  0.00     0.029 A 
ATOM     55  N   UNL A   1      41.743  28.960  31.825  1.00  0.00    -0.354 N 
ATOM     56  N   UNL A   1      41.147  30.569  34.218  1.00  0.00    -0.248 NA
ATOM     57  C   UNL A   1      41.611  31.162  36.430  1.00  0.00     0.031 C 
ATOM     58  C   UNL A   1      43.492  27.593  31.888  1.00  0.00     0.029 A 
ATOM     59  C   UNL A   1      42.772  28.509  32.639  1.00  0.00     0.049 A 
ATOM     60  H   UNL A   1      41.059  29.615  32.093  1.00  0.00     0.167 HD
ATOM     61  C   UNL A   1      42.264  29.862  34.657  1.00  0.00     0.074 A 
ATOM     62  C   UNL A   1      42.522  30.294  36.016  1.00  0.00     0.031 C 
ATOM     63  C   UNL A   1      43.013  28.945  33.994  1.00  0.00     0.034 A 
BRANCH  50  64
ATOM     64  C   UNL A   1      41.040  27.746  28.235  1.00  0.00     0.023 A 
ATOM     65  C   UNL A   1      40.736  26.374  28.196  1.00  0.00     0.031 A 
ATOM     66  C   UNL A   1      41.520  28.345  27.057  1.00  0.00     0.131 A 
ATOM     67  C   UNL A   1      40.989  25.632  27.034  1.00  0.00     0.055 A 
ATOM     68  C   UNL A   1      41.687  27.618  25.876  1.00  0.00     0.041 A 
ATOM     69  F   UNL A   1      41.849  29.646  27.036  1.00  0.00    -0.206 F 
ATOM     70  C   UNL A   1      41.436  26.250  25.864  1.00  0.00     0.022 A 
BRANCH  67  71
ATOM     71  S   UNL A   1      40.868  23.824  27.118  1.00  0.00     0.124 S 
ATOM     72  O   UNL A   1      41.775  23.419  26.047  1.00  0.00    -0.237 OA
ATOM     73  O   UNL A   1      41.314  23.541  28.476  1.00  0.00    -0.237 OA
ATOM     74  O   UNL A   1      39.453  23.563  26.858  1.00  0.00    -0.744 OA
ENDBRANCH  67  71
ENDBRANCH  50  64
BRANCH  51  75
ATOM     75  C   UNL A   1      39.392  33.078  36.568  1.00  0.00     0.023 A 
ATOM     76  C   UNL A   1      40.017  34.309  36.827  1.00  0.00     0.031 A 
ATOM     77  C   UNL A   1      38.542  32.551  37.556  1.00  0.00     0.131 A 
ATOM     78  C   UNL A   1      39.823  34.946  38.061  1.00  0.00     0.055 A 
ATOM     79  C   UNL A   1      38.307  33.217  38.761  1.00  0.00     0.041 A 
ATOM     80  F   UNL A   1      37.917  31.379  37.362  1.00  0.00    -0.206 F 
ATOM     81  C   UNL A   1      38.960  34.416  39.024  1.00  0.00     0.022 A 
BRANCH  78  82
ATOM     82  S   UNL A   1      40.793  36.434  38.432  1.00  0.00     0.124 S 
ATOM     83  O   UNL A   1      39.745  37.411  38.700  1.00  0.00    -0.237 OA
ATOM     84  O   UNL A   1      41.580  36.002  39.581  1.00  0.00    -0.237 OA
ATOM     85  O   UNL A   1      41.556  36.656  37.204  1.00  0.00    -0.744 OA
ENDBRANCH  78  82
ENDBRANCH  51  75
BRANCH  63  86
ATOM     86  C   UNL A   1      44.215  28.384  34.715  1.00  0.00     0.023 A 
ATOM     87  C   UNL A   1      44.155  27.178  35.434  1.00  0.00     0.031 A 
ATOM     88  C   UNL A   1      45.444  29.068  34.671  1.00  0.00     0.131 A 
ATOM     89  C   UNL A   1      45.290  26.716  36.119  1.00  0.00     0.055 A 
ATOM     90  C   UNL A   1      46.585  28.571  35.304  1.00  0.00     0.041 A 
ATOM     91  F   UNL A   1      45.557  30.226  34.002  1.00  0.00    -0.206 F 
ATOM     92  C   UNL A   1      46.508  27.395  36.042  1.00  0.00     0.022 A 
BRANCH  89  93
ATOM     93  S   UNL A   1      45.133  25.252  37.178  1.00  0.00     0.124 S 
ATOM     94  O   UNL A   1      43.871  25.508  37.866  1.00  0.00    -0.237 OA
ATOM     95  O   UNL A   1      45.119  24.163  36.207  1.00  0.00    -0.237 OA
ATOM     96  O   UNL A   1      46.323  25.310  38.024  1.00  0.00    -0.744 OA
ENDBRANCH  89  93
ENDBRANCH  63  86
ENDBRANCH  37  38
ENDBRANCH  29  32
ENDBRANCH  27  28
ENDBRANCH  26  27
ENDBRANCH  25  26
ENDBRANCH   1  25
TORSDOF 20
ENDMDL
MODEL 3
REMARK VINA RESULT:     -10.3      4.571      9.672
REMARK SMILES CC(C)CS(=O)(=O)Cc1c(C(=O)NCCCCCCNC(=O)c2ccc(-c3c4nc(c(-c5cc(S(=O)(=O)[O-])ccc5F)c5ccc([nH]5)c(-c5cc(S(=O)(=O)[O-])ccc5F)c5nc(c(-c6cc(S(=O)(=O)[O-])ccc6F)c6ccc3[nH]6)C=C5)C=C4)cc2)oc2ccccc12
REMARK SMILES IDX 16 1 15 2 14 3 13 4 11 5 12 6 10 8 9 9 92 10 86 11 87 12
REMARK SMILES IDX 91 13 88 14 90 15 89 16 8 17 5 18 6 19 7 20 4 21 2 22 1 23
REMARK SMILES IDX 3 24 17 25 18 26 19 27 20 28 21 29 22 31 23 32 24 33 85 34
REMARK SMILES IDX 25 35 84 36 26 37 27 38 28 39 78 40 29 41 83 42 77 43 79 44
REMARK SMILES IDX 30 45 82 46 76 47 75 48 31 50 63 51 43 52 62 53 44 54 47 55
REMARK SMILES IDX 61 56 80 57 45 58 46 59 60 61 81 62 48 63 32 64 33 65 41 66
REMARK SMILES IDX 34 67 40 68 42 69 39 70 35 71 36 72 37 73 38 74 64 75 65 76
REMARK SMILES IDX 73 77 66 78 72 79 74 80 71 81 67 82 68 83 69 84 70 85 49 86
REMARK SMILES IDX 50 87 58 88 51 89 57 90 59 91 56 92 52 93 53 94 54 95 55 96
REMARK H PARENT 13 7 20 30 79 49 47 60
REMARK Flexibility Score: inf
ROOT
ATOM      1  C   UNL A   1      32.161  26.965  26.616  1.00  0.00     0.002 C 
ENDROOT
BRANCH   1   2
ATOM      2  C   UNL A   1      31.047  25.953  26.327  1.00  0.00     0.021 C 
BRANCH   2   3
ATOM      3  C   UNL A   1      31.491  24.492  26.393  1.00  0.00     0.116 C 
BRANCH   3   4
ATOM      4  N   UNL A   1      32.938  24.384  26.377  1.00  0.00    -0.349 N 
ATOM      5  C   UNL A   1      33.769  23.348  26.030  1.00  0.00     0.287 C 
ATOM      6  O   UNL A   1      34.948  23.463  26.369  1.00  0.00    -0.266 OA
ATOM      7  H   UNL A   1      33.407  25.199  26.665  1.00  0.00     0.163 HD
BRANCH   5   8
ATOM      8  C   UNL A   1      33.266  22.156  25.367  1.00  0.00     0.196 A 
ATOM      9  C   UNL A   1      32.676  21.997  24.114  1.00  0.00     0.027 A 
ATOM     10  C   UNL A   1      32.618  20.581  23.891  1.00  0.00     0.025 A 
ATOM     11  O   UNL A   1      33.304  20.945  25.992  1.00  0.00    -0.451 OA
ATOM     12  C   UNL A   1      32.932  19.997  25.106  1.00  0.00     0.135 A 
ATOM     13  C   UNL A   1      32.318  19.726  22.816  1.00  0.00     0.012 A 
ATOM     14  C   UNL A   1      32.890  18.630  25.367  1.00  0.00     0.048 A 
ATOM     15  C   UNL A   1      32.267  18.341  23.038  1.00  0.00     0.001 A 
ATOM     16  C   UNL A   1      32.531  17.805  24.299  1.00  0.00     0.004 A 
BRANCH   9  17
ATOM     17  C   UNL A   1      32.235  23.085  23.193  1.00  0.00     0.177 C 
BRANCH  17  18
ATOM     18  S   UNL A   1      33.599  23.893  22.307  1.00  0.00     0.154 S 
ATOM     19  O   UNL A   1      33.276  23.877  20.889  1.00  0.00    -0.228 OA
ATOM     20  O   UNL A   1      34.856  23.320  22.753  1.00  0.00    -0.228 OA
BRANCH  18  21
ATOM     21  C   UNL A   1      33.629  25.602  22.838  1.00  0.00     0.140 C 
BRANCH  21  22
ATOM     22  C   UNL A   1      32.488  26.492  22.330  1.00  0.00    -0.002 C 
ATOM     23  C   UNL A   1      31.100  25.933  22.613  1.00  0.00     0.008 C 
ATOM     24  C   UNL A   1      32.605  27.873  22.985  1.00  0.00     0.008 C 
ENDBRANCH  21  22
ENDBRANCH  18  21
ENDBRANCH  17  18
ENDBRANCH   9  17
ENDBRANCH   5   8
ENDBRANCH   3   4
ENDBRANCH   2   3
ENDBRANCH   1   2
BRANCH   1  25
ATOM     25  C   UNL A   1      31.767  28.110  27.554  1.00  0.00     0.002 C 
BRANCH  25  26
ATOM     26  C   UNL A   1      31.377  29.416  26.859  1.00  0.00     0.021 C 
BRANCH  26  27
ATOM     27  C   UNL A   1      32.537  30.157  26.207  1.00  0.00     0.116 C 
BRANCH  27  28
ATOM     28  N   UNL A   1      32.460  31.591  26.430  1.00  0.00    -0.352 N 
ATOM     29  C   UNL A   1      33.239  32.380  27.239  1.00  0.00     0.251 C 
ATOM     30  H   UNL A   1      31.752  32.061  25.931  1.00  0.00     0.163 HD
ATOM     31  O   UNL A   1      32.906  33.538  27.470  1.00  0.00    -0.269 OA
BRANCH  29  32
ATOM     32  C   UNL A   1      34.463  31.815  27.848  1.00  0.00     0.039 A 
ATOM     33  C   UNL A   1      35.573  32.642  28.032  1.00  0.00     0.014 A 
ATOM     34  C   UNL A   1      34.508  30.476  28.246  1.00  0.00     0.014 A 
ATOM     35  C   UNL A   1      36.708  32.140  28.673  1.00  0.00     0.010 A 
ATOM     36  C   UNL A   1      35.608  30.000  28.952  1.00  0.00     0.010 A 
ATOM     37  C   UNL A   1      36.723  30.825  29.171  1.00  0.00    -0.014 A 
BRANCH  37  38
ATOM     38  C   UNL A   1      37.897  30.293  29.910  1.00  0.00     0.031 A 
ATOM     39  C   UNL A   1      38.155  30.730  31.328  1.00  0.00     0.074 A 
ATOM     40  C   UNL A   1      38.763  29.468  29.289  1.00  0.00     0.049 A 
ATOM     41  N   UNL A   1      39.162  30.446  32.112  1.00  0.00    -0.248 NA
ATOM     42  C   UNL A   1      37.161  31.632  31.929  1.00  0.00     0.031 C 
ATOM     43  C   UNL A   1      38.640  29.002  27.905  1.00  0.00     0.029 A 
ATOM     44  N   UNL A   1      39.922  28.879  29.732  1.00  0.00    -0.354 N 
ATOM     45  C   UNL A   1      38.930  31.143  33.294  1.00  0.00     0.074 A 
ATOM     46  C   UNL A   1      37.722  31.914  33.095  1.00  0.00     0.031 C 
ATOM     47  C   UNL A   1      39.665  28.181  27.624  1.00  0.00     0.029 A 
ATOM     48  C   UNL A   1      40.546  28.100  28.785  1.00  0.00     0.049 A 
ATOM     49  H   UNL A   1      40.271  29.002  30.644  1.00  0.00     0.167 HD
ATOM     50  C   UNL A   1      39.646  31.121  34.446  1.00  0.00     0.034 A 
ATOM     51  C   UNL A   1      41.704  27.411  28.840  1.00  0.00     0.034 A 
ATOM     52  C   UNL A   1      40.842  30.336  34.630  1.00  0.00     0.049 A 
ATOM     53  C   UNL A   1      42.502  27.431  30.120  1.00  0.00     0.074 A 
ATOM     54  C   UNL A   1      41.612  30.195  35.772  1.00  0.00     0.029 A 
ATOM     55  N   UNL A   1      41.447  29.564  33.647  1.00  0.00    -0.354 N 
ATOM     56  N   UNL A   1      42.241  28.055  31.247  1.00  0.00    -0.248 NA
ATOM     57  C   UNL A   1      43.744  26.647  30.141  1.00  0.00     0.031 C 
ATOM     58  C   UNL A   1      42.720  29.402  35.458  1.00  0.00     0.029 A 
ATOM     59  C   UNL A   1      42.599  28.975  34.145  1.00  0.00     0.049 A 
ATOM     60  H   UNL A   1      41.108  29.450  32.729  1.00  0.00     0.167 HD
ATOM     61  C   UNL A   1      43.270  27.709  32.119  1.00  0.00     0.074 A 
ATOM     62  C   UNL A   1      44.148  26.814  31.392  1.00  0.00     0.031 C 
ATOM     63  C   UNL A   1      43.468  28.090  33.406  1.00  0.00     0.034 A 
BRANCH  50  64
ATOM     64  C   UNL A   1      39.164  31.993  35.582  1.00  0.00     0.023 A 
ATOM     65  C   UNL A   1      39.621  33.313  35.745  1.00  0.00     0.031 A 
ATOM     66  C   UNL A   1      38.252  31.493  36.528  1.00  0.00     0.131 A 
ATOM     67  C   UNL A   1      39.230  34.057  36.867  1.00  0.00     0.055 A 
ATOM     68  C   UNL A   1      37.798  32.270  37.596  1.00  0.00     0.041 A 
ATOM     69  F   UNL A   1      37.796  30.234  36.440  1.00  0.00    -0.206 F 
ATOM     70  C   UNL A   1      38.300  33.555  37.780  1.00  0.00     0.022 A 
BRANCH  67  71
ATOM     71  S   UNL A   1      40.068  35.631  37.197  1.00  0.00     0.124 S 
ATOM     72  O   UNL A   1      41.471  35.221  37.207  1.00  0.00    -0.237 OA
ATOM     73  O   UNL A   1      39.650  36.453  36.069  1.00  0.00    -0.237 OA
ATOM     74  O   UNL A   1      39.536  36.037  38.497  1.00  0.00    -0.744 OA
ENDBRANCH  67  71
ENDBRANCH  50  64
BRANCH  51  75
ATOM     75  C   UNL A   1      42.194  26.657  27.650  1.00  0.00     0.023 A 
ATOM     76  C   UNL A   1      41.901  25.293  27.486  1.00  0.00     0.031 A 
ATOM     77  C   UNL A   1      43.000  27.277  26.679  1.00  0.00     0.131 A 
ATOM     78  C   UNL A   1      42.451  24.583  26.409  1.00  0.00     0.055 A 
ATOM     79  C   UNL A   1      43.499  26.580  25.577  1.00  0.00     0.041 A 
ATOM     80  F   UNL A   1      43.310  28.579  26.783  1.00  0.00    -0.206 F 
ATOM     81  C   UNL A   1      43.236  25.221  25.445  1.00  0.00     0.022 A 
BRANCH  78  82
ATOM     82  S   UNL A   1      42.206  22.787  26.338  1.00  0.00     0.124 S 
ATOM     83  O   UNL A   1      43.058  22.329  27.428  1.00  0.00    -0.237 OA
ATOM     84  O   UNL A   1      40.768  22.670  26.552  1.00  0.00    -0.237 OA
ATOM     85  O   UNL A   1      42.665  22.434  24.995  1.00  0.00    -0.744 OA
ENDBRANCH  78  82
ENDBRANCH  51  75
BRANCH  63  86
ATOM     86  C   UNL A   1      44.656  27.498  34.127  1.00  0.00     0.023 A 
ATOM     87  C   UNL A   1      44.564  26.297  34.850  1.00  0.00     0.031 A 
ATOM     88  C   UNL A   1      45.903  28.147  34.078  1.00  0.00     0.131 A 
ATOM     89  C   UNL A   1      45.686  25.806  35.535  1.00  0.00     0.055 A 
ATOM     90  C   UNL A   1      47.031  27.621  34.710  1.00  0.00     0.041 A 
ATOM     91  F   UNL A   1      46.048  29.299  33.404  1.00  0.00    -0.206 F 
ATOM     92  C   UNL A   1      46.923  26.451  35.454  1.00  0.00     0.022 A 
BRANCH  89  93
ATOM     93  S   UNL A   1      45.490  24.351  36.600  1.00  0.00     0.124 S 
ATOM     94  O   UNL A   1      44.852  24.922  37.781  1.00  0.00    -0.237 OA
ATOM     95  O   UNL A   1      44.654  23.476  35.784  1.00  0.00    -0.237 OA
ATOM     96  O   UNL A   1      46.861  23.885  36.800  1.00  0.00    -0.744 OA
ENDBRANCH  89  93
ENDBRANCH  63  86
ENDBRANCH  37  38
ENDBRANCH  29  32
ENDBRANCH  27  28
ENDBRANCH  26  27
ENDBRANCH  25  26
ENDBRANCH   1  25
TORSDOF 20
ENDMDL
