MODEL 1
REMARK VINA RESULT:     -11.4      0.000      0.000
REMARK SMILES [NH3+]Cc1c(-c2ccccc2)c(C(=O)NCCCCCCNC(=O)c2ccc(-c3c4nc(c(-c5cc(S(=O)(=O)[O-])ccc5F)c5ccc([nH]5)c(-c5cc(S(=O)(=O)[O-])ccc5F)c5nc(c(-c6cc(S(=O)(=O)[O-])ccc6F)c6ccc3[nH]6)C=C5)C=C4)cc2)c2ccccn12
REMARK SMILES IDX 18 1 17 2 16 3 15 4 14 5 12 6 13 7 11 9 3 10 4 11 92 12
REMARK SMILES IDX 87 13 91 14 88 15 90 16 89 17 2 18 1 19 5 23 6 24 10 25 7 26
REMARK SMILES IDX 9 27 8 28 19 29 20 30 21 31 22 32 23 34 24 35 25 36 86 37
REMARK SMILES IDX 26 38 85 39 27 40 28 41 29 42 79 43 30 44 84 45 78 46 80 47
REMARK SMILES IDX 31 48 83 49 77 50 76 51 32 53 64 54 44 55 63 56 45 57 48 58
REMARK SMILES IDX 62 59 81 60 46 61 47 62 61 64 82 65 49 66 33 67 34 68 42 69
REMARK SMILES IDX 35 70 41 71 43 72 40 73 36 74 37 75 38 76 39 77 65 78 66 79
REMARK SMILES IDX 74 80 67 81 73 82 75 83 72 84 68 85 69 86 70 87 71 88 50 89
REMARK SMILES IDX 51 90 59 91 52 92 58 93 60 94 57 95 53 96 54 97 55 98 56 99
REMARK H PARENT 14 8 1 20 1 21 1 22 21 33 80 52 48 63
REMARK Flexibility Score: inf
ROOT
ATOM      1  C   UNL A   1      31.281  28.471  26.170  1.00  0.00     0.002 C 
ENDROOT
BRANCH   1   2
ATOM      2  C   UNL A   1      31.723  27.349  27.113  1.00  0.00     0.002 C 
BRANCH   2   3
ATOM      3  C   UNL A   1      31.449  25.903  26.685  1.00  0.00     0.021 C 
BRANCH   3   4
ATOM      4  C   UNL A   1      30.032  25.565  26.224  1.00  0.00     0.116 C 
BRANCH   4   5
ATOM      5  N   UNL A   1      29.956  24.655  25.106  1.00  0.00    -0.352 N 
ATOM      6  C   UNL A   1      30.453  24.752  23.820  1.00  0.00     0.254 C 
ATOM      7  O   UNL A   1      30.274  23.772  23.094  1.00  0.00    -0.269 OA
ATOM      8  H   UNL A   1      29.468  23.820  25.291  1.00  0.00     0.163 HD
BRANCH   6   9
ATOM      9  C   UNL A   1      31.092  25.976  23.318  1.00  0.00     0.073 A 
ATOM     10  C   UNL A   1      32.748  27.424  22.590  1.00  0.00     0.086 A 
ATOM     11  C   UNL A   1      32.513  26.161  23.137  1.00  0.00     0.022 A 
ATOM     12  N   UNL A   1      31.502  28.028  22.456  1.00  0.00    -0.314 N 
ATOM     13  C   UNL A   1      30.535  27.221  23.059  1.00  0.00     0.059 A 
ATOM     14  C   UNL A   1      31.179  29.256  21.856  1.00  0.00     0.092 A 
ATOM     15  C   UNL A   1      29.249  27.815  23.259  1.00  0.00     0.027 A 
ATOM     16  C   UNL A   1      29.922  29.724  21.911  1.00  0.00     0.018 A 
ATOM     17  C   UNL A   1      28.943  28.991  22.684  1.00  0.00     0.004 A 
BRANCH  10  18
ATOM     18  C   UNL A   1      33.996  28.183  22.237  1.00  0.00     0.315 C 
BRANCH  18  19
ATOM     19  N   UNL A   1      34.434  29.141  23.240  1.00  0.00    -0.353 N 
ATOM     20  H   UNL A   1      33.694  29.274  23.929  1.00  0.00     0.344 HD
ATOM     21  H   UNL A   1      34.643  30.032  22.790  1.00  0.00     0.344 HD
ATOM     22  H   UNL A   1      35.272  28.788  23.704  1.00  0.00     0.344 HD
ENDBRANCH  18  19
ENDBRANCH  10  18
BRANCH  11  23
ATOM     23  C   UNL A   1      33.578  25.232  23.488  1.00  0.00    -0.016 A 
ATOM     24  C   UNL A   1      34.288  25.383  24.682  1.00  0.00     0.009 A 
ATOM     25  C   UNL A   1      33.890  24.172  22.625  1.00  0.00     0.009 A 
ATOM     26  C   UNL A   1      35.289  24.469  25.019  1.00  0.00     0.001 A 
ATOM     27  C   UNL A   1      34.885  23.256  22.968  1.00  0.00     0.001 A 
ATOM     28  C   UNL A   1      35.583  23.404  24.165  1.00  0.00     0.000 A 
ENDBRANCH  11  23
ENDBRANCH   6   9
ENDBRANCH   4   5
ENDBRANCH   3   4
ENDBRANCH   2   3
ENDBRANCH   1   2
BRANCH   1  29
ATOM     29  C   UNL A   1      32.320  29.527  25.787  1.00  0.00     0.021 C 
BRANCH  29  30
ATOM     30  C   UNL A   1      33.450  29.783  26.779  1.00  0.00     0.116 C 
BRANCH  30  31
ATOM     31  N   UNL A   1      33.478  31.140  27.289  1.00  0.00    -0.352 N 
ATOM     32  C   UNL A   1      34.384  31.765  28.110  1.00  0.00     0.251 C 
ATOM     33  H   UNL A   1      32.724  31.703  27.000  1.00  0.00     0.163 HD
ATOM     34  O   UNL A   1      34.145  32.910  28.490  1.00  0.00    -0.269 OA
BRANCH  32  35
ATOM     35  C   UNL A   1      35.617  31.078  28.573  1.00  0.00     0.039 A 
ATOM     36  C   UNL A   1      36.851  31.585  28.154  1.00  0.00     0.014 A 
ATOM     37  C   UNL A   1      35.582  29.932  29.373  1.00  0.00     0.014 A 
ATOM     38  C   UNL A   1      38.041  30.987  28.581  1.00  0.00     0.010 A 
ATOM     39  C   UNL A   1      36.770  29.372  29.853  1.00  0.00     0.010 A 
ATOM     40  C   UNL A   1      38.013  29.893  29.462  1.00  0.00    -0.014 A 
BRANCH  40  41
ATOM     41  C   UNL A   1      39.280  29.306  29.980  1.00  0.00     0.031 A 
ATOM     42  C   UNL A   1      39.938  29.863  31.214  1.00  0.00     0.074 A 
ATOM     43  C   UNL A   1      39.857  28.284  29.315  1.00  0.00     0.049 A 
ATOM     44  N   UNL A   1      41.040  29.480  31.809  1.00  0.00    -0.248 NA
ATOM     45  C   UNL A   1      39.284  31.016  31.848  1.00  0.00     0.031 C 
ATOM     46  C   UNL A   1      39.344  27.688  28.080  1.00  0.00     0.029 A 
ATOM     47  N   UNL A   1      40.996  27.566  29.580  1.00  0.00    -0.354 N 
ATOM     48  C   UNL A   1      41.217  30.348  32.883  1.00  0.00     0.074 A 
ATOM     49  C   UNL A   1      40.138  31.312  32.817  1.00  0.00     0.031 C 
ATOM     50  C   UNL A   1      40.148  26.678  27.711  1.00  0.00     0.029 A 
ATOM     51  C   UNL A   1      41.252  26.575  28.660  1.00  0.00     0.049 A 
ATOM     52  H   UNL A   1      41.575  27.742  30.356  1.00  0.00     0.167 HD
ATOM     53  C   UNL A   1      42.174  30.329  33.845  1.00  0.00     0.034 A 
ATOM     54  C   UNL A   1      42.260  25.683  28.587  1.00  0.00     0.034 A 
ATOM     55  C   UNL A   1      43.239  29.355  33.902  1.00  0.00     0.049 A 
ATOM     56  C   UNL A   1      43.313  25.682  29.665  1.00  0.00     0.074 A 
ATOM     57  C   UNL A   1      44.225  29.209  34.864  1.00  0.00     0.029 A 
ATOM     58  N   UNL A   1      43.467  28.366  32.954  1.00  0.00    -0.354 N 
ATOM     59  N   UNL A   1      43.429  26.471  30.709  1.00  0.00    -0.248 NA
ATOM     60  C   UNL A   1      44.362  24.660  29.564  1.00  0.00     0.031 C 
ATOM     61  C   UNL A   1      45.082  28.177  34.466  1.00  0.00     0.029 A 
ATOM     62  C   UNL A   1      44.593  27.628  33.292  1.00  0.00     0.049 A 
ATOM     63  H   UNL A   1      42.910  28.211  32.157  1.00  0.00     0.167 HD
ATOM     64  C   UNL A   1      44.550  26.022  31.400  1.00  0.00     0.074 A 
ATOM     65  C   UNL A   1      45.060  24.882  30.666  1.00  0.00     0.031 C 
ATOM     66  C   UNL A   1      45.106  26.506  32.540  1.00  0.00     0.034 A 
BRANCH  53  67
ATOM     67  C   UNL A   1      42.122  31.411  34.899  1.00  0.00     0.023 A 
ATOM     68  C   UNL A   1      41.094  31.458  35.859  1.00  0.00     0.031 A 
ATOM     69  C   UNL A   1      43.096  32.424  34.932  1.00  0.00     0.131 A 
ATOM     70  C   UNL A   1      41.021  32.534  36.757  1.00  0.00     0.055 A 
ATOM     71  C   UNL A   1      43.064  33.447  35.882  1.00  0.00     0.041 A 
ATOM     72  F   UNL A   1      44.092  32.444  34.031  1.00  0.00    -0.206 F 
ATOM     73  C   UNL A   1      42.013  33.516  36.791  1.00  0.00     0.022 A 
BRANCH  70  74
ATOM     74  S   UNL A   1      39.534  32.707  37.782  1.00  0.00     0.124 S 
ATOM     75  O   UNL A   1      40.099  32.680  39.128  1.00  0.00    -0.237 OA
ATOM     76  O   UNL A   1      38.995  33.988  37.339  1.00  0.00    -0.237 OA
ATOM     77  O   UNL A   1      38.735  31.536  37.425  1.00  0.00    -0.744 OA
ENDBRANCH  70  74
ENDBRANCH  53  67
BRANCH  54  78
ATOM     78  C   UNL A   1      42.328  24.715  27.456  1.00  0.00     0.023 A 
ATOM     79  C   UNL A   1      41.562  23.538  27.464  1.00  0.00     0.031 A 
ATOM     80  C   UNL A   1      43.189  24.935  26.366  1.00  0.00     0.131 A 
ATOM     81  C   UNL A   1      41.705  22.605  26.424  1.00  0.00     0.055 A 
ATOM     82  C   UNL A   1      43.289  24.028  25.310  1.00  0.00     0.041 A 
ATOM     83  F   UNL A   1      43.937  26.049  26.307  1.00  0.00    -0.206 F 
ATOM     84  C   UNL A   1      42.554  22.848  25.342  1.00  0.00     0.022 A 
BRANCH  81  85
ATOM     85  S   UNL A   1      40.816  21.027  26.546  1.00  0.00     0.124 S 
ATOM     86  O   UNL A   1      40.825  20.792  27.985  1.00  0.00    -0.237 OA
ATOM     87  O   UNL A   1      39.524  21.362  25.957  1.00  0.00    -0.237 OA
ATOM     88  O   UNL A   1      41.640  20.113  25.758  1.00  0.00    -0.744 OA
ENDBRANCH  81  85
ENDBRANCH  54  78
BRANCH  66  89
ATOM     89  C   UNL A   1      46.315  25.775  33.071  1.00  0.00     0.023 A 
ATOM     90  C   UNL A   1      46.190  24.677  33.942  1.00  0.00     0.031 A 
ATOM     91  C   UNL A   1      47.610  26.202  32.728  1.00  0.00     0.131 A 
ATOM     92  C   UNL A   1      47.337  24.084  34.489  1.00  0.00     0.055 A 
ATOM     93  C   UNL A   1      48.749  25.569  33.228  1.00  0.00     0.041 A 
ATOM     94  F   UNL A   1      47.789  27.245  31.903  1.00  0.00    -0.206 F 
ATOM     95  C   UNL A   1      48.617  24.513  34.126  1.00  0.00     0.022 A 
BRANCH  92  96
ATOM     96  S   UNL A   1      47.135  22.810  35.764  1.00  0.00     0.124 S 
ATOM     97  O   UNL A   1      47.882  23.378  36.883  1.00  0.00    -0.237 OA
ATOM     98  O   UNL A   1      45.686  22.757  35.927  1.00  0.00    -0.237 OA
ATOM     99  O   UNL A   1      47.734  21.621  35.160  1.00  0.00    -0.744 OA
ENDBRANCH  92  96
ENDBRANCH  66  89
ENDBRANCH  40  41
ENDBRANCH  32  35
ENDBRANCH  30  31
ENDBRANCH  29  30
ENDBRANCH   1  29
TORSDOF 19
ENDMDL
MODEL 2
REMARK VINA RESULT:     -11.2      2.908      8.289
REMARK SMILES [NH3+]Cc1c(-c2ccccc2)c(C(=O)NCCCCCCNC(=O)c2ccc(-c3c4nc(c(-c5cc(S(=O)(=O)[O-])ccc5F)c5ccc([nH]5)c(-c5cc(S(=O)(=O)[O-])ccc5F)c5nc(c(-c6cc(S(=O)(=O)[O-])ccc6F)c6ccc3[nH]6)C=C5)C=C4)cc2)c2ccccn12
REMARK SMILES IDX 18 1 17 2 16 3 15 4 14 5 12 6 13 7 11 9 3 10 4 11 92 12
REMARK SMILES IDX 87 13 91 14 88 15 90 16 89 17 2 18 1 19 5 23 6 24 10 25 7 26
REMARK SMILES IDX 9 27 8 28 19 29 20 30 21 31 22 32 23 34 24 35 25 36 86 37
REMARK SMILES IDX 26 38 85 39 27 40 28 41 29 42 79 43 30 44 84 45 78 46 80 47
REMARK SMILES IDX 31 48 83 49 77 50 76 51 32 53 64 54 44 55 63 56 45 57 48 58
REMARK SMILES IDX 62 59 81 60 46 61 47 62 61 64 82 65 49 66 33 67 34 68 42 69
REMARK SMILES IDX 35 70 41 71 43 72 40 73 36 74 37 75 38 76 39 77 65 78 66 79
REMARK SMILES IDX 74 80 67 81 73 82 75 83 72 84 68 85 69 86 70 87 71 88 50 89
REMARK SMILES IDX 51 90 59 91 52 92 58 93 60 94 57 95 53 96 54 97 55 98 56 99
REMARK H PARENT 14 8 1 20 1 21 1 22 21 33 80 52 48 63
REMARK Flexibility Score: inf
ROOT
ATOM      1  C   UNL A   1      31.384  31.200  26.488  1.00  0.00     0.002 C 
ENDROOT
BRANCH   1   2
ATOM      2  C   UNL A   1      32.702  30.488  26.174  1.00  0.00     0.002 C 
BRANCH   2   3
ATOM      3  C   UNL A   1      33.119  29.321  27.077  1.00  0.00     0.021 C 
BRANCH   3   4
ATOM      4  C   UNL A   1      34.092  28.298  26.495  1.00  0.00     0.116 C 
BRANCH   4   5
ATOM      5  N   UNL A   1      34.477  28.533  25.124  1.00  0.00    -0.352 N 
ATOM      6  C   UNL A   1      33.858  28.195  23.936  1.00  0.00     0.254 C 
ATOM      7  O   UNL A   1      34.409  28.589  22.906  1.00  0.00    -0.269 OA
ATOM      8  H   UNL A   1      35.326  29.019  25.016  1.00  0.00     0.163 HD
BRANCH   6   9
ATOM      9  C   UNL A   1      32.654  27.353  23.892  1.00  0.00     0.073 A 
ATOM     10  C   UNL A   1      31.307  25.474  24.048  1.00  0.00     0.086 A 
ATOM     11  C   UNL A   1      32.627  25.925  24.109  1.00  0.00     0.022 A 
ATOM     12  N   UNL A   1      30.527  26.592  23.770  1.00  0.00    -0.314 N 
ATOM     13  C   UNL A   1      31.362  27.679  23.504  1.00  0.00     0.059 A 
ATOM     14  C   UNL A   1      29.128  26.697  23.716  1.00  0.00     0.092 A 
ATOM     15  C   UNL A   1      30.739  28.832  22.931  1.00  0.00     0.027 A 
ATOM     16  C   UNL A   1      28.551  27.847  23.332  1.00  0.00     0.018 A 
ATOM     17  C   UNL A   1      29.398  28.929  22.880  1.00  0.00     0.004 A 
BRANCH  10  18
ATOM     18  C   UNL A   1      30.673  24.115  24.142  1.00  0.00     0.315 C 
BRANCH  18  19
ATOM     19  N   UNL A   1      30.897  23.254  22.991  1.00  0.00    -0.353 N 
ATOM     20  H   UNL A   1      31.356  23.788  22.252  1.00  0.00     0.344 HD
ATOM     21  H   UNL A   1      30.004  22.901  22.651  1.00  0.00     0.344 HD
ATOM     22  H   UNL A   1      31.492  22.471  23.263  1.00  0.00     0.344 HD
ENDBRANCH  18  19
ENDBRANCH  10  18
BRANCH  11  23
ATOM     23  C   UNL A   1      33.764  25.041  24.322  1.00  0.00    -0.016 A 
ATOM     24  C   UNL A   1      34.260  24.817  25.610  1.00  0.00     0.009 A 
ATOM     25  C   UNL A   1      34.364  24.402  23.227  1.00  0.00     0.009 A 
ATOM     26  C   UNL A   1      35.335  23.946  25.802  1.00  0.00     0.001 A 
ATOM     27  C   UNL A   1      35.433  23.527  23.424  1.00  0.00     0.001 A 
ATOM     28  C   UNL A   1      35.917  23.298  24.712  1.00  0.00     0.000 A 
ENDBRANCH  11  23
ENDBRANCH   6   9
ENDBRANCH   4   5
ENDBRANCH   3   4
ENDBRANCH   2   3
ENDBRANCH   1   2
BRANCH   1  29
ATOM     29  C   UNL A   1      31.441  32.700  26.788  1.00  0.00     0.021 C 
BRANCH  29  30
ATOM     30  C   UNL A   1      32.785  33.269  27.233  1.00  0.00     0.116 C 
BRANCH  30  31
ATOM     31  N   UNL A   1      32.677  34.541  27.921  1.00  0.00    -0.352 N 
ATOM     32  C   UNL A   1      33.353  35.022  29.016  1.00  0.00     0.251 C 
ATOM     33  H   UNL A   1      32.011  35.158  27.542  1.00  0.00     0.163 HD
ATOM     34  O   UNL A   1      33.018  36.108  29.485  1.00  0.00    -0.269 OA
BRANCH  32  35
ATOM     35  C   UNL A   1      34.443  34.246  29.660  1.00  0.00     0.039 A 
ATOM     36  C   UNL A   1      35.753  34.460  29.219  1.00  0.00     0.014 A 
ATOM     37  C   UNL A   1      34.199  33.291  30.652  1.00  0.00     0.014 A 
ATOM     38  C   UNL A   1      36.816  33.770  29.810  1.00  0.00     0.010 A 
ATOM     39  C   UNL A   1      35.267  32.648  31.286  1.00  0.00     0.010 A 
ATOM     40  C   UNL A   1      36.588  32.880  30.873  1.00  0.00    -0.014 A 
BRANCH  40  41
ATOM     41  C   UNL A   1      37.727  32.206  31.554  1.00  0.00     0.031 A 
ATOM     42  C   UNL A   1      38.466  31.079  30.885  1.00  0.00     0.074 A 
ATOM     43  C   UNL A   1      38.076  32.592  32.799  1.00  0.00     0.049 A 
ATOM     44  N   UNL A   1      39.480  30.376  31.325  1.00  0.00    -0.248 NA
ATOM     45  C   UNL A   1      37.988  30.673  29.556  1.00  0.00     0.031 C 
ATOM     46  C   UNL A   1      37.407  33.637  33.575  1.00  0.00     0.029 A 
ATOM     47  N   UNL A   1      39.077  32.154  33.630  1.00  0.00    -0.354 N 
ATOM     48  C   UNL A   1      39.757  29.441  30.332  1.00  0.00     0.074 A 
ATOM     49  C   UNL A   1      38.764  29.631  29.296  1.00  0.00     0.031 C 
ATOM     50  C   UNL A   1      38.032  33.779  34.755  1.00  0.00     0.029 A 
ATOM     51  C   UNL A   1      39.124  32.814  34.836  1.00  0.00     0.049 A 
ATOM     52  H   UNL A   1      39.703  31.435  33.386  1.00  0.00     0.167 HD
ATOM     53  C   UNL A   1      40.758  28.526  30.280  1.00  0.00     0.034 A 
ATOM     54  C   UNL A   1      39.951  32.662  35.890  1.00  0.00     0.034 A 
ATOM     55  C   UNL A   1      41.748  28.354  31.318  1.00  0.00     0.049 A 
ATOM     56  C   UNL A   1      41.053  31.639  35.811  1.00  0.00     0.074 A 
ATOM     57  C   UNL A   1      42.838  27.499  31.340  1.00  0.00     0.029 A 
ATOM     58  N   UNL A   1      41.764  29.041  32.525  1.00  0.00    -0.354 N 
ATOM     59  N   UNL A   1      41.339  30.805  34.836  1.00  0.00    -0.248 NA
ATOM     60  C   UNL A   1      41.955  31.546  36.966  1.00  0.00     0.031 C 
ATOM     61  C   UNL A   1      43.472  27.624  32.581  1.00  0.00     0.029 A 
ATOM     62  C   UNL A   1      42.825  28.608  33.309  1.00  0.00     0.049 A 
ATOM     63  H   UNL A   1      41.117  29.735  32.787  1.00  0.00     0.167 HD
ATOM     64  C   UNL A   1      42.469  30.108  35.254  1.00  0.00     0.074 A 
ATOM     65  C   UNL A   1      42.823  30.635  36.556  1.00  0.00     0.031 C 
ATOM     66  C   UNL A   1      43.155  29.124  34.617  1.00  0.00     0.034 A 
BRANCH  53  67
ATOM     67  C   UNL A   1      40.815  27.626  29.066  1.00  0.00     0.023 A 
ATOM     68  C   UNL A   1      41.750  27.834  28.036  1.00  0.00     0.031 A 
ATOM     69  C   UNL A   1      39.907  26.562  28.923  1.00  0.00     0.131 A 
ATOM     70  C   UNL A   1      41.707  27.041  26.879  1.00  0.00     0.055 A 
ATOM     71  C   UNL A   1      39.923  25.725  27.805  1.00  0.00     0.041 A 
ATOM     72  F   UNL A   1      38.978  26.325  29.864  1.00  0.00    -0.206 F 
ATOM     73  C   UNL A   1      40.815  25.973  26.767  1.00  0.00     0.022 A 
BRANCH  70  74
ATOM     74  S   UNL A   1      42.735  27.520  25.463  1.00  0.00     0.124 S 
ATOM     75  O   UNL A   1      44.022  27.772  26.105  1.00  0.00    -0.237 OA
ATOM     76  O   UNL A   1      42.665  26.339  24.610  1.00  0.00    -0.237 OA
ATOM     77  O   UNL A   1      42.064  28.709  24.940  1.00  0.00    -0.744 OA
ENDBRANCH  70  74
ENDBRANCH  53  67
BRANCH  54  78
ATOM     78  C   UNL A   1      39.773  33.496  37.113  1.00  0.00     0.023 A 
ATOM     79  C   UNL A   1      39.145  32.978  38.257  1.00  0.00     0.031 A 
ATOM     80  C   UNL A   1      40.198  34.836  37.142  1.00  0.00     0.131 A 
ATOM     81  C   UNL A   1      38.919  33.808  39.366  1.00  0.00     0.055 A 
ATOM     82  C   UNL A   1      40.016  35.643  38.267  1.00  0.00     0.041 A 
ATOM     83  F   UNL A   1      40.811  35.377  36.077  1.00  0.00    -0.206 F 
ATOM     84  C   UNL A   1      39.361  35.133  39.383  1.00  0.00     0.022 A 
BRANCH  81  85
ATOM     85  S   UNL A   1      37.967  33.150  40.763  1.00  0.00     0.124 S 
ATOM     86  O   UNL A   1      38.602  31.854  40.972  1.00  0.00    -0.237 OA
ATOM     87  O   UNL A   1      38.207  34.156  41.793  1.00  0.00    -0.237 OA
ATOM     88  O   UNL A   1      36.600  33.102  40.249  1.00  0.00    -0.744 OA
ENDBRANCH  81  85
ENDBRANCH  54  78
BRANCH  66  89
ATOM     89  C   UNL A   1      44.375  28.581  35.320  1.00  0.00     0.023 A 
ATOM     90  C   UNL A   1      44.273  27.616  36.337  1.00  0.00     0.031 A 
ATOM     91  C   UNL A   1      45.656  29.060  34.990  1.00  0.00     0.131 A 
ATOM     92  C   UNL A   1      45.421  27.207  37.032  1.00  0.00     0.055 A 
ATOM     93  C   UNL A   1      46.802  28.604  35.643  1.00  0.00     0.041 A 
ATOM     94  F   UNL A   1      45.813  29.983  34.028  1.00  0.00    -0.206 F 
ATOM     95  C   UNL A   1      46.687  27.683  36.681  1.00  0.00     0.022 A 
BRANCH  92  96
ATOM     96  S   UNL A   1      45.227  26.120  38.471  1.00  0.00     0.124 S 
ATOM     97  O   UNL A   1      43.853  26.399  38.879  1.00  0.00    -0.237 OA
ATOM     98  O   UNL A   1      45.466  24.799  37.900  1.00  0.00    -0.237 OA
ATOM     99  O   UNL A   1      46.255  26.590  39.398  1.00  0.00    -0.744 OA
ENDBRANCH  92  96
ENDBRANCH  66  89
ENDBRANCH  40  41
ENDBRANCH  32  35
ENDBRANCH  30  31
ENDBRANCH  29  30
ENDBRANCH   1  29
TORSDOF 19
ENDMDL
MODEL 3
REMARK VINA RESULT:     -11.2      4.621      9.402
REMARK SMILES [NH3+]Cc1c(-c2ccccc2)c(C(=O)NCCCCCCNC(=O)c2ccc(-c3c4nc(c(-c5cc(S(=O)(=O)[O-])ccc5F)c5ccc([nH]5)c(-c5cc(S(=O)(=O)[O-])ccc5F)c5nc(c(-c6cc(S(=O)(=O)[O-])ccc6F)c6ccc3[nH]6)C=C5)C=C4)cc2)c2ccccn12
REMARK SMILES IDX 18 1 17 2 16 3 15 4 14 5 12 6 13 7 11 9 3 10 4 11 92 12
REMARK SMILES IDX 87 13 91 14 88 15 90 16 89 17 2 18 1 19 5 23 6 24 10 25 7 26
REMARK SMILES IDX 9 27 8 28 19 29 20 30 21 31 22 32 23 34 24 35 25 36 86 37
REMARK SMILES IDX 26 38 85 39 27 40 28 41 29 42 79 43 30 44 84 45 78 46 80 47
REMARK SMILES IDX 31 48 83 49 77 50 76 51 32 53 64 54 44 55 63 56 45 57 48 58
REMARK SMILES IDX 62 59 81 60 46 61 47 62 61 64 82 65 49 66 33 67 34 68 42 69
REMARK SMILES IDX 35 70 41 71 43 72 40 73 36 74 37 75 38 76 39 77 65 78 66 79
REMARK SMILES IDX 74 80 67 81 73 82 75 83 72 84 68 85 69 86 70 87 71 88 50 89
REMARK SMILES IDX 51 90 59 91 52 92 58 93 60 94 57 95 53 96 54 97 55 98 56 99
REMARK H PARENT 14 8 1 20 1 21 1 22 21 33 80 52 48 63
REMARK Flexibility Score: inf
ROOT
ATOM      1  C   UNL A   1      35.489  22.248  24.366  1.00  0.00     0.002 C 
ENDROOT
BRANCH   1   2
ATOM      2  C   UNL A   1      35.309  21.085  25.343  1.00  0.00     0.002 C 
BRANCH   2   3
ATOM      3  C   UNL A   1      34.202  21.199  26.397  1.00  0.00     0.021 C 
BRANCH   3   4
ATOM      4  C   UNL A   1      34.187  22.456  27.266  1.00  0.00     0.116 C 
BRANCH   4   5
ATOM      5  N   UNL A   1      32.874  22.983  27.551  1.00  0.00    -0.352 N 
ATOM      6  C   UNL A   1      31.986  23.688  26.760  1.00  0.00     0.254 C 
ATOM      7  O   UNL A   1      30.899  23.958  27.275  1.00  0.00    -0.269 OA
ATOM      8  H   UNL A   1      32.555  22.811  28.467  1.00  0.00     0.163 HD
BRANCH   6   9
ATOM      9  C   UNL A   1      32.338  24.154  25.412  1.00  0.00     0.073 A 
ATOM     10  C   UNL A   1      33.014  25.571  23.708  1.00  0.00     0.086 A 
ATOM     11  C   UNL A   1      32.684  25.513  25.064  1.00  0.00     0.022 A 
ATOM     12  N   UNL A   1      32.852  24.282  23.212  1.00  0.00    -0.314 N 
ATOM     13  C   UNL A   1      32.277  23.480  24.201  1.00  0.00     0.059 A 
ATOM     14  C   UNL A   1      33.160  23.785  21.936  1.00  0.00     0.092 A 
ATOM     15  C   UNL A   1      31.787  22.205  23.776  1.00  0.00     0.027 A 
ATOM     16  C   UNL A   1      32.838  22.524  21.606  1.00  0.00     0.018 A 
ATOM     17  C   UNL A   1      32.082  21.732  22.552  1.00  0.00     0.004 A 
BRANCH  10  18
ATOM     18  C   UNL A   1      33.395  26.693  22.785  1.00  0.00     0.315 C 
BRANCH  18  19
ATOM     19  N   UNL A   1      32.289  27.279  22.044  1.00  0.00    -0.353 N 
ATOM     20  H   UNL A   1      31.961  28.116  22.527  1.00  0.00     0.344 HD
ATOM     21  H   UNL A   1      31.528  26.604  21.979  1.00  0.00     0.344 HD
ATOM     22  H   UNL A   1      32.602  27.529  21.105  1.00  0.00     0.344 HD
ENDBRANCH  18  19
ENDBRANCH  10  18
BRANCH  11  23
ATOM     23  C   UNL A   1      32.669  26.680  25.934  1.00  0.00    -0.016 A 
ATOM     24  C   UNL A   1      33.852  27.365  26.227  1.00  0.00     0.009 A 
ATOM     25  C   UNL A   1      31.456  27.127  26.478  1.00  0.00     0.009 A 
ATOM     26  C   UNL A   1      33.818  28.499  27.042  1.00  0.00     0.001 A 
ATOM     27  C   UNL A   1      31.425  28.265  27.286  1.00  0.00     0.001 A 
ATOM     28  C   UNL A   1      32.607  28.950  27.566  1.00  0.00     0.000 A 
ENDBRANCH  11  23
ENDBRANCH   6   9
ENDBRANCH   4   5
ENDBRANCH   3   4
ENDBRANCH   2   3
ENDBRANCH   1   2
BRANCH   1  29
ATOM     29  C   UNL A   1      36.672  23.192  24.595  1.00  0.00     0.021 C 
BRANCH  29  30
ATOM     30  C   UNL A   1      37.353  23.135  25.958  1.00  0.00     0.116 C 
BRANCH  30  31
ATOM     31  N   UNL A   1      38.474  22.216  26.008  1.00  0.00    -0.352 N 
ATOM     32  C   UNL A   1      39.783  22.426  26.369  1.00  0.00     0.251 C 
ATOM     33  H   UNL A   1      38.262  21.293  25.739  1.00  0.00     0.163 HD
ATOM     34  O   UNL A   1      40.586  21.504  26.239  1.00  0.00    -0.269 OA
BRANCH  32  35
ATOM     35  C   UNL A   1      40.250  23.743  26.871  1.00  0.00     0.039 A 
ATOM     36  C   UNL A   1      40.203  24.836  25.997  1.00  0.00     0.014 A 
ATOM     37  C   UNL A   1      40.764  23.917  28.159  1.00  0.00     0.014 A 
ATOM     38  C   UNL A   1      40.610  26.101  26.431  1.00  0.00     0.010 A 
ATOM     39  C   UNL A   1      41.110  25.193  28.613  1.00  0.00     0.010 A 
ATOM     40  C   UNL A   1      41.037  26.300  27.754  1.00  0.00    -0.014 A 
BRANCH  40  41
ATOM     41  C   UNL A   1      41.395  27.662  28.237  1.00  0.00     0.031 A 
ATOM     42  C   UNL A   1      42.829  28.117  28.266  1.00  0.00     0.074 A 
ATOM     43  C   UNL A   1      40.422  28.483  28.684  1.00  0.00     0.049 A 
ATOM     44  N   UNL A   1      43.327  29.265  28.654  1.00  0.00    -0.248 NA
ATOM     45  C   UNL A   1      43.838  27.145  27.823  1.00  0.00     0.031 C 
ATOM     46  C   UNL A   1      39.000  28.142  28.754  1.00  0.00     0.029 A 
ATOM     47  N   UNL A   1      40.477  29.768  29.162  1.00  0.00    -0.354 N 
ATOM     48  C   UNL A   1      44.706  29.152  28.509  1.00  0.00     0.074 A 
ATOM     49  C   UNL A   1      44.966  27.802  28.054  1.00  0.00     0.031 C 
ATOM     50  C   UNL A   1      38.315  29.200  29.218  1.00  0.00     0.029 A 
ATOM     51  C   UNL A   1      39.249  30.282  29.512  1.00  0.00     0.049 A 
ATOM     52  H   UNL A   1      41.316  30.276  29.246  1.00  0.00     0.167 HD
ATOM     53  C   UNL A   1      45.664  30.093  28.713  1.00  0.00     0.034 A 
ATOM     54  C   UNL A   1      38.911  31.487  30.012  1.00  0.00     0.034 A 
ATOM     55  C   UNL A   1      45.389  31.439  29.158  1.00  0.00     0.049 A 
ATOM     56  C   UNL A   1      39.990  32.515  30.234  1.00  0.00     0.074 A 
ATOM     57  C   UNL A   1      46.276  32.487  29.340  1.00  0.00     0.029 A 
ATOM     58  N   UNL A   1      44.133  31.924  29.502  1.00  0.00    -0.354 N 
ATOM     59  N   UNL A   1      41.284  32.412  30.031  1.00  0.00    -0.248 NA
ATOM     60  C   UNL A   1      39.563  33.826  30.735  1.00  0.00     0.031 C 
ATOM     61  C   UNL A   1      45.569  33.580  29.852  1.00  0.00     0.029 A 
ATOM     62  C   UNL A   1      44.228  33.243  29.923  1.00  0.00     0.049 A 
ATOM     63  H   UNL A   1      43.297  31.406  29.454  1.00  0.00     0.167 HD
ATOM     64  C   UNL A   1      41.819  33.654  30.357  1.00  0.00     0.074 A 
ATOM     65  C   UNL A   1      40.705  34.494  30.749  1.00  0.00     0.031 C 
ATOM     66  C   UNL A   1      43.113  34.065  30.333  1.00  0.00     0.034 A 
BRANCH  53  67
ATOM     67  C   UNL A   1      47.100  29.685  28.478  1.00  0.00     0.023 A 
ATOM     68  C   UNL A   1      47.903  29.178  29.516  1.00  0.00     0.031 A 
ATOM     69  C   UNL A   1      47.684  29.826  27.207  1.00  0.00     0.131 A 
ATOM     70  C   UNL A   1      49.260  28.905  29.284  1.00  0.00     0.055 A 
ATOM     71  C   UNL A   1      49.014  29.476  26.963  1.00  0.00     0.041 A 
ATOM     72  F   UNL A   1      46.975  30.321  26.180  1.00  0.00    -0.206 F 
ATOM     73  C   UNL A   1      49.815  29.028  28.009  1.00  0.00     0.022 A 
BRANCH  70  74
ATOM     74  S   UNL A   1      50.323  28.529  30.706  1.00  0.00     0.124 S 
ATOM     75  O   UNL A   1      49.620  29.214  31.788  1.00  0.00    -0.237 OA
ATOM     76  O   UNL A   1      50.292  27.072  30.744  1.00  0.00    -0.237 OA
ATOM     77  O   UNL A   1      51.609  29.118  30.337  1.00  0.00    -0.744 OA
ENDBRANCH  70  74
ENDBRANCH  53  67
BRANCH  54  78
ATOM     78  C   UNL A   1      37.490  31.794  30.341  1.00  0.00     0.023 A 
ATOM     79  C   UNL A   1      36.603  32.259  29.356  1.00  0.00     0.031 A 
ATOM     80  C   UNL A   1      37.006  31.661  31.654  1.00  0.00     0.131 A 
ATOM     81  C   UNL A   1      35.292  32.616  29.708  1.00  0.00     0.055 A 
ATOM     82  C   UNL A   1      35.687  31.970  31.989  1.00  0.00     0.041 A 
ATOM     83  F   UNL A   1      37.811  31.213  32.631  1.00  0.00    -0.206 F 
ATOM     84  C   UNL A   1      34.825  32.463  31.016  1.00  0.00     0.022 A 
BRANCH  81  85
ATOM     85  S   UNL A   1      34.225  33.359  28.442  1.00  0.00     0.124 S 
ATOM     86  O   UNL A   1      35.193  34.071  27.617  1.00  0.00    -0.237 OA
ATOM     87  O   UNL A   1      33.608  32.181  27.839  1.00  0.00    -0.237 OA
ATOM     88  O   UNL A   1      33.320  34.206  29.217  1.00  0.00    -0.744 OA
ENDBRANCH  81  85
ENDBRANCH  54  78
BRANCH  66  89
ATOM     89  C   UNL A   1      43.378  35.501  30.716  1.00  0.00     0.023 A 
ATOM     90  C   UNL A   1      43.419  36.525  29.753  1.00  0.00     0.031 A 
ATOM     91  C   UNL A   1      43.624  35.844  32.057  1.00  0.00     0.131 A 
ATOM     92  C   UNL A   1      43.763  37.831  30.135  1.00  0.00     0.055 A 
ATOM     93  C   UNL A   1      43.905  37.157  32.441  1.00  0.00     0.041 A 
ATOM     94  F   UNL A   1      43.600  34.906  33.018  1.00  0.00    -0.206 F 
ATOM     95  C   UNL A   1      43.991  38.156  31.475  1.00  0.00     0.022 A 
BRANCH  92  96
ATOM     96  S   UNL A   1      44.009  39.080  28.843  1.00  0.00     0.124 S 
ATOM     97  O   UNL A   1      45.336  39.596  29.169  1.00  0.00    -0.237 OA
ATOM     98  O   UNL A   1      43.916  38.289  27.621  1.00  0.00    -0.237 OA
ATOM     99  O   UNL A   1      42.909  40.019  29.059  1.00  0.00    -0.744 OA
ENDBRANCH  92  96
ENDBRANCH  66  89
ENDBRANCH  40  41
ENDBRANCH  32  35
ENDBRANCH  30  31
ENDBRANCH  29  30
ENDBRANCH   1  29
TORSDOF 19
ENDMDL
