MODEL 1
REMARK VINA RESULT:     -12.7      0.000      0.000
REMARK SMILES CC[C@@]1(CC(=O)NCCCCCCNC(=O)c2ccc(-c3c4nc(c(-c5cc(S(=O)(=O)[O-])ccc5F)c5ccc([nH]5)c(-c5cc(S(=O)(=O)[O-])ccc5F)c5nc(c(-c6cc(S(=O)(=O)[O-])ccc6F)c6ccc3[nH]6)C=C5)C=C4)cc2)OC[C@H](Cc2ccccc2)c2c1[nH]c1ccccc21
REMARK SMILES IDX 10 1 9 2 8 3 7 4 5 5 6 6 4 8 3 9 80 10 91 11 81 12 90 13
REMARK SMILES IDX 92 14 82 15 98 16 93 17 97 19 94 20 96 21 95 22 2 23 1 24
REMARK SMILES IDX 83 25 84 26 85 27 89 28 86 29 88 30 87 31 11 32 12 33 13 34
REMARK SMILES IDX 14 35 15 36 16 38 17 39 18 40 79 41 19 42 78 43 20 44 21 45
REMARK SMILES IDX 22 46 72 47 23 48 77 49 71 50 73 51 24 52 76 53 70 54 69 55
REMARK SMILES IDX 25 57 57 58 37 59 56 60 38 61 41 62 55 63 74 64 39 65 40 66
REMARK SMILES IDX 54 68 75 69 42 70 26 71 27 72 35 73 28 74 34 75 36 76 33 77
REMARK SMILES IDX 29 78 30 79 31 80 32 81 58 82 59 83 67 84 60 85 66 86 68 87
REMARK SMILES IDX 65 88 61 89 62 90 63 91 64 92 43 93 44 94 52 95 45 96 51 97
REMARK SMILES IDX 53 98 50 99 46 100 47 101 48 102 49 103
REMARK H PARENT 7 7 92 18 14 37 73 56 41 67
REMARK Flexibility Score: inf
ROOT
ATOM      1  C   UNL A   1      31.409  29.501  24.638  1.00  0.00     0.002 C 
ENDROOT
BRANCH   1   2
ATOM      2  C   UNL A   1      31.505  28.853  23.263  1.00  0.00     0.021 C 
BRANCH   2   3
ATOM      3  C   UNL A   1      32.897  28.346  22.898  1.00  0.00     0.116 C 
BRANCH   3   4
ATOM      4  N   UNL A   1      32.776  27.204  22.012  1.00  0.00    -0.356 N 
ATOM      5  C   UNL A   1      32.951  25.879  22.279  1.00  0.00     0.223 C 
ATOM      6  O   UNL A   1      32.991  25.095  21.328  1.00  0.00    -0.275 OA
ATOM      7  H   UNL A   1      32.533  27.417  21.082  1.00  0.00     0.163 HD
BRANCH   5   8
ATOM      8  C   UNL A   1      32.970  25.388  23.710  1.00  0.00     0.142 C 
BRANCH   8   9
ATOM      9  C   UNL A   1      31.741  24.591  24.200  1.00  0.00     0.117 C 
ATOM     10  O   UNL A   1      31.449  24.799  25.596  1.00  0.00    -0.368 OA
ATOM     11  C   UNL A   1      32.063  23.120  24.063  1.00  0.00     0.052 A 
ATOM     12  C   UNL A   1      32.420  24.304  26.520  1.00  0.00     0.170 C 
ATOM     13  C   UNL A   1      32.393  22.258  25.087  1.00  0.00    -0.011 A 
ATOM     14  N   UNL A   1      32.072  22.416  22.890  1.00  0.00    -0.356 N 
ATOM     15  C   UNL A   1      32.537  22.754  26.496  1.00  0.00     0.052 C 
ATOM     16  C   UNL A   1      32.412  20.944  24.537  1.00  0.00     0.003 A 
ATOM     17  C   UNL A   1      32.228  21.076  23.157  1.00  0.00     0.046 A 
ATOM     18  H   UNL A   1      31.983  22.809  21.991  1.00  0.00     0.166 HD
ATOM     19  C   UNL A   1      32.545  19.649  25.071  1.00  0.00     0.010 A 
ATOM     20  C   UNL A   1      32.197  19.982  22.284  1.00  0.00     0.026 A 
ATOM     21  C   UNL A   1      32.495  18.541  24.215  1.00  0.00     0.001 A 
ATOM     22  C   UNL A   1      32.330  18.709  22.843  1.00  0.00     0.002 A 
BRANCH   9  23
ATOM     23  C   UNL A   1      30.423  24.875  23.426  1.00  0.00     0.039 C 
ATOM     24  C   UNL A   1      29.566  26.004  23.993  1.00  0.00     0.007 C 
ENDBRANCH   9  23
BRANCH  15  25
ATOM     25  C   UNL A   1      33.872  22.328  27.137  1.00  0.00     0.046 C 
BRANCH  25  26
ATOM     26  C   UNL A   1      35.034  22.414  26.174  1.00  0.00    -0.047 A 
ATOM     27  C   UNL A   1      35.478  23.660  25.712  1.00  0.00     0.004 A 
ATOM     28  C   UNL A   1      35.628  21.248  25.674  1.00  0.00     0.004 A 
ATOM     29  C   UNL A   1      36.476  23.736  24.742  1.00  0.00     0.000 A 
ATOM     30  C   UNL A   1      36.631  21.328  24.709  1.00  0.00     0.000 A 
ATOM     31  C   UNL A   1      37.050  22.571  24.238  1.00  0.00     0.000 A 
ENDBRANCH  25  26
ENDBRANCH  15  25
ENDBRANCH   8   9
ENDBRANCH   5   8
ENDBRANCH   3   4
ENDBRANCH   2   3
ENDBRANCH   1   2
BRANCH   1  32
ATOM     32  C   UNL A   1      31.650  28.539  25.798  1.00  0.00     0.002 C 
BRANCH  32  33
ATOM     33  C   UNL A   1      32.351  29.152  27.016  1.00  0.00     0.021 C 
BRANCH  33  34
ATOM     34  C   UNL A   1      33.595  29.983  26.692  1.00  0.00     0.116 C 
BRANCH  34  35
ATOM     35  N   UNL A   1      33.682  31.228  27.423  1.00  0.00    -0.352 N 
ATOM     36  C   UNL A   1      34.642  31.823  28.193  1.00  0.00     0.251 C 
ATOM     37  H   UNL A   1      32.863  31.770  27.352  1.00  0.00     0.163 HD
ATOM     38  O   UNL A   1      34.376  32.955  28.606  1.00  0.00    -0.269 OA
BRANCH  36  39
ATOM     39  C   UNL A   1      35.919  31.179  28.612  1.00  0.00     0.039 A 
ATOM     40  C   UNL A   1      37.027  31.842  29.138  1.00  0.00     0.014 A 
ATOM     41  C   UNL A   1      36.007  29.791  28.400  1.00  0.00     0.014 A 
ATOM     42  C   UNL A   1      38.233  31.171  29.303  1.00  0.00     0.010 A 
ATOM     43  C   UNL A   1      37.198  29.105  28.605  1.00  0.00     0.010 A 
ATOM     44  C   UNL A   1      38.330  29.811  28.996  1.00  0.00    -0.014 A 
BRANCH  44  45
ATOM     45  C   UNL A   1      39.629  29.168  29.178  1.00  0.00     0.031 A 
ATOM     46  C   UNL A   1      39.967  28.828  30.589  1.00  0.00     0.074 A 
ATOM     47  C   UNL A   1      40.448  28.830  28.163  1.00  0.00     0.049 A 
ATOM     48  N   UNL A   1      40.891  29.337  31.337  1.00  0.00    -0.248 NA
ATOM     49  C   UNL A   1      39.070  27.901  31.293  1.00  0.00     0.031 C 
ATOM     50  C   UNL A   1      40.165  28.813  26.725  1.00  0.00     0.029 A 
ATOM     51  N   UNL A   1      41.714  28.332  28.227  1.00  0.00    -0.354 N 
ATOM     52  C   UNL A   1      40.815  28.665  32.559  1.00  0.00     0.074 A 
ATOM     53  C   UNL A   1      39.589  27.907  32.521  1.00  0.00     0.031 C 
ATOM     54  C   UNL A   1      41.131  28.111  26.087  1.00  0.00     0.029 A 
ATOM     55  C   UNL A   1      42.176  27.781  27.042  1.00  0.00     0.049 A 
ATOM     56  H   UNL A   1      42.257  28.362  29.049  1.00  0.00     0.167 HD
ATOM     57  C   UNL A   1      41.854  28.643  33.443  1.00  0.00     0.034 A 
ATOM     58  C   UNL A   1      43.307  27.051  26.872  1.00  0.00     0.034 A 
ATOM     59  C   UNL A   1      42.831  29.648  33.130  1.00  0.00     0.049 A 
ATOM     60  C   UNL A   1      44.205  27.323  28.019  1.00  0.00     0.074 A 
ATOM     61  C   UNL A   1      42.844  31.027  33.118  1.00  0.00     0.029 A 
ATOM     62  N   UNL A   1      43.940  29.254  32.422  1.00  0.00    -0.354 N 
ATOM     63  N   UNL A   1      44.809  28.459  28.222  1.00  0.00    -0.248 NA
ATOM     64  C   UNL A   1      44.091  26.455  29.180  1.00  0.00     0.031 C 
ATOM     65  C   UNL A   1      43.676  31.376  32.018  1.00  0.00     0.029 A 
ATOM     66  C   UNL A   1      44.166  30.196  31.454  1.00  0.00     0.049 A 
ATOM     67  H   UNL A   1      44.475  28.443  32.582  1.00  0.00     0.167 HD
ATOM     68  C   UNL A   1      44.735  28.646  29.593  1.00  0.00     0.074 A 
ATOM     69  C   UNL A   1      44.379  27.337  30.139  1.00  0.00     0.031 C 
ATOM     70  C   UNL A   1      44.695  29.898  30.138  1.00  0.00     0.034 A 
BRANCH  57  71
ATOM     71  C   UNL A   1      42.145  27.508  34.398  1.00  0.00     0.023 A 
ATOM     72  C   UNL A   1      42.931  26.396  34.044  1.00  0.00     0.031 A 
ATOM     73  C   UNL A   1      41.835  27.625  35.770  1.00  0.00     0.131 A 
ATOM     74  C   UNL A   1      43.372  25.470  35.000  1.00  0.00     0.055 A 
ATOM     75  C   UNL A   1      42.331  26.738  36.736  1.00  0.00     0.041 A 
ATOM     76  F   UNL A   1      41.091  28.644  36.227  1.00  0.00    -0.206 F 
ATOM     77  C   UNL A   1      43.106  25.654  36.352  1.00  0.00     0.022 A 
BRANCH  74  78
ATOM     78  S   UNL A   1      44.319  24.011  34.485  1.00  0.00     0.124 S 
ATOM     79  O   UNL A   1      45.166  24.564  33.428  1.00  0.00    -0.237 OA
ATOM     80  O   UNL A   1      45.011  23.659  35.725  1.00  0.00    -0.237 OA
ATOM     81  O   UNL A   1      43.297  23.071  34.058  1.00  0.00    -0.744 OA
ENDBRANCH  74  78
ENDBRANCH  57  71
BRANCH  58  82
ATOM     82  C   UNL A   1      43.429  25.796  26.094  1.00  0.00     0.023 A 
ATOM     83  C   UNL A   1      42.573  24.716  26.382  1.00  0.00     0.031 A 
ATOM     84  C   UNL A   1      44.581  25.525  25.334  1.00  0.00     0.131 A 
ATOM     85  C   UNL A   1      42.908  23.418  25.976  1.00  0.00     0.055 A 
ATOM     86  C   UNL A   1      44.902  24.231  24.911  1.00  0.00     0.041 A 
ATOM     87  F   UNL A   1      45.457  26.503  25.058  1.00  0.00    -0.206 F 
ATOM     88  C   UNL A   1      44.071  23.165  25.247  1.00  0.00     0.022 A 
BRANCH  85  89
ATOM     89  S   UNL A   1      41.882  22.009  26.479  1.00  0.00     0.124 S 
ATOM     90  O   UNL A   1      40.540  22.460  26.119  1.00  0.00    -0.237 OA
ATOM     91  O   UNL A   1      42.428  20.937  25.654  1.00  0.00    -0.237 OA
ATOM     92  O   UNL A   1      42.133  21.900  27.913  1.00  0.00    -0.744 OA
ENDBRANCH  85  89
ENDBRANCH  58  82
BRANCH  70  93
ATOM     93  C   UNL A   1      44.975  31.092  29.252  1.00  0.00     0.023 A 
ATOM     94  C   UNL A   1      46.249  31.678  29.357  1.00  0.00     0.031 A 
ATOM     95  C   UNL A   1      43.999  31.791  28.517  1.00  0.00     0.131 A 
ATOM     96  C   UNL A   1      46.501  32.934  28.794  1.00  0.00     0.055 A 
ATOM     97  C   UNL A   1      44.278  33.011  27.889  1.00  0.00     0.041 A 
ATOM     98  F   UNL A   1      42.729  31.368  28.456  1.00  0.00    -0.206 F 
ATOM     99  C   UNL A   1      45.530  33.597  28.042  1.00  0.00     0.022 A 
BRANCH  96 100
ATOM    100  S   UNL A   1      48.040  33.809  29.175  1.00  0.00     0.124 S 
ATOM    101  O   UNL A   1      48.096  33.718  30.631  1.00  0.00    -0.237 OA
ATOM    102  O   UNL A   1      49.034  33.012  28.457  1.00  0.00    -0.237 OA
ATOM    103  O   UNL A   1      47.826  35.151  28.640  1.00  0.00    -0.744 OA
ENDBRANCH  96 100
ENDBRANCH  70  93
ENDBRANCH  44  45
ENDBRANCH  36  39
ENDBRANCH  34  35
ENDBRANCH  33  34
ENDBRANCH  32  33
ENDBRANCH   1  32
TORSDOF 20
ENDMDL
MODEL 2
REMARK VINA RESULT:     -12.4      1.074      2.429
REMARK SMILES CC[C@@]1(CC(=O)NCCCCCCNC(=O)c2ccc(-c3c4nc(c(-c5cc(S(=O)(=O)[O-])ccc5F)c5ccc([nH]5)c(-c5cc(S(=O)(=O)[O-])ccc5F)c5nc(c(-c6cc(S(=O)(=O)[O-])ccc6F)c6ccc3[nH]6)C=C5)C=C4)cc2)OC[C@H](Cc2ccccc2)c2c1[nH]c1ccccc21
REMARK SMILES IDX 10 1 9 2 8 3 7 4 5 5 6 6 4 8 3 9 80 10 91 11 81 12 90 13
REMARK SMILES IDX 92 14 82 15 98 16 93 17 97 19 94 20 96 21 95 22 2 23 1 24
REMARK SMILES IDX 83 25 84 26 85 27 89 28 86 29 88 30 87 31 11 32 12 33 13 34
REMARK SMILES IDX 14 35 15 36 16 38 17 39 18 40 79 41 19 42 78 43 20 44 21 45
REMARK SMILES IDX 22 46 72 47 23 48 77 49 71 50 73 51 24 52 76 53 70 54 69 55
REMARK SMILES IDX 25 57 57 58 37 59 56 60 38 61 41 62 55 63 74 64 39 65 40 66
REMARK SMILES IDX 54 68 75 69 42 70 26 71 27 72 35 73 28 74 34 75 36 76 33 77
REMARK SMILES IDX 29 78 30 79 31 80 32 81 58 82 59 83 67 84 60 85 66 86 68 87
REMARK SMILES IDX 65 88 61 89 62 90 63 91 64 92 43 93 44 94 52 95 45 96 51 97
REMARK SMILES IDX 53 98 50 99 46 100 47 101 48 102 49 103
REMARK H PARENT 7 7 92 18 14 37 73 56 41 67
REMARK Flexibility Score: inf
ROOT
ATOM      1  C   UNL A   1      31.229  29.322  24.357  1.00  0.00     0.002 C 
ENDROOT
BRANCH   1   2
ATOM      2  C   UNL A   1      29.920  28.588  24.091  1.00  0.00     0.021 C 
BRANCH   2   3
ATOM      3  C   UNL A   1      30.079  27.099  23.800  1.00  0.00     0.116 C 
BRANCH   3   4
ATOM      4  N   UNL A   1      29.668  26.334  24.962  1.00  0.00    -0.356 N 
ATOM      5  C   UNL A   1      30.399  25.494  25.748  1.00  0.00     0.223 C 
ATOM      6  O   UNL A   1      29.799  24.795  26.567  1.00  0.00    -0.275 OA
ATOM      7  H   UNL A   1      28.723  26.437  25.221  1.00  0.00     0.163 HD
BRANCH   5   8
ATOM      8  C   UNL A   1      31.910  25.522  25.690  1.00  0.00     0.142 C 
BRANCH   8   9
ATOM      9  C   UNL A   1      32.574  25.089  24.364  1.00  0.00     0.117 C 
ATOM     10  O   UNL A   1      31.698  24.323  23.514  1.00  0.00    -0.368 OA
ATOM     11  C   UNL A   1      33.724  24.168  24.705  1.00  0.00     0.052 A 
ATOM     12  C   UNL A   1      31.317  23.036  24.003  1.00  0.00     0.170 C 
ATOM     13  C   UNL A   1      33.739  22.797  24.570  1.00  0.00    -0.011 A 
ATOM     14  N   UNL A   1      34.935  24.563  25.203  1.00  0.00    -0.356 N 
ATOM     15  C   UNL A   1      32.517  22.054  24.111  1.00  0.00     0.052 C 
ATOM     16  C   UNL A   1      35.075  22.367  24.811  1.00  0.00     0.003 A 
ATOM     17  C   UNL A   1      35.797  23.491  25.224  1.00  0.00     0.046 A 
ATOM     18  H   UNL A   1      35.157  25.475  25.501  1.00  0.00     0.166 HD
ATOM     19  C   UNL A   1      35.757  21.140  24.699  1.00  0.00     0.010 A 
ATOM     20  C   UNL A   1      37.156  23.444  25.556  1.00  0.00     0.026 A 
ATOM     21  C   UNL A   1      37.122  21.079  25.008  1.00  0.00     0.001 A 
ATOM     22  C   UNL A   1      37.806  22.214  25.436  1.00  0.00     0.002 A 
BRANCH   9  23
ATOM     23  C   UNL A   1      33.125  26.254  23.495  1.00  0.00     0.039 C 
ATOM     24  C   UNL A   1      33.567  25.864  22.086  1.00  0.00     0.007 C 
ENDBRANCH   9  23
BRANCH  15  25
ATOM     25  C   UNL A   1      32.148  20.889  25.051  1.00  0.00     0.046 C 
BRANCH  25  26
ATOM     26  C   UNL A   1      32.515  19.540  24.477  1.00  0.00    -0.047 A 
ATOM     27  C   UNL A   1      33.187  18.596  25.263  1.00  0.00     0.004 A 
ATOM     28  C   UNL A   1      32.254  19.249  23.131  1.00  0.00     0.004 A 
ATOM     29  C   UNL A   1      33.622  17.395  24.705  1.00  0.00     0.000 A 
ATOM     30  C   UNL A   1      32.684  18.043  22.577  1.00  0.00     0.000 A 
ATOM     31  C   UNL A   1      33.373  17.120  23.361  1.00  0.00     0.000 A 
ENDBRANCH  25  26
ENDBRANCH  15  25
ENDBRANCH   8   9
ENDBRANCH   5   8
ENDBRANCH   3   4
ENDBRANCH   2   3
ENDBRANCH   1   2
BRANCH   1  32
ATOM     32  C   UNL A   1      31.776  29.128  25.767  1.00  0.00     0.002 C 
BRANCH  32  33
ATOM     33  C   UNL A   1      31.992  30.420  26.564  1.00  0.00     0.021 C 
BRANCH  33  34
ATOM     34  C   UNL A   1      33.315  30.491  27.331  1.00  0.00     0.116 C 
BRANCH  34  35
ATOM     35  N   UNL A   1      33.846  31.828  27.473  1.00  0.00    -0.352 N 
ATOM     36  C   UNL A   1      35.070  32.345  27.793  1.00  0.00     0.251 C 
ATOM     37  H   UNL A   1      33.173  32.526  27.300  1.00  0.00     0.163 HD
ATOM     38  O   UNL A   1      35.166  33.574  27.743  1.00  0.00    -0.269 OA
BRANCH  36  39
ATOM     39  C   UNL A   1      36.238  31.546  28.259  1.00  0.00     0.039 A 
ATOM     40  C   UNL A   1      37.193  31.968  29.182  1.00  0.00     0.014 A 
ATOM     41  C   UNL A   1      36.396  30.282  27.662  1.00  0.00     0.014 A 
ATOM     42  C   UNL A   1      38.348  31.222  29.389  1.00  0.00     0.010 A 
ATOM     43  C   UNL A   1      37.528  29.511  27.897  1.00  0.00     0.010 A 
ATOM     44  C   UNL A   1      38.535  30.013  28.713  1.00  0.00    -0.014 A 
BRANCH  44  45
ATOM     45  C   UNL A   1      39.776  29.285  28.963  1.00  0.00     0.031 A 
ATOM     46  C   UNL A   1      40.052  28.992  30.398  1.00  0.00     0.074 A 
ATOM     47  C   UNL A   1      40.592  28.835  27.990  1.00  0.00     0.049 A 
ATOM     48  N   UNL A   1      40.994  29.468  31.146  1.00  0.00    -0.248 NA
ATOM     49  C   UNL A   1      39.070  28.172  31.121  1.00  0.00     0.031 C 
ATOM     50  C   UNL A   1      40.343  28.766  26.546  1.00  0.00     0.029 A 
ATOM     51  N   UNL A   1      41.814  28.247  28.114  1.00  0.00    -0.354 N 
ATOM     52  C   UNL A   1      40.838  28.866  32.397  1.00  0.00     0.074 A 
ATOM     53  C   UNL A   1      39.558  28.201  32.361  1.00  0.00     0.031 C 
ATOM     54  C   UNL A   1      41.268  27.962  25.972  1.00  0.00     0.029 A 
ATOM     55  C   UNL A   1      42.261  27.603  26.970  1.00  0.00     0.049 A 
ATOM     56  H   UNL A   1      42.337  28.277  28.948  1.00  0.00     0.167 HD
ATOM     57  C   UNL A   1      41.849  28.811  33.310  1.00  0.00     0.034 A 
ATOM     58  C   UNL A   1      43.337  26.782  26.868  1.00  0.00     0.034 A 
ATOM     59  C   UNL A   1      42.908  29.722  32.976  1.00  0.00     0.049 A 
ATOM     60  C   UNL A   1      44.225  27.044  28.026  1.00  0.00     0.074 A 
ATOM     61  C   UNL A   1      43.027  31.094  32.897  1.00  0.00     0.029 A 
ATOM     62  N   UNL A   1      44.000  29.211  32.320  1.00  0.00    -0.354 N 
ATOM     63  N   UNL A   1      44.909  28.141  28.190  1.00  0.00    -0.248 NA
ATOM     64  C   UNL A   1      44.017  26.247  29.224  1.00  0.00     0.031 C 
ATOM     65  C   UNL A   1      43.910  31.324  31.805  1.00  0.00     0.029 A 
ATOM     66  C   UNL A   1      44.322  30.083  31.313  1.00  0.00     0.049 A 
ATOM     67  H   UNL A   1      44.468  28.372  32.534  1.00  0.00     0.167 HD
ATOM     68  C   UNL A   1      44.816  28.403  29.548  1.00  0.00     0.074 A 
ATOM     69  C   UNL A   1      44.348  27.154  30.146  1.00  0.00     0.031 C 
ATOM     70  C   UNL A   1      44.858  29.680  30.029  1.00  0.00     0.034 A 
BRANCH  57  71
ATOM     71  C   UNL A   1      42.029  27.707  34.327  1.00  0.00     0.023 A 
ATOM     72  C   UNL A   1      42.829  26.575  34.090  1.00  0.00     0.031 A 
ATOM     73  C   UNL A   1      41.590  27.877  35.658  1.00  0.00     0.131 A 
ATOM     74  C   UNL A   1      43.161  25.678  35.115  1.00  0.00     0.055 A 
ATOM     75  C   UNL A   1      41.977  27.019  36.697  1.00  0.00     0.041 A 
ATOM     76  F   UNL A   1      40.821  28.921  36.005  1.00  0.00    -0.206 F 
ATOM     77  C   UNL A   1      42.769  25.913  36.427  1.00  0.00     0.022 A 
BRANCH  74  78
ATOM     78  S   UNL A   1      44.131  24.191  34.745  1.00  0.00     0.124 S 
ATOM     79  O   UNL A   1      44.908  24.623  33.582  1.00  0.00    -0.237 OA
ATOM     80  O   UNL A   1      44.893  24.023  35.983  1.00  0.00    -0.237 OA
ATOM     81  O   UNL A   1      43.122  23.175  34.497  1.00  0.00    -0.744 OA
ENDBRANCH  74  78
ENDBRANCH  57  71
BRANCH  58  82
ATOM     82  C   UNL A   1      43.382  25.484  26.156  1.00  0.00     0.023 A 
ATOM     83  C   UNL A   1      42.479  24.465  26.516  1.00  0.00     0.031 A 
ATOM     84  C   UNL A   1      44.504  25.117  25.393  1.00  0.00     0.131 A 
ATOM     85  C   UNL A   1      42.742  23.132  26.173  1.00  0.00     0.055 A 
ATOM     86  C   UNL A   1      44.753  23.787  25.033  1.00  0.00     0.041 A 
ATOM     87  F   UNL A   1      45.422  26.034  25.050  1.00  0.00    -0.206 F 
ATOM     88  C   UNL A   1      43.877  22.784  25.440  1.00  0.00     0.022 A 
BRANCH  85  89
ATOM     89  S   UNL A   1      41.658  21.805  26.769  1.00  0.00     0.124 S 
ATOM     90  O   UNL A   1      40.676  22.541  27.561  1.00  0.00    -0.237 OA
ATOM     91  O   UNL A   1      41.163  21.244  25.516  1.00  0.00    -0.237 OA
ATOM     92  O   UNL A   1      42.557  20.951  27.538  1.00  0.00    -0.744 OA
ENDBRANCH  85  89
ENDBRANCH  58  82
BRANCH  70  93
ATOM     93  C   UNL A   1      45.251  30.803  29.094  1.00  0.00     0.023 A 
ATOM     94  C   UNL A   1      46.562  31.299  29.209  1.00  0.00     0.031 A 
ATOM     95  C   UNL A   1      44.349  31.533  28.296  1.00  0.00     0.131 A 
ATOM     96  C   UNL A   1      46.922  32.501  28.593  1.00  0.00     0.055 A 
ATOM     97  C   UNL A   1      44.736  32.695  27.617  1.00  0.00     0.041 A 
ATOM     98  F   UNL A   1      43.054  31.202  28.218  1.00  0.00    -0.206 F 
ATOM     99  C   UNL A   1      46.023  33.195  27.780  1.00  0.00     0.022 A 
BRANCH  96 100
ATOM    100  S   UNL A   1      48.511  33.280  28.976  1.00  0.00     0.124 S 
ATOM    101  O   UNL A   1      48.187  34.700  28.900  1.00  0.00    -0.237 OA
ATOM    102  O   UNL A   1      48.789  32.769  30.319  1.00  0.00    -0.237 OA
ATOM    103  O   UNL A   1      49.408  32.786  27.934  1.00  0.00    -0.744 OA
ENDBRANCH  96 100
ENDBRANCH  70  93
ENDBRANCH  44  45
ENDBRANCH  36  39
ENDBRANCH  34  35
ENDBRANCH  33  34
ENDBRANCH  32  33
ENDBRANCH   1  32
TORSDOF 20
ENDMDL
MODEL 3
REMARK VINA RESULT:     -12.2      2.785      8.581
REMARK SMILES CC[C@@]1(CC(=O)NCCCCCCNC(=O)c2ccc(-c3c4nc(c(-c5cc(S(=O)(=O)[O-])ccc5F)c5ccc([nH]5)c(-c5cc(S(=O)(=O)[O-])ccc5F)c5nc(c(-c6cc(S(=O)(=O)[O-])ccc6F)c6ccc3[nH]6)C=C5)C=C4)cc2)OC[C@H](Cc2ccccc2)c2c1[nH]c1ccccc21
REMARK SMILES IDX 10 1 9 2 8 3 7 4 5 5 6 6 4 8 3 9 80 10 91 11 81 12 90 13
REMARK SMILES IDX 92 14 82 15 98 16 93 17 97 19 94 20 96 21 95 22 2 23 1 24
REMARK SMILES IDX 83 25 84 26 85 27 89 28 86 29 88 30 87 31 11 32 12 33 13 34
REMARK SMILES IDX 14 35 15 36 16 38 17 39 18 40 79 41 19 42 78 43 20 44 21 45
REMARK SMILES IDX 22 46 72 47 23 48 77 49 71 50 73 51 24 52 76 53 70 54 69 55
REMARK SMILES IDX 25 57 57 58 37 59 56 60 38 61 41 62 55 63 74 64 39 65 40 66
REMARK SMILES IDX 54 68 75 69 42 70 26 71 27 72 35 73 28 74 34 75 36 76 33 77
REMARK SMILES IDX 29 78 30 79 31 80 32 81 58 82 59 83 67 84 60 85 66 86 68 87
REMARK SMILES IDX 65 88 61 89 62 90 63 91 64 92 43 93 44 94 52 95 45 96 51 97
REMARK SMILES IDX 53 98 50 99 46 100 47 101 48 102 49 103
REMARK H PARENT 7 7 92 18 14 37 73 56 41 67
REMARK Flexibility Score: inf
ROOT
ATOM      1  C   UNL A   1      36.811  21.629  24.731  1.00  0.00     0.002 C 
ENDROOT
BRANCH   1   2
ATOM      2  C   UNL A   1      36.782  23.151  24.648  1.00  0.00     0.021 C 
BRANCH   2   3
ATOM      3  C   UNL A   1      36.043  23.833  25.794  1.00  0.00     0.116 C 
BRANCH   3   4
ATOM      4  N   UNL A   1      35.082  22.908  26.365  1.00  0.00    -0.356 N 
ATOM      5  C   UNL A   1      33.758  23.090  26.632  1.00  0.00     0.223 C 
ATOM      6  O   UNL A   1      33.176  22.234  27.301  1.00  0.00    -0.275 OA
ATOM      7  H   UNL A   1      35.438  22.019  26.593  1.00  0.00     0.163 HD
BRANCH   5   8
ATOM      8  C   UNL A   1      33.011  24.252  26.014  1.00  0.00     0.142 C 
BRANCH   8   9
ATOM      9  C   UNL A   1      32.550  24.097  24.548  1.00  0.00     0.117 C 
ATOM     10  O   UNL A   1      33.620  24.264  23.596  1.00  0.00    -0.368 OA
ATOM     11  C   UNL A   1      31.565  25.205  24.256  1.00  0.00     0.052 A 
ATOM     12  C   UNL A   1      34.188  25.572  23.514  1.00  0.00     0.170 C 
ATOM     13  C   UNL A   1      31.813  26.346  23.523  1.00  0.00    -0.011 A 
ATOM     14  N   UNL A   1      30.264  25.242  24.679  1.00  0.00    -0.356 N 
ATOM     15  C   UNL A   1      33.183  26.631  22.981  1.00  0.00     0.052 C 
ATOM     16  C   UNL A   1      30.562  27.001  23.332  1.00  0.00     0.003 A 
ATOM     17  C   UNL A   1      29.615  26.298  24.083  1.00  0.00     0.046 A 
ATOM     18  H   UNL A   1      29.855  24.609  25.313  1.00  0.00     0.166 HD
ATOM     19  C   UNL A   1      30.129  28.108  22.579  1.00  0.00     0.010 A 
ATOM     20  C   UNL A   1      28.264  26.663  24.140  1.00  0.00     0.026 A 
ATOM     21  C   UNL A   1      28.777  28.475  22.607  1.00  0.00     0.001 A 
ATOM     22  C   UNL A   1      27.863  27.765  23.382  1.00  0.00     0.002 A 
BRANCH   9  23
ATOM     23  C   UNL A   1      31.870  22.740  24.214  1.00  0.00     0.039 C 
ATOM     24  C   UNL A   1      32.003  22.283  22.764  1.00  0.00     0.007 C 
ENDBRANCH   9  23
BRANCH  15  25
ATOM     25  C   UNL A   1      33.680  28.043  23.348  1.00  0.00     0.046 C 
BRANCH  25  26
ATOM     26  C   UNL A   1      33.267  28.461  24.741  1.00  0.00    -0.047 A 
ATOM     27  C   UNL A   1      33.748  27.768  25.859  1.00  0.00     0.004 A 
ATOM     28  C   UNL A   1      32.340  29.495  24.925  1.00  0.00     0.004 A 
ATOM     29  C   UNL A   1      33.284  28.082  27.135  1.00  0.00     0.000 A 
ATOM     30  C   UNL A   1      31.883  29.812  26.204  1.00  0.00     0.000 A 
ATOM     31  C   UNL A   1      32.350  29.101  27.308  1.00  0.00     0.000 A 
ENDBRANCH  25  26
ENDBRANCH  15  25
ENDBRANCH   8   9
ENDBRANCH   5   8
ENDBRANCH   3   4
ENDBRANCH   2   3
ENDBRANCH   1   2
BRANCH   1  32
ATOM     32  C   UNL A   1      38.179  21.052  25.083  1.00  0.00     0.002 C 
BRANCH  32  33
ATOM     33  C   UNL A   1      38.997  21.881  26.080  1.00  0.00     0.021 C 
BRANCH  33  34
ATOM     34  C   UNL A   1      40.377  21.308  26.414  1.00  0.00     0.116 C 
BRANCH  34  35
ATOM     35  N   UNL A   1      41.457  21.879  25.641  1.00  0.00    -0.352 N 
ATOM     36  C   UNL A   1      42.131  23.068  25.667  1.00  0.00     0.251 C 
ATOM     37  H   UNL A   1      41.781  21.274  24.934  1.00  0.00     0.163 HD
ATOM     38  O   UNL A   1      43.071  23.171  24.874  1.00  0.00    -0.269 OA
BRANCH  36  39
ATOM     39  C   UNL A   1      41.765  24.237  26.514  1.00  0.00     0.039 A 
ATOM     40  C   UNL A   1      40.781  25.178  26.217  1.00  0.00     0.014 A 
ATOM     41  C   UNL A   1      42.530  24.414  27.682  1.00  0.00     0.014 A 
ATOM     42  C   UNL A   1      40.664  26.337  26.975  1.00  0.00     0.010 A 
ATOM     43  C   UNL A   1      42.389  25.551  28.469  1.00  0.00     0.010 A 
ATOM     44  C   UNL A   1      41.498  26.543  28.077  1.00  0.00    -0.014 A 
BRANCH  44  45
ATOM     45  C   UNL A   1      41.335  27.788  28.824  1.00  0.00     0.031 A 
ATOM     46  C   UNL A   1      42.341  28.843  28.509  1.00  0.00     0.074 A 
ATOM     47  C   UNL A   1      40.324  28.022  29.683  1.00  0.00     0.049 A 
ATOM     48  N   UNL A   1      43.271  29.316  29.273  1.00  0.00    -0.248 NA
ATOM     49  C   UNL A   1      42.400  29.327  27.124  1.00  0.00     0.031 C 
ATOM     50  C   UNL A   1      39.103  27.239  29.893  1.00  0.00     0.029 A 
ATOM     51  N   UNL A   1      40.142  29.093  30.504  1.00  0.00    -0.354 N 
ATOM     52  C   UNL A   1      43.925  30.297  28.525  1.00  0.00     0.074 A 
ATOM     53  C   UNL A   1      43.445  30.153  27.173  1.00  0.00     0.031 C 
ATOM     54  C   UNL A   1      38.213  27.980  30.595  1.00  0.00     0.029 A 
ATOM     55  C   UNL A   1      38.861  29.208  31.022  1.00  0.00     0.049 A 
ATOM     56  H   UNL A   1      40.861  29.733  30.712  1.00  0.00     0.167 HD
ATOM     57  C   UNL A   1      44.683  31.272  29.106  1.00  0.00     0.034 A 
ATOM     58  C   UNL A   1      38.352  30.267  31.702  1.00  0.00     0.034 A 
ATOM     59  C   UNL A   1      44.996  30.949  30.470  1.00  0.00     0.049 A 
ATOM     60  C   UNL A   1      39.486  31.073  32.212  1.00  0.00     0.074 A 
ATOM     61  C   UNL A   1      45.739  29.970  31.096  1.00  0.00     0.029 A 
ATOM     62  N   UNL A   1      44.220  31.517  31.450  1.00  0.00    -0.354 N 
ATOM     63  N   UNL A   1      40.294  30.683  33.158  1.00  0.00    -0.248 NA
ATOM     64  C   UNL A   1      39.981  32.145  31.364  1.00  0.00     0.031 C 
ATOM     65  C   UNL A   1      45.032  29.684  32.297  1.00  0.00     0.029 A 
ATOM     66  C   UNL A   1      43.929  30.538  32.364  1.00  0.00     0.049 A 
ATOM     67  H   UNL A   1      43.926  32.456  31.489  1.00  0.00     0.167 HD
ATOM     68  C   UNL A   1      41.542  31.121  32.744  1.00  0.00     0.074 A 
ATOM     69  C   UNL A   1      41.274  32.101  31.693  1.00  0.00     0.031 C 
ATOM     70  C   UNL A   1      42.680  30.451  33.092  1.00  0.00     0.034 A 
BRANCH  57  71
ATOM     71  C   UNL A   1      44.870  32.663  28.545  1.00  0.00     0.023 A 
ATOM     72  C   UNL A   1      46.047  33.069  27.891  1.00  0.00     0.031 A 
ATOM     73  C   UNL A   1      43.777  33.551  28.444  1.00  0.00     0.131 A 
ATOM     74  C   UNL A   1      46.120  34.279  27.188  1.00  0.00     0.055 A 
ATOM     75  C   UNL A   1      43.828  34.728  27.685  1.00  0.00     0.041 A 
ATOM     76  F   UNL A   1      42.602  33.271  29.028  1.00  0.00    -0.206 F 
ATOM     77  C   UNL A   1      45.005  35.097  27.050  1.00  0.00     0.022 A 
BRANCH  74  78
ATOM     78  S   UNL A   1      47.683  34.796  26.424  1.00  0.00     0.124 S 
ATOM     79  O   UNL A   1      47.789  36.184  26.873  1.00  0.00    -0.237 OA
ATOM     80  O   UNL A   1      48.630  33.863  27.034  1.00  0.00    -0.237 OA
ATOM     81  O   UNL A   1      47.450  34.601  25.003  1.00  0.00    -0.744 OA
ENDBRANCH  74  78
ENDBRANCH  57  71
BRANCH  58  82
ATOM     82  C   UNL A   1      37.019  30.879  31.495  1.00  0.00     0.023 A 
ATOM     83  C   UNL A   1      36.547  31.085  30.185  1.00  0.00     0.031 A 
ATOM     84  C   UNL A   1      36.373  31.573  32.533  1.00  0.00     0.131 A 
ATOM     85  C   UNL A   1      35.516  32.001  29.939  1.00  0.00     0.055 A 
ATOM     86  C   UNL A   1      35.329  32.471  32.287  1.00  0.00     0.041 A 
ATOM     87  F   UNL A   1      36.799  31.450  33.800  1.00  0.00    -0.206 F 
ATOM     88  C   UNL A   1      34.907  32.702  30.980  1.00  0.00     0.022 A 
BRANCH  85  89
ATOM     89  S   UNL A   1      35.014  32.377  28.236  1.00  0.00     0.124 S 
ATOM     90  O   UNL A   1      36.018  33.358  27.829  1.00  0.00    -0.237 OA
ATOM     91  O   UNL A   1      35.120  31.069  27.601  1.00  0.00    -0.237 OA
ATOM     92  O   UNL A   1      33.662  32.905  28.388  1.00  0.00    -0.744 OA
ENDBRANCH  85  89
ENDBRANCH  58  82
BRANCH  70  93
ATOM     93  C   UNL A   1      42.598  29.360  34.137  1.00  0.00     0.023 A 
ATOM     94  C   UNL A   1      43.298  29.574  35.338  1.00  0.00     0.031 A 
ATOM     95  C   UNL A   1      42.078  28.071  33.910  1.00  0.00     0.131 A 
ATOM     96  C   UNL A   1      43.507  28.520  36.234  1.00  0.00     0.055 A 
ATOM     97  C   UNL A   1      42.224  27.040  34.845  1.00  0.00     0.041 A 
ATOM     98  F   UNL A   1      41.497  27.743  32.749  1.00  0.00    -0.206 F 
ATOM     99  C   UNL A   1      42.958  27.257  36.006  1.00  0.00     0.022 A 
BRANCH  96 100
ATOM    100  S   UNL A   1      44.646  28.724  37.627  1.00  0.00     0.124 S 
ATOM    101  O   UNL A   1      45.949  28.688  36.970  1.00  0.00    -0.237 OA
ATOM    102  O   UNL A   1      44.248  30.026  38.162  1.00  0.00    -0.237 OA
ATOM    103  O   UNL A   1      44.351  27.588  38.496  1.00  0.00    -0.744 OA
ENDBRANCH  96 100
ENDBRANCH  70  93
ENDBRANCH  44  45
ENDBRANCH  36  39
ENDBRANCH  34  35
ENDBRANCH  33  34
ENDBRANCH  32  33
ENDBRANCH   1  32
TORSDOF 20
ENDMDL
