MODEL 1
REMARK VINA RESULT:     -11.9      0.000      0.000
REMARK SMILES O=C(NCCCCCCNC(=O)c1ccc2nc(C3CCCCC3)[nH]c2c1)c1ccc(-c2c3nc(c(-c4cc(S(=O)(=O)[O-])ccc4F)c4ccc([nH]4)c(-c4cc(S(=O)(=O)[O-])ccc4F)c4nc(c(-c5cc(S(=O)(=O)[O-])ccc5F)c5ccc2[nH]5)C=C4)C=C3)cc1
REMARK SMILES IDX 5 1 4 2 3 3 1 4 2 5 28 7 29 8 90 9 30 10 89 11 31 12 32 13
REMARK SMILES IDX 33 14 83 15 34 16 88 17 82 18 84 19 35 20 87 21 81 22 80 23
REMARK SMILES IDX 36 25 68 26 48 27 67 28 49 29 52 30 66 31 85 32 50 33 51 34
REMARK SMILES IDX 65 36 86 37 53 38 37 39 38 40 46 41 39 42 45 43 47 44 44 45
REMARK SMILES IDX 40 46 41 47 42 48 43 49 69 50 70 51 78 52 71 53 77 54 79 55
REMARK SMILES IDX 76 56 72 57 73 58 74 59 75 60 54 61 55 62 63 63 56 64 62 65
REMARK SMILES IDX 64 66 61 67 57 68 58 69 59 70 60 71 6 72 7 73 8 74 9 75
REMARK SMILES IDX 10 76 11 77 12 79 13 80 14 81 27 82 15 83 26 84 16 85 25 86
REMARK SMILES IDX 17 87 18 88 19 90 20 91 24 92 21 93 23 94 22 95
REMARK H PARENT 3 6 84 24 52 35 10 78 25 89
REMARK Flexibility Score: inf
ROOT
ATOM      1  C   UNL A   1      32.721  27.935  25.683  1.00  0.00     0.021 C 
ENDROOT
BRANCH   1   2
ATOM      2  C   UNL A   1      33.290  29.232  25.117  1.00  0.00     0.116 C 
BRANCH   2   3
ATOM      3  N   UNL A   1      32.644  30.407  25.678  1.00  0.00    -0.352 N 
ATOM      4  O   UNL A   1      32.174  31.959  27.239  1.00  0.00    -0.269 OA
ATOM      5  C   UNL A   1      32.948  31.103  26.820  1.00  0.00     0.251 C 
ATOM      6  H   UNL A   1      31.878  30.752  25.165  1.00  0.00     0.163 HD
BRANCH   5   7
ATOM      7  C   UNL A   1      34.201  30.813  27.551  1.00  0.00     0.039 A 
ATOM      8  C   UNL A   1      34.419  29.559  28.132  1.00  0.00     0.014 A 
ATOM      9  C   UNL A   1      35.182  31.803  27.628  1.00  0.00     0.014 A 
ATOM     10  C   UNL A   1      35.572  29.332  28.880  1.00  0.00     0.010 A 
ATOM     11  C   UNL A   1      36.367  31.550  28.322  1.00  0.00     0.010 A 
ATOM     12  C   UNL A   1      36.563  30.321  28.972  1.00  0.00    -0.014 A 
BRANCH  12  13
ATOM     13  C   UNL A   1      37.824  30.058  29.710  1.00  0.00     0.031 A 
ATOM     14  C   UNL A   1      38.847  29.110  29.156  1.00  0.00     0.074 A 
ATOM     15  C   UNL A   1      38.022  30.646  30.905  1.00  0.00     0.049 A 
ATOM     16  N   UNL A   1      39.946  28.660  29.707  1.00  0.00    -0.248 NA
ATOM     17  C   UNL A   1      38.589  28.586  27.807  1.00  0.00     0.031 C 
ATOM     18  C   UNL A   1      37.101  31.591  31.538  1.00  0.00     0.029 A 
ATOM     19  N   UNL A   1      39.047  30.523  31.807  1.00  0.00    -0.354 N 
ATOM     20  C   UNL A   1      40.504  27.783  28.784  1.00  0.00     0.074 A 
ATOM     21  C   UNL A   1      39.597  27.739  27.653  1.00  0.00     0.031 C 
ATOM     22  C   UNL A   1      37.602  31.962  32.726  1.00  0.00     0.029 A 
ATOM     23  C   UNL A   1      38.840  31.229  32.969  1.00  0.00     0.049 A 
ATOM     24  H   UNL A   1      39.854  29.983  31.640  1.00  0.00     0.167 HD
ATOM     25  C   UNL A   1      41.665  27.085  28.873  1.00  0.00     0.034 A 
ATOM     26  C   UNL A   1      39.537  31.249  34.121  1.00  0.00     0.034 A 
ATOM     27  C   UNL A   1      42.543  27.137  30.019  1.00  0.00     0.049 A 
ATOM     28  C   UNL A   1      40.784  30.415  34.233  1.00  0.00     0.074 A 
ATOM     29  C   UNL A   1      43.758  26.500  30.206  1.00  0.00     0.029 A 
ATOM     30  N   UNL A   1      42.290  27.852  31.186  1.00  0.00    -0.354 N 
ATOM     31  N   UNL A   1      41.311  29.600  33.349  1.00  0.00    -0.248 NA
ATOM     32  C   UNL A   1      41.533  30.505  35.492  1.00  0.00     0.031 C 
ATOM     33  C   UNL A   1      44.197  26.763  31.508  1.00  0.00     0.029 A 
ATOM     34  C   UNL A   1      43.306  27.640  32.107  1.00  0.00     0.049 A 
ATOM     35  H   UNL A   1      41.504  28.424  31.336  1.00  0.00     0.167 HD
ATOM     36  C   UNL A   1      42.473  29.106  33.933  1.00  0.00     0.074 A 
ATOM     37  C   UNL A   1      42.566  29.711  35.247  1.00  0.00     0.031 C 
ATOM     38  C   UNL A   1      43.386  28.242  33.419  1.00  0.00     0.034 A 
BRANCH  25  39
ATOM     39  C   UNL A   1      42.009  26.163  27.723  1.00  0.00     0.023 A 
ATOM     40  C   UNL A   1      41.576  24.826  27.691  1.00  0.00     0.031 A 
ATOM     41  C   UNL A   1      42.831  26.610  26.672  1.00  0.00     0.131 A 
ATOM     42  C   UNL A   1      42.047  23.960  26.691  1.00  0.00     0.055 A 
ATOM     43  C   UNL A   1      43.218  25.768  25.628  1.00  0.00     0.041 A 
ATOM     44  F   UNL A   1      43.294  27.870  26.655  1.00  0.00    -0.206 F 
ATOM     45  C   UNL A   1      42.845  24.428  25.645  1.00  0.00     0.022 A 
BRANCH  42  46
ATOM     46  S   UNL A   1      41.761  22.178  26.889  1.00  0.00     0.124 S 
ATOM     47  O   UNL A   1      42.158  21.666  25.579  1.00  0.00    -0.237 OA
ATOM     48  O   UNL A   1      42.643  21.839  28.000  1.00  0.00    -0.237 OA
ATOM     49  O   UNL A   1      40.331  22.090  27.174  1.00  0.00    -0.744 OA
ENDBRANCH  42  46
ENDBRANCH  25  39
BRANCH  26  50
ATOM     50  C   UNL A   1      39.032  32.051  35.269  1.00  0.00     0.023 A 
ATOM     51  C   UNL A   1      38.410  31.440  36.367  1.00  0.00     0.031 A 
ATOM     52  C   UNL A   1      39.192  33.449  35.291  1.00  0.00     0.131 A 
ATOM     53  C   UNL A   1      37.953  32.228  37.436  1.00  0.00     0.055 A 
ATOM     54  C   UNL A   1      38.780  34.223  36.376  1.00  0.00     0.041 A 
ATOM     55  F   UNL A   1      39.791  34.079  34.268  1.00  0.00    -0.206 F 
ATOM     56  C   UNL A   1      38.149  33.612  37.455  1.00  0.00     0.022 A 
BRANCH  53  57
ATOM     57  S   UNL A   1      37.058  31.422  38.791  1.00  0.00     0.124 S 
ATOM     58  O   UNL A   1      35.833  32.210  38.847  1.00  0.00    -0.237 OA
ATOM     59  O   UNL A   1      36.922  30.056  38.295  1.00  0.00    -0.237 OA
ATOM     60  O   UNL A   1      37.956  31.580  39.933  1.00  0.00    -0.744 OA
ENDBRANCH  53  57
ENDBRANCH  26  50
BRANCH  38  61
ATOM     61  C   UNL A   1      44.608  27.948  34.254  1.00  0.00     0.023 A 
ATOM     62  C   UNL A   1      44.670  26.855  35.135  1.00  0.00     0.031 A 
ATOM     63  C   UNL A   1      45.744  28.770  34.137  1.00  0.00     0.131 A 
ATOM     64  C   UNL A   1      45.835  26.631  35.886  1.00  0.00     0.055 A 
ATOM     65  C   UNL A   1      46.916  28.513  34.847  1.00  0.00     0.041 A 
ATOM     66  F   UNL A   1      45.736  29.832  33.314  1.00  0.00    -0.206 F 
ATOM     67  C   UNL A   1      46.964  27.441  35.733  1.00  0.00     0.022 A 
BRANCH  64  68
ATOM     68  S   UNL A   1      45.843  25.296  37.115  1.00  0.00     0.124 S 
ATOM     69  O   UNL A   1      46.848  25.765  38.065  1.00  0.00    -0.237 OA
ATOM     70  O   UNL A   1      44.465  25.299  37.592  1.00  0.00    -0.237 OA
ATOM     71  O   UNL A   1      46.226  24.118  36.339  1.00  0.00    -0.744 OA
ENDBRANCH  64  68
ENDBRANCH  38  61
ENDBRANCH  12  13
ENDBRANCH   5   7
ENDBRANCH   2   3
ENDBRANCH   1   2
BRANCH   1  72
ATOM     72  C   UNL A   1      33.726  26.787  25.808  1.00  0.00     0.002 C 
BRANCH  72  73
ATOM     73  C   UNL A   1      33.131  25.432  26.200  1.00  0.00     0.002 C 
BRANCH  73  74
ATOM     74  C   UNL A   1      33.799  24.211  25.564  1.00  0.00     0.021 C 
BRANCH  74  75
ATOM     75  C   UNL A   1      34.709  24.519  24.377  1.00  0.00     0.116 C 
BRANCH  75  76
ATOM     76  N   UNL A   1      34.361  23.727  23.208  1.00  0.00    -0.352 N 
ATOM     77  C   UNL A   1      33.209  23.752  22.468  1.00  0.00     0.251 C 
ATOM     78  H   UNL A   1      35.046  23.086  22.908  1.00  0.00     0.163 HD
ATOM     79  O   UNL A   1      32.989  22.891  21.620  1.00  0.00    -0.269 OA
BRANCH  77  80
ATOM     80  C   UNL A   1      32.207  24.809  22.716  1.00  0.00     0.042 A 
ATOM     81  C   UNL A   1      31.048  24.531  23.454  1.00  0.00     0.016 A 
ATOM     82  C   UNL A   1      32.467  26.087  22.202  1.00  0.00     0.042 A 
ATOM     83  C   UNL A   1      30.075  25.519  23.649  1.00  0.00     0.031 A 
ATOM     84  C   UNL A   1      31.479  27.049  22.419  1.00  0.00     0.066 A 
ATOM     85  C   UNL A   1      30.301  26.796  23.115  1.00  0.00     0.089 A 
ATOM     86  N   UNL A   1      31.381  28.366  22.059  1.00  0.00    -0.342 N 
ATOM     87  N   UNL A   1      29.517  27.919  23.170  1.00  0.00    -0.233 NA
ATOM     88  C   UNL A   1      30.187  28.857  22.533  1.00  0.00     0.110 A 
ATOM     89  H   UNL A   1      32.051  28.874  21.549  1.00  0.00     0.168 HD
BRANCH  88  90
ATOM     90  C   UNL A   1      29.765  30.285  22.370  1.00  0.00     0.055 C 
ATOM     91  C   UNL A   1      28.724  30.413  21.248  1.00  0.00     0.011 C 
ATOM     92  C   UNL A   1      29.250  30.885  23.686  1.00  0.00     0.011 C 
ATOM     93  C   UNL A   1      28.255  31.855  21.076  1.00  0.00     0.001 C 
ATOM     94  C   UNL A   1      28.777  32.325  23.499  1.00  0.00     0.001 C 
ATOM     95  C   UNL A   1      27.736  32.433  22.388  1.00  0.00     0.000 C 
ENDBRANCH  88  90
ENDBRANCH  77  80
ENDBRANCH  75  76
ENDBRANCH  74  75
ENDBRANCH  73  74
ENDBRANCH  72  73
ENDBRANCH   1  72
TORSDOF 17
ENDMDL
MODEL 2
REMARK VINA RESULT:     -11.8      5.436     10.535
REMARK SMILES O=C(NCCCCCCNC(=O)c1ccc2nc(C3CCCCC3)[nH]c2c1)c1ccc(-c2c3nc(c(-c4cc(S(=O)(=O)[O-])ccc4F)c4ccc([nH]4)c(-c4cc(S(=O)(=O)[O-])ccc4F)c4nc(c(-c5cc(S(=O)(=O)[O-])ccc5F)c5ccc2[nH]5)C=C4)C=C3)cc1
REMARK SMILES IDX 5 1 4 2 3 3 1 4 2 5 28 7 29 8 90 9 30 10 89 11 31 12 32 13
REMARK SMILES IDX 33 14 83 15 34 16 88 17 82 18 84 19 35 20 87 21 81 22 80 23
REMARK SMILES IDX 36 25 68 26 48 27 67 28 49 29 52 30 66 31 85 32 50 33 51 34
REMARK SMILES IDX 65 36 86 37 53 38 37 39 38 40 46 41 39 42 45 43 47 44 44 45
REMARK SMILES IDX 40 46 41 47 42 48 43 49 69 50 70 51 78 52 71 53 77 54 79 55
REMARK SMILES IDX 76 56 72 57 73 58 74 59 75 60 54 61 55 62 63 63 56 64 62 65
REMARK SMILES IDX 64 66 61 67 57 68 58 69 59 70 60 71 6 72 7 73 8 74 9 75
REMARK SMILES IDX 10 76 11 77 12 79 13 80 14 81 27 82 15 83 26 84 16 85 25 86
REMARK SMILES IDX 17 87 18 88 19 90 20 91 24 92 21 93 23 94 22 95
REMARK H PARENT 3 6 84 24 52 35 10 78 25 89
REMARK Flexibility Score: inf
ROOT
ATOM      1  C   UNL A   1      35.478  22.562  24.264  1.00  0.00     0.021 C 
ENDROOT
BRANCH   1   2
ATOM      2  C   UNL A   1      36.105  22.314  25.632  1.00  0.00     0.116 C 
BRANCH   2   3
ATOM      3  N   UNL A   1      36.990  21.161  25.630  1.00  0.00    -0.352 N 
ATOM      4  O   UNL A   1      38.955  20.065  25.584  1.00  0.00    -0.269 OA
ATOM      5  C   UNL A   1      38.349  21.109  25.807  1.00  0.00     0.251 C 
ATOM      6  H   UNL A   1      36.551  20.293  25.479  1.00  0.00     0.163 HD
BRANCH   5   7
ATOM      7  C   UNL A   1      39.083  22.313  26.254  1.00  0.00     0.039 A 
ATOM      8  C   UNL A   1      38.717  23.586  25.803  1.00  0.00     0.014 A 
ATOM      9  C   UNL A   1      40.133  22.165  27.162  1.00  0.00     0.014 A 
ATOM     10  C   UNL A   1      39.468  24.697  26.176  1.00  0.00     0.010 A 
ATOM     11  C   UNL A   1      40.843  23.289  27.587  1.00  0.00     0.010 A 
ATOM     12  C   UNL A   1      40.530  24.561  27.082  1.00  0.00    -0.014 A 
BRANCH  12  13
ATOM     13  C   UNL A   1      41.290  25.753  27.536  1.00  0.00     0.031 A 
ATOM     14  C   UNL A   1      40.635  26.789  28.403  1.00  0.00     0.074 A 
ATOM     15  C   UNL A   1      42.562  25.919  27.127  1.00  0.00     0.049 A 
ATOM     16  N   UNL A   1      41.092  27.950  28.797  1.00  0.00    -0.248 NA
ATOM     17  C   UNL A   1      39.278  26.482  28.875  1.00  0.00     0.031 C 
ATOM     18  C   UNL A   1      43.304  24.975  26.290  1.00  0.00     0.029 A 
ATOM     19  N   UNL A   1      43.448  26.944  27.340  1.00  0.00    -0.354 N 
ATOM     20  C   UNL A   1      40.072  28.527  29.547  1.00  0.00     0.074 A 
ATOM     21  C   UNL A   1      38.960  27.597  29.517  1.00  0.00     0.031 C 
ATOM     22  C   UNL A   1      44.532  25.465  26.059  1.00  0.00     0.029 A 
ATOM     23  C   UNL A   1      44.639  26.785  26.670  1.00  0.00     0.049 A 
ATOM     24  H   UNL A   1      43.251  27.718  27.915  1.00  0.00     0.167 HD
ATOM     25  C   UNL A   1      40.070  29.717  30.200  1.00  0.00     0.034 A 
ATOM     26  C   UNL A   1      45.682  27.624  26.521  1.00  0.00     0.034 A 
ATOM     27  C   UNL A   1      41.188  30.631  30.200  1.00  0.00     0.049 A 
ATOM     28  C   UNL A   1      45.636  28.970  27.191  1.00  0.00     0.074 A 
ATOM     29  C   UNL A   1      41.310  31.847  30.852  1.00  0.00     0.029 A 
ATOM     30  N   UNL A   1      42.373  30.442  29.496  1.00  0.00    -0.354 N 
ATOM     31  N   UNL A   1      44.674  29.499  27.910  1.00  0.00    -0.248 NA
ATOM     32  C   UNL A   1      46.815  29.830  27.037  1.00  0.00     0.031 C 
ATOM     33  C   UNL A   1      42.528  32.425  30.479  1.00  0.00     0.029 A 
ATOM     34  C   UNL A   1      43.212  31.533  29.668  1.00  0.00     0.049 A 
ATOM     35  H   UNL A   1      42.586  29.648  28.954  1.00  0.00     0.167 HD
ATOM     36  C   UNL A   1      45.145  30.741  28.322  1.00  0.00     0.074 A 
ATOM     37  C   UNL A   1      46.476  30.884  27.766  1.00  0.00     0.031 C 
ATOM     38  C   UNL A   1      44.536  31.670  29.102  1.00  0.00     0.034 A 
BRANCH  25  39
ATOM     39  C   UNL A   1      38.794  30.114  30.911  1.00  0.00     0.023 A 
ATOM     40  C   UNL A   1      37.752  30.783  30.244  1.00  0.00     0.031 A 
ATOM     41  C   UNL A   1      38.640  29.873  32.288  1.00  0.00     0.131 A 
ATOM     42  C   UNL A   1      36.657  31.276  30.971  1.00  0.00     0.055 A 
ATOM     43  C   UNL A   1      37.502  30.281  32.987  1.00  0.00     0.041 A 
ATOM     44  F   UNL A   1      39.607  29.256  32.987  1.00  0.00    -0.206 F 
ATOM     45  C   UNL A   1      36.512  31.007  32.333  1.00  0.00     0.022 A 
BRANCH  42  46
ATOM     46  S   UNL A   1      35.528  32.435  30.148  1.00  0.00     0.124 S 
ATOM     47  O   UNL A   1      35.257  31.743  28.890  1.00  0.00    -0.237 OA
ATOM     48  O   UNL A   1      34.415  32.511  31.087  1.00  0.00    -0.237 OA
ATOM     49  O   UNL A   1      36.323  33.654  30.018  1.00  0.00    -0.744 OA
ENDBRANCH  42  46
ENDBRANCH  25  39
BRANCH  26  50
ATOM     50  C   UNL A   1      46.826  27.222  25.658  1.00  0.00     0.023 A 
ATOM     51  C   UNL A   1      46.950  27.696  24.345  1.00  0.00     0.031 A 
ATOM     52  C   UNL A   1      47.834  26.374  26.155  1.00  0.00     0.131 A 
ATOM     53  C   UNL A   1      48.048  27.303  23.562  1.00  0.00     0.055 A 
ATOM     54  C   UNL A   1      48.947  26.024  25.391  1.00  0.00     0.041 A 
ATOM     55  F   UNL A   1      47.766  25.903  27.410  1.00  0.00    -0.206 F 
ATOM     56  C   UNL A   1      49.054  26.484  24.082  1.00  0.00     0.022 A 
BRANCH  53  57
ATOM     57  S   UNL A   1      48.124  27.845  21.834  1.00  0.00     0.124 S 
ATOM     58  O   UNL A   1      49.293  28.716  21.848  1.00  0.00    -0.237 OA
ATOM     59  O   UNL A   1      48.276  26.579  21.125  1.00  0.00    -0.237 OA
ATOM     60  O   UNL A   1      46.844  28.519  21.632  1.00  0.00    -0.744 OA
ENDBRANCH  53  57
ENDBRANCH  26  50
BRANCH  38  61
ATOM     61  C   UNL A   1      45.330  32.902  29.461  1.00  0.00     0.023 A 
ATOM     62  C   UNL A   1      45.268  34.083  28.702  1.00  0.00     0.031 A 
ATOM     63  C   UNL A   1      46.143  32.894  30.610  1.00  0.00     0.131 A 
ATOM     64  C   UNL A   1      46.030  35.198  29.085  1.00  0.00     0.055 A 
ATOM     65  C   UNL A   1      46.857  34.021  31.015  1.00  0.00     0.041 A 
ATOM     66  F   UNL A   1      46.243  31.790  31.367  1.00  0.00    -0.206 F 
ATOM     67  C   UNL A   1      46.809  35.181  30.247  1.00  0.00     0.022 A 
BRANCH  64  68
ATOM     68  S   UNL A   1      46.040  36.664  28.016  1.00  0.00     0.124 S 
ATOM     69  O   UNL A   1      45.047  37.516  28.661  1.00  0.00    -0.237 OA
ATOM     70  O   UNL A   1      47.424  37.112  28.109  1.00  0.00    -0.237 OA
ATOM     71  O   UNL A   1      45.648  36.137  26.709  1.00  0.00    -0.744 OA
ENDBRANCH  64  68
ENDBRANCH  38  61
ENDBRANCH  12  13
ENDBRANCH   5   7
ENDBRANCH   2   3
ENDBRANCH   1   2
BRANCH   1  72
ATOM     72  C   UNL A   1      35.181  24.029  23.944  1.00  0.00     0.002 C 
BRANCH  72  73
ATOM     73  C   UNL A   1      34.621  24.855  25.105  1.00  0.00     0.002 C 
BRANCH  73  74
ATOM     74  C   UNL A   1      33.840  26.109  24.704  1.00  0.00     0.021 C 
BRANCH  74  75
ATOM     75  C   UNL A   1      33.216  26.062  23.311  1.00  0.00     0.116 C 
BRANCH  75  76
ATOM     76  N   UNL A   1      31.780  26.285  23.353  1.00  0.00    -0.352 N 
ATOM     77  C   UNL A   1      30.785  25.408  23.699  1.00  0.00     0.251 C 
ATOM     78  H   UNL A   1      31.481  27.188  23.097  1.00  0.00     0.163 HD
ATOM     79  O   UNL A   1      29.605  25.688  23.507  1.00  0.00    -0.269 OA
BRANCH  77  80
ATOM     80  C   UNL A   1      31.142  24.098  24.283  1.00  0.00     0.042 A 
ATOM     81  C   UNL A   1      31.075  23.896  25.669  1.00  0.00     0.016 A 
ATOM     82  C   UNL A   1      31.529  23.076  23.405  1.00  0.00     0.042 A 
ATOM     83  C   UNL A   1      31.459  22.671  26.227  1.00  0.00     0.031 A 
ATOM     84  C   UNL A   1      31.899  21.867  23.995  1.00  0.00     0.066 A 
ATOM     85  C   UNL A   1      31.881  21.646  25.368  1.00  0.00     0.089 A 
ATOM     86  N   UNL A   1      32.337  20.682  23.468  1.00  0.00    -0.342 N 
ATOM     87  N   UNL A   1      32.297  20.372  25.662  1.00  0.00    -0.233 NA
ATOM     88  C   UNL A   1      32.562  19.805  24.503  1.00  0.00     0.110 A 
ATOM     89  H   UNL A   1      32.468  20.490  22.512  1.00  0.00     0.168 HD
BRANCH  88  90
ATOM     90  C   UNL A   1      33.002  18.388  24.297  1.00  0.00     0.055 C 
ATOM     91  C   UNL A   1      34.525  18.268  24.458  1.00  0.00     0.011 C 
ATOM     92  C   UNL A   1      32.260  17.416  25.226  1.00  0.00     0.011 C 
ATOM     93  C   UNL A   1      34.999  16.829  24.279  1.00  0.00     0.001 C 
ATOM     94  C   UNL A   1      32.749  15.981  25.043  1.00  0.00     0.001 C 
ATOM     95  C   UNL A   1      34.263  15.878  25.216  1.00  0.00     0.000 C 
ENDBRANCH  88  90
ENDBRANCH  77  80
ENDBRANCH  75  76
ENDBRANCH  74  75
ENDBRANCH  73  74
ENDBRANCH  72  73
ENDBRANCH   1  72
TORSDOF 17
ENDMDL
MODEL 3
REMARK VINA RESULT:     -11.7      1.895      4.442
REMARK SMILES O=C(NCCCCCCNC(=O)c1ccc2nc(C3CCCCC3)[nH]c2c1)c1ccc(-c2c3nc(c(-c4cc(S(=O)(=O)[O-])ccc4F)c4ccc([nH]4)c(-c4cc(S(=O)(=O)[O-])ccc4F)c4nc(c(-c5cc(S(=O)(=O)[O-])ccc5F)c5ccc2[nH]5)C=C4)C=C3)cc1
REMARK SMILES IDX 5 1 4 2 3 3 1 4 2 5 28 7 29 8 90 9 30 10 89 11 31 12 32 13
REMARK SMILES IDX 33 14 83 15 34 16 88 17 82 18 84 19 35 20 87 21 81 22 80 23
REMARK SMILES IDX 36 25 68 26 48 27 67 28 49 29 52 30 66 31 85 32 50 33 51 34
REMARK SMILES IDX 65 36 86 37 53 38 37 39 38 40 46 41 39 42 45 43 47 44 44 45
REMARK SMILES IDX 40 46 41 47 42 48 43 49 69 50 70 51 78 52 71 53 77 54 79 55
REMARK SMILES IDX 76 56 72 57 73 58 74 59 75 60 54 61 55 62 63 63 56 64 62 65
REMARK SMILES IDX 64 66 61 67 57 68 58 69 59 70 60 71 6 72 7 73 8 74 9 75
REMARK SMILES IDX 10 76 11 77 12 79 13 80 14 81 27 82 15 83 26 84 16 85 25 86
REMARK SMILES IDX 17 87 18 88 19 90 20 91 24 92 21 93 23 94 22 95
REMARK H PARENT 3 6 84 24 52 35 10 78 25 89
REMARK Flexibility Score: inf
ROOT
ATOM      1  C   UNL A   1      33.277  28.870  23.824  1.00  0.00     0.021 C 
ENDROOT
BRANCH   1   2
ATOM      2  C   UNL A   1      33.527  29.103  25.311  1.00  0.00     0.116 C 
BRANCH   2   3
ATOM      3  N   UNL A   1      32.936  30.346  25.779  1.00  0.00    -0.352 N 
ATOM      4  O   UNL A   1      32.536  32.030  27.218  1.00  0.00    -0.269 OA
ATOM      5  C   UNL A   1      33.269  31.110  26.868  1.00  0.00     0.251 C 
ATOM      6  H   UNL A   1      32.189  30.688  25.237  1.00  0.00     0.163 HD
BRANCH   5   7
ATOM      7  C   UNL A   1      34.504  30.815  27.627  1.00  0.00     0.039 A 
ATOM      8  C   UNL A   1      34.705  29.560  28.213  1.00  0.00     0.014 A 
ATOM      9  C   UNL A   1      35.487  31.802  27.726  1.00  0.00     0.014 A 
ATOM     10  C   UNL A   1      35.840  29.329  28.987  1.00  0.00     0.010 A 
ATOM     11  C   UNL A   1      36.655  31.545  28.446  1.00  0.00     0.010 A 
ATOM     12  C   UNL A   1      36.831  30.315  29.100  1.00  0.00    -0.014 A 
BRANCH  12  13
ATOM     13  C   UNL A   1      38.075  30.048  29.866  1.00  0.00     0.031 A 
ATOM     14  C   UNL A   1      39.106  29.094  29.336  1.00  0.00     0.074 A 
ATOM     15  C   UNL A   1      38.250  30.637  31.065  1.00  0.00     0.049 A 
ATOM     16  N   UNL A   1      40.190  28.641  29.912  1.00  0.00    -0.248 NA
ATOM     17  C   UNL A   1      38.876  28.569  27.984  1.00  0.00     0.031 C 
ATOM     18  C   UNL A   1      37.319  31.587  31.676  1.00  0.00     0.029 A 
ATOM     19  N   UNL A   1      39.254  30.511  31.989  1.00  0.00    -0.354 N 
ATOM     20  C   UNL A   1      40.765  27.759  29.003  1.00  0.00     0.074 A 
ATOM     21  C   UNL A   1      39.883  27.717  27.853  1.00  0.00     0.031 C 
ATOM     22  C   UNL A   1      37.795  31.957  32.875  1.00  0.00     0.029 A 
ATOM     23  C   UNL A   1      39.024  31.219  33.146  1.00  0.00     0.049 A 
ATOM     24  H   UNL A   1      40.061  29.967  31.841  1.00  0.00     0.167 HD
ATOM     25  C   UNL A   1      41.921  27.057  29.119  1.00  0.00     0.034 A 
ATOM     26  C   UNL A   1      39.696  31.237  34.313  1.00  0.00     0.034 A 
ATOM     27  C   UNL A   1      42.773  27.106  30.284  1.00  0.00     0.049 A 
ATOM     28  C   UNL A   1      40.936  30.398  34.454  1.00  0.00     0.074 A 
ATOM     29  C   UNL A   1      43.981  26.465  30.499  1.00  0.00     0.029 A 
ATOM     30  N   UNL A   1      42.498  27.824  31.444  1.00  0.00    -0.354 N 
ATOM     31  N   UNL A   1      41.479  29.580  33.583  1.00  0.00    -0.248 NA
ATOM     32  C   UNL A   1      41.658  30.488  35.728  1.00  0.00     0.031 C 
ATOM     33  C   UNL A   1      44.392  26.728  31.810  1.00  0.00     0.029 A 
ATOM     34  C   UNL A   1      43.492  27.609  32.387  1.00  0.00     0.049 A 
ATOM     35  H   UNL A   1      41.711  28.400  31.576  1.00  0.00     0.167 HD
ATOM     36  C   UNL A   1      42.625  29.081  34.193  1.00  0.00     0.074 A 
ATOM     37  C   UNL A   1      42.692  29.688  35.508  1.00  0.00     0.031 C 
ATOM     38  C   UNL A   1      43.546  28.213  33.701  1.00  0.00     0.034 A 
BRANCH  25  39
ATOM     39  C   UNL A   1      42.286  26.132  27.979  1.00  0.00     0.023 A 
ATOM     40  C   UNL A   1      41.731  24.845  27.861  1.00  0.00     0.031 A 
ATOM     41  C   UNL A   1      43.247  26.518  27.027  1.00  0.00     0.131 A 
ATOM     42  C   UNL A   1      42.213  23.960  26.884  1.00  0.00     0.055 A 
ATOM     43  C   UNL A   1      43.652  25.666  25.998  1.00  0.00     0.041 A 
ATOM     44  F   UNL A   1      43.830  27.726  27.095  1.00  0.00    -0.206 F 
ATOM     45  C   UNL A   1      43.151  24.369  25.935  1.00  0.00     0.022 A 
BRANCH  42  46
ATOM     46  S   UNL A   1      41.737  22.211  26.995  1.00  0.00     0.124 S 
ATOM     47  O   UNL A   1      41.855  21.782  25.604  1.00  0.00    -0.237 OA
ATOM     48  O   UNL A   1      42.732  21.673  27.915  1.00  0.00    -0.237 OA
ATOM     49  O   UNL A   1      40.370  22.260  27.508  1.00  0.00    -0.744 OA
ENDBRANCH  42  46
ENDBRANCH  25  39
BRANCH  26  50
ATOM     50  C   UNL A   1      39.168  32.044  35.448  1.00  0.00     0.023 A 
ATOM     51  C   UNL A   1      38.480  31.442  36.511  1.00  0.00     0.031 A 
ATOM     52  C   UNL A   1      39.374  33.435  35.494  1.00  0.00     0.131 A 
ATOM     53  C   UNL A   1      38.004  32.233  37.570  1.00  0.00     0.055 A 
ATOM     54  C   UNL A   1      38.942  34.210  36.571  1.00  0.00     0.041 A 
ATOM     55  F   UNL A   1      40.037  34.056  34.505  1.00  0.00    -0.206 F 
ATOM     56  C   UNL A   1      38.245  33.609  37.614  1.00  0.00     0.022 A 
BRANCH  53  57
ATOM     57  S   UNL A   1      37.026  31.443  38.875  1.00  0.00     0.124 S 
ATOM     58  O   UNL A   1      36.902  30.081  38.369  1.00  0.00    -0.237 OA
ATOM     59  O   UNL A   1      37.881  31.618  40.044  1.00  0.00    -0.237 OA
ATOM     60  O   UNL A   1      35.788  32.219  38.890  1.00  0.00    -0.744 OA
ENDBRANCH  53  57
ENDBRANCH  26  50
BRANCH  38  61
ATOM     61  C   UNL A   1      44.748  27.915  34.563  1.00  0.00     0.023 A 
ATOM     62  C   UNL A   1      44.788  26.818  35.440  1.00  0.00     0.031 A 
ATOM     63  C   UNL A   1      45.887  28.737  34.475  1.00  0.00     0.131 A 
ATOM     64  C   UNL A   1      45.935  26.591  36.218  1.00  0.00     0.055 A 
ATOM     65  C   UNL A   1      47.042  28.476  35.211  1.00  0.00     0.041 A 
ATOM     66  F   UNL A   1      45.898  29.801  33.657  1.00  0.00    -0.206 F 
ATOM     67  C   UNL A   1      47.068  27.401  36.095  1.00  0.00     0.022 A 
BRANCH  64  68
ATOM     68  S   UNL A   1      45.914  25.252  37.442  1.00  0.00     0.124 S 
ATOM     69  O   UNL A   1      44.601  25.423  38.056  1.00  0.00    -0.237 OA
ATOM     70  O   UNL A   1      46.081  24.065  36.611  1.00  0.00    -0.237 OA
ATOM     71  O   UNL A   1      47.049  25.562  38.310  1.00  0.00    -0.744 OA
ENDBRANCH  64  68
ENDBRANCH  38  61
ENDBRANCH  12  13
ENDBRANCH   5   7
ENDBRANCH   2   3
ENDBRANCH   1   2
BRANCH   1  72
ATOM     72  C   UNL A   1      33.706  27.495  23.304  1.00  0.00     0.002 C 
BRANCH  72  73
ATOM     73  C   UNL A   1      32.813  26.897  22.214  1.00  0.00     0.002 C 
BRANCH  73  74
ATOM     74  C   UNL A   1      31.320  27.208  22.342  1.00  0.00     0.021 C 
BRANCH  74  75
ATOM     75  C   UNL A   1      30.543  26.270  23.264  1.00  0.00     0.116 C 
BRANCH  75  76
ATOM     76  N   UNL A   1      30.475  26.780  24.624  1.00  0.00    -0.352 N 
ATOM     77  C   UNL A   1      30.959  26.217  25.776  1.00  0.00     0.251 C 
ATOM     78  H   UNL A   1      30.020  27.646  24.731  1.00  0.00     0.163 HD
ATOM     79  O   UNL A   1      30.660  26.680  26.873  1.00  0.00    -0.269 OA
BRANCH  77  80
ATOM     80  C   UNL A   1      31.824  25.022  25.694  1.00  0.00     0.042 A 
ATOM     81  C   UNL A   1      33.194  25.117  25.975  1.00  0.00     0.016 A 
ATOM     82  C   UNL A   1      31.224  23.805  25.343  1.00  0.00     0.042 A 
ATOM     83  C   UNL A   1      34.024  23.996  25.850  1.00  0.00     0.031 A 
ATOM     84  C   UNL A   1      32.079  22.708  25.234  1.00  0.00     0.066 A 
ATOM     85  C   UNL A   1      33.448  22.775  25.469  1.00  0.00     0.089 A 
ATOM     86  N   UNL A   1      31.857  21.398  24.905  1.00  0.00    -0.342 N 
ATOM     87  N   UNL A   1      34.035  21.550  25.284  1.00  0.00    -0.233 NA
ATOM     88  C   UNL A   1      33.060  20.731  24.950  1.00  0.00     0.110 A 
ATOM     89  H   UNL A   1      30.987  21.001  24.676  1.00  0.00     0.168 HD
BRANCH  88  90
ATOM     90  C   UNL A   1      33.192  19.261  24.696  1.00  0.00     0.055 C 
ATOM     91  C   UNL A   1      32.426  18.863  23.426  1.00  0.00     0.011 C 
ATOM     92  C   UNL A   1      34.662  18.820  24.627  1.00  0.00     0.011 C 
ATOM     93  C   UNL A   1      32.565  17.373  23.127  1.00  0.00     0.001 C 
ATOM     94  C   UNL A   1      34.787  17.330  24.319  1.00  0.00     0.001 C 
ATOM     95  C   UNL A   1      34.029  16.953  23.049  1.00  0.00     0.000 C 
ENDBRANCH  88  90
ENDBRANCH  77  80
ENDBRANCH  75  76
ENDBRANCH  74  75
ENDBRANCH  73  74
ENDBRANCH  72  73
ENDBRANCH   1  72
TORSDOF 17
ENDMDL
