MODEL 1
REMARK VINA RESULT:     -12.7      0.000      0.000
REMARK SMILES Cc1ccccc1/C=C1\SC(=O)N(CC(=O)Nc2ccccc2C(=O)NCCCCCCNC(=O)c2ccc(-c3c4nc(c(-c5cc(S(=O)(=O)[O-])ccc5F)c5ccc([nH]5)c(-c5cc(S(=O)(=O)[O-])ccc5F)c5nc(c(-c6cc(S(=O)(=O)[O-])ccc6F)c6ccc3[nH]6)C=C5)C=C4)cc2)C1=O
REMARK SMILES IDX 29 1 28 2 27 3 26 4 24 5 25 6 23 8 18 9 19 10 20 11 22 12
REMARK SMILES IDX 21 13 17 14 15 15 16 16 14 18 13 19 8 20 9 21 10 22 99 23
REMARK SMILES IDX 11 24 100 25 12 26 7 27 1 28 2 29 3 30 4 31 6 32 5 33 30 34
REMARK SMILES IDX 31 35 32 36 33 37 34 38 35 40 36 41 37 42 98 43 38 44 97 45
REMARK SMILES IDX 39 46 40 47 41 48 91 49 42 50 96 51 90 52 92 53 43 54 95 55
REMARK SMILES IDX 89 56 88 57 44 59 76 60 56 61 75 62 57 63 60 64 74 65 93 66
REMARK SMILES IDX 58 67 59 68 73 70 94 71 61 72 45 73 46 74 54 75 47 76 53 77
REMARK SMILES IDX 55 78 52 79 48 80 49 81 50 82 51 83 77 84 78 85 86 86 79 87
REMARK SMILES IDX 85 88 87 89 84 90 80 91 81 92 82 93 83 94 62 95 63 96 71 97
REMARK SMILES IDX 64 98 70 99 72 100 69 101 65 102 66 103 67 104 68 105
REMARK H PARENT 26 7 17 17 33 39 92 58 60 69
REMARK Flexibility Score: inf
ROOT
ATOM      1  C   UNL A   1      35.498  22.657  24.859  1.00  0.00     0.002 C 
ENDROOT
BRANCH   1   2
ATOM      2  C   UNL A   1      35.048  23.367  26.140  1.00  0.00     0.021 C 
BRANCH   2   3
ATOM      3  C   UNL A   1      34.021  22.744  27.087  1.00  0.00     0.116 C 
BRANCH   3   4
ATOM      4  N   UNL A   1      32.608  23.044  26.875  1.00  0.00    -0.352 N 
ATOM      5  C   UNL A   1      31.668  22.538  25.995  1.00  0.00     0.253 C 
ATOM      6  O   UNL A   1      30.480  22.803  26.164  1.00  0.00    -0.269 OA
ATOM      7  H   UNL A   1      32.256  23.743  27.474  1.00  0.00     0.163 HD
BRANCH   5   8
ATOM      8  C   UNL A   1      32.030  21.661  24.859  1.00  0.00     0.063 A 
ATOM      9  C   UNL A   1      31.989  22.050  23.502  1.00  0.00     0.054 A 
ATOM     10  C   UNL A   1      32.214  21.058  22.520  1.00  0.00     0.027 A 
ATOM     11  C   UNL A   1      32.475  19.728  22.847  1.00  0.00     0.002 A 
ATOM     12  C   UNL A   1      32.164  20.287  25.154  1.00  0.00     0.016 A 
ATOM     13  C   UNL A   1      32.429  19.336  24.171  1.00  0.00     0.001 A 
BRANCH   9  14
ATOM     14  N   UNL A   1      31.525  23.256  22.938  1.00  0.00    -0.324 N 
ATOM     15  C   UNL A   1      31.861  24.570  22.931  1.00  0.00     0.244 C 
ATOM     16  O   UNL A   1      31.085  25.313  22.310  1.00  0.00    -0.273 OA
ATOM     17  H   UNL A   1      30.723  23.097  22.389  1.00  0.00     0.170 HD
BRANCH  15  18
ATOM     18  C   UNL A   1      33.189  25.120  23.414  1.00  0.00     0.230 C 
BRANCH  18  19
ATOM     19  N   UNL A   1      33.180  26.437  23.990  1.00  0.00    -0.259 N 
ATOM     20  C   UNL A   1      33.260  28.535  26.815  1.00  0.00     0.029 C 
ATOM     21  C   UNL A   1      32.968  28.149  25.561  1.00  0.00     0.083 C 
ATOM     22  S   UNL A   1      33.202  28.975  24.082  1.00  0.00    -0.022 SA
ATOM     23  C   UNL A   1      32.659  26.721  25.239  1.00  0.00     0.268 C 
ATOM     24  C   UNL A   1      33.451  27.506  23.194  1.00  0.00     0.294 C 
ATOM     25  O   UNL A   1      32.057  25.963  25.978  1.00  0.00    -0.268 OA
ATOM     26  O   UNL A   1      33.799  27.472  22.014  1.00  0.00    -0.261 OA
BRANCH  20  27
ATOM     27  C   UNL A   1      33.971  29.751  27.288  1.00  0.00    -0.021 A 
ATOM     28  C   UNL A   1      32.045  31.424  27.006  1.00  0.00     0.045 C 
ATOM     29  C   UNL A   1      33.458  31.057  27.353  1.00  0.00    -0.044 A 
ATOM     30  C   UNL A   1      34.312  32.129  27.703  1.00  0.00     0.004 A 
ATOM     31  C   UNL A   1      35.632  31.911  28.078  1.00  0.00     0.000 A 
ATOM     32  C   UNL A   1      35.303  29.551  27.711  1.00  0.00     0.008 A 
ATOM     33  C   UNL A   1      36.123  30.614  28.111  1.00  0.00     0.001 A 
ENDBRANCH  20  27
ENDBRANCH  18  19
ENDBRANCH  15  18
ENDBRANCH   9  14
ENDBRANCH   5   8
ENDBRANCH   3   4
ENDBRANCH   2   3
ENDBRANCH   1   2
BRANCH   1  34
ATOM     34  C   UNL A   1      35.984  21.209  24.939  1.00  0.00     0.002 C 
BRANCH  34  35
ATOM     35  C   UNL A   1      37.489  20.997  25.024  1.00  0.00     0.021 C 
BRANCH  35  36
ATOM     36  C   UNL A   1      38.255  22.240  25.437  1.00  0.00     0.116 C 
BRANCH  36  37
ATOM     37  N   UNL A   1      39.615  22.060  25.923  1.00  0.00    -0.352 N 
ATOM     38  C   UNL A   1      40.479  23.023  26.440  1.00  0.00     0.251 C 
ATOM     39  H   UNL A   1      39.970  21.143  25.881  1.00  0.00     0.163 HD
ATOM     40  O   UNL A   1      41.660  22.770  26.661  1.00  0.00    -0.269 OA
BRANCH  38  41
ATOM     41  C   UNL A   1      39.921  24.320  26.928  1.00  0.00     0.039 A 
ATOM     42  C   UNL A   1      40.214  25.445  26.143  1.00  0.00     0.014 A 
ATOM     43  C   UNL A   1      39.587  24.485  28.262  1.00  0.00     0.014 A 
ATOM     44  C   UNL A   1      40.549  26.637  26.772  1.00  0.00     0.010 A 
ATOM     45  C   UNL A   1      40.109  25.577  28.905  1.00  0.00     0.010 A 
ATOM     46  C   UNL A   1      40.655  26.618  28.155  1.00  0.00    -0.014 A 
BRANCH  46  47
ATOM     47  C   UNL A   1      41.220  27.683  28.952  1.00  0.00     0.031 A 
ATOM     48  C   UNL A   1      40.275  28.693  29.442  1.00  0.00     0.074 A 
ATOM     49  C   UNL A   1      42.517  27.629  29.316  1.00  0.00     0.049 A 
ATOM     50  N   UNL A   1      40.587  29.888  29.784  1.00  0.00    -0.248 NA
ATOM     51  C   UNL A   1      38.838  28.433  29.494  1.00  0.00     0.031 C 
ATOM     52  C   UNL A   1      43.202  28.414  30.337  1.00  0.00     0.029 A 
ATOM     53  N   UNL A   1      43.544  26.964  28.646  1.00  0.00    -0.354 N 
ATOM     54  C   UNL A   1      39.473  30.445  30.374  1.00  0.00     0.074 A 
ATOM     55  C   UNL A   1      38.390  29.559  30.044  1.00  0.00     0.031 C 
ATOM     56  C   UNL A   1      44.523  28.392  30.085  1.00  0.00     0.029 A 
ATOM     57  C   UNL A   1      44.704  27.752  28.792  1.00  0.00     0.049 A 
ATOM     58  H   UNL A   1      43.472  26.108  28.164  1.00  0.00     0.167 HD
ATOM     59  C   UNL A   1      39.644  31.506  31.209  1.00  0.00     0.034 A 
ATOM     60  C   UNL A   1      45.245  28.356  27.688  1.00  0.00     0.034 A 
ATOM     61  C   UNL A   1      41.056  31.915  31.212  1.00  0.00     0.049 A 
ATOM     62  C   UNL A   1      45.117  29.862  27.698  1.00  0.00     0.074 A 
ATOM     63  C   UNL A   1      42.124  31.636  32.050  1.00  0.00     0.029 A 
ATOM     64  N   UNL A   1      41.613  32.396  30.038  1.00  0.00    -0.354 N 
ATOM     65  N   UNL A   1      44.464  30.557  28.590  1.00  0.00    -0.248 NA
ATOM     66  C   UNL A   1      45.641  30.679  26.612  1.00  0.00     0.031 C 
ATOM     67  C   UNL A   1      43.330  31.900  31.329  1.00  0.00     0.029 A 
ATOM     68  C   UNL A   1      42.996  32.395  30.081  1.00  0.00     0.049 A 
ATOM     69  H   UNL A   1      41.087  32.701  29.264  1.00  0.00     0.167 HD
ATOM     70  C   UNL A   1      44.405  31.867  28.192  1.00  0.00     0.074 A 
ATOM     71  C   UNL A   1      45.133  31.880  26.928  1.00  0.00     0.031 C 
ATOM     72  C   UNL A   1      43.732  32.832  28.899  1.00  0.00     0.034 A 
BRANCH  59  73
ATOM     73  C   UNL A   1      38.633  31.980  32.234  1.00  0.00     0.023 A 
ATOM     74  C   UNL A   1      37.400  32.475  31.763  1.00  0.00     0.031 A 
ATOM     75  C   UNL A   1      38.800  32.044  33.635  1.00  0.00     0.131 A 
ATOM     76  C   UNL A   1      36.460  33.066  32.627  1.00  0.00     0.055 A 
ATOM     77  C   UNL A   1      37.881  32.666  34.493  1.00  0.00     0.041 A 
ATOM     78  F   UNL A   1      39.825  31.471  34.268  1.00  0.00    -0.206 F 
ATOM     79  C   UNL A   1      36.705  33.191  33.990  1.00  0.00     0.022 A 
BRANCH  76  80
ATOM     80  S   UNL A   1      34.905  33.682  31.935  1.00  0.00     0.124 S 
ATOM     81  O   UNL A   1      35.361  34.395  30.746  1.00  0.00    -0.237 OA
ATOM     82  O   UNL A   1      34.159  32.449  31.708  1.00  0.00    -0.237 OA
ATOM     83  O   UNL A   1      34.375  34.535  32.999  1.00  0.00    -0.744 OA
ENDBRANCH  76  80
ENDBRANCH  59  73
BRANCH  60  84
ATOM     84  C   UNL A   1      45.113  27.508  26.459  1.00  0.00     0.023 A 
ATOM     85  C   UNL A   1      45.928  26.365  26.422  1.00  0.00     0.031 A 
ATOM     86  C   UNL A   1      43.916  27.491  25.728  1.00  0.00     0.131 A 
ATOM     87  C   UNL A   1      45.380  25.157  25.969  1.00  0.00     0.055 A 
ATOM     88  C   UNL A   1      43.439  26.305  25.158  1.00  0.00     0.041 A 
ATOM     89  F   UNL A   1      43.111  28.562  25.701  1.00  0.00    -0.206 F 
ATOM     90  C   UNL A   1      44.129  25.112  25.357  1.00  0.00     0.022 A 
BRANCH  87  91
ATOM     91  S   UNL A   1      46.159  23.643  26.568  1.00  0.00     0.124 S 
ATOM     92  O   UNL A   1      46.544  22.984  25.325  1.00  0.00    -0.237 OA
ATOM     93  O   UNL A   1      47.255  24.178  27.374  1.00  0.00    -0.237 OA
ATOM     94  O   UNL A   1      45.117  22.969  27.341  1.00  0.00    -0.744 OA
ENDBRANCH  87  91
ENDBRANCH  60  84
BRANCH  72  95
ATOM     95  C   UNL A   1      43.673  34.282  28.465  1.00  0.00     0.023 A 
ATOM     96  C   UNL A   1      43.839  35.328  29.379  1.00  0.00     0.031 A 
ATOM     97  C   UNL A   1      43.430  34.682  27.129  1.00  0.00     0.131 A 
ATOM     98  C   UNL A   1      43.986  36.654  28.951  1.00  0.00     0.055 A 
ATOM     99  C   UNL A   1      43.468  36.016  26.716  1.00  0.00     0.041 A 
ATOM    100  F   UNL A   1      43.163  33.807  26.152  1.00  0.00    -0.206 F 
ATOM    101  C   UNL A   1      43.792  37.011  27.622  1.00  0.00     0.022 A 
BRANCH  98 102
ATOM    102  S   UNL A   1      44.546  37.872  30.163  1.00  0.00     0.124 S 
ATOM    103  O   UNL A   1      43.590  38.961  29.984  1.00  0.00    -0.237 OA
ATOM    104  O   UNL A   1      44.422  37.123  31.410  1.00  0.00    -0.237 OA
ATOM    105  O   UNL A   1      45.914  38.168  29.745  1.00  0.00    -0.744 OA
ENDBRANCH  98 102
ENDBRANCH  72  95
ENDBRANCH  46  47
ENDBRANCH  38  41
ENDBRANCH  36  37
ENDBRANCH  35  36
ENDBRANCH  34  35
ENDBRANCH   1  34
TORSDOF 20
ENDMDL
MODEL 2
REMARK VINA RESULT:     -12.4      2.002      2.320
REMARK SMILES Cc1ccccc1/C=C1\SC(=O)N(CC(=O)Nc2ccccc2C(=O)NCCCCCCNC(=O)c2ccc(-c3c4nc(c(-c5cc(S(=O)(=O)[O-])ccc5F)c5ccc([nH]5)c(-c5cc(S(=O)(=O)[O-])ccc5F)c5nc(c(-c6cc(S(=O)(=O)[O-])ccc6F)c6ccc3[nH]6)C=C5)C=C4)cc2)C1=O
REMARK SMILES IDX 29 1 28 2 27 3 26 4 24 5 25 6 23 8 18 9 19 10 20 11 22 12
REMARK SMILES IDX 21 13 17 14 15 15 16 16 14 18 13 19 8 20 9 21 10 22 99 23
REMARK SMILES IDX 11 24 100 25 12 26 7 27 1 28 2 29 3 30 4 31 6 32 5 33 30 34
REMARK SMILES IDX 31 35 32 36 33 37 34 38 35 40 36 41 37 42 98 43 38 44 97 45
REMARK SMILES IDX 39 46 40 47 41 48 91 49 42 50 96 51 90 52 92 53 43 54 95 55
REMARK SMILES IDX 89 56 88 57 44 59 76 60 56 61 75 62 57 63 60 64 74 65 93 66
REMARK SMILES IDX 58 67 59 68 73 70 94 71 61 72 45 73 46 74 54 75 47 76 53 77
REMARK SMILES IDX 55 78 52 79 48 80 49 81 50 82 51 83 77 84 78 85 86 86 79 87
REMARK SMILES IDX 85 88 87 89 84 90 80 91 81 92 82 93 83 94 62 95 63 96 71 97
REMARK SMILES IDX 64 98 70 99 72 100 69 101 65 102 66 103 67 104 68 105
REMARK H PARENT 26 7 17 17 33 39 92 58 60 69
REMARK Flexibility Score: inf
ROOT
ATOM      1  C   UNL A   1      35.474  22.927  24.758  1.00  0.00     0.002 C 
ENDROOT
BRANCH   1   2
ATOM      2  C   UNL A   1      35.118  23.514  26.128  1.00  0.00     0.021 C 
BRANCH   2   3
ATOM      3  C   UNL A   1      34.099  22.842  27.049  1.00  0.00     0.116 C 
BRANCH   3   4
ATOM      4  N   UNL A   1      32.682  23.131  26.847  1.00  0.00    -0.352 N 
ATOM      5  C   UNL A   1      31.729  22.587  26.003  1.00  0.00     0.253 C 
ATOM      6  O   UNL A   1      30.543  22.857  26.180  1.00  0.00    -0.269 OA
ATOM      7  H   UNL A   1      32.338  23.853  27.423  1.00  0.00     0.163 HD
BRANCH   5   8
ATOM      8  C   UNL A   1      32.076  21.666  24.898  1.00  0.00     0.063 A 
ATOM      9  C   UNL A   1      31.991  21.991  23.527  1.00  0.00     0.054 A 
ATOM     10  C   UNL A   1      32.206  20.958  22.585  1.00  0.00     0.027 A 
ATOM     11  C   UNL A   1      32.500  19.649  22.965  1.00  0.00     0.002 A 
ATOM     12  C   UNL A   1      32.242  20.308  25.252  1.00  0.00     0.016 A 
ATOM     13  C   UNL A   1      32.497  19.318  24.306  1.00  0.00     0.001 A 
BRANCH   9  14
ATOM     14  N   UNL A   1      31.490  23.162  22.922  1.00  0.00    -0.324 N 
ATOM     15  C   UNL A   1      31.790  24.484  22.865  1.00  0.00     0.244 C 
ATOM     16  O   UNL A   1      30.990  25.181  22.221  1.00  0.00    -0.273 OA
ATOM     17  H   UNL A   1      30.690  22.961  22.384  1.00  0.00     0.170 HD
BRANCH  15  18
ATOM     18  C   UNL A   1      33.104  25.088  23.319  1.00  0.00     0.230 C 
BRANCH  18  19
ATOM     19  N   UNL A   1      33.059  26.420  23.857  1.00  0.00    -0.259 N 
ATOM     20  C   UNL A   1      32.869  28.594  26.618  1.00  0.00     0.029 C 
ATOM     21  C   UNL A   1      32.711  28.179  25.349  1.00  0.00     0.083 C 
ATOM     22  S   UNL A   1      33.127  28.959  23.886  1.00  0.00    -0.022 SA
ATOM     23  C   UNL A   1      32.408  26.749  25.031  1.00  0.00     0.268 C 
ATOM     24  C   UNL A   1      33.441  27.461  23.069  1.00  0.00     0.294 C 
ATOM     25  O   UNL A   1      31.711  26.023  25.718  1.00  0.00    -0.268 OA
ATOM     26  O   UNL A   1      33.918  27.387  21.937  1.00  0.00    -0.261 OA
BRANCH  20  27
ATOM     27  C   UNL A   1      33.550  29.810  27.137  1.00  0.00    -0.021 A 
ATOM     28  C   UNL A   1      31.607  31.460  26.840  1.00  0.00     0.045 C 
ATOM     29  C   UNL A   1      33.016  31.107  27.216  1.00  0.00    -0.044 A 
ATOM     30  C   UNL A   1      33.844  32.182  27.612  1.00  0.00     0.004 A 
ATOM     31  C   UNL A   1      35.157  31.975  28.019  1.00  0.00     0.000 A 
ATOM     32  C   UNL A   1      34.873  29.619  27.591  1.00  0.00     0.008 A 
ATOM     33  C   UNL A   1      35.666  30.684  28.036  1.00  0.00     0.001 A 
ENDBRANCH  20  27
ENDBRANCH  18  19
ENDBRANCH  15  18
ENDBRANCH   9  14
ENDBRANCH   5   8
ENDBRANCH   3   4
ENDBRANCH   2   3
ENDBRANCH   1   2
BRANCH   1  34
ATOM     34  C   UNL A   1      35.821  21.441  24.648  1.00  0.00     0.002 C 
BRANCH  34  35
ATOM     35  C   UNL A   1      37.248  21.045  24.998  1.00  0.00     0.021 C 
BRANCH  35  36
ATOM     36  C   UNL A   1      38.138  22.224  25.347  1.00  0.00     0.116 C 
BRANCH  36  37
ATOM     37  N   UNL A   1      39.387  21.941  26.039  1.00  0.00    -0.352 N 
ATOM     38  C   UNL A   1      40.312  22.848  26.550  1.00  0.00     0.251 C 
ATOM     39  H   UNL A   1      39.607  20.989  26.160  1.00  0.00     0.163 HD
ATOM     40  O   UNL A   1      41.407  22.479  26.967  1.00  0.00    -0.269 OA
BRANCH  38  41
ATOM     41  C   UNL A   1      39.895  24.262  26.791  1.00  0.00     0.039 A 
ATOM     42  C   UNL A   1      40.618  25.241  26.092  1.00  0.00     0.014 A 
ATOM     43  C   UNL A   1      39.217  24.609  27.948  1.00  0.00     0.014 A 
ATOM     44  C   UNL A   1      40.973  26.412  26.748  1.00  0.00     0.010 A 
ATOM     45  C   UNL A   1      39.723  25.652  28.679  1.00  0.00     0.010 A 
ATOM     46  C   UNL A   1      40.657  26.507  28.096  1.00  0.00    -0.014 A 
BRANCH  46  47
ATOM     47  C   UNL A   1      41.153  27.532  28.987  1.00  0.00     0.031 A 
ATOM     48  C   UNL A   1      40.349  28.756  29.074  1.00  0.00     0.074 A 
ATOM     49  C   UNL A   1      42.215  27.273  29.777  1.00  0.00     0.049 A 
ATOM     50  N   UNL A   1      40.789  29.901  29.445  1.00  0.00    -0.248 NA
ATOM     51  C   UNL A   1      38.954  28.785  28.641  1.00  0.00     0.031 C 
ATOM     52  C   UNL A   1      42.685  28.027  30.933  1.00  0.00     0.029 A 
ATOM     53  N   UNL A   1      43.229  26.347  29.533  1.00  0.00    -0.354 N 
ATOM     54  C   UNL A   1      39.697  30.728  29.589  1.00  0.00     0.074 A 
ATOM     55  C   UNL A   1      38.612  30.034  28.949  1.00  0.00     0.031 C 
ATOM     56  C   UNL A   1      43.978  27.722  31.151  1.00  0.00     0.029 A 
ATOM     57  C   UNL A   1      44.423  26.908  30.031  1.00  0.00     0.049 A 
ATOM     58  H   UNL A   1      43.130  25.470  29.097  1.00  0.00     0.167 HD
ATOM     59  C   UNL A   1      39.818  31.829  30.380  1.00  0.00     0.034 A 
ATOM     60  C   UNL A   1      45.413  27.260  29.153  1.00  0.00     0.034 A 
ATOM     61  C   UNL A   1      41.205  31.955  30.850  1.00  0.00     0.049 A 
ATOM     62  C   UNL A   1      45.626  28.753  29.047  1.00  0.00     0.074 A 
ATOM     63  C   UNL A   1      41.852  31.579  32.016  1.00  0.00     0.029 A 
ATOM     64  N   UNL A   1      42.206  32.176  29.917  1.00  0.00    -0.354 N 
ATOM     65  N   UNL A   1      44.890  29.663  29.626  1.00  0.00    -0.248 NA
ATOM     66  C   UNL A   1      46.642  29.318  28.170  1.00  0.00     0.031 C 
ATOM     67  C   UNL A   1      43.253  31.517  31.742  1.00  0.00     0.029 A 
ATOM     68  C   UNL A   1      43.463  31.914  30.432  1.00  0.00     0.049 A 
ATOM     69  H   UNL A   1      42.042  32.481  28.996  1.00  0.00     0.167 HD
ATOM     70  C   UNL A   1      45.255  30.902  29.170  1.00  0.00     0.074 A 
ATOM     71  C   UNL A   1      46.339  30.623  28.234  1.00  0.00     0.031 C 
ATOM     72  C   UNL A   1      44.621  32.056  29.556  1.00  0.00     0.034 A 
BRANCH  59  73
ATOM     73  C   UNL A   1      38.660  32.608  30.972  1.00  0.00     0.023 A 
ATOM     74  C   UNL A   1      38.489  32.573  32.371  1.00  0.00     0.031 A 
ATOM     75  C   UNL A   1      37.672  33.336  30.273  1.00  0.00     0.131 A 
ATOM     76  C   UNL A   1      37.365  33.147  32.994  1.00  0.00     0.055 A 
ATOM     77  C   UNL A   1      36.533  33.876  30.888  1.00  0.00     0.041 A 
ATOM     78  F   UNL A   1      37.765  33.616  28.972  1.00  0.00    -0.206 F 
ATOM     79  C   UNL A   1      36.368  33.776  32.257  1.00  0.00     0.022 A 
BRANCH  76  80
ATOM     80  S   UNL A   1      37.221  33.048  34.796  1.00  0.00     0.124 S 
ATOM     81  O   UNL A   1      35.858  33.516  35.020  1.00  0.00    -0.237 OA
ATOM     82  O   UNL A   1      37.473  31.633  35.048  1.00  0.00    -0.237 OA
ATOM     83  O   UNL A   1      38.269  33.953  35.269  1.00  0.00    -0.744 OA
ENDBRANCH  76  80
ENDBRANCH  59  73
BRANCH  60  84
ATOM     84  C   UNL A   1      45.505  26.313  27.995  1.00  0.00     0.023 A 
ATOM     85  C   UNL A   1      45.639  26.913  26.732  1.00  0.00     0.031 A 
ATOM     86  C   UNL A   1      46.014  25.018  28.169  1.00  0.00     0.131 A 
ATOM     87  C   UNL A   1      46.556  26.373  25.820  1.00  0.00     0.055 A 
ATOM     88  C   UNL A   1      46.821  24.425  27.190  1.00  0.00     0.041 A 
ATOM     89  F   UNL A   1      45.891  24.382  29.343  1.00  0.00    -0.206 F 
ATOM     90  C   UNL A   1      47.168  25.143  26.048  1.00  0.00     0.022 A 
BRANCH  87  91
ATOM     91  S   UNL A   1      47.206  27.499  24.567  1.00  0.00     0.124 S 
ATOM     92  O   UNL A   1      46.056  28.354  24.297  1.00  0.00    -0.237 OA
ATOM     93  O   UNL A   1      48.315  28.125  25.286  1.00  0.00    -0.237 OA
ATOM     94  O   UNL A   1      47.618  26.630  23.465  1.00  0.00    -0.744 OA
ENDBRANCH  87  91
ENDBRANCH  60  84
BRANCH  72  95
ATOM     95  C   UNL A   1      45.029  33.428  29.060  1.00  0.00     0.023 A 
ATOM     96  C   UNL A   1      44.188  34.193  28.244  1.00  0.00     0.031 A 
ATOM     97  C   UNL A   1      46.277  34.022  29.363  1.00  0.00     0.131 A 
ATOM     98  C   UNL A   1      44.475  35.533  27.955  1.00  0.00     0.055 A 
ATOM     99  C   UNL A   1      46.614  35.323  28.981  1.00  0.00     0.041 A 
ATOM    100  F   UNL A   1      47.229  33.385  30.057  1.00  0.00    -0.206 F 
ATOM    101  C   UNL A   1      45.691  36.106  28.309  1.00  0.00     0.022 A 
BRANCH  98 102
ATOM    102  S   UNL A   1      43.170  36.529  27.200  1.00  0.00     0.124 S 
ATOM    103  O   UNL A   1      43.873  37.757  26.842  1.00  0.00    -0.237 OA
ATOM    104  O   UNL A   1      42.766  35.684  26.079  1.00  0.00    -0.237 OA
ATOM    105  O   UNL A   1      42.182  36.665  28.267  1.00  0.00    -0.744 OA
ENDBRANCH  98 102
ENDBRANCH  72  95
ENDBRANCH  46  47
ENDBRANCH  38  41
ENDBRANCH  36  37
ENDBRANCH  35  36
ENDBRANCH  34  35
ENDBRANCH   1  34
TORSDOF 20
ENDMDL
MODEL 3
REMARK VINA RESULT:     -12.1      2.508      5.356
REMARK SMILES Cc1ccccc1/C=C1\SC(=O)N(CC(=O)Nc2ccccc2C(=O)NCCCCCCNC(=O)c2ccc(-c3c4nc(c(-c5cc(S(=O)(=O)[O-])ccc5F)c5ccc([nH]5)c(-c5cc(S(=O)(=O)[O-])ccc5F)c5nc(c(-c6cc(S(=O)(=O)[O-])ccc6F)c6ccc3[nH]6)C=C5)C=C4)cc2)C1=O
REMARK SMILES IDX 29 1 28 2 27 3 26 4 24 5 25 6 23 8 18 9 19 10 20 11 22 12
REMARK SMILES IDX 21 13 17 14 15 15 16 16 14 18 13 19 8 20 9 21 10 22 99 23
REMARK SMILES IDX 11 24 100 25 12 26 7 27 1 28 2 29 3 30 4 31 6 32 5 33 30 34
REMARK SMILES IDX 31 35 32 36 33 37 34 38 35 40 36 41 37 42 98 43 38 44 97 45
REMARK SMILES IDX 39 46 40 47 41 48 91 49 42 50 96 51 90 52 92 53 43 54 95 55
REMARK SMILES IDX 89 56 88 57 44 59 76 60 56 61 75 62 57 63 60 64 74 65 93 66
REMARK SMILES IDX 58 67 59 68 73 70 94 71 61 72 45 73 46 74 54 75 47 76 53 77
REMARK SMILES IDX 55 78 52 79 48 80 49 81 50 82 51 83 77 84 78 85 86 86 79 87
REMARK SMILES IDX 85 88 87 89 84 90 80 91 81 92 82 93 83 94 62 95 63 96 71 97
REMARK SMILES IDX 64 98 70 99 72 100 69 101 65 102 66 103 67 104 68 105
REMARK H PARENT 26 7 17 17 33 39 92 58 60 69
REMARK Flexibility Score: inf
ROOT
ATOM      1  C   UNL A   1      37.166  23.275  25.986  1.00  0.00     0.002 C 
ENDROOT
BRANCH   1   2
ATOM      2  C   UNL A   1      36.132  23.729  24.951  1.00  0.00     0.021 C 
BRANCH   2   3
ATOM      3  C   UNL A   1      35.014  24.709  25.308  1.00  0.00     0.116 C 
BRANCH   3   4
ATOM      4  N   UNL A   1      34.327  25.406  24.225  1.00  0.00    -0.352 N 
ATOM      5  C   UNL A   1      33.607  26.587  24.184  1.00  0.00     0.253 C 
ATOM      6  O   UNL A   1      33.311  27.076  23.096  1.00  0.00    -0.269 OA
ATOM      7  H   UNL A   1      34.389  24.948  23.355  1.00  0.00     0.163 HD
BRANCH   5   8
ATOM      8  C   UNL A   1      33.190  27.310  25.406  1.00  0.00     0.063 A 
ATOM      9  C   UNL A   1      31.851  27.484  25.816  1.00  0.00     0.054 A 
ATOM     10  C   UNL A   1      31.599  28.330  26.922  1.00  0.00     0.027 A 
ATOM     11  C   UNL A   1      32.621  28.982  27.612  1.00  0.00     0.002 A 
ATOM     12  C   UNL A   1      34.187  28.086  26.038  1.00  0.00     0.016 A 
ATOM     13  C   UNL A   1      33.920  28.876  27.154  1.00  0.00     0.001 A 
BRANCH   9  14
ATOM     14  N   UNL A   1      30.663  27.124  25.147  1.00  0.00    -0.324 N 
ATOM     15  C   UNL A   1      29.900  26.018  24.956  1.00  0.00     0.244 C 
ATOM     16  O   UNL A   1      28.924  26.171  24.205  1.00  0.00    -0.273 OA
ATOM     17  H   UNL A   1      30.275  27.901  24.683  1.00  0.00     0.170 HD
BRANCH  15  18
ATOM     18  C   UNL A   1      30.030  24.736  25.755  1.00  0.00     0.230 C 
BRANCH  18  19
ATOM     19  N   UNL A   1      30.967  23.759  25.273  1.00  0.00    -0.259 N 
ATOM     20  C   UNL A   1      33.113  21.033  25.866  1.00  0.00     0.029 C 
ATOM     21  C   UNL A   1      32.647  22.140  25.262  1.00  0.00     0.083 C 
ATOM     22  S   UNL A   1      32.355  22.440  23.605  1.00  0.00    -0.022 SA
ATOM     23  C   UNL A   1      31.986  23.231  26.043  1.00  0.00     0.268 C 
ATOM     24  C   UNL A   1      31.038  23.518  23.936  1.00  0.00     0.294 C 
ATOM     25  O   UNL A   1      32.309  23.566  27.170  1.00  0.00    -0.268 OA
ATOM     26  O   UNL A   1      30.309  23.994  23.065  1.00  0.00    -0.261 OA
BRANCH  20  27
ATOM     27  C   UNL A   1      33.416  19.698  25.287  1.00  0.00    -0.021 A 
ATOM     28  C   UNL A   1      35.935  20.027  24.928  1.00  0.00     0.045 C 
ATOM     29  C   UNL A   1      34.663  19.238  24.833  1.00  0.00    -0.044 A 
ATOM     30  C   UNL A   1      34.753  17.985  24.184  1.00  0.00     0.004 A 
ATOM     31  C   UNL A   1      33.650  17.147  24.066  1.00  0.00     0.000 A 
ATOM     32  C   UNL A   1      32.318  18.814  25.190  1.00  0.00     0.008 A 
ATOM     33  C   UNL A   1      32.433  17.551  24.597  1.00  0.00     0.001 A 
ENDBRANCH  20  27
ENDBRANCH  18  19
ENDBRANCH  15  18
ENDBRANCH   9  14
ENDBRANCH   5   8
ENDBRANCH   3   4
ENDBRANCH   2   3
ENDBRANCH   1   2
BRANCH   1  34
ATOM     34  C   UNL A   1      38.188  24.283  26.514  1.00  0.00     0.002 C 
BRANCH  34  35
ATOM     35  C   UNL A   1      39.656  23.912  26.359  1.00  0.00     0.021 C 
BRANCH  35  36
ATOM     36  C   UNL A   1      40.056  22.671  27.135  1.00  0.00     0.116 C 
BRANCH  36  37
ATOM     37  N   UNL A   1      40.741  21.613  26.406  1.00  0.00    -0.352 N 
ATOM     38  C   UNL A   1      42.108  21.465  26.189  1.00  0.00     0.251 C 
ATOM     39  H   UNL A   1      40.165  20.916  26.016  1.00  0.00     0.163 HD
ATOM     40  O   UNL A   1      42.544  20.615  25.415  1.00  0.00    -0.269 OA
BRANCH  38  41
ATOM     41  C   UNL A   1      43.072  22.203  27.059  1.00  0.00     0.039 A 
ATOM     42  C   UNL A   1      42.856  22.095  28.441  1.00  0.00     0.014 A 
ATOM     43  C   UNL A   1      43.789  23.279  26.560  1.00  0.00     0.014 A 
ATOM     44  C   UNL A   1      43.002  23.225  29.235  1.00  0.00     0.010 A 
ATOM     45  C   UNL A   1      43.741  24.446  27.278  1.00  0.00     0.010 A 
ATOM     46  C   UNL A   1      43.277  24.423  28.592  1.00  0.00    -0.014 A 
BRANCH  46  47
ATOM     47  C   UNL A   1      43.225  25.724  29.220  1.00  0.00     0.031 A 
ATOM     48  C   UNL A   1      42.022  26.521  28.954  1.00  0.00     0.074 A 
ATOM     49  C   UNL A   1      44.181  26.079  30.102  1.00  0.00     0.049 A 
ATOM     50  N   UNL A   1      41.949  27.797  29.046  1.00  0.00    -0.248 NA
ATOM     51  C   UNL A   1      40.793  25.905  28.458  1.00  0.00     0.031 C 
ATOM     52  C   UNL A   1      44.167  27.185  31.053  1.00  0.00     0.029 A 
ATOM     53  N   UNL A   1      45.489  25.598  30.151  1.00  0.00    -0.354 N 
ATOM     54  C   UNL A   1      40.619  28.138  28.921  1.00  0.00     0.074 A 
ATOM     55  C   UNL A   1      39.973  26.954  28.423  1.00  0.00     0.031 C 
ATOM     56  C   UNL A   1      45.434  27.467  31.406  1.00  0.00     0.029 A 
ATOM     57  C   UNL A   1      46.305  26.676  30.552  1.00  0.00     0.049 A 
ATOM     58  H   UNL A   1      45.785  24.682  29.947  1.00  0.00     0.167 HD
ATOM     59  C   UNL A   1      40.209  29.338  29.414  1.00  0.00     0.034 A 
ATOM     60  C   UNL A   1      47.211  27.194  29.665  1.00  0.00     0.034 A 
ATOM     61  C   UNL A   1      41.368  30.097  29.905  1.00  0.00     0.049 A 
ATOM     62  C   UNL A   1      46.870  28.590  29.196  1.00  0.00     0.074 A 
ATOM     63  C   UNL A   1      41.932  30.264  31.160  1.00  0.00     0.029 A 
ATOM     64  N   UNL A   1      42.340  30.490  28.999  1.00  0.00    -0.354 N 
ATOM     65  N   UNL A   1      45.775  29.237  29.489  1.00  0.00    -0.248 NA
ATOM     66  C   UNL A   1      47.721  29.308  28.257  1.00  0.00     0.031 C 
ATOM     67  C   UNL A   1      43.281  30.702  30.982  1.00  0.00     0.029 A 
ATOM     68  C   UNL A   1      43.516  30.861  29.627  1.00  0.00     0.049 A 
ATOM     69  H   UNL A   1      42.210  30.502  28.024  1.00  0.00     0.167 HD
ATOM     70  C   UNL A   1      45.718  30.392  28.753  1.00  0.00     0.074 A 
ATOM     71  C   UNL A   1      46.951  30.370  27.975  1.00  0.00     0.031 C 
ATOM     72  C   UNL A   1      44.653  31.257  28.803  1.00  0.00     0.034 A 
BRANCH  59  73
ATOM     73  C   UNL A   1      38.773  29.705  29.730  1.00  0.00     0.023 A 
ATOM     74  C   UNL A   1      38.273  30.916  29.209  1.00  0.00     0.031 A 
ATOM     75  C   UNL A   1      37.868  28.996  30.550  1.00  0.00     0.131 A 
ATOM     76  C   UNL A   1      37.003  31.408  29.565  1.00  0.00     0.055 A 
ATOM     77  C   UNL A   1      36.618  29.501  30.935  1.00  0.00     0.041 A 
ATOM     78  F   UNL A   1      38.108  27.758  30.988  1.00  0.00    -0.206 F 
ATOM     79  C   UNL A   1      36.180  30.719  30.449  1.00  0.00     0.022 A 
BRANCH  76  80
ATOM     80  S   UNL A   1      36.444  32.976  28.855  1.00  0.00     0.124 S 
ATOM     81  O   UNL A   1      35.551  33.480  29.894  1.00  0.00    -0.237 OA
ATOM     82  O   UNL A   1      37.699  33.696  28.671  1.00  0.00    -0.237 OA
ATOM     83  O   UNL A   1      35.780  32.569  27.617  1.00  0.00    -0.744 OA
ENDBRANCH  76  80
ENDBRANCH  59  73
BRANCH  60  84
ATOM     84  C   UNL A   1      47.813  26.136  28.790  1.00  0.00     0.023 A 
ATOM     85  C   UNL A   1      47.424  26.175  27.440  1.00  0.00     0.031 A 
ATOM     86  C   UNL A   1      49.058  25.572  29.103  1.00  0.00     0.131 A 
ATOM     87  C   UNL A   1      48.397  25.986  26.450  1.00  0.00     0.055 A 
ATOM     88  C   UNL A   1      49.978  25.256  28.096  1.00  0.00     0.041 A 
ATOM     89  F   UNL A   1      49.472  25.481  30.375  1.00  0.00    -0.206 F 
ATOM     90  C   UNL A   1      49.681  25.549  26.768  1.00  0.00     0.022 A 
BRANCH  87  91
ATOM     91  S   UNL A   1      48.053  26.710  24.832  1.00  0.00     0.124 S 
ATOM     92  O   UNL A   1      48.079  28.139  25.123  1.00  0.00    -0.237 OA
ATOM     93  O   UNL A   1      49.170  26.197  24.040  1.00  0.00    -0.237 OA
ATOM     94  O   UNL A   1      46.748  26.168  24.453  1.00  0.00    -0.744 OA
ENDBRANCH  87  91
ENDBRANCH  60  84
BRANCH  72  95
ATOM     95  C   UNL A   1      44.593  32.538  27.998  1.00  0.00     0.023 A 
ATOM     96  C   UNL A   1      44.886  33.779  28.573  1.00  0.00     0.031 A 
ATOM     97  C   UNL A   1      44.224  32.580  26.633  1.00  0.00     0.131 A 
ATOM     98  C   UNL A   1      45.029  34.931  27.788  1.00  0.00     0.055 A 
ATOM     99  C   UNL A   1      44.258  33.749  25.869  1.00  0.00     0.041 A 
ATOM    100  F   UNL A   1      43.828  31.491  25.960  1.00  0.00    -0.206 F 
ATOM    101  C   UNL A   1      44.706  34.930  26.436  1.00  0.00     0.022 A 
BRANCH  98 102
ATOM    102  S   UNL A   1      45.749  36.395  28.564  1.00  0.00     0.124 S 
ATOM    103  O   UNL A   1      46.262  35.867  29.825  1.00  0.00    -0.237 OA
ATOM    104  O   UNL A   1      46.762  36.780  27.584  1.00  0.00    -0.237 OA
ATOM    105  O   UNL A   1      44.618  37.311  28.686  1.00  0.00    -0.744 OA
ENDBRANCH  98 102
ENDBRANCH  72  95
ENDBRANCH  46  47
ENDBRANCH  38  41
ENDBRANCH  36  37
ENDBRANCH  35  36
ENDBRANCH  34  35
ENDBRANCH   1  34
TORSDOF 20
ENDMDL
