MODEL 1
REMARK VINA RESULT:     -12.1      0.000      0.000
REMARK SMILES Cc1cc(F)cc(NC(=O)N[C@@H]2COC[C@H]2C(=O)NCCCCCCNC(=O)c2ccc(-c3c4nc(c(-c5cc(S(=O)(=O)[O-])ccc5F)c5ccc([nH]5)c(-c5cc(S(=O)(=O)[O-])ccc5F)c5nc(c(-c6cc(S(=O)(=O)[O-])ccc6F)c6ccc3[nH]6)C=C5)C=C4)cc2)c1
REMARK SMILES IDX 23 1 22 2 21 3 20 4 19 5 17 6 18 7 16 9 12 10 13 11 14 12
REMARK SMILES IDX 15 13 11 14 8 15 9 16 10 18 7 20 1 21 2 22 3 23 92 24 4 25
REMARK SMILES IDX 5 26 6 27 24 28 25 29 26 30 27 31 28 33 29 34 30 35 91 36
REMARK SMILES IDX 31 37 90 38 32 39 33 40 34 41 84 42 35 43 89 44 83 45 85 46
REMARK SMILES IDX 36 47 88 48 82 49 81 50 37 52 69 53 49 54 68 55 50 56 53 57
REMARK SMILES IDX 67 58 86 59 51 60 52 61 66 63 87 64 54 65 38 66 39 67 47 68
REMARK SMILES IDX 40 69 46 70 48 71 45 72 41 73 42 74 43 75 44 76 70 77 71 78
REMARK SMILES IDX 79 79 72 80 78 81 80 82 77 83 73 84 74 85 75 86 76 87 55 88
REMARK SMILES IDX 56 89 64 90 57 91 63 92 65 93 62 94 58 95 59 96 60 97 61 98
REMARK H PARENT 19 8 8 17 11 19 26 32 85 51 53 62
REMARK Flexibility Score: inf
ROOT
ATOM      1  C   UNL A   1      32.134  30.040  26.152  1.00  0.00     0.002 C 
ENDROOT
BRANCH   1   2
ATOM      2  C   UNL A   1      32.671  28.823  26.914  1.00  0.00     0.002 C 
BRANCH   2   3
ATOM      3  C   UNL A   1      33.710  28.011  26.144  1.00  0.00     0.021 C 
BRANCH   3   4
ATOM      4  C   UNL A   1      33.469  26.515  26.238  1.00  0.00     0.116 C 
BRANCH   4   5
ATOM      5  N   UNL A   1      34.082  25.818  25.125  1.00  0.00    -0.356 N 
ATOM      6  C   UNL A   1      34.450  24.516  24.994  1.00  0.00     0.227 C 
ATOM      7  O   UNL A   1      35.026  24.188  23.954  1.00  0.00    -0.275 OA
ATOM      8  H   UNL A   1      34.262  26.380  24.336  1.00  0.00     0.163 HD
BRANCH   6   9
ATOM      9  C   UNL A   1      34.163  23.490  26.078  1.00  0.00     0.129 C 
ATOM     10  C   UNL A   1      32.960  22.615  25.781  1.00  0.00     0.124 C 
ATOM     11  C   UNL A   1      33.446  21.171  25.819  1.00  0.00     0.186 C 
ATOM     12  O   UNL A   1      34.867  21.188  26.041  1.00  0.00    -0.378 OA
ATOM     13  C   UNL A   1      35.336  22.535  26.232  1.00  0.00     0.176 C 
BRANCH  10  14
ATOM     14  N   UNL A   1      31.711  22.912  26.504  1.00  0.00    -0.332 N 
ATOM     15  N   UNL A   1      30.087  24.502  25.662  1.00  0.00    -0.308 N 
ATOM     16  C   UNL A   1      30.577  23.592  26.502  1.00  0.00     0.319 C 
ATOM     17  H   UNL A   1      29.149  24.687  25.889  1.00  0.00     0.171 HD
ATOM     18  O   UNL A   1      29.821  23.303  27.447  1.00  0.00    -0.248 OA
ATOM     19  H   UNL A   1      31.727  22.383  27.334  1.00  0.00     0.165 HD
BRANCH  15  20
ATOM     20  C   UNL A   1      30.464  25.285  24.564  1.00  0.00     0.046 A 
ATOM     21  C   UNL A   1      30.159  28.947  23.471  1.00  0.00     0.044 C 
ATOM     22  C   UNL A   1      30.493  27.488  23.485  1.00  0.00    -0.046 A 
ATOM     23  C   UNL A   1      31.175  26.952  22.393  1.00  0.00     0.042 A 
ATOM     24  C   UNL A   1      30.128  26.647  24.559  1.00  0.00     0.029 A 
ATOM     25  C   UNL A   1      31.524  25.622  22.414  1.00  0.00     0.125 A 
ATOM     26  F   UNL A   1      32.191  25.091  21.382  1.00  0.00    -0.207 F 
ATOM     27  C   UNL A   1      31.192  24.823  23.499  1.00  0.00     0.065 A 
ENDBRANCH  15  20
ENDBRANCH  10  14
ENDBRANCH   6   9
ENDBRANCH   4   5
ENDBRANCH   3   4
ENDBRANCH   2   3
ENDBRANCH   1   2
BRANCH   1  28
ATOM     28  C   UNL A   1      31.874  31.275  27.019  1.00  0.00     0.021 C 
BRANCH  28  29
ATOM     29  C   UNL A   1      33.119  32.104  27.305  1.00  0.00     0.116 C 
BRANCH  29  30
ATOM     30  N   UNL A   1      32.780  33.497  27.543  1.00  0.00    -0.352 N 
ATOM     31  C   UNL A   1      33.228  34.320  28.541  1.00  0.00     0.251 C 
ATOM     32  H   UNL A   1      32.147  33.900  26.906  1.00  0.00     0.163 HD
ATOM     33  O   UNL A   1      32.661  35.383  28.774  1.00  0.00    -0.269 OA
BRANCH  31  34
ATOM     34  C   UNL A   1      34.393  33.889  29.334  1.00  0.00     0.039 A 
ATOM     35  C   UNL A   1      34.205  33.000  30.393  1.00  0.00     0.014 A 
ATOM     36  C   UNL A   1      35.674  34.328  28.984  1.00  0.00     0.014 A 
ATOM     37  C   UNL A   1      35.318  32.503  31.070  1.00  0.00     0.010 A 
ATOM     38  C   UNL A   1      36.782  33.776  29.612  1.00  0.00     0.010 A 
ATOM     39  C   UNL A   1      36.615  32.859  30.662  1.00  0.00    -0.014 A 
BRANCH  39  40
ATOM     40  C   UNL A   1      37.815  32.278  31.311  1.00  0.00     0.031 A 
ATOM     41  C   UNL A   1      38.558  31.158  30.635  1.00  0.00     0.074 A 
ATOM     42  C   UNL A   1      38.178  32.703  32.537  1.00  0.00     0.049 A 
ATOM     43  N   UNL A   1      39.555  30.443  31.082  1.00  0.00    -0.248 NA
ATOM     44  C   UNL A   1      38.097  30.774  29.291  1.00  0.00     0.031 C 
ATOM     45  C   UNL A   1      37.505  33.760  33.299  1.00  0.00     0.029 A 
ATOM     46  N   UNL A   1      39.187  32.289  33.371  1.00  0.00    -0.354 N 
ATOM     47  C   UNL A   1      39.828  29.510  30.088  1.00  0.00     0.074 A 
ATOM     48  C   UNL A   1      38.863  29.724  29.031  1.00  0.00     0.031 C 
ATOM     49  C   UNL A   1      38.127  33.917  34.478  1.00  0.00     0.029 A 
ATOM     50  C   UNL A   1      39.202  32.936  34.586  1.00  0.00     0.049 A 
ATOM     51  H   UNL A   1      39.839  31.595  33.122  1.00  0.00     0.167 HD
ATOM     52  C   UNL A   1      40.802  28.569  30.059  1.00  0.00     0.034 A 
ATOM     53  C   UNL A   1      39.975  32.740  35.673  1.00  0.00     0.034 A 
ATOM     54  C   UNL A   1      41.767  28.390  31.115  1.00  0.00     0.049 A 
ATOM     55  C   UNL A   1      41.035  31.666  35.621  1.00  0.00     0.074 A 
ATOM     56  C   UNL A   1      42.852  27.532  31.148  1.00  0.00     0.029 A 
ATOM     57  N   UNL A   1      41.757  29.065  32.328  1.00  0.00    -0.354 N 
ATOM     58  N   UNL A   1      41.332  30.846  34.639  1.00  0.00    -0.248 NA
ATOM     59  C   UNL A   1      41.867  31.493  36.819  1.00  0.00     0.031 C 
ATOM     60  C   UNL A   1      43.443  27.623  32.412  1.00  0.00     0.029 A 
ATOM     61  C   UNL A   1      42.784  28.603  33.136  1.00  0.00     0.049 A 
ATOM     62  H   UNL A   1      41.114  29.766  32.579  1.00  0.00     0.167 HD
ATOM     63  C   UNL A   1      42.404  30.082  35.093  1.00  0.00     0.074 A 
ATOM     64  C   UNL A   1      42.714  30.554  36.426  1.00  0.00     0.031 C 
ATOM     65  C   UNL A   1      43.074  29.081  34.468  1.00  0.00     0.034 A 
BRANCH  52  66
ATOM     66  C   UNL A   1      40.855  27.639  28.874  1.00  0.00     0.023 A 
ATOM     67  C   UNL A   1      41.817  27.775  27.858  1.00  0.00     0.031 A 
ATOM     68  C   UNL A   1      39.931  26.582  28.769  1.00  0.00     0.131 A 
ATOM     69  C   UNL A   1      41.802  26.901  26.760  1.00  0.00     0.055 A 
ATOM     70  C   UNL A   1      39.968  25.672  27.712  1.00  0.00     0.041 A 
ATOM     71  F   UNL A   1      38.974  26.419  29.696  1.00  0.00    -0.206 F 
ATOM     72  C   UNL A   1      40.903  25.833  26.694  1.00  0.00     0.022 A 
BRANCH  69  73
ATOM     73  S   UNL A   1      42.904  27.244  25.361  1.00  0.00     0.124 S 
ATOM     74  O   UNL A   1      42.192  28.323  24.681  1.00  0.00    -0.237 OA
ATOM     75  O   UNL A   1      44.148  27.619  26.025  1.00  0.00    -0.237 OA
ATOM     76  O   UNL A   1      42.943  25.977  24.635  1.00  0.00    -0.744 OA
ENDBRANCH  69  73
ENDBRANCH  52  66
BRANCH  53  77
ATOM     77  C   UNL A   1      39.761  33.535  36.919  1.00  0.00     0.023 A 
ATOM     78  C   UNL A   1      39.078  32.993  38.018  1.00  0.00     0.031 A 
ATOM     79  C   UNL A   1      40.170  34.879  36.999  1.00  0.00     0.131 A 
ATOM     80  C   UNL A   1      38.763  33.805  39.118  1.00  0.00     0.055 A 
ATOM     81  C   UNL A   1      39.916  35.664  38.125  1.00  0.00     0.041 A 
ATOM     82  F   UNL A   1      40.828  35.452  35.978  1.00  0.00    -0.206 F 
ATOM     83  C   UNL A   1      39.190  35.133  39.186  1.00  0.00     0.022 A 
BRANCH  80  84
ATOM     84  S   UNL A   1      37.670  33.136  40.403  1.00  0.00     0.124 S 
ATOM     85  O   UNL A   1      38.437  31.989  40.875  1.00  0.00    -0.237 OA
ATOM     86  O   UNL A   1      37.565  34.262  41.325  1.00  0.00    -0.237 OA
ATOM     87  O   UNL A   1      36.446  32.813  39.673  1.00  0.00    -0.744 OA
ENDBRANCH  80  84
ENDBRANCH  53  77
BRANCH  65  88
ATOM     88  C   UNL A   1      44.234  28.462  35.207  1.00  0.00     0.023 A 
ATOM     89  C   UNL A   1      44.087  27.283  35.959  1.00  0.00     0.031 A 
ATOM     90  C   UNL A   1      45.506  29.061  35.157  1.00  0.00     0.131 A 
ATOM     91  C   UNL A   1      45.182  26.770  36.672  1.00  0.00     0.055 A 
ATOM     92  C   UNL A   1      46.605  28.510  35.814  1.00  0.00     0.041 A 
ATOM     93  F   UNL A   1      45.701  30.191  34.458  1.00  0.00    -0.206 F 
ATOM     94  C   UNL A   1      46.443  27.363  36.588  1.00  0.00     0.022 A 
BRANCH  91  95
ATOM     95  S   UNL A   1      44.913  25.363  37.783  1.00  0.00     0.124 S 
ATOM     96  O   UNL A   1      45.566  25.813  39.007  1.00  0.00    -0.237 OA
ATOM     97  O   UNL A   1      43.456  25.277  37.833  1.00  0.00    -0.237 OA
ATOM     98  O   UNL A   1      45.573  24.253  37.098  1.00  0.00    -0.744 OA
ENDBRANCH  91  95
ENDBRANCH  65  88
ENDBRANCH  39  40
ENDBRANCH  31  34
ENDBRANCH  29  30
ENDBRANCH  28  29
ENDBRANCH   1  28
TORSDOF 18
ENDMDL
MODEL 2
REMARK VINA RESULT:     -11.9      1.361      1.715
REMARK SMILES Cc1cc(F)cc(NC(=O)N[C@@H]2COC[C@H]2C(=O)NCCCCCCNC(=O)c2ccc(-c3c4nc(c(-c5cc(S(=O)(=O)[O-])ccc5F)c5ccc([nH]5)c(-c5cc(S(=O)(=O)[O-])ccc5F)c5nc(c(-c6cc(S(=O)(=O)[O-])ccc6F)c6ccc3[nH]6)C=C5)C=C4)cc2)c1
REMARK SMILES IDX 23 1 22 2 21 3 20 4 19 5 17 6 18 7 16 9 12 10 13 11 14 12
REMARK SMILES IDX 15 13 11 14 8 15 9 16 10 18 7 20 1 21 2 22 3 23 92 24 4 25
REMARK SMILES IDX 5 26 6 27 24 28 25 29 26 30 27 31 28 33 29 34 30 35 91 36
REMARK SMILES IDX 31 37 90 38 32 39 33 40 34 41 84 42 35 43 89 44 83 45 85 46
REMARK SMILES IDX 36 47 88 48 82 49 81 50 37 52 69 53 49 54 68 55 50 56 53 57
REMARK SMILES IDX 67 58 86 59 51 60 52 61 66 63 87 64 54 65 38 66 39 67 47 68
REMARK SMILES IDX 40 69 46 70 48 71 45 72 41 73 42 74 43 75 44 76 70 77 71 78
REMARK SMILES IDX 79 79 72 80 78 81 80 82 77 83 73 84 74 85 75 86 76 87 55 88
REMARK SMILES IDX 56 89 64 90 57 91 63 92 65 93 62 94 58 95 59 96 60 97 61 98
REMARK H PARENT 19 8 8 17 11 19 26 32 85 51 53 62
REMARK Flexibility Score: inf
ROOT
ATOM      1  C   UNL A   1      31.403  30.452  25.579  1.00  0.00     0.002 C 
ENDROOT
BRANCH   1   2
ATOM      2  C   UNL A   1      32.099  29.250  26.227  1.00  0.00     0.002 C 
BRANCH   2   3
ATOM      3  C   UNL A   1      32.993  28.457  25.276  1.00  0.00     0.021 C 
BRANCH   3   4
ATOM      4  C   UNL A   1      33.439  27.130  25.863  1.00  0.00     0.116 C 
BRANCH   4   5
ATOM      5  N   UNL A   1      33.962  26.255  24.833  1.00  0.00    -0.356 N 
ATOM      6  C   UNL A   1      34.272  24.932  24.873  1.00  0.00     0.227 C 
ATOM      7  O   UNL A   1      34.776  24.434  23.864  1.00  0.00    -0.275 OA
ATOM      8  H   UNL A   1      34.118  26.690  23.963  1.00  0.00     0.163 HD
BRANCH   6   9
ATOM      9  C   UNL A   1      34.008  24.085  26.106  1.00  0.00     0.129 C 
ATOM     10  C   UNL A   1      32.914  23.052  25.910  1.00  0.00     0.124 C 
ATOM     11  C   UNL A   1      33.529  21.694  26.230  1.00  0.00     0.186 C 
ATOM     12  O   UNL A   1      34.924  21.896  26.517  1.00  0.00    -0.378 OA
ATOM     13  C   UNL A   1      35.251  23.297  26.488  1.00  0.00     0.176 C 
BRANCH  10  14
ATOM     14  N   UNL A   1      31.596  23.339  26.502  1.00  0.00    -0.332 N 
ATOM     15  N   UNL A   1      29.965  24.742  25.389  1.00  0.00    -0.308 N 
ATOM     16  C   UNL A   1      30.432  23.946  26.348  1.00  0.00     0.319 C 
ATOM     17  H   UNL A   1      29.002  24.890  25.524  1.00  0.00     0.171 HD
ATOM     18  O   UNL A   1      29.618  23.700  27.256  1.00  0.00    -0.248 OA
ATOM     19  H   UNL A   1      31.573  22.891  27.379  1.00  0.00     0.165 HD
BRANCH  15  20
ATOM     20  C   UNL A   1      30.388  25.441  24.252  1.00  0.00     0.046 A 
ATOM     21  C   UNL A   1      29.904  28.932  22.741  1.00  0.00     0.044 C 
ATOM     22  C   UNL A   1      30.350  27.518  22.945  1.00  0.00    -0.046 A 
ATOM     23  C   UNL A   1      31.181  26.937  21.986  1.00  0.00     0.042 A 
ATOM     24  C   UNL A   1      29.947  26.760  24.066  1.00  0.00     0.029 A 
ATOM     25  C   UNL A   1      31.631  25.653  22.185  1.00  0.00     0.125 A 
ATOM     26  F   UNL A   1      32.439  25.082  21.284  1.00  0.00    -0.207 F 
ATOM     27  C   UNL A   1      31.255  24.941  23.315  1.00  0.00     0.065 A 
ENDBRANCH  15  20
ENDBRANCH  10  14
ENDBRANCH   6   9
ENDBRANCH   4   5
ENDBRANCH   3   4
ENDBRANCH   2   3
ENDBRANCH   1   2
BRANCH   1  28
ATOM     28  C   UNL A   1      31.322  31.699  26.465  1.00  0.00     0.021 C 
BRANCH  28  29
ATOM     29  C   UNL A   1      32.678  32.242  26.896  1.00  0.00     0.116 C 
BRANCH  29  30
ATOM     30  N   UNL A   1      32.564  33.600  27.400  1.00  0.00    -0.352 N 
ATOM     31  C   UNL A   1      33.278  34.193  28.405  1.00  0.00     0.251 C 
ATOM     32  H   UNL A   1      31.887  34.165  26.963  1.00  0.00     0.163 HD
ATOM     33  O   UNL A   1      32.900  35.251  28.899  1.00  0.00    -0.269 OA
BRANCH  31  34
ATOM     34  C   UNL A   1      34.498  33.522  28.888  1.00  0.00     0.039 A 
ATOM     35  C   UNL A   1      35.742  34.101  28.633  1.00  0.00     0.014 A 
ATOM     36  C   UNL A   1      34.394  32.348  29.643  1.00  0.00     0.014 A 
ATOM     37  C   UNL A   1      36.886  33.528  29.187  1.00  0.00     0.010 A 
ATOM     38  C   UNL A   1      35.526  31.824  30.252  1.00  0.00     0.010 A 
ATOM     39  C   UNL A   1      36.783  32.408  30.029  1.00  0.00    -0.014 A 
BRANCH  39  40
ATOM     40  C   UNL A   1      37.975  31.833  30.697  1.00  0.00     0.031 A 
ATOM     41  C   UNL A   1      38.782  30.775  29.996  1.00  0.00     0.074 A 
ATOM     42  C   UNL A   1      38.274  32.204  31.958  1.00  0.00     0.049 A 
ATOM     43  N   UNL A   1      39.785  30.069  30.447  1.00  0.00    -0.248 NA
ATOM     44  C   UNL A   1      38.389  30.448  28.616  1.00  0.00     0.031 C 
ATOM     45  C   UNL A   1      37.536  33.197  32.744  1.00  0.00     0.029 A 
ATOM     46  N   UNL A   1      39.263  31.779  32.811  1.00  0.00    -0.354 N 
ATOM     47  C   UNL A   1      40.129  29.199  29.418  1.00  0.00     0.074 A 
ATOM     48  C   UNL A   1      39.200  29.438  28.335  1.00  0.00     0.031 C 
ATOM     49  C   UNL A   1      38.103  33.311  33.955  1.00  0.00     0.029 A 
ATOM     50  C   UNL A   1      39.207  32.362  34.057  1.00  0.00     0.049 A 
ATOM     51  H   UNL A   1      39.947  31.120  32.554  1.00  0.00     0.167 HD
ATOM     52  C   UNL A   1      41.135  28.293  29.382  1.00  0.00     0.034 A 
ATOM     53  C   UNL A   1      39.941  32.133  35.164  1.00  0.00     0.034 A 
ATOM     54  C   UNL A   1      42.063  28.089  30.466  1.00  0.00     0.049 A 
ATOM     55  C   UNL A   1      41.039  31.098  35.100  1.00  0.00     0.074 A 
ATOM     56  C   UNL A   1      43.174  27.266  30.501  1.00  0.00     0.029 A 
ATOM     57  N   UNL A   1      41.981  28.698  31.712  1.00  0.00    -0.354 N 
ATOM     58  N   UNL A   1      41.403  30.340  34.091  1.00  0.00    -0.248 NA
ATOM     59  C   UNL A   1      41.828  30.889  36.322  1.00  0.00     0.031 C 
ATOM     60  C   UNL A   1      43.711  27.309  31.791  1.00  0.00     0.029 A 
ATOM     61  C   UNL A   1      42.990  28.228  32.537  1.00  0.00     0.049 A 
ATOM     62  H   UNL A   1      41.304  29.365  31.971  1.00  0.00     0.167 HD
ATOM     63  C   UNL A   1      42.482  29.589  34.550  1.00  0.00     0.074 A 
ATOM     64  C   UNL A   1      42.722  29.999  35.917  1.00  0.00     0.031 C 
ATOM     65  C   UNL A   1      43.209  28.644  33.902  1.00  0.00     0.034 A 
BRANCH  52  66
ATOM     66  C   UNL A   1      41.267  27.429  28.153  1.00  0.00     0.023 A 
ATOM     67  C   UNL A   1      40.888  26.076  28.147  1.00  0.00     0.031 A 
ATOM     68  C   UNL A   1      41.767  27.979  26.958  1.00  0.00     0.131 A 
ATOM     69  C   UNL A   1      41.061  25.307  26.985  1.00  0.00     0.055 A 
ATOM     70  C   UNL A   1      41.867  27.229  25.786  1.00  0.00     0.041 A 
ATOM     71  F   UNL A   1      42.168  29.259  26.912  1.00  0.00    -0.206 F 
ATOM     72  C   UNL A   1      41.521  25.881  25.797  1.00  0.00     0.022 A 
BRANCH  69  73
ATOM     73  S   UNL A   1      40.781  23.518  27.077  1.00  0.00     0.124 S 
ATOM     74  O   UNL A   1      41.480  23.047  25.884  1.00  0.00    -0.237 OA
ATOM     75  O   UNL A   1      41.392  23.168  28.355  1.00  0.00    -0.237 OA
ATOM     76  O   UNL A   1      39.326  23.395  27.028  1.00  0.00    -0.744 OA
ENDBRANCH  69  73
ENDBRANCH  52  66
BRANCH  53  77
ATOM     77  C   UNL A   1      39.651  32.854  36.439  1.00  0.00     0.023 A 
ATOM     78  C   UNL A   1      38.746  32.335  37.376  1.00  0.00     0.031 A 
ATOM     79  C   UNL A   1      40.217  34.115  36.703  1.00  0.00     0.131 A 
ATOM     80  C   UNL A   1      38.380  33.098  38.496  1.00  0.00     0.055 A 
ATOM     81  C   UNL A   1      39.903  34.841  37.853  1.00  0.00     0.041 A 
ATOM     82  F   UNL A   1      41.090  34.663  35.842  1.00  0.00    -0.206 F 
ATOM     83  C   UNL A   1      38.963  34.341  38.749  1.00  0.00     0.022 A 
BRANCH  80  84
ATOM     84  S   UNL A   1      37.029  32.498  39.549  1.00  0.00     0.124 S 
ATOM     85  O   UNL A   1      37.126  33.397  40.693  1.00  0.00    -0.237 OA
ATOM     86  O   UNL A   1      35.869  32.682  38.684  1.00  0.00    -0.237 OA
ATOM     87  O   UNL A   1      37.396  31.108  39.812  1.00  0.00    -0.744 OA
ENDBRANCH  80  84
ENDBRANCH  53  77
BRANCH  65  88
ATOM     88  C   UNL A   1      44.360  28.025  34.657  1.00  0.00     0.023 A 
ATOM     89  C   UNL A   1      44.199  26.854  35.418  1.00  0.00     0.031 A 
ATOM     90  C   UNL A   1      45.636  28.615  34.611  1.00  0.00     0.131 A 
ATOM     91  C   UNL A   1      45.285  26.340  36.144  1.00  0.00     0.055 A 
ATOM     92  C   UNL A   1      46.726  28.063  35.282  1.00  0.00     0.041 A 
ATOM     93  F   UNL A   1      45.844  29.737  33.903  1.00  0.00    -0.206 F 
ATOM     94  C   UNL A   1      46.551  26.924  36.065  1.00  0.00     0.022 A 
BRANCH  91  95
ATOM     95  S   UNL A   1      44.998  24.944  37.266  1.00  0.00     0.124 S 
ATOM     96  O   UNL A   1      43.897  24.248  36.609  1.00  0.00    -0.237 OA
ATOM     97  O   UNL A   1      46.287  24.259  37.248  1.00  0.00    -0.237 OA
ATOM     98  O   UNL A   1      44.658  25.588  38.534  1.00  0.00    -0.744 OA
ENDBRANCH  91  95
ENDBRANCH  65  88
ENDBRANCH  39  40
ENDBRANCH  31  34
ENDBRANCH  29  30
ENDBRANCH  28  29
ENDBRANCH   1  28
TORSDOF 18
ENDMDL
MODEL 3
REMARK VINA RESULT:     -11.9      6.050     11.226
REMARK SMILES Cc1cc(F)cc(NC(=O)N[C@@H]2COC[C@H]2C(=O)NCCCCCCNC(=O)c2ccc(-c3c4nc(c(-c5cc(S(=O)(=O)[O-])ccc5F)c5ccc([nH]5)c(-c5cc(S(=O)(=O)[O-])ccc5F)c5nc(c(-c6cc(S(=O)(=O)[O-])ccc6F)c6ccc3[nH]6)C=C5)C=C4)cc2)c1
REMARK SMILES IDX 23 1 22 2 21 3 20 4 19 5 17 6 18 7 16 9 12 10 13 11 14 12
REMARK SMILES IDX 15 13 11 14 8 15 9 16 10 18 7 20 1 21 2 22 3 23 92 24 4 25
REMARK SMILES IDX 5 26 6 27 24 28 25 29 26 30 27 31 28 33 29 34 30 35 91 36
REMARK SMILES IDX 31 37 90 38 32 39 33 40 34 41 84 42 35 43 89 44 83 45 85 46
REMARK SMILES IDX 36 47 88 48 82 49 81 50 37 52 69 53 49 54 68 55 50 56 53 57
REMARK SMILES IDX 67 58 86 59 51 60 52 61 66 63 87 64 54 65 38 66 39 67 47 68
REMARK SMILES IDX 40 69 46 70 48 71 45 72 41 73 42 74 43 75 44 76 70 77 71 78
REMARK SMILES IDX 79 79 72 80 78 81 80 82 77 83 73 84 74 85 75 86 76 87 55 88
REMARK SMILES IDX 56 89 64 90 57 91 63 92 65 93 62 94 58 95 59 96 60 97 61 98
REMARK H PARENT 19 8 8 17 11 19 26 32 85 51 53 62
REMARK Flexibility Score: inf
ROOT
ATOM      1  C   UNL A   1      36.585  21.076  25.058  1.00  0.00     0.002 C 
ENDROOT
BRANCH   1   2
ATOM      2  C   UNL A   1      36.783  22.596  25.040  1.00  0.00     0.002 C 
BRANCH   2   3
ATOM      3  C   UNL A   1      35.754  23.370  25.861  1.00  0.00     0.021 C 
BRANCH   3   4
ATOM      4  C   UNL A   1      35.113  24.502  25.079  1.00  0.00     0.116 C 
BRANCH   4   5
ATOM      5  N   UNL A   1      33.975  25.047  25.790  1.00  0.00    -0.356 N 
ATOM      6  C   UNL A   1      33.289  26.206  25.603  1.00  0.00     0.227 C 
ATOM      7  O   UNL A   1      32.390  26.473  26.403  1.00  0.00    -0.275 OA
ATOM      8  H   UNL A   1      33.644  24.487  26.530  1.00  0.00     0.163 HD
BRANCH   6   9
ATOM      9  C   UNL A   1      33.604  27.146  24.451  1.00  0.00     0.129 C 
ATOM     10  C   UNL A   1      32.565  27.121  23.346  1.00  0.00     0.124 C 
ATOM     11  C   UNL A   1      32.069  28.553  23.177  1.00  0.00     0.186 C 
ATOM     12  O   UNL A   1      32.712  29.365  24.175  1.00  0.00    -0.378 OA
ATOM     13  C   UNL A   1      33.654  28.586  24.935  1.00  0.00     0.176 C 
BRANCH  10  14
ATOM     14  N   UNL A   1      32.901  26.387  22.114  1.00  0.00    -0.332 N 
ATOM     15  N   UNL A   1      32.571  23.994  21.914  1.00  0.00    -0.308 N 
ATOM     16  C   UNL A   1      32.905  25.215  21.501  1.00  0.00     0.319 C 
ATOM     17  H   UNL A   1      32.554  23.381  21.146  1.00  0.00     0.171 HD
ATOM     18  O   UNL A   1      33.260  25.278  20.311  1.00  0.00    -0.248 OA
ATOM     19  H   UNL A   1      33.281  27.041  21.485  1.00  0.00     0.165 HD
BRANCH  15  20
ATOM     20  C   UNL A   1      32.238  23.292  23.079  1.00  0.00     0.046 A 
ATOM     21  C   UNL A   1      33.248  20.010  24.783  1.00  0.00     0.044 C 
ATOM     22  C   UNL A   1      32.577  21.315  24.492  1.00  0.00    -0.046 A 
ATOM     23  C   UNL A   1      31.631  21.793  25.400  1.00  0.00     0.042 A 
ATOM     24  C   UNL A   1      32.864  22.062  23.328  1.00  0.00     0.029 A 
ATOM     25  C   UNL A   1      31.039  23.012  25.164  1.00  0.00     0.125 A 
ATOM     26  F   UNL A   1      30.140  23.495  26.029  1.00  0.00    -0.207 F 
ATOM     27  C   UNL A   1      31.367  23.749  24.034  1.00  0.00     0.065 A 
ENDBRANCH  15  20
ENDBRANCH  10  14
ENDBRANCH   6   9
ENDBRANCH   4   5
ENDBRANCH   3   4
ENDBRANCH   2   3
ENDBRANCH   1   2
BRANCH   1  28
ATOM     28  C   UNL A   1      37.862  20.262  24.837  1.00  0.00     0.021 C 
BRANCH  28  29
ATOM     29  C   UNL A   1      39.006  20.639  25.769  1.00  0.00     0.116 C 
BRANCH  29  30
ATOM     30  N   UNL A   1      39.917  19.524  25.962  1.00  0.00    -0.352 N 
ATOM     31  C   UNL A   1      41.276  19.558  26.126  1.00  0.00     0.251 C 
ATOM     32  H   UNL A   1      39.506  18.630  25.977  1.00  0.00     0.163 HD
ATOM     33  O   UNL A   1      41.943  18.534  26.014  1.00  0.00    -0.269 OA
BRANCH  31  34
ATOM     34  C   UNL A   1      41.914  20.853  26.420  1.00  0.00     0.039 A 
ATOM     35  C   UNL A   1      42.143  21.752  25.378  1.00  0.00     0.014 A 
ATOM     36  C   UNL A   1      42.230  21.189  27.741  1.00  0.00     0.014 A 
ATOM     37  C   UNL A   1      42.641  23.021  25.671  1.00  0.00     0.010 A 
ATOM     38  C   UNL A   1      42.655  22.477  28.036  1.00  0.00     0.010 A 
ATOM     39  C   UNL A   1      42.866  23.405  27.005  1.00  0.00    -0.014 A 
BRANCH  39  40
ATOM     40  C   UNL A   1      43.314  24.777  27.348  1.00  0.00     0.031 A 
ATOM     41  C   UNL A   1      42.354  25.729  28.007  1.00  0.00     0.074 A 
ATOM     42  C   UNL A   1      44.548  25.182  26.990  1.00  0.00     0.049 A 
ATOM     43  N   UNL A   1      42.510  26.996  28.286  1.00  0.00    -0.248 NA
ATOM     44  C   UNL A   1      41.035  25.191  28.376  1.00  0.00     0.031 C 
ATOM     45  C   UNL A   1      45.547  24.349  26.313  1.00  0.00     0.029 A 
ATOM     46  N   UNL A   1      45.171  26.398  27.124  1.00  0.00    -0.354 N 
ATOM     47  C   UNL A   1      41.305  27.414  28.839  1.00  0.00     0.074 A 
ATOM     48  C   UNL A   1      40.414  26.274  28.819  1.00  0.00     0.031 C 
ATOM     49  C   UNL A   1      46.656  25.075  26.103  1.00  0.00     0.029 A 
ATOM     50  C   UNL A   1      46.432  26.438  26.573  1.00  0.00     0.049 A 
ATOM     51  H   UNL A   1      44.753  27.169  27.572  1.00  0.00     0.167 HD
ATOM     52  C   UNL A   1      40.981  28.635  29.327  1.00  0.00     0.034 A 
ATOM     53  C   UNL A   1      47.295  27.464  26.436  1.00  0.00     0.034 A 
ATOM     54  C   UNL A   1      41.895  29.749  29.358  1.00  0.00     0.049 A 
ATOM     55  C   UNL A   1      46.894  28.820  26.967  1.00  0.00     0.074 A 
ATOM     56  C   UNL A   1      41.702  31.002  29.914  1.00  0.00     0.029 A 
ATOM     57  N   UNL A   1      43.165  29.755  28.797  1.00  0.00    -0.354 N 
ATOM     58  N   UNL A   1      45.779  29.178  27.561  1.00  0.00    -0.248 NA
ATOM     59  C   UNL A   1      47.868  29.909  26.813  1.00  0.00     0.031 C 
ATOM     60  C   UNL A   1      42.816  31.790  29.612  1.00  0.00     0.029 A 
ATOM     61  C   UNL A   1      43.745  31.005  28.947  1.00  0.00     0.049 A 
ATOM     62  H   UNL A   1      43.591  28.985  28.355  1.00  0.00     0.167 HD
ATOM     63  C   UNL A   1      45.933  30.525  27.877  1.00  0.00     0.074 A 
ATOM     64  C   UNL A   1      47.254  30.909  27.428  1.00  0.00     0.031 C 
ATOM     65  C   UNL A   1      45.063  31.371  28.484  1.00  0.00     0.034 A 
BRANCH  52  66
ATOM     66  C   UNL A   1      39.576  28.846  29.833  1.00  0.00     0.023 A 
ATOM     67  C   UNL A   1      38.573  29.424  29.037  1.00  0.00     0.031 A 
ATOM     68  C   UNL A   1      39.231  28.442  31.137  1.00  0.00     0.131 A 
ATOM     69  C   UNL A   1      37.290  29.627  29.567  1.00  0.00     0.055 A 
ATOM     70  C   UNL A   1      37.934  28.578  31.632  1.00  0.00     0.041 A 
ATOM     71  F   UNL A   1      40.154  27.907  31.951  1.00  0.00    -0.206 F 
ATOM     72  C   UNL A   1      36.955  29.182  30.849  1.00  0.00     0.022 A 
BRANCH  69  73
ATOM     73  S   UNL A   1      36.089  30.581  28.598  1.00  0.00     0.124 S 
ATOM     74  O   UNL A   1      36.962  31.488  27.856  1.00  0.00    -0.237 OA
ATOM     75  O   UNL A   1      35.427  29.547  27.811  1.00  0.00    -0.237 OA
ATOM     76  O   UNL A   1      35.257  31.220  29.615  1.00  0.00    -0.744 OA
ENDBRANCH  69  73
ENDBRANCH  52  66
BRANCH  53  77
ATOM     77  C   UNL A   1      48.601  27.279  25.737  1.00  0.00     0.023 A 
ATOM     78  C   UNL A   1      48.722  27.495  24.356  1.00  0.00     0.031 A 
ATOM     79  C   UNL A   1      49.732  26.806  26.428  1.00  0.00     0.131 A 
ATOM     80  C   UNL A   1      49.919  27.175  23.697  1.00  0.00     0.055 A 
ATOM     81  C   UNL A   1      50.943  26.555  25.781  1.00  0.00     0.041 A 
ATOM     82  F   UNL A   1      49.676  26.581  27.751  1.00  0.00    -0.206 F 
ATOM     83  C   UNL A   1      51.036  26.720  24.403  1.00  0.00     0.022 A 
BRANCH  80  84
ATOM     84  S   UNL A   1      49.954  27.236  21.884  1.00  0.00     0.124 S 
ATOM     85  O   UNL A   1      49.763  28.660  21.633  1.00  0.00    -0.237 OA
ATOM     86  O   UNL A   1      51.280  26.704  21.591  1.00  0.00    -0.237 OA
ATOM     87  O   UNL A   1      48.838  26.376  21.495  1.00  0.00    -0.744 OA
ENDBRANCH  80  84
ENDBRANCH  53  77
BRANCH  65  88
ATOM     88  C   UNL A   1      45.535  32.783  28.733  1.00  0.00     0.023 A 
ATOM     89  C   UNL A   1      45.320  33.809  27.796  1.00  0.00     0.031 A 
ATOM     90  C   UNL A   1      46.207  33.104  29.926  1.00  0.00     0.131 A 
ATOM     91  C   UNL A   1      45.820  35.096  28.046  1.00  0.00     0.055 A 
ATOM     92  C   UNL A   1      46.644  34.400  30.197  1.00  0.00     0.041 A 
ATOM     93  F   UNL A   1      46.442  32.161  30.852  1.00  0.00    -0.206 F 
ATOM     94  C   UNL A   1      46.462  35.403  29.248  1.00  0.00     0.022 A 
BRANCH  91  95
ATOM     95  S   UNL A   1      45.698  36.346  26.738  1.00  0.00     0.124 S 
ATOM     96  O   UNL A   1      45.986  35.562  25.542  1.00  0.00    -0.237 OA
ATOM     97  O   UNL A   1      44.321  36.812  26.878  1.00  0.00    -0.237 OA
ATOM     98  O   UNL A   1      46.721  37.325  27.101  1.00  0.00    -0.744 OA
ENDBRANCH  91  95
ENDBRANCH  65  88
ENDBRANCH  39  40
ENDBRANCH  31  34
ENDBRANCH  29  30
ENDBRANCH  28  29
ENDBRANCH   1  28
TORSDOF 18
ENDMDL
