MODEL 1
REMARK VINA RESULT:     -11.1      0.000      0.000
REMARK SMILES O=C(CCCNC(=O)COc1ccc2c3c(c(=O)oc2c1)CCC3)NCCCCCCNC(=O)c1ccc(-c2c3nc(c(-c4cc(S(=O)(=O)[O-])ccc4F)c4ccc([nH]4)c(-c4cc(S(=O)(=O)[O-])ccc4F)c4nc(c(-c5cc(S(=O)(=O)[O-])ccc5F)c5ccc2[nH]5)C=C4)C=C3)cc1
REMARK SMILES IDX 27 1 26 2 25 3 1 4 2 5 3 7 4 8 5 9 6 10 7 11 8 13 9 14 10 15
REMARK SMILES IDX 11 16 12 17 21 18 13 19 20 20 14 21 19 22 15 23 17 24 16 25
REMARK SMILES IDX 24 26 18 27 22 28 23 29 28 30 29 31 30 32 31 33 32 34 33 35
REMARK SMILES IDX 34 37 35 38 36 39 97 40 37 41 96 42 38 43 39 44 40 45 90 46
REMARK SMILES IDX 41 47 95 48 89 49 91 50 42 51 94 52 88 53 87 54 43 56 75 57
REMARK SMILES IDX 55 58 74 59 56 60 59 61 73 62 92 63 57 64 58 65 72 67 93 68
REMARK SMILES IDX 60 69 44 70 45 71 53 72 46 73 52 74 54 75 51 76 47 77 48 78
REMARK SMILES IDX 49 79 50 80 76 81 77 82 85 83 78 84 84 85 86 86 83 87 79 88
REMARK SMILES IDX 80 89 81 90 82 91 61 92 62 93 70 94 63 95 69 96 71 97 68 98
REMARK SMILES IDX 64 99 65 100 66 101 67 102
REMARK H PARENT 25 6 6 12 32 36 91 55 59 66
REMARK Flexibility Score: inf
ROOT
ATOM      1  C   UNL A   1      30.706  32.306  25.786  1.00  0.00     0.021 C 
ENDROOT
BRANCH   1   2
ATOM      2  C   UNL A   1      29.864  31.329  24.964  1.00  0.00     0.116 C 
BRANCH   2   3
ATOM      3  N   UNL A   1      29.570  31.884  23.659  1.00  0.00    -0.356 N 
ATOM      4  O   UNL A   1      27.284  31.998  23.851  1.00  0.00    -0.275 OA
ATOM      5  C   UNL A   1      28.310  32.183  23.209  1.00  0.00     0.220 C 
ATOM      6  H   UNL A   1      30.327  32.058  23.055  1.00  0.00     0.163 HD
BRANCH   5   7
ATOM      7  C   UNL A   1      28.308  32.786  21.817  1.00  0.00     0.102 C 
BRANCH   7   8
ATOM      8  C   UNL A   1      27.936  31.777  20.727  1.00  0.00     0.031 C 
BRANCH   8   9
ATOM      9  C   UNL A   1      28.242  30.310  21.041  1.00  0.00     0.116 C 
BRANCH   9  10
ATOM     10  N   UNL A   1      27.306  29.723  21.985  1.00  0.00    -0.353 N 
ATOM     11  C   UNL A   1      27.512  28.733  22.897  1.00  0.00     0.257 C 
ATOM     12  H   UNL A   1      26.394  30.094  21.962  1.00  0.00     0.163 HD
ATOM     13  O   UNL A   1      26.601  28.480  23.689  1.00  0.00    -0.271 OA
BRANCH  11  14
ATOM     14  C   UNL A   1      28.830  27.956  22.924  1.00  0.00     0.329 C 
BRANCH  14  15
ATOM     15  O   UNL A   1      29.942  28.495  23.621  1.00  0.00    -0.484 OA
BRANCH  15  16
ATOM     16  C   UNL A   1      30.802  27.621  24.219  1.00  0.00     0.123 A 
ATOM     17  C   UNL A   1      32.134  27.722  23.800  1.00  0.00     0.047 A 
ATOM     18  C   UNL A   1      30.447  26.620  25.117  1.00  0.00     0.094 A 
ATOM     19  C   UNL A   1      33.111  26.841  24.281  1.00  0.00     0.016 A 
ATOM     20  C   UNL A   1      31.422  25.736  25.573  1.00  0.00     0.142 A 
ATOM     21  C   UNL A   1      32.755  25.829  25.171  1.00  0.00     0.021 A 
ATOM     22  O   UNL A   1      30.986  24.719  26.458  1.00  0.00    -0.422 OA
ATOM     23  C   UNL A   1      33.680  24.852  25.706  1.00  0.00    -0.027 A 
ATOM     24  C   UNL A   1      31.862  23.772  26.979  1.00  0.00     0.339 A 
ATOM     25  C   UNL A   1      33.255  23.907  26.547  1.00  0.00     0.042 A 
ATOM     26  C   UNL A   1      35.138  24.739  25.437  1.00  0.00     0.037 C 
ATOM     27  O   UNL A   1      31.502  22.887  27.745  1.00  0.00    -0.246 OA
ATOM     28  C   UNL A   1      34.348  23.006  26.992  1.00  0.00     0.044 C 
ATOM     29  C   UNL A   1      35.458  23.344  25.991  1.00  0.00     0.010 C 
ENDBRANCH  15  16
ENDBRANCH  14  15
ENDBRANCH  11  14
ENDBRANCH   9  10
ENDBRANCH   8   9
ENDBRANCH   7   8
ENDBRANCH   5   7
ENDBRANCH   2   3
ENDBRANCH   1   2
BRANCH   1  30
ATOM     30  C   UNL A   1      31.712  31.650  26.747  1.00  0.00     0.002 C 
BRANCH  30  31
ATOM     31  C   UNL A   1      31.800  30.124  26.665  1.00  0.00     0.002 C 
BRANCH  31  32
ATOM     32  C   UNL A   1      33.028  29.512  27.340  1.00  0.00     0.021 C 
BRANCH  32  33
ATOM     33  C   UNL A   1      34.253  30.421  27.391  1.00  0.00     0.116 C 
BRANCH  33  34
ATOM     34  N   UNL A   1      34.115  31.486  28.371  1.00  0.00    -0.352 N 
ATOM     35  C   UNL A   1      34.915  31.777  29.449  1.00  0.00     0.251 C 
ATOM     36  H   UNL A   1      33.341  32.082  28.243  1.00  0.00     0.163 HD
ATOM     37  O   UNL A   1      34.545  32.608  30.276  1.00  0.00    -0.269 OA
BRANCH  35  38
ATOM     38  C   UNL A   1      36.199  31.064  29.630  1.00  0.00     0.039 A 
ATOM     39  C   UNL A   1      37.341  31.556  28.993  1.00  0.00     0.014 A 
ATOM     40  C   UNL A   1      36.282  29.923  30.433  1.00  0.00     0.014 A 
ATOM     41  C   UNL A   1      38.578  30.944  29.217  1.00  0.00     0.010 A 
ATOM     42  C   UNL A   1      37.526  29.362  30.715  1.00  0.00     0.010 A 
ATOM     43  C   UNL A   1      38.688  29.865  30.112  1.00  0.00    -0.014 A 
BRANCH  43  44
ATOM     44  C   UNL A   1      40.010  29.260  30.430  1.00  0.00     0.031 A 
ATOM     45  C   UNL A   1      40.872  29.851  31.514  1.00  0.00     0.074 A 
ATOM     46  C   UNL A   1      40.460  28.219  29.701  1.00  0.00     0.049 A 
ATOM     47  N   UNL A   1      42.077  29.510  31.891  1.00  0.00    -0.248 NA
ATOM     48  C   UNL A   1      40.313  30.993  32.254  1.00  0.00     0.031 C 
ATOM     49  C   UNL A   1      39.734  27.580  28.601  1.00  0.00     0.029 A 
ATOM     50  N   UNL A   1      41.638  27.515  29.768  1.00  0.00    -0.354 N 
ATOM     51  C   UNL A   1      42.429  30.405  32.898  1.00  0.00     0.074 A 
ATOM     52  C   UNL A   1      41.328  31.334  33.034  1.00  0.00     0.031 C 
ATOM     53  C   UNL A   1      40.468  26.566  28.116  1.00  0.00     0.029 A 
ATOM     54  C   UNL A   1      41.740  26.512  28.828  1.00  0.00     0.049 A 
ATOM     55  H   UNL A   1      42.344  27.709  30.425  1.00  0.00     0.167 HD
ATOM     56  C   UNL A   1      43.558  30.436  33.648  1.00  0.00     0.034 A 
ATOM     57  C   UNL A   1      42.749  25.659  28.560  1.00  0.00     0.034 A 
ATOM     58  C   UNL A   1      44.638  29.489  33.510  1.00  0.00     0.049 A 
ATOM     59  C   UNL A   1      44.008  25.736  29.391  1.00  0.00     0.074 A 
ATOM     60  C   UNL A   1      45.792  29.385  34.270  1.00  0.00     0.029 A 
ATOM     61  N   UNL A   1      44.710  28.494  32.544  1.00  0.00    -0.354 N 
ATOM     62  N   UNL A   1      44.294  26.545  30.385  1.00  0.00    -0.248 NA
ATOM     63  C   UNL A   1      45.074  24.778  29.070  1.00  0.00     0.031 C 
ATOM     64  C   UNL A   1      46.596  28.387  33.710  1.00  0.00     0.029 A 
ATOM     65  C   UNL A   1      45.907  27.802  32.661  1.00  0.00     0.049 A 
ATOM     66  H   UNL A   1      44.013  28.306  31.875  1.00  0.00     0.167 HD
ATOM     67  C   UNL A   1      45.558  26.165  30.831  1.00  0.00     0.074 A 
ATOM     68  C   UNL A   1      45.969  25.046  30.009  1.00  0.00     0.031 C 
ATOM     69  C   UNL A   1      46.309  26.690  31.833  1.00  0.00     0.034 A 
BRANCH  56  70
ATOM     70  C   UNL A   1      43.700  31.547  34.660  1.00  0.00     0.023 A 
ATOM     71  C   UNL A   1      43.222  31.423  35.977  1.00  0.00     0.031 A 
ATOM     72  C   UNL A   1      44.328  32.755  34.303  1.00  0.00     0.131 A 
ATOM     73  C   UNL A   1      43.319  32.505  36.864  1.00  0.00     0.055 A 
ATOM     74  C   UNL A   1      44.495  33.799  35.215  1.00  0.00     0.041 A 
ATOM     75  F   UNL A   1      44.785  32.943  33.055  1.00  0.00    -0.206 F 
ATOM     76  C   UNL A   1      43.978  33.682  36.501  1.00  0.00     0.022 A 
BRANCH  73  77
ATOM     77  S   UNL A   1      42.456  32.403  38.456  1.00  0.00     0.124 S 
ATOM     78  O   UNL A   1      41.116  31.997  38.039  1.00  0.00    -0.237 OA
ATOM     79  O   UNL A   1      43.234  31.400  39.173  1.00  0.00    -0.237 OA
ATOM     80  O   UNL A   1      42.549  33.763  38.984  1.00  0.00    -0.744 OA
ENDBRANCH  73  77
ENDBRANCH  56  70
BRANCH  57  81
ATOM     81  C   UNL A   1      42.636  24.667  27.449  1.00  0.00     0.023 A 
ATOM     82  C   UNL A   1      41.925  23.468  27.618  1.00  0.00     0.031 A 
ATOM     83  C   UNL A   1      43.299  24.869  26.225  1.00  0.00     0.131 A 
ATOM     84  C   UNL A   1      41.946  22.491  26.611  1.00  0.00     0.055 A 
ATOM     85  C   UNL A   1      43.261  23.922  25.199  1.00  0.00     0.041 A 
ATOM     86  F   UNL A   1      43.995  25.995  26.006  1.00  0.00    -0.206 F 
ATOM     87  C   UNL A   1      42.596  22.717  25.395  1.00  0.00     0.022 A 
BRANCH  84  88
ATOM     88  S   UNL A   1      41.211  20.870  26.959  1.00  0.00     0.124 S 
ATOM     89  O   UNL A   1      42.338  19.977  26.713  1.00  0.00    -0.237 OA
ATOM     90  O   UNL A   1      40.799  21.017  28.350  1.00  0.00    -0.237 OA
ATOM     91  O   UNL A   1      40.118  20.777  25.993  1.00  0.00    -0.744 OA
ENDBRANCH  84  88
ENDBRANCH  57  81
BRANCH  69  92
ATOM     92  C   UNL A   1      47.630  26.019  32.130  1.00  0.00     0.023 A 
ATOM     93  C   UNL A   1      47.770  25.075  33.162  1.00  0.00     0.031 A 
ATOM     94  C   UNL A   1      48.769  26.339  31.370  1.00  0.00     0.131 A 
ATOM     95  C   UNL A   1      49.032  24.529  33.444  1.00  0.00     0.055 A 
ATOM     96  C   UNL A   1      50.007  25.742  31.610  1.00  0.00     0.041 A 
ATOM     97  F   UNL A   1      48.697  27.237  30.374  1.00  0.00    -0.206 F 
ATOM     98  C   UNL A   1      50.147  24.841  32.661  1.00  0.00     0.022 A 
BRANCH  95  99
ATOM     99  S   UNL A   1      49.221  23.482  34.913  1.00  0.00     0.124 S 
ATOM    100  O   UNL A   1      50.551  22.916  34.714  1.00  0.00    -0.237 OA
ATOM    101  O   UNL A   1      49.094  24.445  36.003  1.00  0.00    -0.237 OA
ATOM    102  O   UNL A   1      48.119  22.529  34.798  1.00  0.00    -0.744 OA
ENDBRANCH  95  99
ENDBRANCH  69  92
ENDBRANCH  43  44
ENDBRANCH  35  38
ENDBRANCH  33  34
ENDBRANCH  32  33
ENDBRANCH  31  32
ENDBRANCH  30  31
ENDBRANCH   1  30
TORSDOF 22
ENDMDL
MODEL 2
REMARK VINA RESULT:     -10.7      5.206     10.174
REMARK SMILES O=C(CCCNC(=O)COc1ccc2c3c(c(=O)oc2c1)CCC3)NCCCCCCNC(=O)c1ccc(-c2c3nc(c(-c4cc(S(=O)(=O)[O-])ccc4F)c4ccc([nH]4)c(-c4cc(S(=O)(=O)[O-])ccc4F)c4nc(c(-c5cc(S(=O)(=O)[O-])ccc5F)c5ccc2[nH]5)C=C4)C=C3)cc1
REMARK SMILES IDX 27 1 26 2 25 3 1 4 2 5 3 7 4 8 5 9 6 10 7 11 8 13 9 14 10 15
REMARK SMILES IDX 11 16 12 17 21 18 13 19 20 20 14 21 19 22 15 23 17 24 16 25
REMARK SMILES IDX 24 26 18 27 22 28 23 29 28 30 29 31 30 32 31 33 32 34 33 35
REMARK SMILES IDX 34 37 35 38 36 39 97 40 37 41 96 42 38 43 39 44 40 45 90 46
REMARK SMILES IDX 41 47 95 48 89 49 91 50 42 51 94 52 88 53 87 54 43 56 75 57
REMARK SMILES IDX 55 58 74 59 56 60 59 61 73 62 92 63 57 64 58 65 72 67 93 68
REMARK SMILES IDX 60 69 44 70 45 71 53 72 46 73 52 74 54 75 51 76 47 77 48 78
REMARK SMILES IDX 49 79 50 80 76 81 77 82 85 83 78 84 84 85 86 86 83 87 79 88
REMARK SMILES IDX 80 89 81 90 82 91 61 92 62 93 70 94 63 95 69 96 71 97 68 98
REMARK SMILES IDX 64 99 65 100 66 101 67 102
REMARK H PARENT 25 6 6 12 32 36 91 55 59 66
REMARK Flexibility Score: inf
ROOT
ATOM      1  C   UNL A   1      39.965  25.182  26.645  1.00  0.00     0.021 C 
ENDROOT
BRANCH   1   2
ATOM      2  C   UNL A   1      39.153  24.006  27.190  1.00  0.00     0.116 C 
BRANCH   2   3
ATOM      3  N   UNL A   1      38.311  23.447  26.154  1.00  0.00    -0.356 N 
ATOM      4  O   UNL A   1      39.243  21.349  26.060  1.00  0.00    -0.275 OA
ATOM      5  C   UNL A   1      38.414  22.165  25.678  1.00  0.00     0.220 C 
ATOM      6  H   UNL A   1      37.617  24.026  25.766  1.00  0.00     0.163 HD
BRANCH   5   7
ATOM      7  C   UNL A   1      37.376  21.843  24.620  1.00  0.00     0.102 C 
BRANCH   7   8
ATOM      8  C   UNL A   1      36.468  20.673  25.008  1.00  0.00     0.031 C 
BRANCH   8   9
ATOM      9  C   UNL A   1      35.053  21.045  25.458  1.00  0.00     0.116 C 
BRANCH   9  10
ATOM     10  N   UNL A   1      34.219  19.886  25.728  1.00  0.00    -0.353 N 
ATOM     11  C   UNL A   1      32.935  19.643  25.345  1.00  0.00     0.257 C 
ATOM     12  H   UNL A   1      34.643  19.176  26.264  1.00  0.00     0.163 HD
ATOM     13  O   UNL A   1      32.465  18.527  25.581  1.00  0.00    -0.271 OA
BRANCH  11  14
ATOM     14  C   UNL A   1      32.104  20.728  24.656  1.00  0.00     0.329 C 
BRANCH  14  15
ATOM     15  O   UNL A   1      31.246  21.547  25.435  1.00  0.00    -0.484 OA
BRANCH  15  16
ATOM     16  C   UNL A   1      31.383  22.900  25.322  1.00  0.00     0.123 A 
ATOM     17  C   UNL A   1      31.944  23.532  26.438  1.00  0.00     0.047 A 
ATOM     18  C   UNL A   1      30.942  23.674  24.253  1.00  0.00     0.094 A 
ATOM     19  C   UNL A   1      32.079  24.926  26.486  1.00  0.00     0.016 A 
ATOM     20  C   UNL A   1      31.061  25.060  24.320  1.00  0.00     0.142 A 
ATOM     21  C   UNL A   1      31.627  25.704  25.422  1.00  0.00     0.021 A 
ATOM     22  O   UNL A   1      30.561  25.789  23.214  1.00  0.00    -0.422 OA
ATOM     23  C   UNL A   1      31.694  27.149  25.383  1.00  0.00    -0.027 A 
ATOM     24  C   UNL A   1      30.617  27.179  23.163  1.00  0.00     0.339 A 
ATOM     25  C   UNL A   1      31.227  27.821  24.329  1.00  0.00     0.042 A 
ATOM     26  C   UNL A   1      32.247  28.061  26.420  1.00  0.00     0.037 C 
ATOM     27  O   UNL A   1      30.189  27.824  22.215  1.00  0.00    -0.246 OA
ATOM     28  C   UNL A   1      31.391  29.290  24.470  1.00  0.00     0.044 C 
ATOM     29  C   UNL A   1      31.715  29.426  25.962  1.00  0.00     0.010 C 
ENDBRANCH  15  16
ENDBRANCH  14  15
ENDBRANCH  11  14
ENDBRANCH   9  10
ENDBRANCH   8   9
ENDBRANCH   7   8
ENDBRANCH   5   7
ENDBRANCH   2   3
ENDBRANCH   1   2
BRANCH   1  30
ATOM     30  C   UNL A   1      41.228  24.793  25.856  1.00  0.00     0.002 C 
BRANCH  30  31
ATOM     31  C   UNL A   1      42.137  23.766  26.537  1.00  0.00     0.002 C 
BRANCH  31  32
ATOM     32  C   UNL A   1      42.535  22.578  25.661  1.00  0.00     0.021 C 
BRANCH  32  33
ATOM     33  C   UNL A   1      43.258  21.452  26.395  1.00  0.00     0.116 C 
BRANCH  33  34
ATOM     34  N   UNL A   1      44.487  21.051  25.729  1.00  0.00    -0.352 N 
ATOM     35  C   UNL A   1      45.594  21.807  25.428  1.00  0.00     0.251 C 
ATOM     36  H   UNL A   1      44.531  20.106  25.455  1.00  0.00     0.163 HD
ATOM     37  O   UNL A   1      46.469  21.344  24.700  1.00  0.00    -0.269 OA
BRANCH  35  38
ATOM     38  C   UNL A   1      45.711  23.186  25.953  1.00  0.00     0.039 A 
ATOM     39  C   UNL A   1      45.536  24.260  25.078  1.00  0.00     0.014 A 
ATOM     40  C   UNL A   1      45.979  23.420  27.305  1.00  0.00     0.014 A 
ATOM     41  C   UNL A   1      45.562  25.568  25.571  1.00  0.00     0.010 A 
ATOM     42  C   UNL A   1      45.929  24.719  27.807  1.00  0.00     0.010 A 
ATOM     43  C   UNL A   1      45.719  25.808  26.947  1.00  0.00    -0.014 A 
BRANCH  43  44
ATOM     44  C   UNL A   1      45.660  27.189  27.500  1.00  0.00     0.031 A 
ATOM     45  C   UNL A   1      44.363  27.733  28.037  1.00  0.00     0.074 A 
ATOM     46  C   UNL A   1      46.757  27.971  27.461  1.00  0.00     0.049 A 
ATOM     47  N   UNL A   1      44.095  28.929  28.496  1.00  0.00    -0.248 NA
ATOM     48  C   UNL A   1      43.210  26.820  28.034  1.00  0.00     0.031 C 
ATOM     49  C   UNL A   1      48.063  27.570  26.931  1.00  0.00     0.029 A 
ATOM     50  N   UNL A   1      46.953  29.269  27.865  1.00  0.00    -0.354 N 
ATOM     51  C   UNL A   1      42.740  28.918  28.819  1.00  0.00     0.074 A 
ATOM     52  C   UNL A   1      42.235  27.613  28.453  1.00  0.00     0.031 C 
ATOM     53  C   UNL A   1      48.927  28.589  27.068  1.00  0.00     0.029 A 
ATOM     54  C   UNL A   1      48.231  29.735  27.642  1.00  0.00     0.049 A 
ATOM     55  H   UNL A   1      46.246  29.817  28.276  1.00  0.00     0.167 HD
ATOM     56  C   UNL A   1      41.995  29.901  29.381  1.00  0.00     0.034 A 
ATOM     57  C   UNL A   1      48.773  30.950  27.859  1.00  0.00     0.034 A 
ATOM     58  C   UNL A   1      42.522  31.191  29.756  1.00  0.00     0.049 A 
ATOM     59  C   UNL A   1      47.912  32.035  28.459  1.00  0.00     0.074 A 
ATOM     60  C   UNL A   1      41.872  32.230  30.401  1.00  0.00     0.029 A 
ATOM     61  N   UNL A   1      43.816  31.629  29.508  1.00  0.00    -0.354 N 
ATOM     62  N   UNL A   1      46.651  31.985  28.820  1.00  0.00    -0.248 NA
ATOM     63  C   UNL A   1      48.551  33.338  28.688  1.00  0.00     0.031 C 
ATOM     64  C   UNL A   1      42.744  33.321  30.465  1.00  0.00     0.029 A 
ATOM     65  C   UNL A   1      43.970  32.936  29.947  1.00  0.00     0.049 A 
ATOM     66  H   UNL A   1      44.522  31.090  29.083  1.00  0.00     0.167 HD
ATOM     67  C   UNL A   1      46.359  33.238  29.357  1.00  0.00     0.074 A 
ATOM     68  C   UNL A   1      47.580  34.013  29.284  1.00  0.00     0.031 C 
ATOM     69  C   UNL A   1      45.191  33.702  29.866  1.00  0.00     0.034 A 
BRANCH  56  70
ATOM     70  C   UNL A   1      40.525  29.634  29.596  1.00  0.00     0.023 A 
ATOM     71  C   UNL A   1      39.961  29.546  30.881  1.00  0.00     0.031 A 
ATOM     72  C   UNL A   1      39.668  29.465  28.492  1.00  0.00     0.131 A 
ATOM     73  C   UNL A   1      38.602  29.234  31.032  1.00  0.00     0.055 A 
ATOM     74  C   UNL A   1      38.300  29.236  28.647  1.00  0.00     0.041 A 
ATOM     75  F   UNL A   1      40.149  29.516  27.240  1.00  0.00    -0.206 F 
ATOM     76  C   UNL A   1      37.761  29.106  29.924  1.00  0.00     0.022 A 
BRANCH  73  77
ATOM     77  S   UNL A   1      37.976  28.864  32.693  1.00  0.00     0.124 S 
ATOM     78  O   UNL A   1      38.119  27.411  32.746  1.00  0.00    -0.237 OA
ATOM     79  O   UNL A   1      38.878  29.627  33.547  1.00  0.00    -0.237 OA
ATOM     80  O   UNL A   1      36.596  29.345  32.654  1.00  0.00    -0.744 OA
ENDBRANCH  73  77
ENDBRANCH  56  70
BRANCH  57  81
ATOM     81  C   UNL A   1      50.196  31.227  27.495  1.00  0.00     0.023 A 
ATOM     82  C   UNL A   1      50.534  31.723  26.226  1.00  0.00     0.031 A 
ATOM     83  C   UNL A   1      51.244  30.931  28.385  1.00  0.00     0.131 A 
ATOM     84  C   UNL A   1      51.883  31.847  25.858  1.00  0.00     0.055 A 
ATOM     85  C   UNL A   1      52.583  31.120  28.037  1.00  0.00     0.041 A 
ATOM     86  F   UNL A   1      50.981  30.453  29.611  1.00  0.00    -0.206 F 
ATOM     87  C   UNL A   1      52.910  31.563  26.761  1.00  0.00     0.022 A 
BRANCH  84  88
ATOM     88  S   UNL A   1      52.278  32.270  24.139  1.00  0.00     0.124 S 
ATOM     89  O   UNL A   1      51.707  31.137  23.418  1.00  0.00    -0.237 OA
ATOM     90  O   UNL A   1      51.593  33.547  23.976  1.00  0.00    -0.237 OA
ATOM     91  O   UNL A   1      53.738  32.342  24.133  1.00  0.00    -0.744 OA
ENDBRANCH  84  88
ENDBRANCH  57  81
BRANCH  69  92
ATOM     92  C   UNL A   1      45.195  35.101  30.439  1.00  0.00     0.023 A 
ATOM     93  C   UNL A   1      45.496  35.352  31.788  1.00  0.00     0.031 A 
ATOM     94  C   UNL A   1      44.883  36.199  29.617  1.00  0.00     0.131 A 
ATOM     95  C   UNL A   1      45.421  36.661  32.290  1.00  0.00     0.055 A 
ATOM     96  C   UNL A   1      44.877  37.506  30.106  1.00  0.00     0.041 A 
ATOM     97  F   UNL A   1      44.582  36.020  28.321  1.00  0.00    -0.206 F 
ATOM     98  C   UNL A   1      45.134  37.741  31.452  1.00  0.00     0.022 A 
BRANCH  95  99
ATOM     99  S   UNL A   1      45.605  36.922  34.076  1.00  0.00     0.124 S 
ATOM    100  O   UNL A   1      46.133  35.636  34.518  1.00  0.00    -0.237 OA
ATOM    101  O   UNL A   1      46.533  38.047  34.134  1.00  0.00    -0.237 OA
ATOM    102  O   UNL A   1      44.244  37.218  34.521  1.00  0.00    -0.744 OA
ENDBRANCH  95  99
ENDBRANCH  69  92
ENDBRANCH  43  44
ENDBRANCH  35  38
ENDBRANCH  33  34
ENDBRANCH  32  33
ENDBRANCH  31  32
ENDBRANCH  30  31
ENDBRANCH   1  30
TORSDOF 22
ENDMDL
MODEL 3
REMARK VINA RESULT:     -10.6      5.531     10.534
REMARK SMILES O=C(CCCNC(=O)COc1ccc2c3c(c(=O)oc2c1)CCC3)NCCCCCCNC(=O)c1ccc(-c2c3nc(c(-c4cc(S(=O)(=O)[O-])ccc4F)c4ccc([nH]4)c(-c4cc(S(=O)(=O)[O-])ccc4F)c4nc(c(-c5cc(S(=O)(=O)[O-])ccc5F)c5ccc2[nH]5)C=C4)C=C3)cc1
REMARK SMILES IDX 27 1 26 2 25 3 1 4 2 5 3 7 4 8 5 9 6 10 7 11 8 13 9 14 10 15
REMARK SMILES IDX 11 16 12 17 21 18 13 19 20 20 14 21 19 22 15 23 17 24 16 25
REMARK SMILES IDX 24 26 18 27 22 28 23 29 28 30 29 31 30 32 31 33 32 34 33 35
REMARK SMILES IDX 34 37 35 38 36 39 97 40 37 41 96 42 38 43 39 44 40 45 90 46
REMARK SMILES IDX 41 47 95 48 89 49 91 50 42 51 94 52 88 53 87 54 43 56 75 57
REMARK SMILES IDX 55 58 74 59 56 60 59 61 73 62 92 63 57 64 58 65 72 67 93 68
REMARK SMILES IDX 60 69 44 70 45 71 53 72 46 73 52 74 54 75 51 76 47 77 48 78
REMARK SMILES IDX 49 79 50 80 76 81 77 82 85 83 78 84 84 85 86 86 83 87 79 88
REMARK SMILES IDX 80 89 81 90 82 91 61 92 62 93 70 94 63 95 69 96 71 97 68 98
REMARK SMILES IDX 64 99 65 100 66 101 67 102
REMARK H PARENT 25 6 6 12 32 36 91 55 59 66
REMARK Flexibility Score: inf
ROOT
ATOM      1  C   UNL A   1      39.439  25.478  27.136  1.00  0.00     0.021 C 
ENDROOT
BRANCH   1   2
ATOM      2  C   UNL A   1      38.584  24.252  27.458  1.00  0.00     0.116 C 
BRANCH   2   3
ATOM      3  N   UNL A   1      37.798  23.864  26.306  1.00  0.00    -0.356 N 
ATOM      4  O   UNL A   1      38.667  21.759  26.000  1.00  0.00    -0.275 OA
ATOM      5  C   UNL A   1      37.893  22.650  25.674  1.00  0.00     0.220 C 
ATOM      6  H   UNL A   1      37.152  24.516  25.952  1.00  0.00     0.163 HD
BRANCH   5   7
ATOM      7  C   UNL A   1      36.921  22.508  24.519  1.00  0.00     0.102 C 
BRANCH   7   8
ATOM      8  C   UNL A   1      35.962  21.326  24.685  1.00  0.00     0.031 C 
BRANCH   8   9
ATOM      9  C   UNL A   1      35.001  21.408  25.875  1.00  0.00     0.116 C 
BRANCH   9  10
ATOM     10  N   UNL A   1      34.199  20.208  26.040  1.00  0.00    -0.353 N 
ATOM     11  C   UNL A   1      32.990  19.900  25.493  1.00  0.00     0.257 C 
ATOM     12  H   UNL A   1      34.583  19.520  26.631  1.00  0.00     0.163 HD
ATOM     13  O   UNL A   1      32.550  18.761  25.671  1.00  0.00    -0.271 OA
BRANCH  11  14
ATOM     14  C   UNL A   1      32.204  20.942  24.694  1.00  0.00     0.329 C 
BRANCH  14  15
ATOM     15  O   UNL A   1      31.247  21.751  25.358  1.00  0.00    -0.484 OA
BRANCH  15  16
ATOM     16  C   UNL A   1      31.375  23.105  25.252  1.00  0.00     0.123 A 
ATOM     17  C   UNL A   1      31.890  23.741  26.389  1.00  0.00     0.047 A 
ATOM     18  C   UNL A   1      30.966  23.877  24.169  1.00  0.00     0.094 A 
ATOM     19  C   UNL A   1      32.010  25.136  26.443  1.00  0.00     0.016 A 
ATOM     20  C   UNL A   1      31.070  25.263  24.242  1.00  0.00     0.142 A 
ATOM     21  C   UNL A   1      31.589  25.911  25.364  1.00  0.00     0.021 A 
ATOM     22  O   UNL A   1      30.603  25.990  23.119  1.00  0.00    -0.422 OA
ATOM     23  C   UNL A   1      31.644  27.357  25.330  1.00  0.00    -0.027 A 
ATOM     24  C   UNL A   1      30.648  27.380  23.072  1.00  0.00     0.339 A 
ATOM     25  C   UNL A   1      31.210  28.026  24.260  1.00  0.00     0.042 A 
ATOM     26  C   UNL A   1      32.151  28.272  26.387  1.00  0.00     0.037 C 
ATOM     27  O   UNL A   1      30.249  28.023  22.109  1.00  0.00    -0.246 OA
ATOM     28  C   UNL A   1      31.356  29.496  24.409  1.00  0.00     0.044 C 
ATOM     29  C   UNL A   1      31.624  29.633  25.911  1.00  0.00     0.010 C 
ENDBRANCH  15  16
ENDBRANCH  14  15
ENDBRANCH  11  14
ENDBRANCH   9  10
ENDBRANCH   8   9
ENDBRANCH   7   8
ENDBRANCH   5   7
ENDBRANCH   2   3
ENDBRANCH   1   2
BRANCH   1  30
ATOM     30  C   UNL A   1      40.809  25.171  26.505  1.00  0.00     0.002 C 
BRANCH  30  31
ATOM     31  C   UNL A   1      41.706  24.227  27.311  1.00  0.00     0.002 C 
BRANCH  31  32
ATOM     32  C   UNL A   1      42.022  22.898  26.625  1.00  0.00     0.021 C 
BRANCH  32  33
ATOM     33  C   UNL A   1      43.137  22.087  27.280  1.00  0.00     0.116 C 
BRANCH  33  34
ATOM     34  N   UNL A   1      44.234  21.808  26.366  1.00  0.00    -0.352 N 
ATOM     35  C   UNL A   1      45.133  22.681  25.802  1.00  0.00     0.251 C 
ATOM     36  H   UNL A   1      44.347  20.862  26.117  1.00  0.00     0.163 HD
ATOM     37  O   UNL A   1      45.883  22.292  24.910  1.00  0.00    -0.269 OA
BRANCH  35  38
ATOM     38  C   UNL A   1      45.170  24.092  26.247  1.00  0.00     0.039 A 
ATOM     39  C   UNL A   1      44.756  25.092  25.364  1.00  0.00     0.014 A 
ATOM     40  C   UNL A   1      45.600  24.429  27.535  1.00  0.00     0.014 A 
ATOM     41  C   UNL A   1      44.707  26.421  25.794  1.00  0.00     0.010 A 
ATOM     42  C   UNL A   1      45.478  25.742  27.985  1.00  0.00     0.010 A 
ATOM     43  C   UNL A   1      45.030  26.753  27.121  1.00  0.00    -0.014 A 
BRANCH  43  44
ATOM     44  C   UNL A   1      44.898  28.149  27.620  1.00  0.00     0.031 A 
ATOM     45  C   UNL A   1      46.087  29.073  27.609  1.00  0.00     0.074 A 
ATOM     46  C   UNL A   1      43.725  28.565  28.139  1.00  0.00     0.049 A 
ATOM     47  N   UNL A   1      46.189  30.296  28.062  1.00  0.00    -0.248 NA
ATOM     48  C   UNL A   1      47.333  28.539  27.038  1.00  0.00     0.031 C 
ATOM     49  C   UNL A   1      42.510  27.752  28.238  1.00  0.00     0.029 A 
ATOM     50  N   UNL A   1      43.358  29.769  28.688  1.00  0.00    -0.354 N 
ATOM     51  C   UNL A   1      47.512  30.673  27.847  1.00  0.00     0.074 A 
ATOM     52  C   UNL A   1      48.184  29.528  27.272  1.00  0.00     0.031 C 
ATOM     53  C   UNL A   1      41.529  28.488  28.786  1.00  0.00     0.029 A 
ATOM     54  C   UNL A   1      42.054  29.805  29.130  1.00  0.00     0.049 A 
ATOM     55  H   UNL A   1      43.971  30.536  28.760  1.00  0.00     0.167 HD
ATOM     56  C   UNL A   1      48.104  31.868  28.093  1.00  0.00     0.034 A 
ATOM     57  C   UNL A   1      41.365  30.780  29.757  1.00  0.00     0.034 A 
ATOM     58  C   UNL A   1      47.412  33.005  28.651  1.00  0.00     0.049 A 
ATOM     59  C   UNL A   1      42.057  32.090  30.046  1.00  0.00     0.074 A 
ATOM     60  C   UNL A   1      47.898  34.283  28.870  1.00  0.00     0.029 A 
ATOM     61  N   UNL A   1      46.096  33.001  29.093  1.00  0.00    -0.354 N 
ATOM     62  N   UNL A   1      43.290  32.452  29.773  1.00  0.00    -0.248 NA
ATOM     63  C   UNL A   1      41.263  33.127  30.718  1.00  0.00     0.031 C 
ATOM     64  C   UNL A   1      46.906  35.023  29.520  1.00  0.00     0.029 A 
ATOM     65  C   UNL A   1      45.768  34.241  29.624  1.00  0.00     0.049 A 
ATOM     66  H   UNL A   1      45.484  32.231  29.038  1.00  0.00     0.167 HD
ATOM     67  C   UNL A   1      43.403  33.771  30.206  1.00  0.00     0.074 A 
ATOM     68  C   UNL A   1      42.111  34.144  30.742  1.00  0.00     0.031 C 
ATOM     69  C   UNL A   1      44.477  34.601  30.160  1.00  0.00     0.034 A 
BRANCH  56  70
ATOM     70  C   UNL A   1      49.577  31.998  27.793  1.00  0.00     0.023 A 
ATOM     71  C   UNL A   1      50.048  32.516  26.573  1.00  0.00     0.031 A 
ATOM     72  C   UNL A   1      50.532  31.598  28.747  1.00  0.00     0.131 A 
ATOM     73  C   UNL A   1      51.426  32.559  26.314  1.00  0.00     0.055 A 
ATOM     74  C   UNL A   1      51.903  31.720  28.515  1.00  0.00     0.041 A 
ATOM     75  F   UNL A   1      50.146  31.075  29.921  1.00  0.00    -0.206 F 
ATOM     76  C   UNL A   1      52.358  32.191  27.287  1.00  0.00     0.022 A 
BRANCH  73  77
ATOM     77  S   UNL A   1      51.982  32.977  24.639  1.00  0.00     0.124 S 
ATOM     78  O   UNL A   1      51.722  31.730  23.922  1.00  0.00    -0.237 OA
ATOM     79  O   UNL A   1      51.124  34.104  24.294  1.00  0.00    -0.237 OA
ATOM     80  O   UNL A   1      53.396  33.299  24.818  1.00  0.00    -0.744 OA
ENDBRANCH  73  77
ENDBRANCH  56  70
BRANCH  57  81
ATOM     81  C   UNL A   1      39.947  30.565  30.177  1.00  0.00     0.023 A 
ATOM     82  C   UNL A   1      38.881  30.995  29.371  1.00  0.00     0.031 A 
ATOM     83  C   UNL A   1      39.638  29.993  31.424  1.00  0.00     0.131 A 
ATOM     84  C   UNL A   1      37.563  30.907  29.846  1.00  0.00     0.055 A 
ATOM     85  C   UNL A   1      38.321  29.845  31.863  1.00  0.00     0.041 A 
ATOM     86  F   UNL A   1      40.616  29.564  32.237  1.00  0.00    -0.206 F 
ATOM     87  C   UNL A   1      37.274  30.320  31.080  1.00  0.00     0.022 A 
BRANCH  84  88
ATOM     88  S   UNL A   1      36.238  31.681  28.879  1.00  0.00     0.124 S 
ATOM     89  O   UNL A   1      36.013  30.685  27.837  1.00  0.00    -0.237 OA
ATOM     90  O   UNL A   1      35.180  31.822  29.873  1.00  0.00    -0.237 OA
ATOM     91  O   UNL A   1      36.836  32.935  28.425  1.00  0.00    -0.744 OA
ENDBRANCH  84  88
ENDBRANCH  57  81
BRANCH  69  92
ATOM     92  C   UNL A   1      44.277  36.015  30.655  1.00  0.00     0.023 A 
ATOM     93  C   UNL A   1      43.930  37.065  29.787  1.00  0.00     0.031 A 
ATOM     94  C   UNL A   1      44.450  36.315  32.018  1.00  0.00     0.131 A 
ATOM     95  C   UNL A   1      43.823  38.374  30.282  1.00  0.00     0.055 A 
ATOM     96  C   UNL A   1      44.274  37.606  32.516  1.00  0.00     0.041 A 
ATOM     97  F   UNL A   1      44.787  35.353  32.893  1.00  0.00    -0.206 F 
ATOM     98  C   UNL A   1      43.972  38.648  31.644  1.00  0.00     0.022 A 
BRANCH  95  99
ATOM     99  S   UNL A   1      43.584  39.734  29.105  1.00  0.00     0.124 S 
ATOM    100  O   UNL A   1      44.147  40.867  29.832  1.00  0.00    -0.237 OA
ATOM    101  O   UNL A   1      44.344  39.280  27.944  1.00  0.00    -0.237 OA
ATOM    102  O   UNL A   1      42.135  39.775  28.918  1.00  0.00    -0.744 OA
ENDBRANCH  95  99
ENDBRANCH  69  92
ENDBRANCH  43  44
ENDBRANCH  35  38
ENDBRANCH  33  34
ENDBRANCH  32  33
ENDBRANCH  31  32
ENDBRANCH  30  31
ENDBRANCH   1  30
TORSDOF 22
ENDMDL
