MODEL 1
REMARK VINA RESULT:     -11.5      0.000      0.000
REMARK SMILES O=C(CCC(=O)Nc1ccc(C(=O)N2CCOCC2)cc1)NCCCCCCNC(=O)c1ccc(-c2c3nc(c(-c4cc(S(=O)(=O)[O-])ccc4F)c4ccc([nH]4)c(-c4cc(S(=O)(=O)[O-])ccc4F)c4nc(c(-c5cc(S(=O)(=O)[O-])ccc5F)c5ccc2[nH]5)C=C4)C=C3)cc1
REMARK SMILES IDX 25 1 24 2 23 3 22 4 1 5 2 6 3 8 4 9 5 10 6 11 7 12 8 14 9 15
REMARK SMILES IDX 21 16 10 17 20 18 11 19 12 20 13 21 14 22 15 23 19 24 16 25
REMARK SMILES IDX 18 26 17 27 26 28 27 29 28 30 29 31 30 32 31 34 32 35 33 36
REMARK SMILES IDX 94 37 34 38 93 39 35 40 36 41 37 42 87 43 38 44 92 45 86 46
REMARK SMILES IDX 88 47 39 48 91 49 85 50 84 51 40 53 72 54 52 55 71 56 53 57
REMARK SMILES IDX 56 58 70 59 89 60 54 61 55 62 69 64 90 65 57 66 41 67 42 68
REMARK SMILES IDX 50 69 43 70 49 71 51 72 48 73 44 74 45 75 46 76 47 77 73 78
REMARK SMILES IDX 74 79 82 80 75 81 81 82 83 83 80 84 76 85 77 86 78 87 79 88
REMARK SMILES IDX 58 89 59 90 67 91 60 92 66 93 68 94 65 95 61 96 62 97 63 98
REMARK SMILES IDX 64 99
REMARK H PARENT 22 7 7 13 29 33 88 52 56 63
REMARK Flexibility Score: inf
ROOT
ATOM      1  C   UNL A   1      36.951  22.264  25.404  1.00  0.00     0.002 C 
ENDROOT
BRANCH   1   2
ATOM      2  C   UNL A   1      36.564  23.584  24.729  1.00  0.00     0.021 C 
BRANCH   2   3
ATOM      3  C   UNL A   1      35.516  23.477  23.627  1.00  0.00     0.116 C 
BRANCH   3   4
ATOM      4  N   UNL A   1      34.155  23.489  24.128  1.00  0.00    -0.356 N 
ATOM      5  O   UNL A   1      33.137  22.905  22.149  1.00  0.00    -0.275 OA
ATOM      6  C   UNL A   1      33.078  23.126  23.355  1.00  0.00     0.220 C 
ATOM      7  H   UNL A   1      33.996  23.767  25.058  1.00  0.00     0.163 HD
BRANCH   6   8
ATOM      8  C   UNL A   1      31.784  22.996  24.130  1.00  0.00     0.110 C 
BRANCH   8   9
ATOM      9  C   UNL A   1      31.883  23.250  25.633  1.00  0.00     0.110 C 
BRANCH   9  10
ATOM     10  C   UNL A   1      30.564  23.474  26.337  1.00  0.00     0.224 C 
ATOM     11  O   UNL A   1      30.007  22.504  26.866  1.00  0.00    -0.275 OA
ATOM     12  N   UNL A   1      29.898  24.662  26.385  1.00  0.00    -0.326 N 
ATOM     13  H   UNL A   1      29.156  24.661  27.031  1.00  0.00     0.169 HD
BRANCH  12  14
ATOM     14  C   UNL A   1      30.039  25.891  25.713  1.00  0.00     0.041 A 
ATOM     15  C   UNL A   1      29.235  26.086  24.572  1.00  0.00     0.027 A 
ATOM     16  C   UNL A   1      30.986  26.858  26.019  1.00  0.00     0.027 A 
ATOM     17  C   UNL A   1      29.498  27.131  23.672  1.00  0.00     0.016 A 
ATOM     18  C   UNL A   1      31.263  27.885  25.122  1.00  0.00     0.016 A 
ATOM     19  C   UNL A   1      30.567  27.988  23.919  1.00  0.00     0.040 A 
BRANCH  19  20
ATOM     20  C   UNL A   1      30.929  29.092  22.999  1.00  0.00     0.254 C 
ATOM     21  O   UNL A   1      31.981  29.032  22.377  1.00  0.00    -0.269 OA
ATOM     22  N   UNL A   1      29.935  30.026  22.763  1.00  0.00    -0.334 N 
ATOM     23  C   UNL A   1      29.258  30.793  23.814  1.00  0.00     0.148 C 
ATOM     24  C   UNL A   1      29.637  30.451  21.405  1.00  0.00     0.148 C 
ATOM     25  C   UNL A   1      27.759  30.938  23.529  1.00  0.00     0.181 C 
ATOM     26  C   UNL A   1      28.114  30.505  21.225  1.00  0.00     0.181 C 
ATOM     27  O   UNL A   1      27.515  31.394  22.184  1.00  0.00    -0.378 OA
ENDBRANCH  19  20
ENDBRANCH  12  14
ENDBRANCH   9  10
ENDBRANCH   8   9
ENDBRANCH   6   8
ENDBRANCH   3   4
ENDBRANCH   2   3
ENDBRANCH   1   2
BRANCH   1  28
ATOM     28  C   UNL A   1      37.317  21.109  24.468  1.00  0.00     0.002 C 
BRANCH  28  29
ATOM     29  C   UNL A   1      38.150  19.984  25.085  1.00  0.00     0.021 C 
BRANCH  29  30
ATOM     30  C   UNL A   1      39.376  20.426  25.880  1.00  0.00     0.116 C 
BRANCH  30  31
ATOM     31  N   UNL A   1      40.377  19.382  26.026  1.00  0.00    -0.352 N 
ATOM     32  C   UNL A   1      41.727  19.506  26.255  1.00  0.00     0.251 C 
ATOM     33  H   UNL A   1      40.043  18.460  25.950  1.00  0.00     0.163 HD
ATOM     34  O   UNL A   1      42.440  18.506  26.261  1.00  0.00    -0.269 OA
BRANCH  32  35
ATOM     35  C   UNL A   1      42.321  20.848  26.449  1.00  0.00     0.039 A 
ATOM     36  C   UNL A   1      42.654  21.607  25.324  1.00  0.00     0.014 A 
ATOM     37  C   UNL A   1      42.531  21.366  27.730  1.00  0.00     0.014 A 
ATOM     38  C   UNL A   1      43.121  22.916  25.482  1.00  0.00     0.010 A 
ATOM     39  C   UNL A   1      42.934  22.690  27.883  1.00  0.00     0.010 A 
ATOM     40  C   UNL A   1      43.226  23.483  26.761  1.00  0.00    -0.014 A 
BRANCH  40  41
ATOM     41  C   UNL A   1      43.637  24.900  26.958  1.00  0.00     0.031 A 
ATOM     42  C   UNL A   1      45.064  25.307  26.704  1.00  0.00     0.074 A 
ATOM     43  C   UNL A   1      42.752  25.794  27.445  1.00  0.00     0.049 A 
ATOM     44  N   UNL A   1      45.653  26.449  26.946  1.00  0.00    -0.248 NA
ATOM     45  C   UNL A   1      45.952  24.282  26.131  1.00  0.00     0.031 C 
ATOM     46  C   UNL A   1      41.347  25.514  27.754  1.00  0.00     0.029 A 
ATOM     47  N   UNL A   1      42.905  27.117  27.786  1.00  0.00    -0.354 N 
ATOM     48  C   UNL A   1      46.986  26.273  26.584  1.00  0.00     0.074 A 
ATOM     49  C   UNL A   1      47.122  24.902  26.140  1.00  0.00     0.031 C 
ATOM     50  C   UNL A   1      40.769  26.630  28.225  1.00  0.00     0.029 A 
ATOM     51  C   UNL A   1      41.767  27.692  28.306  1.00  0.00     0.049 A 
ATOM     52  H   UNL A   1      43.750  27.608  27.668  1.00  0.00     0.167 HD
ATOM     53  C   UNL A   1      47.996  27.177  26.609  1.00  0.00     0.034 A 
ATOM     54  C   UNL A   1      41.558  28.925  28.812  1.00  0.00     0.034 A 
ATOM     55  C   UNL A   1      47.835  28.550  27.018  1.00  0.00     0.049 A 
ATOM     56  C   UNL A   1      42.708  29.905  28.841  1.00  0.00     0.074 A 
ATOM     57  C   UNL A   1      48.774  29.566  27.001  1.00  0.00     0.029 A 
ATOM     58  N   UNL A   1      46.664  29.101  27.521  1.00  0.00    -0.354 N 
ATOM     59  N   UNL A   1      43.947  29.737  28.439  1.00  0.00    -0.248 NA
ATOM     60  C   UNL A   1      42.431  31.241  29.385  1.00  0.00     0.031 C 
ATOM     61  C   UNL A   1      48.194  30.710  27.558  1.00  0.00     0.029 A 
ATOM     62  C   UNL A   1      46.868  30.431  27.849  1.00  0.00     0.049 A 
ATOM     63  H   UNL A   1      45.813  28.617  27.629  1.00  0.00     0.167 HD
ATOM     64  C   UNL A   1      44.579  30.962  28.638  1.00  0.00     0.074 A 
ATOM     65  C   UNL A   1      43.586  31.858  29.190  1.00  0.00     0.031 C 
ATOM     66  C   UNL A   1      45.863  31.317  28.385  1.00  0.00     0.034 A 
BRANCH  53  67
ATOM     67  C   UNL A   1      49.372  26.707  26.212  1.00  0.00     0.023 A 
ATOM     68  C   UNL A   1      49.978  27.109  25.010  1.00  0.00     0.031 A 
ATOM     69  C   UNL A   1      50.099  25.855  27.065  1.00  0.00     0.131 A 
ATOM     70  C   UNL A   1      51.248  26.620  24.669  1.00  0.00     0.055 A 
ATOM     71  C   UNL A   1      51.391  25.429  26.753  1.00  0.00     0.041 A 
ATOM     72  F   UNL A   1      49.562  25.423  28.217  1.00  0.00    -0.206 F 
ATOM     73  C   UNL A   1      51.969  25.803  25.544  1.00  0.00     0.022 A 
BRANCH  70  74
ATOM     74  S   UNL A   1      51.903  26.980  23.017  1.00  0.00     0.124 S 
ATOM     75  O   UNL A   1      50.689  26.945  22.205  1.00  0.00    -0.237 OA
ATOM     76  O   UNL A   1      52.512  28.293  23.198  1.00  0.00    -0.237 OA
ATOM     77  O   UNL A   1      52.840  25.886  22.773  1.00  0.00    -0.744 OA
ENDBRANCH  70  74
ENDBRANCH  53  67
BRANCH  54  78
ATOM     78  C   UNL A   1      40.225  29.317  29.358  1.00  0.00     0.023 A 
ATOM     79  C   UNL A   1      39.992  29.336  30.742  1.00  0.00     0.031 A 
ATOM     80  C   UNL A   1      39.140  29.591  28.506  1.00  0.00     0.131 A 
ATOM     81  C   UNL A   1      38.694  29.550  31.233  1.00  0.00     0.055 A 
ATOM     82  C   UNL A   1      37.864  29.869  29.002  1.00  0.00     0.041 A 
ATOM     83  F   UNL A   1      39.304  29.589  27.173  1.00  0.00    -0.206 F 
ATOM     84  C   UNL A   1      37.630  29.829  30.372  1.00  0.00     0.022 A 
BRANCH  81  85
ATOM     85  S   UNL A   1      38.392  29.326  33.008  1.00  0.00     0.124 S 
ATOM     86  O   UNL A   1      39.726  28.992  33.495  1.00  0.00    -0.237 OA
ATOM     87  O   UNL A   1      37.877  30.635  33.393  1.00  0.00    -0.237 OA
ATOM     88  O   UNL A   1      37.420  28.236  33.052  1.00  0.00    -0.744 OA
ENDBRANCH  81  85
ENDBRANCH  54  78
BRANCH  66  89
ATOM     89  C   UNL A   1      46.245  32.756  28.627  1.00  0.00     0.023 A 
ATOM     90  C   UNL A   1      46.666  33.212  29.888  1.00  0.00     0.031 A 
ATOM     91  C   UNL A   1      46.190  33.683  27.571  1.00  0.00     0.131 A 
ATOM     92  C   UNL A   1      46.972  34.570  30.071  1.00  0.00     0.055 A 
ATOM     93  C   UNL A   1      46.551  35.018  27.745  1.00  0.00     0.041 A 
ATOM     94  F   UNL A   1      45.794  33.300  26.346  1.00  0.00    -0.206 F 
ATOM     95  C   UNL A   1      46.934  35.471  29.004  1.00  0.00     0.022 A 
BRANCH  92  96
ATOM     96  S   UNL A   1      47.352  35.160  31.744  1.00  0.00     0.124 S 
ATOM     97  O   UNL A   1      46.304  36.150  31.963  1.00  0.00    -0.237 OA
ATOM     98  O   UNL A   1      47.251  33.939  32.538  1.00  0.00    -0.237 OA
ATOM     99  O   UNL A   1      48.703  35.704  31.617  1.00  0.00    -0.744 OA
ENDBRANCH  92  96
ENDBRANCH  66  89
ENDBRANCH  40  41
ENDBRANCH  32  35
ENDBRANCH  30  31
ENDBRANCH  29  30
ENDBRANCH  28  29
ENDBRANCH   1  28
TORSDOF 20
ENDMDL
MODEL 2
REMARK VINA RESULT:     -11.5      5.387      8.875
REMARK SMILES O=C(CCC(=O)Nc1ccc(C(=O)N2CCOCC2)cc1)NCCCCCCNC(=O)c1ccc(-c2c3nc(c(-c4cc(S(=O)(=O)[O-])ccc4F)c4ccc([nH]4)c(-c4cc(S(=O)(=O)[O-])ccc4F)c4nc(c(-c5cc(S(=O)(=O)[O-])ccc5F)c5ccc2[nH]5)C=C4)C=C3)cc1
REMARK SMILES IDX 25 1 24 2 23 3 22 4 1 5 2 6 3 8 4 9 5 10 6 11 7 12 8 14 9 15
REMARK SMILES IDX 21 16 10 17 20 18 11 19 12 20 13 21 14 22 15 23 19 24 16 25
REMARK SMILES IDX 18 26 17 27 26 28 27 29 28 30 29 31 30 32 31 34 32 35 33 36
REMARK SMILES IDX 94 37 34 38 93 39 35 40 36 41 37 42 87 43 38 44 92 45 86 46
REMARK SMILES IDX 88 47 39 48 91 49 85 50 84 51 40 53 72 54 52 55 71 56 53 57
REMARK SMILES IDX 56 58 70 59 89 60 54 61 55 62 69 64 90 65 57 66 41 67 42 68
REMARK SMILES IDX 50 69 43 70 49 71 51 72 48 73 44 74 45 75 46 76 47 77 73 78
REMARK SMILES IDX 74 79 82 80 75 81 81 82 83 83 80 84 76 85 77 86 78 87 79 88
REMARK SMILES IDX 58 89 59 90 67 91 60 92 66 93 68 94 65 95 61 96 62 97 63 98
REMARK SMILES IDX 64 99
REMARK H PARENT 22 7 7 13 29 33 88 52 56 63
REMARK Flexibility Score: inf
ROOT
ATOM      1  C   UNL A   1      33.382  27.919  26.583  1.00  0.00     0.002 C 
ENDROOT
BRANCH   1   2
ATOM      2  C   UNL A   1      33.229  26.458  26.147  1.00  0.00     0.021 C 
BRANCH   2   3
ATOM      3  C   UNL A   1      34.365  25.904  25.296  1.00  0.00     0.116 C 
BRANCH   3   4
ATOM      4  N   UNL A   1      34.458  24.458  25.334  1.00  0.00    -0.356 N 
ATOM      5  O   UNL A   1      34.606  24.138  23.061  1.00  0.00    -0.275 OA
ATOM      6  C   UNL A   1      34.647  23.697  24.205  1.00  0.00     0.220 C 
ATOM      7  H   UNL A   1      34.383  24.003  26.204  1.00  0.00     0.163 HD
BRANCH   6   8
ATOM      8  C   UNL A   1      34.936  22.238  24.490  1.00  0.00     0.110 C 
BRANCH   8   9
ATOM      9  C   UNL A   1      33.778  21.273  24.242  1.00  0.00     0.110 C 
BRANCH   9  10
ATOM     10  C   UNL A   1      32.925  20.965  25.453  1.00  0.00     0.224 C 
ATOM     11  O   UNL A   1      33.120  19.901  26.054  1.00  0.00    -0.275 OA
ATOM     12  N   UNL A   1      31.905  21.746  25.906  1.00  0.00    -0.326 N 
ATOM     13  H   UNL A   1      31.586  21.481  26.799  1.00  0.00     0.169 HD
BRANCH  12  14
ATOM     14  C   UNL A   1      31.207  22.849  25.379  1.00  0.00     0.041 A 
ATOM     15  C   UNL A   1      31.165  22.961  23.975  1.00  0.00     0.027 A 
ATOM     16  C   UNL A   1      30.672  23.884  26.134  1.00  0.00     0.027 A 
ATOM     17  C   UNL A   1      30.758  24.154  23.357  1.00  0.00     0.016 A 
ATOM     18  C   UNL A   1      30.285  25.074  25.528  1.00  0.00     0.016 A 
ATOM     19  C   UNL A   1      30.386  25.237  24.147  1.00  0.00     0.040 A 
BRANCH  19  20
ATOM     20  C   UNL A   1      29.978  26.540  23.569  1.00  0.00     0.254 C 
ATOM     21  O   UNL A   1      28.855  26.970  23.797  1.00  0.00    -0.269 OA
ATOM     22  N   UNL A   1      30.988  27.272  22.969  1.00  0.00    -0.334 N 
ATOM     23  C   UNL A   1      31.832  26.773  21.880  1.00  0.00     0.148 C 
ATOM     24  C   UNL A   1      31.139  28.687  23.264  1.00  0.00     0.148 C 
ATOM     25  C   UNL A   1      33.291  27.214  22.049  1.00  0.00     0.181 C 
ATOM     26  C   UNL A   1      32.629  28.995  23.467  1.00  0.00     0.181 C 
ATOM     27  O   UNL A   1      33.392  28.628  22.305  1.00  0.00    -0.378 OA
ENDBRANCH  19  20
ENDBRANCH  12  14
ENDBRANCH   9  10
ENDBRANCH   8   9
ENDBRANCH   6   8
ENDBRANCH   3   4
ENDBRANCH   2   3
ENDBRANCH   1   2
BRANCH   1  28
ATOM     28  C   UNL A   1      32.202  28.522  27.350  1.00  0.00     0.002 C 
BRANCH  28  29
ATOM     29  C   UNL A   1      31.840  29.966  26.997  1.00  0.00     0.021 C 
BRANCH  29  30
ATOM     30  C   UNL A   1      33.009  30.946  26.932  1.00  0.00     0.116 C 
BRANCH  30  31
ATOM     31  N   UNL A   1      32.609  32.335  27.085  1.00  0.00    -0.352 N 
ATOM     32  C   UNL A   1      33.155  33.308  27.888  1.00  0.00     0.251 C 
ATOM     33  H   UNL A   1      31.841  32.617  26.538  1.00  0.00     0.163 HD
ATOM     34  O   UNL A   1      32.624  34.414  27.953  1.00  0.00    -0.269 OA
BRANCH  32  35
ATOM     35  C   UNL A   1      34.353  33.005  28.702  1.00  0.00     0.039 A 
ATOM     36  C   UNL A   1      34.182  32.456  29.976  1.00  0.00     0.014 A 
ATOM     37  C   UNL A   1      35.639  33.239  28.207  1.00  0.00     0.014 A 
ATOM     38  C   UNL A   1      35.299  32.067  30.721  1.00  0.00     0.010 A 
ATOM     39  C   UNL A   1      36.747  32.792  28.923  1.00  0.00     0.010 A 
ATOM     40  C   UNL A   1      36.590  32.195  30.184  1.00  0.00    -0.014 A 
BRANCH  40  41
ATOM     41  C   UNL A   1      37.792  31.711  30.916  1.00  0.00     0.031 A 
ATOM     42  C   UNL A   1      38.658  30.641  30.308  1.00  0.00     0.074 A 
ATOM     43  C   UNL A   1      38.052  32.170  32.158  1.00  0.00     0.049 A 
ATOM     44  N   UNL A   1      39.661  29.989  30.836  1.00  0.00    -0.248 NA
ATOM     45  C   UNL A   1      38.331  30.229  28.933  1.00  0.00     0.031 C 
ATOM     46  C   UNL A   1      37.272  33.189  32.865  1.00  0.00     0.029 A 
ATOM     47  N   UNL A   1      39.034  31.827  33.056  1.00  0.00    -0.354 N 
ATOM     48  C   UNL A   1      40.067  29.070  29.873  1.00  0.00     0.074 A 
ATOM     49  C   UNL A   1      39.176  29.226  28.742  1.00  0.00     0.031 C 
ATOM     50  C   UNL A   1      37.811  33.394  34.078  1.00  0.00     0.029 A 
ATOM     51  C   UNL A   1      38.940  32.488  34.261  1.00  0.00     0.049 A 
ATOM     52  H   UNL A   1      39.739  31.170  32.857  1.00  0.00     0.167 HD
ATOM     53  C   UNL A   1      41.094  28.187  29.925  1.00  0.00     0.034 A 
ATOM     54  C   UNL A   1      39.666  32.361  35.392  1.00  0.00     0.034 A 
ATOM     55  C   UNL A   1      41.996  28.069  31.044  1.00  0.00     0.049 A 
ATOM     56  C   UNL A   1      40.794  31.357  35.424  1.00  0.00     0.074 A 
ATOM     57  C   UNL A   1      43.117  27.266  31.162  1.00  0.00     0.029 A 
ATOM     58  N   UNL A   1      41.881  28.768  32.238  1.00  0.00    -0.354 N 
ATOM     59  N   UNL A   1      41.199  30.538  34.480  1.00  0.00    -0.248 NA
ATOM     60  C   UNL A   1      41.568  31.265  36.670  1.00  0.00     0.031 C 
ATOM     61  C   UNL A   1      43.638  27.426  32.450  1.00  0.00     0.029 A 
ATOM     62  C   UNL A   1      42.890  28.388  33.108  1.00  0.00     0.049 A 
ATOM     63  H   UNL A   1      41.184  29.435  32.437  1.00  0.00     0.167 HD
ATOM     64  C   UNL A   1      42.303  29.871  35.006  1.00  0.00     0.074 A 
ATOM     65  C   UNL A   1      42.504  30.386  36.344  1.00  0.00     0.031 C 
ATOM     66  C   UNL A   1      43.085  28.922  34.434  1.00  0.00     0.034 A 
BRANCH  53  67
ATOM     67  C   UNL A   1      41.284  27.256  28.754  1.00  0.00     0.023 A 
ATOM     68  C   UNL A   1      42.292  27.461  27.797  1.00  0.00     0.031 A 
ATOM     69  C   UNL A   1      40.452  26.132  28.606  1.00  0.00     0.131 A 
ATOM     70  C   UNL A   1      42.410  26.585  26.706  1.00  0.00     0.055 A 
ATOM     71  C   UNL A   1      40.620  25.224  27.558  1.00  0.00     0.041 A 
ATOM     72  F   UNL A   1      39.460  25.897  29.479  1.00  0.00    -0.206 F 
ATOM     73  C   UNL A   1      41.597  25.454  26.595  1.00  0.00     0.022 A 
BRANCH  70  74
ATOM     74  S   UNL A   1      43.572  27.002  25.379  1.00  0.00     0.124 S 
ATOM     75  O   UNL A   1      44.555  27.813  26.093  1.00  0.00    -0.237 OA
ATOM     76  O   UNL A   1      44.028  25.691  24.933  1.00  0.00    -0.237 OA
ATOM     77  O   UNL A   1      42.749  27.736  24.420  1.00  0.00    -0.744 OA
ENDBRANCH  70  74
ENDBRANCH  53  67
BRANCH  54  78
ATOM     78  C   UNL A   1      39.352  33.176  36.603  1.00  0.00     0.023 A 
ATOM     79  C   UNL A   1      39.974  34.416  36.817  1.00  0.00     0.031 A 
ATOM     80  C   UNL A   1      38.497  32.689  37.607  1.00  0.00     0.131 A 
ATOM     81  C   UNL A   1      39.790  35.093  38.033  1.00  0.00     0.055 A 
ATOM     82  C   UNL A   1      38.265  33.398  38.789  1.00  0.00     0.041 A 
ATOM     83  F   UNL A   1      37.873  31.509  37.456  1.00  0.00    -0.206 F 
ATOM     84  C   UNL A   1      38.930  34.598  39.015  1.00  0.00     0.022 A 
BRANCH  81  85
ATOM     85  S   UNL A   1      40.798  36.565  38.365  1.00  0.00     0.124 S 
ATOM     86  O   UNL A   1      41.733  36.064  39.367  1.00  0.00    -0.237 OA
ATOM     87  O   UNL A   1      41.359  36.849  37.049  1.00  0.00    -0.237 OA
ATOM     88  O   UNL A   1      39.825  37.540  38.851  1.00  0.00    -0.744 OA
ENDBRANCH  81  85
ENDBRANCH  54  78
BRANCH  66  89
ATOM     89  C   UNL A   1      44.276  28.437  35.224  1.00  0.00     0.023 A 
ATOM     90  C   UNL A   1      44.168  27.413  36.180  1.00  0.00     0.031 A 
ATOM     91  C   UNL A   1      45.542  29.010  35.006  1.00  0.00     0.131 A 
ATOM     92  C   UNL A   1      45.298  27.026  36.918  1.00  0.00     0.055 A 
ATOM     93  C   UNL A   1      46.672  28.581  35.700  1.00  0.00     0.041 A 
ATOM     94  F   UNL A   1      45.700  29.992  34.103  1.00  0.00    -0.206 F 
ATOM     95  C   UNL A   1      46.552  27.591  36.670  1.00  0.00     0.022 A 
BRANCH  92  96
ATOM     96  S   UNL A   1      45.094  25.821  38.258  1.00  0.00     0.124 S 
ATOM     97  O   UNL A   1      44.406  26.609  39.274  1.00  0.00    -0.237 OA
ATOM     98  O   UNL A   1      44.303  24.773  37.620  1.00  0.00    -0.237 OA
ATOM     99  O   UNL A   1      46.467  25.442  38.590  1.00  0.00    -0.744 OA
ENDBRANCH  92  96
ENDBRANCH  66  89
ENDBRANCH  40  41
ENDBRANCH  32  35
ENDBRANCH  30  31
ENDBRANCH  29  30
ENDBRANCH  28  29
ENDBRANCH   1  28
TORSDOF 20
ENDMDL
MODEL 3
REMARK VINA RESULT:     -11.4      2.655      4.360
REMARK SMILES O=C(CCC(=O)Nc1ccc(C(=O)N2CCOCC2)cc1)NCCCCCCNC(=O)c1ccc(-c2c3nc(c(-c4cc(S(=O)(=O)[O-])ccc4F)c4ccc([nH]4)c(-c4cc(S(=O)(=O)[O-])ccc4F)c4nc(c(-c5cc(S(=O)(=O)[O-])ccc5F)c5ccc2[nH]5)C=C4)C=C3)cc1
REMARK SMILES IDX 25 1 24 2 23 3 22 4 1 5 2 6 3 8 4 9 5 10 6 11 7 12 8 14 9 15
REMARK SMILES IDX 21 16 10 17 20 18 11 19 12 20 13 21 14 22 15 23 19 24 16 25
REMARK SMILES IDX 18 26 17 27 26 28 27 29 28 30 29 31 30 32 31 34 32 35 33 36
REMARK SMILES IDX 94 37 34 38 93 39 35 40 36 41 37 42 87 43 38 44 92 45 86 46
REMARK SMILES IDX 88 47 39 48 91 49 85 50 84 51 40 53 72 54 52 55 71 56 53 57
REMARK SMILES IDX 56 58 70 59 89 60 54 61 55 62 69 64 90 65 57 66 41 67 42 68
REMARK SMILES IDX 50 69 43 70 49 71 51 72 48 73 44 74 45 75 46 76 47 77 73 78
REMARK SMILES IDX 74 79 82 80 75 81 81 82 83 83 80 84 76 85 77 86 78 87 79 88
REMARK SMILES IDX 58 89 59 90 67 91 60 92 66 93 68 94 65 95 61 96 62 97 63 98
REMARK SMILES IDX 64 99
REMARK H PARENT 22 7 7 13 29 33 88 52 56 63
REMARK Flexibility Score: inf
ROOT
ATOM      1  C   UNL A   1      37.018  22.898  24.765  1.00  0.00     0.002 C 
ENDROOT
BRANCH   1   2
ATOM      2  C   UNL A   1      35.861  23.764  24.256  1.00  0.00     0.021 C 
BRANCH   2   3
ATOM      3  C   UNL A   1      35.047  24.472  25.333  1.00  0.00     0.116 C 
BRANCH   3   4
ATOM      4  N   UNL A   1      34.444  25.709  24.876  1.00  0.00    -0.356 N 
ATOM      5  O   UNL A   1      32.832  25.841  26.511  1.00  0.00    -0.275 OA
ATOM      6  C   UNL A   1      33.425  26.331  25.555  1.00  0.00     0.220 C 
ATOM      7  H   UNL A   1      34.779  26.119  24.047  1.00  0.00     0.163 HD
BRANCH   6   8
ATOM      8  C   UNL A   1      33.094  27.713  25.032  1.00  0.00     0.110 C 
BRANCH   8   9
ATOM      9  C   UNL A   1      33.606  28.030  23.628  1.00  0.00     0.110 C 
BRANCH   9  10
ATOM     10  C   UNL A   1      32.537  28.157  22.566  1.00  0.00     0.224 C 
ATOM     11  O   UNL A   1      32.126  29.288  22.277  1.00  0.00    -0.275 OA
ATOM     12  N   UNL A   1      31.937  27.110  21.935  1.00  0.00    -0.326 N 
ATOM     13  H   UNL A   1      31.402  27.386  21.156  1.00  0.00     0.169 HD
BRANCH  12  14
ATOM     14  C   UNL A   1      31.915  25.718  22.151  1.00  0.00     0.041 A 
ATOM     15  C   UNL A   1      30.903  25.225  22.997  1.00  0.00     0.027 A 
ATOM     16  C   UNL A   1      32.878  24.829  21.695  1.00  0.00     0.027 A 
ATOM     17  C   UNL A   1      30.961  23.919  23.509  1.00  0.00     0.016 A 
ATOM     18  C   UNL A   1      32.951  23.540  22.213  1.00  0.00     0.016 A 
ATOM     19  C   UNL A   1      32.035  23.102  23.167  1.00  0.00     0.040 A 
BRANCH  19  20
ATOM     20  C   UNL A   1      32.185  21.725  23.693  1.00  0.00     0.254 C 
ATOM     21  O   UNL A   1      32.313  20.795  22.908  1.00  0.00    -0.269 OA
ATOM     22  N   UNL A   1      32.369  21.622  25.061  1.00  0.00    -0.334 N 
ATOM     23  C   UNL A   1      31.446  22.168  26.060  1.00  0.00     0.148 C 
ATOM     24  C   UNL A   1      33.420  20.772  25.596  1.00  0.00     0.148 C 
ATOM     25  C   UNL A   1      32.198  22.789  27.244  1.00  0.00     0.181 C 
ATOM     26  C   UNL A   1      34.133  21.519  26.731  1.00  0.00     0.181 C 
ATOM     27  O   UNL A   1      33.204  21.897  27.761  1.00  0.00    -0.378 OA
ENDBRANCH  19  20
ENDBRANCH  12  14
ENDBRANCH   9  10
ENDBRANCH   8   9
ENDBRANCH   6   8
ENDBRANCH   3   4
ENDBRANCH   2   3
ENDBRANCH   1   2
BRANCH   1  28
ATOM     28  C   UNL A   1      37.052  21.453  24.261  1.00  0.00     0.002 C 
BRANCH  28  29
ATOM     29  C   UNL A   1      37.863  20.468  25.105  1.00  0.00     0.021 C 
BRANCH  29  30
ATOM     30  C   UNL A   1      39.070  21.055  25.833  1.00  0.00     0.116 C 
BRANCH  30  31
ATOM     31  N   UNL A   1      40.133  20.090  26.062  1.00  0.00    -0.352 N 
ATOM     32  C   UNL A   1      41.432  20.313  26.452  1.00  0.00     0.251 C 
ATOM     33  H   UNL A   1      39.889  19.148  25.917  1.00  0.00     0.163 HD
ATOM     34  O   UNL A   1      42.222  19.374  26.510  1.00  0.00    -0.269 OA
BRANCH  32  35
ATOM     35  C   UNL A   1      41.884  21.689  26.758  1.00  0.00     0.039 A 
ATOM     36  C   UNL A   1      42.117  22.573  25.701  1.00  0.00     0.014 A 
ATOM     37  C   UNL A   1      42.056  22.116  28.078  1.00  0.00     0.014 A 
ATOM     38  C   UNL A   1      42.445  23.905  25.969  1.00  0.00     0.010 A 
ATOM     39  C   UNL A   1      42.319  23.457  28.343  1.00  0.00     0.010 A 
ATOM     40  C   UNL A   1      42.509  24.369  27.292  1.00  0.00    -0.014 A 
BRANCH  40  41
ATOM     41  C   UNL A   1      42.770  25.800  27.608  1.00  0.00     0.031 A 
ATOM     42  C   UNL A   1      44.169  26.345  27.507  1.00  0.00     0.074 A 
ATOM     43  C   UNL A   1      41.769  26.579  28.067  1.00  0.00     0.049 A 
ATOM     44  N   UNL A   1      44.630  27.514  27.867  1.00  0.00    -0.248 NA
ATOM     45  C   UNL A   1      45.192  25.441  26.955  1.00  0.00     0.031 C 
ATOM     46  C   UNL A   1      40.376  26.159  28.233  1.00  0.00     0.029 A 
ATOM     47  N   UNL A   1      41.772  27.885  28.498  1.00  0.00    -0.354 N 
ATOM     48  C   UNL A   1      45.998  27.479  27.615  1.00  0.00     0.074 A 
ATOM     49  C   UNL A   1      46.296  26.158  27.105  1.00  0.00     0.031 C 
ATOM     50  C   UNL A   1      39.660  27.187  28.716  1.00  0.00     0.029 A 
ATOM     51  C   UNL A   1      40.546  28.323  28.948  1.00  0.00     0.049 A 
ATOM     52  H   UNL A   1      42.575  28.454  28.485  1.00  0.00     0.167 HD
ATOM     53  C   UNL A   1      46.915  28.463  27.784  1.00  0.00     0.034 A 
ATOM     54  C   UNL A   1      40.183  29.497  29.506  1.00  0.00     0.034 A 
ATOM     55  C   UNL A   1      46.595  29.786  28.258  1.00  0.00     0.049 A 
ATOM     56  C   UNL A   1      41.232  30.568  29.696  1.00  0.00     0.074 A 
ATOM     57  C   UNL A   1      47.435  30.879  28.385  1.00  0.00     0.029 A 
ATOM     58  N   UNL A   1      45.342  30.199  28.687  1.00  0.00    -0.354 N 
ATOM     59  N   UNL A   1      42.511  30.535  29.396  1.00  0.00    -0.248 NA
ATOM     60  C   UNL A   1      40.789  31.836  30.291  1.00  0.00     0.031 C 
ATOM     61  C   UNL A   1      46.708  31.929  28.955  1.00  0.00     0.029 A 
ATOM     62  C   UNL A   1      45.395  31.517  29.110  1.00  0.00     0.049 A 
ATOM     63  H   UNL A   1      44.533  29.637  28.690  1.00  0.00     0.167 HD
ATOM     64  C   UNL A   1      43.009  31.794  29.723  1.00  0.00     0.074 A 
ATOM     65  C   UNL A   1      41.895  32.563  30.236  1.00  0.00     0.031 C 
ATOM     66  C   UNL A   1      44.272  32.275  29.606  1.00  0.00     0.034 A 
BRANCH  53  67
ATOM     67  C   UNL A   1      48.357  28.142  27.484  1.00  0.00     0.023 A 
ATOM     68  C   UNL A   1      48.905  28.306  26.200  1.00  0.00     0.031 A 
ATOM     69  C   UNL A   1      49.204  27.680  28.508  1.00  0.00     0.131 A 
ATOM     70  C   UNL A   1      50.245  27.963  25.962  1.00  0.00     0.055 A 
ATOM     71  C   UNL A   1      50.554  27.408  28.282  1.00  0.00     0.041 A 
ATOM     72  F   UNL A   1      48.731  27.485  29.749  1.00  0.00    -0.206 F 
ATOM     73  C   UNL A   1      51.080  27.540  27.000  1.00  0.00     0.022 A 
BRANCH  70  74
ATOM     74  S   UNL A   1      50.855  27.977  24.255  1.00  0.00     0.124 S 
ATOM     75  O   UNL A   1      49.608  27.909  23.497  1.00  0.00    -0.237 OA
ATOM     76  O   UNL A   1      51.576  29.243  24.187  1.00  0.00    -0.237 OA
ATOM     77  O   UNL A   1      51.688  26.779  24.178  1.00  0.00    -0.744 OA
ENDBRANCH  70  74
ENDBRANCH  53  67
BRANCH  54  78
ATOM     78  C   UNL A   1      38.780  29.735  29.954  1.00  0.00     0.023 A 
ATOM     79  C   UNL A   1      37.878  30.449  29.149  1.00  0.00     0.031 A 
ATOM     80  C   UNL A   1      38.343  29.332  31.229  1.00  0.00     0.131 A 
ATOM     81  C   UNL A   1      36.615  30.801  29.651  1.00  0.00     0.055 A 
ATOM     82  C   UNL A   1      37.061  29.629  31.699  1.00  0.00     0.041 A 
ATOM     83  F   UNL A   1      39.162  28.645  32.042  1.00  0.00    -0.206 F 
ATOM     84  C   UNL A   1      36.196  30.385  30.916  1.00  0.00     0.022 A 
BRANCH  81  85
ATOM     85  S   UNL A   1      35.579  31.926  28.675  1.00  0.00     0.124 S 
ATOM     86  O   UNL A   1      34.500  32.222  29.611  1.00  0.00    -0.237 OA
ATOM     87  O   UNL A   1      36.503  33.020  28.394  1.00  0.00    -0.237 OA
ATOM     88  O   UNL A   1      35.198  31.120  27.517  1.00  0.00    -0.744 OA
ENDBRANCH  81  85
ENDBRANCH  54  78
BRANCH  66  89
ATOM     89  C   UNL A   1      44.498  33.722  29.967  1.00  0.00     0.023 A 
ATOM     90  C   UNL A   1      44.350  34.756  29.027  1.00  0.00     0.031 A 
ATOM     91  C   UNL A   1      44.863  34.068  31.281  1.00  0.00     0.131 A 
ATOM     92  C   UNL A   1      44.611  36.083  29.403  1.00  0.00     0.055 A 
ATOM     93  C   UNL A   1      45.064  35.393  31.663  1.00  0.00     0.041 A 
ATOM     94  F   UNL A   1      45.018  33.119  32.218  1.00  0.00    -0.206 F 
ATOM     95  C   UNL A   1      44.950  36.409  30.719  1.00  0.00     0.022 A 
BRANCH  92  96
ATOM     96  S   UNL A   1      44.573  37.374  28.130  1.00  0.00     0.124 S 
ATOM     97  O   UNL A   1      43.941  38.481  28.838  1.00  0.00    -0.237 OA
ATOM     98  O   UNL A   1      45.987  37.545  27.814  1.00  0.00    -0.237 OA
ATOM     99  O   UNL A   1      43.769  36.780  27.062  1.00  0.00    -0.744 OA
ENDBRANCH  92  96
ENDBRANCH  66  89
ENDBRANCH  40  41
ENDBRANCH  32  35
ENDBRANCH  30  31
ENDBRANCH  29  30
ENDBRANCH  28  29
ENDBRANCH   1  28
TORSDOF 20
ENDMDL
