MODEL 1
REMARK VINA RESULT:     -13.1      0.000      0.000
REMARK SMILES O=C(NCCCCCCNC(=O)[C@H]1C[C@](O)(c2ccc(Cl)cc2)[C@@H](c2ccc(Cl)cc2)O1)c1ccc(-c2c3nc(c(-c4cc(S(=O)(=O)[O-])ccc4F)c4ccc([nH]4)c(-c4cc(S(=O)(=O)[O-])ccc4F)c4nc(c(-c5cc(S(=O)(=O)[O-])ccc5F)c5ccc2[nH]5)C=C4)C=C3)cc1
REMARK SMILES IDX 5 1 4 2 3 3 1 4 2 5 33 7 34 8 95 9 35 10 94 11 36 12 37 13
REMARK SMILES IDX 38 14 88 15 39 16 93 17 87 18 89 19 40 20 92 21 86 22 85 23
REMARK SMILES IDX 41 25 73 26 53 27 72 28 54 29 57 30 71 31 90 32 55 33 56 34
REMARK SMILES IDX 70 36 91 37 58 38 42 39 43 40 51 41 44 42 50 43 52 44 49 45
REMARK SMILES IDX 45 46 46 47 47 48 48 49 74 50 75 51 83 52 76 53 82 54 84 55
REMARK SMILES IDX 81 56 77 57 78 58 79 59 80 60 59 61 60 62 68 63 61 64 67 65
REMARK SMILES IDX 69 66 66 67 62 68 63 69 64 70 65 71 6 72 7 73 8 74 9 75
REMARK SMILES IDX 10 76 11 77 12 79 13 80 14 81 32 82 15 83 24 84 17 85 18 86
REMARK SMILES IDX 23 87 19 88 22 89 20 90 21 91 16 92 25 94 26 95 31 96 27 97
REMARK SMILES IDX 30 98 28 99 29 100
REMARK H PARENT 3 6 89 24 57 35 10 78 16 93
REMARK Flexibility Score: inf
ROOT
ATOM      1  C   UNL A   1      34.704  32.218  27.626  1.00  0.00     0.021 C 
ENDROOT
BRANCH   1   2
ATOM      2  C   UNL A   1      33.177  32.620  27.547  1.00  0.00     0.116 C 
BRANCH   2   3
ATOM      3  N   UNL A   1      32.883  33.988  27.897  1.00  0.00    -0.352 N 
ATOM      4  O   UNL A   1      32.658  35.794  29.196  1.00  0.00    -0.269 OA
ATOM      5  C   UNL A   1      33.283  34.759  28.967  1.00  0.00     0.251 C 
ATOM      6  H   UNL A   1      32.294  34.452  27.260  1.00  0.00     0.163 HD
BRANCH   5   7
ATOM      7  C   UNL A   1      34.436  34.437  29.852  1.00  0.00     0.039 A 
ATOM      8  C   UNL A   1      34.255  33.603  30.961  1.00  0.00     0.014 A 
ATOM      9  C   UNL A   1      35.742  34.693  29.414  1.00  0.00     0.014 A 
ATOM     10  C   UNL A   1      35.362  33.087  31.662  1.00  0.00     0.010 A 
ATOM     11  C   UNL A   1      36.849  34.136  30.089  1.00  0.00     0.010 A 
ATOM     12  C   UNL A   1      36.677  33.322  31.222  1.00  0.00    -0.014 A 
BRANCH  12  13
ATOM     13  C   UNL A   1      37.852  32.657  31.884  1.00  0.00     0.031 A 
ATOM     14  C   UNL A   1      38.572  31.506  31.223  1.00  0.00     0.074 A 
ATOM     15  C   UNL A   1      38.263  33.067  33.105  1.00  0.00     0.049 A 
ATOM     16  N   UNL A   1      39.556  30.766  31.674  1.00  0.00    -0.248 NA
ATOM     17  C   UNL A   1      38.116  31.133  29.877  1.00  0.00     0.031 C 
ATOM     18  C   UNL A   1      37.655  34.157  33.872  1.00  0.00     0.029 A 
ATOM     19  N   UNL A   1      39.276  32.619  33.924  1.00  0.00    -0.354 N 
ATOM     20  C   UNL A   1      39.839  29.842  30.672  1.00  0.00     0.074 A 
ATOM     21  C   UNL A   1      38.885  30.087  29.608  1.00  0.00     0.031 C 
ATOM     22  C   UNL A   1      38.312  34.302  35.033  1.00  0.00     0.029 A 
ATOM     23  C   UNL A   1      39.350  33.281  35.132  1.00  0.00     0.049 A 
ATOM     24  H   UNL A   1      39.891  31.894  33.671  1.00  0.00     0.167 HD
ATOM     25  C   UNL A   1      40.810  28.890  30.630  1.00  0.00     0.034 A 
ATOM     26  C   UNL A   1      40.139  33.078  36.209  1.00  0.00     0.034 A 
ATOM     27  C   UNL A   1      41.746  28.638  31.704  1.00  0.00     0.049 A 
ATOM     28  C   UNL A   1      41.165  31.973  36.167  1.00  0.00     0.074 A 
ATOM     29  C   UNL A   1      42.763  27.698  31.762  1.00  0.00     0.029 A 
ATOM     30  N   UNL A   1      41.776  29.321  32.914  1.00  0.00    -0.354 N 
ATOM     31  N   UNL A   1      41.424  31.122  35.200  1.00  0.00    -0.248 NA
ATOM     32  C   UNL A   1      42.013  31.806  37.355  1.00  0.00     0.031 C 
ATOM     33  C   UNL A   1      43.362  27.770  33.025  1.00  0.00     0.029 A 
ATOM     34  C   UNL A   1      42.777  28.809  33.728  1.00  0.00     0.049 A 
ATOM     35  H   UNL A   1      41.174  30.061  33.157  1.00  0.00     0.167 HD
ATOM     36  C   UNL A   1      42.485  30.343  35.656  1.00  0.00     0.074 A 
ATOM     37  C   UNL A   1      42.833  30.841  36.969  1.00  0.00     0.031 C 
ATOM     38  C   UNL A   1      43.113  29.306  35.043  1.00  0.00     0.034 A 
BRANCH  25  39
ATOM     39  C   UNL A   1      40.892  28.031  29.388  1.00  0.00     0.023 A 
ATOM     40  C   UNL A   1      41.830  28.294  28.373  1.00  0.00     0.031 A 
ATOM     41  C   UNL A   1      40.021  26.940  29.205  1.00  0.00     0.131 A 
ATOM     42  C   UNL A   1      41.830  27.528  27.197  1.00  0.00     0.055 A 
ATOM     43  C   UNL A   1      40.081  26.131  28.067  1.00  0.00     0.041 A 
ATOM     44  F   UNL A   1      39.093  26.645  30.127  1.00  0.00    -0.206 F 
ATOM     45  C   UNL A   1      40.978  26.431  27.048  1.00  0.00     0.022 A 
BRANCH  42  46
ATOM     46  S   UNL A   1      42.862  28.073  25.809  1.00  0.00     0.124 S 
ATOM     47  O   UNL A   1      42.669  29.522  25.848  1.00  0.00    -0.237 OA
ATOM     48  O   UNL A   1      44.186  27.596  26.192  1.00  0.00    -0.237 OA
ATOM     49  O   UNL A   1      42.267  27.405  24.654  1.00  0.00    -0.744 OA
ENDBRANCH  42  46
ENDBRANCH  25  39
BRANCH  26  50
ATOM     50  C   UNL A   1      39.972  33.907  37.444  1.00  0.00     0.023 A 
ATOM     51  C   UNL A   1      40.756  35.050  37.669  1.00  0.00     0.031 A 
ATOM     52  C   UNL A   1      39.067  33.525  38.452  1.00  0.00     0.131 A 
ATOM     53  C   UNL A   1      40.662  35.737  38.892  1.00  0.00     0.055 A 
ATOM     54  C   UNL A   1      38.930  34.251  39.638  1.00  0.00     0.041 A 
ATOM     55  F   UNL A   1      38.296  32.437  38.298  1.00  0.00    -0.206 F 
ATOM     56  C   UNL A   1      39.743  35.354  39.870  1.00  0.00     0.022 A 
BRANCH  53  57
ATOM     57  S   UNL A   1      41.846  37.068  39.233  1.00  0.00     0.124 S 
ATOM     58  O   UNL A   1      40.961  38.165  39.609  1.00  0.00    -0.237 OA
ATOM     59  O   UNL A   1      42.647  36.493  40.309  1.00  0.00    -0.237 OA
ATOM     60  O   UNL A   1      42.545  37.237  37.961  1.00  0.00    -0.744 OA
ENDBRANCH  53  57
ENDBRANCH  26  50
BRANCH  38  61
ATOM     61  C   UNL A   1      44.277  28.680  35.777  1.00  0.00     0.023 A 
ATOM     62  C   UNL A   1      44.104  27.599  36.660  1.00  0.00     0.031 A 
ATOM     63  C   UNL A   1      45.574  29.201  35.618  1.00  0.00     0.131 A 
ATOM     64  C   UNL A   1      45.194  27.121  37.403  1.00  0.00     0.055 A 
ATOM     65  C   UNL A   1      46.668  28.674  36.308  1.00  0.00     0.041 A 
ATOM     66  F   UNL A   1      45.801  30.235  34.792  1.00  0.00    -0.206 F 
ATOM     67  C   UNL A   1      46.478  27.639  37.218  1.00  0.00     0.022 A 
BRANCH  64  68
ATOM     68  S   UNL A   1      44.890  25.887  38.698  1.00  0.00     0.124 S 
ATOM     69  O   UNL A   1      44.051  26.629  39.632  1.00  0.00    -0.237 OA
ATOM     70  O   UNL A   1      44.231  24.816  37.960  1.00  0.00    -0.237 OA
ATOM     71  O   UNL A   1      46.230  25.567  39.188  1.00  0.00    -0.744 OA
ENDBRANCH  64  68
ENDBRANCH  38  61
ENDBRANCH  12  13
ENDBRANCH   5   7
ENDBRANCH   2   3
ENDBRANCH   1   2
BRANCH   1  72
ATOM     72  C   UNL A   1      35.254  30.785  28.052  1.00  0.00     0.002 C 
BRANCH  72  73
ATOM     73  C   UNL A   1      35.316  29.291  27.351  1.00  0.00     0.002 C 
BRANCH  73  74
ATOM     74  C   UNL A   1      34.105  28.071  26.606  1.00  0.00     0.021 C 
BRANCH  74  75
ATOM     75  C   UNL A   1      31.936  28.216  26.293  1.00  0.00     0.116 C 
BRANCH  75  76
ATOM     76  N   UNL A   1      30.730  27.043  26.594  1.00  0.00    -0.354 N 
ATOM     77  C   UNL A   1      30.644  25.674  26.431  1.00  0.00     0.249 C 
ATOM     78  H   UNL A   1      29.907  27.432  26.970  1.00  0.00     0.163 HD
ATOM     79  O   UNL A   1      29.523  25.157  26.379  1.00  0.00    -0.272 OA
BRANCH  77  80
ATOM     80  C   UNL A   1      31.911  24.809  26.332  1.00  0.00     0.211 C 
ATOM     81  C   UNL A   1      31.738  23.321  25.974  1.00  0.00     0.085 C 
ATOM     82  O   UNL A   1      32.733  25.352  25.313  1.00  0.00    -0.357 OA
ATOM     83  C   UNL A   1      32.568  23.135  24.706  1.00  0.00     0.123 C 
ATOM     84  C   UNL A   1      32.491  24.537  24.148  1.00  0.00     0.186 C 
BRANCH  83  85
ATOM     85  C   UNL A   1      34.113  22.819  24.879  1.00  0.00    -0.013 A 
ATOM     86  C   UNL A   1      34.580  22.147  26.019  1.00  0.00     0.008 A 
ATOM     87  C   UNL A   1      35.055  22.965  23.817  1.00  0.00     0.008 A 
ATOM     88  C   UNL A   1      35.868  21.576  26.054  1.00  0.00     0.021 A 
ATOM     89  C   UNL A   1      36.323  22.370  23.837  1.00  0.00     0.021 A 
ATOM     90  C   UNL A   1      36.720  21.662  24.954  1.00  0.00     0.041 A 
ATOM     91  Cl  UNL A   1      38.249  20.875  24.970  1.00  0.00    -0.084 Cl
ENDBRANCH  83  85
BRANCH  83  92
ATOM     92  O   UNL A   1      31.979  22.213  23.796  1.00  0.00    -0.382 OA
ATOM     93  H   UNL A   1      31.496  22.699  23.109  1.00  0.00     0.212 HD
ENDBRANCH  83  92
BRANCH  84  94
ATOM     94  C   UNL A   1      31.455  25.312  23.330  1.00  0.00    -0.016 A 
ATOM     95  C   UNL A   1      29.665  25.544  23.599  1.00  0.00     0.008 A 
ATOM     96  C   UNL A   1      32.463  26.685  22.818  1.00  0.00     0.008 A 
ATOM     97  C   UNL A   1      28.998  27.269  23.507  1.00  0.00     0.021 A 
ATOM     98  C   UNL A   1      31.869  28.274  22.758  1.00  0.00     0.021 A 
ATOM     99  C   UNL A   1      30.162  28.611  22.999  1.00  0.00     0.041 A 
ATOM    100  Cl  UNL A   1      30.076  29.885  21.867  1.00  0.00    -0.084 Cl
ENDBRANCH  84  94
ENDBRANCH  77  80
ENDBRANCH  75  76
ENDBRANCH  74  75
ENDBRANCH  73  74
ENDBRANCH  72  73
ENDBRANCH   1  72
TORSDOF 19
ENDMDL
MODEL 2
REMARK VINA RESULT:     -12.9      6.028     10.350
REMARK SMILES O=C(NCCCCCCNC(=O)[C@H]1C[C@](O)(c2ccc(Cl)cc2)[C@@H](c2ccc(Cl)cc2)O1)c1ccc(-c2c3nc(c(-c4cc(S(=O)(=O)[O-])ccc4F)c4ccc([nH]4)c(-c4cc(S(=O)(=O)[O-])ccc4F)c4nc(c(-c5cc(S(=O)(=O)[O-])ccc5F)c5ccc2[nH]5)C=C4)C=C3)cc1
REMARK SMILES IDX 5 1 4 2 3 3 1 4 2 5 33 7 34 8 95 9 35 10 94 11 36 12 37 13
REMARK SMILES IDX 38 14 88 15 39 16 93 17 87 18 89 19 40 20 92 21 86 22 85 23
REMARK SMILES IDX 41 25 73 26 53 27 72 28 54 29 57 30 71 31 90 32 55 33 56 34
REMARK SMILES IDX 70 36 91 37 58 38 42 39 43 40 51 41 44 42 50 43 52 44 49 45
REMARK SMILES IDX 45 46 46 47 47 48 48 49 74 50 75 51 83 52 76 53 82 54 84 55
REMARK SMILES IDX 81 56 77 57 78 58 79 59 80 60 59 61 60 62 68 63 61 64 67 65
REMARK SMILES IDX 69 66 66 67 62 68 63 69 64 70 65 71 6 72 7 73 8 74 9 75
REMARK SMILES IDX 10 76 11 77 12 79 13 80 14 81 32 82 15 83 24 84 17 85 18 86
REMARK SMILES IDX 23 87 19 88 22 89 20 90 21 91 16 92 25 94 26 95 31 96 27 97
REMARK SMILES IDX 30 98 28 99 29 100
REMARK H PARENT 3 6 89 24 57 35 10 78 16 93
REMARK Flexibility Score: inf
ROOT
ATOM      1  C   UNL A   1      40.055  21.103  26.490  1.00  0.00     0.021 C 
ENDROOT
BRANCH   1   2
ATOM      2  C   UNL A   1      40.982  20.014  27.162  1.00  0.00     0.116 C 
BRANCH   2   3
ATOM      3  N   UNL A   1      41.938  19.390  26.279  1.00  0.00    -0.352 N 
ATOM      4  O   UNL A   1      43.441  19.227  24.631  1.00  0.00    -0.269 OA
ATOM      5  C   UNL A   1      42.965  19.921  25.530  1.00  0.00     0.251 C 
ATOM      6  H   UNL A   1      41.839  18.414  26.199  1.00  0.00     0.163 HD
BRANCH   5   7
ATOM      7  C   UNL A   1      43.555  21.271  25.747  1.00  0.00     0.039 A 
ATOM      8  C   UNL A   1      43.362  22.280  24.796  1.00  0.00     0.014 A 
ATOM      9  C   UNL A   1      44.020  21.630  27.018  1.00  0.00     0.014 A 
ATOM     10  C   UNL A   1      43.692  23.617  25.090  1.00  0.00     0.010 A 
ATOM     11  C   UNL A   1      44.304  22.977  27.326  1.00  0.00     0.010 A 
ATOM     12  C   UNL A   1      44.142  23.993  26.368  1.00  0.00    -0.014 A 
BRANCH  12  13
ATOM     13  C   UNL A   1      44.359  25.438  26.725  1.00  0.00     0.031 A 
ATOM     14  C   UNL A   1      45.731  26.065  26.638  1.00  0.00     0.074 A 
ATOM     15  C   UNL A   1      43.325  26.192  27.160  1.00  0.00     0.049 A 
ATOM     16  N   UNL A   1      46.120  27.272  26.972  1.00  0.00    -0.248 NA
ATOM     17  C   UNL A   1      46.809  25.215  26.113  1.00  0.00     0.031 C 
ATOM     18  C   UNL A   1      41.947  25.718  27.310  1.00  0.00     0.029 A 
ATOM     19  N   UNL A   1      43.263  27.506  27.567  1.00  0.00    -0.354 N 
ATOM     20  C   UNL A   1      47.485  27.329  26.698  1.00  0.00     0.074 A 
ATOM     21  C   UNL A   1      47.861  26.015  26.216  1.00  0.00     0.031 C 
ATOM     22  C   UNL A   1      41.179  26.724  27.756  1.00  0.00     0.029 A 
ATOM     23  C   UNL A   1      42.010  27.901  27.987  1.00  0.00     0.049 A 
ATOM     24  H   UNL A   1      44.041  28.109  27.558  1.00  0.00     0.167 HD
ATOM     25  C   UNL A   1      48.341  28.379  26.820  1.00  0.00     0.034 A 
ATOM     26  C   UNL A   1      41.578  29.062  28.523  1.00  0.00     0.034 A 
ATOM     27  C   UNL A   1      47.962  29.681  27.321  1.00  0.00     0.049 A 
ATOM     28  C   UNL A   1      42.560  30.192  28.711  1.00  0.00     0.074 A 
ATOM     29  C   UNL A   1      48.753  30.809  27.486  1.00  0.00     0.029 A 
ATOM     30  N   UNL A   1      46.687  30.033  27.749  1.00  0.00    -0.354 N 
ATOM     31  N   UNL A   1      43.843  30.227  28.429  1.00  0.00    -0.248 NA
ATOM     32  C   UNL A   1      42.037  31.442  29.279  1.00  0.00     0.031 C 
ATOM     33  C   UNL A   1      47.975  31.815  28.070  1.00  0.00     0.029 A 
ATOM     34  C   UNL A   1      46.678  31.348  28.195  1.00  0.00     0.049 A 
ATOM     35  H   UNL A   1      45.905  29.436  27.737  1.00  0.00     0.167 HD
ATOM     36  C   UNL A   1      44.268  31.512  28.758  1.00  0.00     0.074 A 
ATOM     37  C   UNL A   1      43.102  32.227  29.232  1.00  0.00     0.031 C 
ATOM     38  C   UNL A   1      45.511  32.053  28.676  1.00  0.00     0.034 A 
BRANCH  25  39
ATOM     39  C   UNL A   1      49.784  28.151  26.426  1.00  0.00     0.023 A 
ATOM     40  C   UNL A   1      50.207  28.266  25.090  1.00  0.00     0.031 A 
ATOM     41  C   UNL A   1      50.751  27.807  27.389  1.00  0.00     0.131 A 
ATOM     42  C   UNL A   1      51.535  27.972  24.743  1.00  0.00     0.055 A 
ATOM     43  C   UNL A   1      52.089  27.595  27.050  1.00  0.00     0.041 A 
ATOM     44  F   UNL A   1      50.410  27.665  28.679  1.00  0.00    -0.206 F 
ATOM     45  C   UNL A   1      52.486  27.663  25.718  1.00  0.00     0.022 A 
BRANCH  42  46
ATOM     46  S   UNL A   1      51.967  27.865  22.985  1.00  0.00     0.124 S 
ATOM     47  O   UNL A   1      50.648  27.798  22.360  1.00  0.00    -0.237 OA
ATOM     48  O   UNL A   1      52.714  29.098  22.766  1.00  0.00    -0.237 OA
ATOM     49  O   UNL A   1      52.752  26.635  22.898  1.00  0.00    -0.744 OA
ENDBRANCH  42  46
ENDBRANCH  25  39
BRANCH  26  50
ATOM     50  C   UNL A   1      40.157  29.216  28.966  1.00  0.00     0.023 A 
ATOM     51  C   UNL A   1      39.805  29.166  30.325  1.00  0.00     0.031 A 
ATOM     52  C   UNL A   1      39.117  29.348  28.026  1.00  0.00     0.131 A 
ATOM     53  C   UNL A   1      38.451  29.190  30.702  1.00  0.00     0.055 A 
ATOM     54  C   UNL A   1      37.778  29.439  28.410  1.00  0.00     0.041 A 
ATOM     55  F   UNL A   1      39.391  29.394  26.712  1.00  0.00    -0.206 F 
ATOM     56  C   UNL A   1      37.437  29.343  29.755  1.00  0.00     0.022 A 
BRANCH  53  57
ATOM     57  S   UNL A   1      38.029  28.897  32.442  1.00  0.00     0.124 S 
ATOM     58  O   UNL A   1      39.027  29.706  33.131  1.00  0.00    -0.237 OA
ATOM     59  O   UNL A   1      36.654  29.384  32.506  1.00  0.00    -0.237 OA
ATOM     60  O   UNL A   1      38.183  27.453  32.592  1.00  0.00    -0.744 OA
ENDBRANCH  53  57
ENDBRANCH  26  50
BRANCH  38  61
ATOM     61  C   UNL A   1      45.653  33.506  29.065  1.00  0.00     0.023 A 
ATOM     62  C   UNL A   1      45.372  34.547  28.161  1.00  0.00     0.031 A 
ATOM     63  C   UNL A   1      46.113  33.853  30.348  1.00  0.00     0.131 A 
ATOM     64  C   UNL A   1      45.622  35.879  28.529  1.00  0.00     0.055 A 
ATOM     65  C   UNL A   1      46.293  35.183  30.731  1.00  0.00     0.041 A 
ATOM     66  F   UNL A   1      46.400  32.902  31.252  1.00  0.00    -0.206 F 
ATOM     67  C   UNL A   1      46.064  36.204  29.814  1.00  0.00     0.022 A 
BRANCH  64  68
ATOM     68  S   UNL A   1      45.473  37.173  27.265  1.00  0.00     0.124 S 
ATOM     69  O   UNL A   1      44.074  37.053  26.873  1.00  0.00    -0.237 OA
ATOM     70  O   UNL A   1      45.826  38.377  28.009  1.00  0.00    -0.237 OA
ATOM     71  O   UNL A   1      46.441  36.769  26.246  1.00  0.00    -0.744 OA
ENDBRANCH  64  68
ENDBRANCH  38  61
ENDBRANCH  12  13
ENDBRANCH   5   7
ENDBRANCH   2   3
ENDBRANCH   1   2
BRANCH   1  72
ATOM     72  C   UNL A   1      39.993  22.639  26.906  1.00  0.00     0.002 C 
BRANCH  72  73
ATOM     73  C   UNL A   1      38.900  23.863  26.726  1.00  0.00     0.002 C 
BRANCH  73  74
ATOM     74  C   UNL A   1      37.171  24.073  26.034  1.00  0.00     0.021 C 
BRANCH  74  75
ATOM     75  C   UNL A   1      36.000  22.786  24.694  1.00  0.00     0.116 C 
BRANCH  75  76
ATOM     76  N   UNL A   1      35.140  23.214  23.280  1.00  0.00    -0.354 N 
ATOM     77  C   UNL A   1      34.208  24.184  22.967  1.00  0.00     0.249 C 
ATOM     78  H   UNL A   1      35.359  22.636  22.513  1.00  0.00     0.163 HD
ATOM     79  O   UNL A   1      33.488  24.010  21.977  1.00  0.00    -0.272 OA
BRANCH  77  80
ATOM     80  C   UNL A   1      34.076  25.459  23.816  1.00  0.00     0.211 C 
ATOM     81  C   UNL A   1      32.938  26.436  23.472  1.00  0.00     0.085 C 
ATOM     82  O   UNL A   1      33.850  25.068  25.159  1.00  0.00    -0.357 OA
ATOM     83  C   UNL A   1      32.125  26.544  24.760  1.00  0.00     0.123 C 
ATOM     84  C   UNL A   1      32.426  25.191  25.361  1.00  0.00     0.186 C 
BRANCH  83  85
ATOM     85  C   UNL A   1      32.593  27.612  25.837  1.00  0.00    -0.013 A 
ATOM     86  C   UNL A   1      33.942  27.699  26.215  1.00  0.00     0.008 A 
ATOM     87  C   UNL A   1      31.754  28.675  26.285  1.00  0.00     0.008 A 
ATOM     88  C   UNL A   1      34.434  28.823  26.908  1.00  0.00     0.021 A 
ATOM     89  C   UNL A   1      32.247  29.807  26.946  1.00  0.00     0.021 A 
ATOM     90  C   UNL A   1      33.594  29.883  27.242  1.00  0.00     0.041 A 
ATOM     91  Cl  UNL A   1      34.224  31.293  27.998  1.00  0.00    -0.084 Cl
ENDBRANCH  83  85
BRANCH  83  92
ATOM     92  O   UNL A   1      30.729  26.673  24.518  1.00  0.00    -0.382 OA
ATOM     93  H   UNL A   1      30.253  25.968  24.985  1.00  0.00     0.212 HD
ENDBRANCH  83  92
BRANCH  84  94
ATOM     94  C   UNL A   1      31.873  23.777  25.155  1.00  0.00    -0.016 A 
ATOM     95  C   UNL A   1      31.495  22.864  23.622  1.00  0.00     0.008 A 
ATOM     96  C   UNL A   1      32.687  22.953  26.504  1.00  0.00     0.008 A 
ATOM     97  C   UNL A   1      32.154  21.140  23.463  1.00  0.00     0.021 A 
ATOM     98  C   UNL A   1      33.320  21.384  26.360  1.00  0.00     0.021 A 
ATOM     99  C   UNL A   1      33.014  20.415  24.927  1.00  0.00     0.041 A 
ATOM    100  Cl  UNL A   1      32.896  18.924  25.750  1.00  0.00    -0.084 Cl
ENDBRANCH  84  94
ENDBRANCH  77  80
ENDBRANCH  75  76
ENDBRANCH  74  75
ENDBRANCH  73  74
ENDBRANCH  72  73
ENDBRANCH   1  72
TORSDOF 19
ENDMDL
MODEL 3
REMARK VINA RESULT:     -12.8      1.531      7.437
REMARK SMILES O=C(NCCCCCCNC(=O)[C@H]1C[C@](O)(c2ccc(Cl)cc2)[C@@H](c2ccc(Cl)cc2)O1)c1ccc(-c2c3nc(c(-c4cc(S(=O)(=O)[O-])ccc4F)c4ccc([nH]4)c(-c4cc(S(=O)(=O)[O-])ccc4F)c4nc(c(-c5cc(S(=O)(=O)[O-])ccc5F)c5ccc2[nH]5)C=C4)C=C3)cc1
REMARK SMILES IDX 5 1 4 2 3 3 1 4 2 5 33 7 34 8 95 9 35 10 94 11 36 12 37 13
REMARK SMILES IDX 38 14 88 15 39 16 93 17 87 18 89 19 40 20 92 21 86 22 85 23
REMARK SMILES IDX 41 25 73 26 53 27 72 28 54 29 57 30 71 31 90 32 55 33 56 34
REMARK SMILES IDX 70 36 91 37 58 38 42 39 43 40 51 41 44 42 50 43 52 44 49 45
REMARK SMILES IDX 45 46 46 47 47 48 48 49 74 50 75 51 83 52 76 53 82 54 84 55
REMARK SMILES IDX 81 56 77 57 78 58 79 59 80 60 59 61 60 62 68 63 61 64 67 65
REMARK SMILES IDX 69 66 66 67 62 68 63 69 64 70 65 71 6 72 7 73 8 74 9 75
REMARK SMILES IDX 10 76 11 77 12 79 13 80 14 81 32 82 15 83 24 84 17 85 18 86
REMARK SMILES IDX 23 87 19 88 22 89 20 90 21 91 16 92 25 94 26 95 31 96 27 97
REMARK SMILES IDX 30 98 28 99 29 100
REMARK H PARENT 3 6 89 24 57 35 10 78 16 93
REMARK Flexibility Score: inf
ROOT
ATOM      1  C   UNL A   1      34.820  32.651  27.631  1.00  0.00     0.021 C 
ENDROOT
BRANCH   1   2
ATOM      2  C   UNL A   1      33.292  32.976  27.870  1.00  0.00     0.116 C 
BRANCH   2   3
ATOM      3  N   UNL A   1      33.025  34.256  28.480  1.00  0.00    -0.352 N 
ATOM      4  O   UNL A   1      32.827  35.779  30.106  1.00  0.00    -0.269 OA
ATOM      5  C   UNL A   1      33.432  34.795  29.681  1.00  0.00     0.251 C 
ATOM      6  H   UNL A   1      32.451  34.850  27.943  1.00  0.00     0.163 HD
BRANCH   5   7
ATOM      7  C   UNL A   1      34.570  34.280  30.491  1.00  0.00     0.039 A 
ATOM      8  C   UNL A   1      34.374  33.212  31.375  1.00  0.00     0.014 A 
ATOM      9  C   UNL A   1      35.882  34.633  30.150  1.00  0.00     0.014 A 
ATOM     10  C   UNL A   1      35.471  32.551  31.959  1.00  0.00     0.010 A 
ATOM     11  C   UNL A   1      36.980  33.937  30.700  1.00  0.00     0.010 A 
ATOM     12  C   UNL A   1      36.792  32.884  31.611  1.00  0.00    -0.014 A 
BRANCH  12  13
ATOM     13  C   UNL A   1      37.959  32.087  32.126  1.00  0.00     0.031 A 
ATOM     14  C   UNL A   1      38.615  32.427  33.444  1.00  0.00     0.074 A 
ATOM     15  C   UNL A   1      38.459  31.066  31.395  1.00  0.00     0.049 A 
ATOM     16  N   UNL A   1      39.672  31.898  34.012  1.00  0.00    -0.248 NA
ATOM     17  C   UNL A   1      38.002  33.513  34.221  1.00  0.00     0.031 C 
ATOM     18  C   UNL A   1      37.939  30.632  30.096  1.00  0.00     0.029 A 
ATOM     19  N   UNL A   1      39.515  30.213  31.623  1.00  0.00    -0.354 N 
ATOM     20  C   UNL A   1      39.853  32.583  35.211  1.00  0.00     0.074 A 
ATOM     21  C   UNL A   1      38.821  33.600  35.261  1.00  0.00     0.031 C 
ATOM     22  C   UNL A   1      38.662  29.592  29.654  1.00  0.00     0.029 A 
ATOM     23  C   UNL A   1      39.738  29.315  30.599  1.00  0.00     0.049 A 
ATOM     24  H   UNL A   1      40.061  30.239  32.441  1.00  0.00     0.167 HD
ATOM     25  C   UNL A   1      40.778  32.377  36.186  1.00  0.00     0.034 A 
ATOM     26  C   UNL A   1      40.709  28.394  30.421  1.00  0.00     0.034 A 
ATOM     27  C   UNL A   1      41.817  31.374  36.120  1.00  0.00     0.049 A 
ATOM     28  C   UNL A   1      41.765  28.228  31.486  1.00  0.00     0.074 A 
ATOM     29  C   UNL A   1      42.803  31.086  37.052  1.00  0.00     0.029 A 
ATOM     30  N   UNL A   1      42.015  30.498  35.060  1.00  0.00    -0.354 N 
ATOM     31  N   UNL A   1      41.905  28.878  32.619  1.00  0.00    -0.248 NA
ATOM     32  C   UNL A   1      42.788  27.199  31.255  1.00  0.00     0.031 C 
ATOM     33  C   UNL A   1      43.630  30.086  36.529  1.00  0.00     0.029 A 
ATOM     34  C   UNL A   1      43.116  29.688  35.307  1.00  0.00     0.049 A 
ATOM     35  H   UNL A   1      41.456  30.457  34.251  1.00  0.00     0.167 HD
ATOM     36  C   UNL A   1      43.012  28.312  33.246  1.00  0.00     0.074 A 
ATOM     37  C   UNL A   1      43.485  27.253  32.379  1.00  0.00     0.031 C 
ATOM     38  C   UNL A   1      43.588  28.639  34.432  1.00  0.00     0.034 A 
BRANCH  25  39
ATOM     39  C   UNL A   1      40.721  33.276  37.402  1.00  0.00     0.023 A 
ATOM     40  C   UNL A   1      39.880  32.986  38.492  1.00  0.00     0.031 A 
ATOM     41  C   UNL A   1      41.507  34.441  37.477  1.00  0.00     0.131 A 
ATOM     42  C   UNL A   1      39.791  33.879  39.570  1.00  0.00     0.055 A 
ATOM     43  C   UNL A   1      41.474  35.284  38.591  1.00  0.00     0.041 A 
ATOM     44  F   UNL A   1      42.319  34.784  36.465  1.00  0.00    -0.206 F 
ATOM     45  C   UNL A   1      40.602  35.014  39.640  1.00  0.00     0.022 A 
BRANCH  42  46
ATOM     46  S   UNL A   1      38.498  33.608  40.814  1.00  0.00     0.124 S 
ATOM     47  O   UNL A   1      38.403  34.928  41.434  1.00  0.00    -0.237 OA
ATOM     48  O   UNL A   1      37.357  33.202  40.002  1.00  0.00    -0.237 OA
ATOM     49  O   UNL A   1      39.058  32.565  41.671  1.00  0.00    -0.744 OA
ENDBRANCH  42  46
ENDBRANCH  25  39
BRANCH  26  50
ATOM     50  C   UNL A   1      40.767  27.579  29.168  1.00  0.00     0.023 A 
ATOM     51  C   UNL A   1      41.682  27.874  28.144  1.00  0.00     0.031 A 
ATOM     52  C   UNL A   1      39.856  26.529  28.946  1.00  0.00     0.131 A 
ATOM     53  C   UNL A   1      41.630  27.169  26.930  1.00  0.00     0.055 A 
ATOM     54  C   UNL A   1      39.852  25.787  27.763  1.00  0.00     0.041 A 
ATOM     55  F   UNL A   1      38.951  26.205  29.885  1.00  0.00    -0.206 F 
ATOM     56  C   UNL A   1      40.733  26.117  26.739  1.00  0.00     0.022 A 
BRANCH  53  57
ATOM     57  S   UNL A   1      42.675  27.728  25.555  1.00  0.00     0.124 S 
ATOM     58  O   UNL A   1      41.934  28.886  25.069  1.00  0.00    -0.237 OA
ATOM     59  O   UNL A   1      43.937  28.012  26.231  1.00  0.00    -0.237 OA
ATOM     60  O   UNL A   1      42.698  26.578  24.655  1.00  0.00    -0.744 OA
ENDBRANCH  53  57
ENDBRANCH  26  50
BRANCH  38  61
ATOM     61  C   UNL A   1      44.765  27.801  34.877  1.00  0.00     0.023 A 
ATOM     62  C   UNL A   1      44.595  26.616  35.615  1.00  0.00     0.031 A 
ATOM     63  C   UNL A   1      46.077  28.217  34.588  1.00  0.00     0.131 A 
ATOM     64  C   UNL A   1      45.719  25.928  36.100  1.00  0.00     0.055 A 
ATOM     65  C   UNL A   1      47.190  27.489  35.014  1.00  0.00     0.041 A 
ATOM     66  F   UNL A   1      46.301  29.342  33.890  1.00  0.00    -0.206 F 
ATOM     67  C   UNL A   1      47.014  26.347  35.789  1.00  0.00     0.022 A 
BRANCH  64  68
ATOM     68  S   UNL A   1      45.463  24.540  37.242  1.00  0.00     0.124 S 
ATOM     69  O   UNL A   1      45.305  23.418  36.324  1.00  0.00    -0.237 OA
ATOM     70  O   UNL A   1      46.691  24.554  38.028  1.00  0.00    -0.237 OA
ATOM     71  O   UNL A   1      44.255  24.918  37.974  1.00  0.00    -0.744 OA
ENDBRANCH  64  68
ENDBRANCH  38  61
ENDBRANCH  12  13
ENDBRANCH   5   7
ENDBRANCH   2   3
ENDBRANCH   1   2
BRANCH   1  72
ATOM     72  C   UNL A   1      35.548  31.301  28.061  1.00  0.00     0.002 C 
BRANCH  72  73
ATOM     73  C   UNL A   1      35.199  29.690  27.955  1.00  0.00     0.002 C 
BRANCH  73  74
ATOM     74  C   UNL A   1      34.245  28.563  26.802  1.00  0.00     0.021 C 
BRANCH  74  75
ATOM     75  C   UNL A   1      32.088  28.400  26.420  1.00  0.00     0.116 C 
BRANCH  75  76
ATOM     76  N   UNL A   1      31.057  27.058  26.659  1.00  0.00    -0.354 N 
ATOM     77  C   UNL A   1      31.161  25.700  26.429  1.00  0.00     0.249 C 
ATOM     78  H   UNL A   1      30.189  27.310  27.051  1.00  0.00     0.163 HD
ATOM     79  O   UNL A   1      30.123  25.035  26.348  1.00  0.00    -0.272 OA
BRANCH  77  80
ATOM     80  C   UNL A   1      32.535  25.024  26.292  1.00  0.00     0.211 C 
ATOM     81  C   UNL A   1      32.567  23.531  25.918  1.00  0.00     0.085 C 
ATOM     82  O   UNL A   1      33.250  25.689  25.265  1.00  0.00    -0.357 OA
ATOM     83  C   UNL A   1      33.387  23.477  24.631  1.00  0.00     0.123 C 
ATOM     84  C   UNL A   1      33.100  24.860  24.093  1.00  0.00     0.186 C 
BRANCH  83  85
ATOM     85  C   UNL A   1      34.965  23.382  24.768  1.00  0.00    -0.013 A 
ATOM     86  C   UNL A   1      35.625  23.989  25.848  1.00  0.00     0.008 A 
ATOM     87  C   UNL A   1      35.757  22.499  23.976  1.00  0.00     0.008 A 
ATOM     88  C   UNL A   1      36.956  23.657  26.170  1.00  0.00     0.021 A 
ATOM     89  C   UNL A   1      37.070  22.144  24.312  1.00  0.00     0.021 A 
ATOM     90  C   UNL A   1      37.660  22.716  25.422  1.00  0.00     0.041 A 
ATOM     91  Cl  UNL A   1      39.249  22.244  25.883  1.00  0.00    -0.084 Cl
ENDBRANCH  83  85
BRANCH  83  92
ATOM     92  O   UNL A   1      32.915  22.491  23.721  1.00  0.00    -0.382 OA
ATOM     93  H   UNL A   1      33.015  22.814  22.812  1.00  0.00     0.212 HD
ENDBRANCH  83  92
BRANCH  84  94
ATOM     94  C   UNL A   1      31.946  25.488  23.307  1.00  0.00    -0.016 A 
ATOM     95  C   UNL A   1      30.144  25.407  23.579  1.00  0.00     0.008 A 
ATOM     96  C   UNL A   1      32.710  27.032  22.863  1.00  0.00     0.008 A 
ATOM     97  C   UNL A   1      29.199  26.999  23.563  1.00  0.00     0.021 A 
ATOM     98  C   UNL A   1      31.859  28.502  22.874  1.00  0.00     0.021 A 
ATOM     99  C   UNL A   1      30.121  28.538  23.123  1.00  0.00     0.041 A 
ATOM    100  Cl  UNL A   1      29.821  29.831  22.051  1.00  0.00    -0.084 Cl
ENDBRANCH  84  94
ENDBRANCH  77  80
ENDBRANCH  75  76
ENDBRANCH  74  75
ENDBRANCH  73  74
ENDBRANCH  72  73
ENDBRANCH   1  72
TORSDOF 19
ENDMDL
