MODEL 1
REMARK VINA RESULT:      -7.9      0.000      0.000
REMARK SMILES O=C(NCCCCCCNC(=O)[C@H](CO)NC(=O)[C@H](Cc1c[nH]c2ccccc12)NC(=O)[C@H](Cc1ccc(O)cc1)NC(=O)c1ccc(F)cc1)c1ccc(-c2c3nc(c(-c4cc(S(=O)(=O)[O-])ccc4F)c4ccc([nH]4)c(-c4cc(S(=O)(=O)[O-])ccc4F)c4nc(c(-c5cc(S(=O)(=O)[O-])ccc5F)c5ccc2[nH]5)C=C4)C=C3)cc1
REMARK SMILES IDX 8 1 7 2 6 3 5 4 4 5 3 6 1 7 2 8 52 10 53 11 114 12 54 13
REMARK SMILES IDX 113 14 55 15 56 16 57 17 107 18 58 19 112 20 106 21 108 22
REMARK SMILES IDX 59 23 111 24 105 25 104 26 60 28 92 29 72 30 91 31 73 32
REMARK SMILES IDX 76 33 90 34 109 35 74 36 75 37 89 39 110 40 77 41 61 42
REMARK SMILES IDX 62 43 70 44 63 45 69 46 71 47 68 48 64 49 65 50 66 51 67 52
REMARK SMILES IDX 93 53 94 54 102 55 95 56 101 57 103 58 100 59 96 60 97 61
REMARK SMILES IDX 98 62 99 63 78 64 79 65 87 66 80 67 86 68 88 69 85 70 81 71
REMARK SMILES IDX 82 72 83 73 84 74 9 75 10 76 11 77 12 79 13 80 16 81 17 82
REMARK SMILES IDX 18 84 19 85 30 86 31 87 32 89 33 90 42 91 43 92 44 94 45 95
REMARK SMILES IDX 46 96 51 97 47 98 50 99 48 100 49 101 34 102 35 103 36 104
REMARK SMILES IDX 41 105 37 106 40 107 38 108 39 109 20 111 21 112 22 113
REMARK SMILES IDX 29 114 23 115 24 116 28 117 25 119 27 120 26 121 14 122
REMARK SMILES IDX 15 123
REMARK H PARENT 3 9 108 27 76 38 10 78 16 83 30 88 42 93 39 110 23 118 15 124
REMARK Flexibility Score: inf
ROOT
ATOM      1  C   UNL A   1      44.685  27.365  30.044  1.00  0.00     0.021 C 
ENDROOT
BRANCH   1   2
ATOM      2  C   UNL A   1      44.396  25.993  29.443  1.00  0.00     0.002 C 
BRANCH   2   3
ATOM      3  C   UNL A   1      43.878  26.020  28.004  1.00  0.00     0.002 C 
BRANCH   3   4
ATOM      4  C   UNL A   1      43.550  24.652  27.394  1.00  0.00     0.021 C 
BRANCH   4   5
ATOM      5  C   UNL A   1      44.110  23.451  28.151  1.00  0.00     0.116 C 
BRANCH   5   6
ATOM      6  N   UNL A   1      44.778  22.508  27.269  1.00  0.00    -0.352 N 
ATOM      7  O   UNL A   1      46.071  21.851  25.547  1.00  0.00    -0.269 OA
ATOM      8  C   UNL A   1      45.778  22.728  26.353  1.00  0.00     0.251 C 
ATOM      9  H   UNL A   1      44.469  21.576  27.337  1.00  0.00     0.163 HD
BRANCH   8  10
ATOM     10  C   UNL A   1      46.479  24.028  26.329  1.00  0.00     0.039 A 
ATOM     11  C   UNL A   1      47.248  24.446  27.419  1.00  0.00     0.014 A 
ATOM     12  C   UNL A   1      46.380  24.830  25.190  1.00  0.00     0.014 A 
ATOM     13  C   UNL A   1      47.823  25.714  27.416  1.00  0.00     0.010 A 
ATOM     14  C   UNL A   1      47.013  26.074  25.163  1.00  0.00     0.010 A 
ATOM     15  C   UNL A   1      47.722  26.537  26.283  1.00  0.00    -0.014 A 
BRANCH  15  16
ATOM     16  C   UNL A   1      48.398  27.860  26.253  1.00  0.00     0.031 A 
ATOM     17  C   UNL A   1      47.640  29.115  26.593  1.00  0.00     0.074 A 
ATOM     18  C   UNL A   1      49.700  27.925  25.912  1.00  0.00     0.049 A 
ATOM     19  N   UNL A   1      48.033  30.361  26.512  1.00  0.00    -0.248 NA
ATOM     20  C   UNL A   1      46.263  28.951  27.087  1.00  0.00     0.031 C 
ATOM     21  C   UNL A   1      50.547  26.773  25.593  1.00  0.00     0.029 A 
ATOM     22  N   UNL A   1      50.541  29.001  25.777  1.00  0.00    -0.354 N 
ATOM     23  C   UNL A   1      46.954  31.131  26.935  1.00  0.00     0.074 A 
ATOM     24  C   UNL A   1      45.879  30.212  27.246  1.00  0.00     0.031 C 
ATOM     25  C   UNL A   1      51.790  27.202  25.327  1.00  0.00     0.029 A 
ATOM     26  C   UNL A   1      51.813  28.658  25.381  1.00  0.00     0.049 A 
ATOM     27  H   UNL A   1      50.261  29.930  25.947  1.00  0.00     0.167 HD
ATOM     28  C   UNL A   1      46.877  32.478  27.058  1.00  0.00     0.034 A 
ATOM     29  C   UNL A   1      52.871  29.430  25.060  1.00  0.00     0.034 A 
ATOM     30  C   UNL A   1      47.961  33.380  26.753  1.00  0.00     0.049 A 
ATOM     31  C   UNL A   1      52.724  30.926  25.121  1.00  0.00     0.074 A 
ATOM     32  C   UNL A   1      47.979  34.761  26.854  1.00  0.00     0.029 A 
ATOM     33  N   UNL A   1      49.213  32.998  26.293  1.00  0.00    -0.354 N 
ATOM     34  N   UNL A   1      51.685  31.639  25.486  1.00  0.00    -0.248 NA
ATOM     35  C   UNL A   1      53.890  31.722  24.716  1.00  0.00     0.031 C 
ATOM     36  C   UNL A   1      49.219  35.217  26.396  1.00  0.00     0.029 A 
ATOM     37  C   UNL A   1      50.000  34.119  26.078  1.00  0.00     0.049 A 
ATOM     38  H   UNL A   1      49.499  32.069  26.142  1.00  0.00     0.167 HD
ATOM     39  C   UNL A   1      52.079  32.968  25.371  1.00  0.00     0.074 A 
ATOM     40  C   UNL A   1      53.456  32.957  24.922  1.00  0.00     0.031 C 
ATOM     41  C   UNL A   1      51.366  34.095  25.614  1.00  0.00     0.034 A 
BRANCH  28  42
ATOM     42  C   UNL A   1      45.575  33.076  27.519  1.00  0.00     0.023 A 
ATOM     43  C   UNL A   1      45.226  33.117  28.880  1.00  0.00     0.031 A 
ATOM     44  C   UNL A   1      44.710  33.684  26.593  1.00  0.00     0.131 A 
ATOM     45  C   UNL A   1      44.032  33.740  29.275  1.00  0.00     0.055 A 
ATOM     46  C   UNL A   1      43.550  34.348  26.997  1.00  0.00     0.041 A 
ATOM     47  F   UNL A   1      44.990  33.661  25.280  1.00  0.00    -0.206 F 
ATOM     48  C   UNL A   1      43.206  34.377  28.346  1.00  0.00     0.022 A 
BRANCH  45  49
ATOM     49  S   UNL A   1      43.550  33.675  31.021  1.00  0.00     0.124 S 
ATOM     50  O   UNL A   1      44.836  33.861  31.690  1.00  0.00    -0.237 OA
ATOM     51  O   UNL A   1      42.607  34.782  31.133  1.00  0.00    -0.237 OA
ATOM     52  O   UNL A   1      42.965  32.343  31.167  1.00  0.00    -0.744 OA
ENDBRANCH  45  49
ENDBRANCH  28  42
BRANCH  29  53
ATOM     53  C   UNL A   1      54.146  28.807  24.607  1.00  0.00     0.023 A 
ATOM     54  C   UNL A   1      54.346  28.474  23.260  1.00  0.00     0.031 A 
ATOM     55  C   UNL A   1      55.170  28.505  25.523  1.00  0.00     0.131 A 
ATOM     56  C   UNL A   1      55.526  27.823  22.869  1.00  0.00     0.055 A 
ATOM     57  C   UNL A   1      56.366  27.906  25.121  1.00  0.00     0.041 A 
ATOM     58  F   UNL A   1      55.030  28.804  26.824  1.00  0.00    -0.206 F 
ATOM     59  C   UNL A   1      56.543  27.550  23.787  1.00  0.00     0.022 A 
BRANCH  56  60
ATOM     60  S   UNL A   1      55.686  27.276  21.148  1.00  0.00     0.124 S 
ATOM     61  O   UNL A   1      54.444  26.537  20.955  1.00  0.00    -0.237 OA
ATOM     62  O   UNL A   1      55.796  28.544  20.434  1.00  0.00    -0.237 OA
ATOM     63  O   UNL A   1      56.902  26.465  21.160  1.00  0.00    -0.744 OA
ENDBRANCH  56  60
ENDBRANCH  29  53
BRANCH  41  64
ATOM     64  C   UNL A   1      52.073  35.411  25.421  1.00  0.00     0.023 A 
ATOM     65  C   UNL A   1      52.565  36.144  26.515  1.00  0.00     0.031 A 
ATOM     66  C   UNL A   1      52.269  35.931  24.131  1.00  0.00     0.131 A 
ATOM     67  C   UNL A   1      53.192  37.380  26.300  1.00  0.00     0.055 A 
ATOM     68  C   UNL A   1      52.941  37.135  23.919  1.00  0.00     0.041 A 
ATOM     69  F   UNL A   1      51.818  35.270  23.051  1.00  0.00    -0.206 F 
ATOM     70  C   UNL A   1      53.399  37.871  25.009  1.00  0.00     0.022 A 
BRANCH  67  71
ATOM     71  S   UNL A   1      53.678  38.369  27.739  1.00  0.00     0.124 S 
ATOM     72  O   UNL A   1      52.857  37.789  28.797  1.00  0.00    -0.237 OA
ATOM     73  O   UNL A   1      55.112  38.110  27.830  1.00  0.00    -0.237 OA
ATOM     74  O   UNL A   1      53.321  39.733  27.354  1.00  0.00    -0.744 OA
ENDBRANCH  67  71
ENDBRANCH  41  64
ENDBRANCH  15  16
ENDBRANCH   8  10
ENDBRANCH   5   6
ENDBRANCH   4   5
ENDBRANCH   3   4
ENDBRANCH   2   3
ENDBRANCH   1   2
BRANCH   1  75
ATOM     75  C   UNL A   1      45.394  27.331  31.390  1.00  0.00     0.116 C 
BRANCH  75  76
ATOM     76  N   UNL A   1      44.868  26.269  32.226  1.00  0.00    -0.354 N 
ATOM     77  C   UNL A   1      44.384  26.347  33.502  1.00  0.00     0.244 C 
ATOM     78  H   UNL A   1      44.859  25.372  31.821  1.00  0.00     0.163 HD
ATOM     79  O   UNL A   1      44.268  25.297  34.137  1.00  0.00    -0.273 OA
BRANCH  77  80
ATOM     80  C   UNL A   1      44.141  27.730  34.149  1.00  0.00     0.197 C 
BRANCH  80  81
ATOM     81  N   UNL A   1      43.050  27.659  35.138  1.00  0.00    -0.340 N 
ATOM     82  C   UNL A   1      41.782  28.177  35.096  1.00  0.00     0.243 C 
ATOM     83  H   UNL A   1      43.267  27.159  35.957  1.00  0.00     0.164 HD
ATOM     84  O   UNL A   1      41.000  27.849  35.988  1.00  0.00    -0.273 OA
BRANCH  82  85
ATOM     85  C   UNL A   1      41.340  29.054  33.909  1.00  0.00     0.175 C 
BRANCH  85  86
ATOM     86  N   UNL A   1      39.928  28.759  33.571  1.00  0.00    -0.342 N 
ATOM     87  C   UNL A   1      39.114  28.836  32.482  1.00  0.00     0.243 C 
ATOM     88  H   UNL A   1      39.441  28.409  34.353  1.00  0.00     0.164 HD
ATOM     89  O   UNL A   1      37.948  28.469  32.695  1.00  0.00    -0.273 OA
BRANCH  87  90
ATOM     90  C   UNL A   1      39.532  29.189  31.008  1.00  0.00     0.176 C 
BRANCH  90  91
ATOM     91  N   UNL A   1      39.800  30.642  30.975  1.00  0.00    -0.340 N 
ATOM     92  C   UNL A   1      39.298  31.616  30.151  1.00  0.00     0.251 C 
ATOM     93  H   UNL A   1      40.441  30.960  31.651  1.00  0.00     0.164 HD
ATOM     94  O   UNL A   1      39.812  32.726  30.097  1.00  0.00    -0.269 OA
BRANCH  92  95
ATOM     95  C   UNL A   1      38.127  31.323  29.305  1.00  0.00     0.040 A 
ATOM     96  C   UNL A   1      37.104  32.266  29.190  1.00  0.00     0.017 A 
ATOM     97  C   UNL A   1      38.075  30.133  28.572  1.00  0.00     0.017 A 
ATOM     98  C   UNL A   1      35.982  31.980  28.412  1.00  0.00     0.040 A 
ATOM     99  C   UNL A   1      36.946  29.843  27.806  1.00  0.00     0.040 A 
ATOM    100  C   UNL A   1      35.904  30.763  27.745  1.00  0.00     0.123 A 
ATOM    101  F   UNL A   1      34.811  30.478  27.026  1.00  0.00    -0.207 F 
ENDBRANCH  92  95
ENDBRANCH  90  91
BRANCH  90 102
ATOM    102  C   UNL A   1      40.731  28.391  30.522  1.00  0.00     0.070 C 
BRANCH 102 103
ATOM    103  C   UNL A   1      41.195  28.354  29.089  1.00  0.00    -0.045 A 
ATOM    104  C   UNL A   1      42.185  29.265  28.675  1.00  0.00     0.007 A 
ATOM    105  C   UNL A   1      40.516  27.613  28.120  1.00  0.00     0.007 A 
ATOM    106  C   UNL A   1      42.452  29.467  27.324  1.00  0.00     0.046 A 
ATOM    107  C   UNL A   1      40.809  27.788  26.767  1.00  0.00     0.046 A 
ATOM    108  C   UNL A   1      41.745  28.737  26.380  1.00  0.00     0.115 A 
BRANCH 108 109
ATOM    109  O   UNL A   1      41.915  28.967  25.046  1.00  0.00    -0.508 OA
ATOM    110  H   UNL A   1      41.399  28.498  24.420  1.00  0.00     0.293 HD
ENDBRANCH 108 109
ENDBRANCH 102 103
ENDBRANCH  90 102
ENDBRANCH  87  90
ENDBRANCH  85  86
BRANCH  85 111
ATOM    111  C   UNL A   1      41.544  30.541  34.285  1.00  0.00     0.072 C 
BRANCH 111 112
ATOM    112  C   UNL A   1      40.272  31.161  34.786  1.00  0.00    -0.020 A 
ATOM    113  C   UNL A   1      39.392  30.624  35.705  1.00  0.00     0.087 A 
ATOM    114  C   UNL A   1      39.693  32.392  34.328  1.00  0.00     0.003 A 
ATOM    115  N   UNL A   1      38.291  31.439  35.775  1.00  0.00    -0.361 N 
ATOM    116  C   UNL A   1      38.434  32.506  34.917  1.00  0.00     0.046 A 
ATOM    117  C   UNL A   1      40.094  33.378  33.404  1.00  0.00     0.010 A 
ATOM    118  H   UNL A   1      37.512  31.284  36.355  1.00  0.00     0.166 HD
ATOM    119  C   UNL A   1      37.541  33.535  34.595  1.00  0.00     0.026 A 
ATOM    120  C   UNL A   1      39.217  34.413  33.070  1.00  0.00     0.001 A 
ATOM    121  C   UNL A   1      37.955  34.485  33.655  1.00  0.00     0.002 A 
ENDBRANCH 111 112
ENDBRANCH  85 111
ENDBRANCH  82  85
ENDBRANCH  80  81
BRANCH  80 122
ATOM    122  C   UNL A   1      45.443  28.234  34.795  1.00  0.00     0.191 C 
BRANCH 122 123
ATOM    123  O   UNL A   1      46.497  27.285  34.624  1.00  0.00    -0.394 OA
ATOM    124  H   UNL A   1      46.967  27.469  33.795  1.00  0.00     0.210 HD
ENDBRANCH 122 123
ENDBRANCH  80 122
ENDBRANCH  77  80
ENDBRANCH  75  76
ENDBRANCH   1  75
TORSDOF 29
ENDMDL
MODEL 2
REMARK VINA RESULT:      -7.8      4.179     11.408
REMARK SMILES O=C(NCCCCCCNC(=O)[C@H](CO)NC(=O)[C@H](Cc1c[nH]c2ccccc12)NC(=O)[C@H](Cc1ccc(O)cc1)NC(=O)c1ccc(F)cc1)c1ccc(-c2c3nc(c(-c4cc(S(=O)(=O)[O-])ccc4F)c4ccc([nH]4)c(-c4cc(S(=O)(=O)[O-])ccc4F)c4nc(c(-c5cc(S(=O)(=O)[O-])ccc5F)c5ccc2[nH]5)C=C4)C=C3)cc1
REMARK SMILES IDX 8 1 7 2 6 3 5 4 4 5 3 6 1 7 2 8 52 10 53 11 114 12 54 13
REMARK SMILES IDX 113 14 55 15 56 16 57 17 107 18 58 19 112 20 106 21 108 22
REMARK SMILES IDX 59 23 111 24 105 25 104 26 60 28 92 29 72 30 91 31 73 32
REMARK SMILES IDX 76 33 90 34 109 35 74 36 75 37 89 39 110 40 77 41 61 42
REMARK SMILES IDX 62 43 70 44 63 45 69 46 71 47 68 48 64 49 65 50 66 51 67 52
REMARK SMILES IDX 93 53 94 54 102 55 95 56 101 57 103 58 100 59 96 60 97 61
REMARK SMILES IDX 98 62 99 63 78 64 79 65 87 66 80 67 86 68 88 69 85 70 81 71
REMARK SMILES IDX 82 72 83 73 84 74 9 75 10 76 11 77 12 79 13 80 16 81 17 82
REMARK SMILES IDX 18 84 19 85 30 86 31 87 32 89 33 90 42 91 43 92 44 94 45 95
REMARK SMILES IDX 46 96 51 97 47 98 50 99 48 100 49 101 34 102 35 103 36 104
REMARK SMILES IDX 41 105 37 106 40 107 38 108 39 109 20 111 21 112 22 113
REMARK SMILES IDX 29 114 23 115 24 116 28 117 25 119 27 120 26 121 14 122
REMARK SMILES IDX 15 123
REMARK H PARENT 3 9 108 27 76 38 10 78 16 83 30 88 42 93 39 110 23 118 15 124
REMARK Flexibility Score: inf
ROOT
ATOM      1  C   UNL A   1      40.112  29.318  28.467  1.00  0.00     0.021 C 
ENDROOT
BRANCH   1   2
ATOM      2  C   UNL A   1      38.647  28.974  28.726  1.00  0.00     0.002 C 
BRANCH   2   3
ATOM      3  C   UNL A   1      37.647  29.723  27.842  1.00  0.00     0.002 C 
BRANCH   3   4
ATOM      4  C   UNL A   1      36.236  29.871  28.421  1.00  0.00     0.021 C 
BRANCH   4   5
ATOM      5  C   UNL A   1      35.351  30.902  27.726  1.00  0.00     0.116 C 
BRANCH   5   6
ATOM      6  N   UNL A   1      34.577  31.689  28.671  1.00  0.00    -0.352 N 
ATOM      7  O   UNL A   1      34.137  32.734  30.616  1.00  0.00    -0.269 OA
ATOM      8  C   UNL A   1      34.977  32.289  29.840  1.00  0.00     0.251 C 
ATOM      9  H   UNL A   1      33.627  31.809  28.440  1.00  0.00     0.163 HD
BRANCH   8  10
ATOM     10  C   UNL A   1      36.415  32.376  30.166  1.00  0.00     0.039 A 
ATOM     11  C   UNL A   1      37.314  32.982  29.283  1.00  0.00     0.014 A 
ATOM     12  C   UNL A   1      36.866  31.861  31.383  1.00  0.00     0.014 A 
ATOM     13  C   UNL A   1      38.677  32.970  29.565  1.00  0.00     0.010 A 
ATOM     14  C   UNL A   1      38.226  31.910  31.695  1.00  0.00     0.010 A 
ATOM     15  C   UNL A   1      39.147  32.445  30.779  1.00  0.00    -0.014 A 
BRANCH  15  16
ATOM     16  C   UNL A   1      40.594  32.499  31.111  1.00  0.00     0.031 A 
ATOM     17  C   UNL A   1      41.267  31.340  31.796  1.00  0.00     0.074 A 
ATOM     18  C   UNL A   1      41.300  33.603  30.796  1.00  0.00     0.049 A 
ATOM     19  N   UNL A   1      42.487  31.254  32.260  1.00  0.00    -0.248 NA
ATOM     20  C   UNL A   1      40.467  30.119  31.985  1.00  0.00     0.031 C 
ATOM     21  C   UNL A   1      40.764  34.777  30.102  1.00  0.00     0.029 A 
ATOM     22  N   UNL A   1      42.617  33.920  31.013  1.00  0.00    -0.354 N 
ATOM     23  C   UNL A   1      42.602  29.979  32.804  1.00  0.00     0.074 A 
ATOM     24  C   UNL A   1      41.317  29.334  32.635  1.00  0.00     0.031 C 
ATOM     25  C   UNL A   1      41.748  35.672  29.927  1.00  0.00     0.029 A 
ATOM     26  C   UNL A   1      42.962  35.174  30.561  1.00  0.00     0.049 A 
ATOM     27  H   UNL A   1      43.254  33.311  31.451  1.00  0.00     0.167 HD
ATOM     28  C   UNL A   1      43.684  29.403  33.380  1.00  0.00     0.034 A 
ATOM     29  C   UNL A   1      44.116  35.861  30.675  1.00  0.00     0.034 A 
ATOM     30  C   UNL A   1      44.962  30.055  33.531  1.00  0.00     0.049 A 
ATOM     31  C   UNL A   1      45.272  35.226  31.401  1.00  0.00     0.074 A 
ATOM     32  C   UNL A   1      46.121  29.548  34.096  1.00  0.00     0.029 A 
ATOM     33  N   UNL A   1      45.254  31.347  33.118  1.00  0.00    -0.354 N 
ATOM     34  N   UNL A   1      45.351  34.033  31.942  1.00  0.00    -0.248 NA
ATOM     35  C   UNL A   1      46.490  36.034  31.540  1.00  0.00     0.031 C 
ATOM     36  C   UNL A   1      47.092  30.554  34.081  1.00  0.00     0.029 A 
ATOM     37  C   UNL A   1      46.564  31.663  33.443  1.00  0.00     0.049 A 
ATOM     38  H   UNL A   1      44.623  31.949  32.662  1.00  0.00     0.167 HD
ATOM     39  C   UNL A   1      46.635  33.943  32.470  1.00  0.00     0.074 A 
ATOM     40  C   UNL A   1      47.300  35.193  32.166  1.00  0.00     0.031 C 
ATOM     41  C   UNL A   1      47.210  32.919  33.148  1.00  0.00     0.034 A 
BRANCH  28  42
ATOM     42  C   UNL A   1      43.543  28.003  33.917  1.00  0.00     0.023 A 
ATOM     43  C   UNL A   1      42.855  27.742  35.113  1.00  0.00     0.031 A 
ATOM     44  C   UNL A   1      44.035  26.911  33.180  1.00  0.00     0.131 A 
ATOM     45  C   UNL A   1      42.690  26.417  35.547  1.00  0.00     0.055 A 
ATOM     46  C   UNL A   1      43.823  25.593  33.590  1.00  0.00     0.041 A 
ATOM     47  F   UNL A   1      44.712  27.108  32.038  1.00  0.00    -0.206 F 
ATOM     48  C   UNL A   1      43.147  25.342  34.781  1.00  0.00     0.022 A 
BRANCH  45  49
ATOM     49  S   UNL A   1      41.901  26.115  37.151  1.00  0.00     0.124 S 
ATOM     50  O   UNL A   1      43.029  26.268  38.068  1.00  0.00    -0.237 OA
ATOM     51  O   UNL A   1      40.885  27.158  37.210  1.00  0.00    -0.237 OA
ATOM     52  O   UNL A   1      41.386  24.752  37.029  1.00  0.00    -0.744 OA
ENDBRANCH  45  49
ENDBRANCH  28  42
BRANCH  29  53
ATOM     53  C   UNL A   1      44.224  37.244  30.133  1.00  0.00     0.023 A 
ATOM     54  C   UNL A   1      43.768  38.345  30.872  1.00  0.00     0.031 A 
ATOM     55  C   UNL A   1      44.754  37.481  28.852  1.00  0.00     0.131 A 
ATOM     56  C   UNL A   1      43.815  39.630  30.312  1.00  0.00     0.055 A 
ATOM     57  C   UNL A   1      44.848  38.767  28.318  1.00  0.00     0.041 A 
ATOM     58  F   UNL A   1      45.205  36.461  28.103  1.00  0.00    -0.206 F 
ATOM     59  C   UNL A   1      44.365  39.851  29.046  1.00  0.00     0.022 A 
BRANCH  56  60
ATOM     60  S   UNL A   1      43.083  41.008  31.236  1.00  0.00     0.124 S 
ATOM     61  O   UNL A   1      41.719  41.020  30.717  1.00  0.00    -0.237 OA
ATOM     62  O   UNL A   1      43.240  40.565  32.618  1.00  0.00    -0.237 OA
ATOM     63  O   UNL A   1      43.909  42.151  30.853  1.00  0.00    -0.744 OA
ENDBRANCH  56  60
ENDBRANCH  29  53
BRANCH  41  64
ATOM     64  C   UNL A   1      48.640  33.101  33.584  1.00  0.00     0.023 A 
ATOM     65  C   UNL A   1      49.711  32.765  32.738  1.00  0.00     0.031 A 
ATOM     66  C   UNL A   1      48.936  33.629  34.852  1.00  0.00     0.131 A 
ATOM     67  C   UNL A   1      51.030  32.919  33.189  1.00  0.00     0.055 A 
ATOM     68  C   UNL A   1      50.250  33.832  35.274  1.00  0.00     0.041 A 
ATOM     69  F   UNL A   1      47.949  33.966  35.699  1.00  0.00    -0.206 F 
ATOM     70  C   UNL A   1      51.306  33.467  34.444  1.00  0.00     0.022 A 
BRANCH  67  71
ATOM     71  S   UNL A   1      52.383  32.334  32.133  1.00  0.00     0.124 S 
ATOM     72  O   UNL A   1      52.648  31.010  32.687  1.00  0.00    -0.237 OA
ATOM     73  O   UNL A   1      51.780  32.362  30.804  1.00  0.00    -0.237 OA
ATOM     74  O   UNL A   1      53.439  33.321  32.353  1.00  0.00    -0.744 OA
ENDBRANCH  67  71
ENDBRANCH  41  64
ENDBRANCH  15  16
ENDBRANCH   8  10
ENDBRANCH   5   6
ENDBRANCH   4   5
ENDBRANCH   3   4
ENDBRANCH   2   3
ENDBRANCH   1   2
BRANCH   1  75
ATOM     75  C   UNL A   1      40.696  28.697  27.208  1.00  0.00     0.116 C 
BRANCH  75  76
ATOM     76  N   UNL A   1      40.550  27.254  27.225  1.00  0.00    -0.354 N 
ATOM     77  C   UNL A   1      41.505  26.297  27.031  1.00  0.00     0.244 C 
ATOM     78  H   UNL A   1      39.640  26.920  27.398  1.00  0.00     0.163 HD
ATOM     79  O   UNL A   1      41.127  25.149  26.788  1.00  0.00    -0.273 OA
BRANCH  77  80
ATOM     80  C   UNL A   1      42.997  26.699  26.977  1.00  0.00     0.197 C 
BRANCH  80  81
ATOM     81  N   UNL A   1      43.829  25.718  27.697  1.00  0.00    -0.340 N 
ATOM     82  C   UNL A   1      45.110  25.822  28.170  1.00  0.00     0.243 C 
ATOM     83  H   UNL A   1      43.393  24.852  27.866  1.00  0.00     0.164 HD
ATOM     84  O   UNL A   1      45.536  24.910  28.878  1.00  0.00    -0.273 OA
BRANCH  82  85
ATOM     85  C   UNL A   1      45.938  27.094  27.898  1.00  0.00     0.175 C 
BRANCH  85  86
ATOM     86  N   UNL A   1      45.850  28.003  29.065  1.00  0.00    -0.342 N 
ATOM     87  C   UNL A   1      46.022  29.328  29.326  1.00  0.00     0.243 C 
ATOM     88  H   UNL A   1      45.596  27.512  29.880  1.00  0.00     0.164 HD
ATOM     89  O   UNL A   1      45.840  29.637  30.514  1.00  0.00    -0.273 OA
BRANCH  87  90
ATOM     90  C   UNL A   1      46.273  30.476  28.281  1.00  0.00     0.176 C 
BRANCH  90  91
ATOM     91  N   UNL A   1      47.592  30.218  27.668  1.00  0.00    -0.340 N 
ATOM     92  C   UNL A   1      48.534  31.092  27.192  1.00  0.00     0.251 C 
ATOM     93  H   UNL A   1      47.832  29.266  27.589  1.00  0.00     0.164 HD
ATOM     94  O   UNL A   1      49.460  30.705  26.491  1.00  0.00    -0.269 OA
BRANCH  92  95
ATOM     95  C   UNL A   1      48.427  32.527  27.516  1.00  0.00     0.040 A 
ATOM     96  C   UNL A   1      48.943  33.003  28.722  1.00  0.00     0.017 A 
ATOM     97  C   UNL A   1      47.869  33.412  26.589  1.00  0.00     0.017 A 
ATOM     98  C   UNL A   1      48.818  34.355  29.043  1.00  0.00     0.040 A 
ATOM     99  C   UNL A   1      47.732  34.760  26.918  1.00  0.00     0.040 A 
ATOM    100  C   UNL A   1      48.195  35.216  28.148  1.00  0.00     0.123 A 
ATOM    101  F   UNL A   1      48.047  36.506  28.474  1.00  0.00    -0.207 F 
ENDBRANCH  92  95
ENDBRANCH  90  91
BRANCH  90 102
ATOM    102  C   UNL A   1      45.180  30.573  27.230  1.00  0.00     0.070 C 
BRANCH 102 103
ATOM    103  C   UNL A   1      44.486  31.855  26.850  1.00  0.00    -0.045 A 
ATOM    104  C   UNL A   1      44.380  32.189  25.486  1.00  0.00     0.007 A 
ATOM    105  C   UNL A   1      44.158  32.820  27.806  1.00  0.00     0.007 A 
ATOM    106  C   UNL A   1      44.005  33.470  25.090  1.00  0.00     0.046 A 
ATOM    107  C   UNL A   1      43.747  34.093  27.409  1.00  0.00     0.046 A 
ATOM    108  C   UNL A   1      43.711  34.418  26.059  1.00  0.00     0.115 A 
BRANCH 108 109
ATOM    109  O   UNL A   1      43.424  35.705  25.715  1.00  0.00    -0.508 OA
ATOM    110  H   UNL A   1      43.504  35.981  24.823  1.00  0.00     0.293 HD
ENDBRANCH 108 109
ENDBRANCH 102 103
ENDBRANCH  90 102
ENDBRANCH  87  90
ENDBRANCH  85  86
BRANCH  85 111
ATOM    111  C   UNL A   1      47.399  26.682  27.597  1.00  0.00     0.072 C 
BRANCH 111 112
ATOM    112  C   UNL A   1      47.803  27.063  26.203  1.00  0.00    -0.020 A 
ATOM    113  C   UNL A   1      46.969  27.473  25.180  1.00  0.00     0.087 A 
ATOM    114  C   UNL A   1      49.126  26.983  25.652  1.00  0.00     0.003 A 
ATOM    115  N   UNL A   1      47.715  27.584  24.035  1.00  0.00    -0.361 N 
ATOM    116  C   UNL A   1      49.028  27.254  24.288  1.00  0.00     0.046 A 
ATOM    117  C   UNL A   1      50.384  26.626  26.178  1.00  0.00     0.010 A 
ATOM    118  H   UNL A   1      47.363  27.858  23.158  1.00  0.00     0.166 HD
ATOM    119  C   UNL A   1      50.119  27.146  23.417  1.00  0.00     0.026 A 
ATOM    120  C   UNL A   1      51.485  26.513  25.325  1.00  0.00     0.001 A 
ATOM    121  C   UNL A   1      51.349  26.763  23.962  1.00  0.00     0.002 A 
ENDBRANCH 111 112
ENDBRANCH  85 111
ENDBRANCH  82  85
ENDBRANCH  80  81
BRANCH  80 122
ATOM    122  C   UNL A   1      43.443  26.834  25.510  1.00  0.00     0.191 C 
BRANCH 122 123
ATOM    123  O   UNL A   1      42.312  26.937  24.642  1.00  0.00    -0.394 OA
ATOM    124  H   UNL A   1      42.192  26.099  24.168  1.00  0.00     0.210 HD
ENDBRANCH 122 123
ENDBRANCH  80 122
ENDBRANCH  77  80
ENDBRANCH  75  76
ENDBRANCH   1  75
TORSDOF 29
ENDMDL
MODEL 3
REMARK VINA RESULT:      -7.6      8.832     15.978
REMARK SMILES O=C(NCCCCCCNC(=O)[C@H](CO)NC(=O)[C@H](Cc1c[nH]c2ccccc12)NC(=O)[C@H](Cc1ccc(O)cc1)NC(=O)c1ccc(F)cc1)c1ccc(-c2c3nc(c(-c4cc(S(=O)(=O)[O-])ccc4F)c4ccc([nH]4)c(-c4cc(S(=O)(=O)[O-])ccc4F)c4nc(c(-c5cc(S(=O)(=O)[O-])ccc5F)c5ccc2[nH]5)C=C4)C=C3)cc1
REMARK SMILES IDX 8 1 7 2 6 3 5 4 4 5 3 6 1 7 2 8 52 10 53 11 114 12 54 13
REMARK SMILES IDX 113 14 55 15 56 16 57 17 107 18 58 19 112 20 106 21 108 22
REMARK SMILES IDX 59 23 111 24 105 25 104 26 60 28 92 29 72 30 91 31 73 32
REMARK SMILES IDX 76 33 90 34 109 35 74 36 75 37 89 39 110 40 77 41 61 42
REMARK SMILES IDX 62 43 70 44 63 45 69 46 71 47 68 48 64 49 65 50 66 51 67 52
REMARK SMILES IDX 93 53 94 54 102 55 95 56 101 57 103 58 100 59 96 60 97 61
REMARK SMILES IDX 98 62 99 63 78 64 79 65 87 66 80 67 86 68 88 69 85 70 81 71
REMARK SMILES IDX 82 72 83 73 84 74 9 75 10 76 11 77 12 79 13 80 16 81 17 82
REMARK SMILES IDX 18 84 19 85 30 86 31 87 32 89 33 90 42 91 43 92 44 94 45 95
REMARK SMILES IDX 46 96 51 97 47 98 50 99 48 100 49 101 34 102 35 103 36 104
REMARK SMILES IDX 41 105 37 106 40 107 38 108 39 109 20 111 21 112 22 113
REMARK SMILES IDX 29 114 23 115 24 116 28 117 25 119 27 120 26 121 14 122
REMARK SMILES IDX 15 123
REMARK H PARENT 3 9 108 27 76 38 10 78 16 83 30 88 42 93 39 110 23 118 15 124
REMARK Flexibility Score: inf
ROOT
ATOM      1  C   UNL A   1      46.402  20.925  34.497  1.00  0.00     0.021 C 
ENDROOT
BRANCH   1   2
ATOM      2  C   UNL A   1      45.729  22.259  34.811  1.00  0.00     0.002 C 
BRANCH   2   3
ATOM      3  C   UNL A   1      46.347  23.470  34.109  1.00  0.00     0.002 C 
BRANCH   3   4
ATOM      4  C   UNL A   1      47.846  23.678  34.348  1.00  0.00     0.021 C 
BRANCH   4   5
ATOM      5  C   UNL A   1      48.238  25.062  34.859  1.00  0.00     0.116 C 
BRANCH   5   6
ATOM      6  N   UNL A   1      47.900  25.246  36.261  1.00  0.00    -0.352 N 
ATOM      7  O   UNL A   1      46.912  26.214  38.037  1.00  0.00    -0.269 OA
ATOM      8  C   UNL A   1      46.913  26.015  36.826  1.00  0.00     0.251 C 
ATOM      9  H   UNL A   1      48.461  24.747  36.898  1.00  0.00     0.163 HD
BRANCH   8  10
ATOM     10  C   UNL A   1      45.870  26.617  35.970  1.00  0.00     0.039 A 
ATOM     11  C   UNL A   1      46.126  27.781  35.240  1.00  0.00     0.014 A 
ATOM     12  C   UNL A   1      44.623  25.993  35.883  1.00  0.00     0.014 A 
ATOM     13  C   UNL A   1      45.102  28.384  34.514  1.00  0.00     0.010 A 
ATOM     14  C   UNL A   1      43.617  26.564  35.100  1.00  0.00     0.010 A 
ATOM     15  C   UNL A   1      43.840  27.776  34.426  1.00  0.00    -0.014 A 
BRANCH  15  16
ATOM     16  C   UNL A   1      42.771  28.382  33.593  1.00  0.00     0.031 A 
ATOM     17  C   UNL A   1      41.792  29.356  34.191  1.00  0.00     0.074 A 
ATOM     18  C   UNL A   1      42.682  28.045  32.291  1.00  0.00     0.049 A 
ATOM     19  N   UNL A   1      40.731  29.896  33.647  1.00  0.00    -0.248 NA
ATOM     20  C   UNL A   1      42.034  29.778  35.580  1.00  0.00     0.031 C 
ATOM     21  C   UNL A   1      43.593  27.136  31.591  1.00  0.00     0.029 A 
ATOM     22  N   UNL A   1      41.787  28.426  31.323  1.00  0.00    -0.354 N 
ATOM     23  C   UNL A   1      40.174  30.714  34.625  1.00  0.00     0.074 A 
ATOM     24  C   UNL A   1      40.999  30.578  35.806  1.00  0.00     0.031 C 
ATOM     25  C   UNL A   1      43.227  27.052  30.303  1.00  0.00     0.029 A 
ATOM     26  C   UNL A   1      42.015  27.836  30.100  1.00  0.00     0.049 A 
ATOM     27  H   UNL A   1      41.052  29.060  31.487  1.00  0.00     0.167 HD
ATOM     28  C   UNL A   1      39.080  31.508  34.535  1.00  0.00     0.034 A 
ATOM     29  C   UNL A   1      41.309  27.890  28.954  1.00  0.00     0.034 A 
ATOM     30  C   UNL A   1      38.273  31.640  33.347  1.00  0.00     0.049 A 
ATOM     31  C   UNL A   1      40.048  28.711  28.915  1.00  0.00     0.074 A 
ATOM     32  C   UNL A   1      37.149  32.427  33.159  1.00  0.00     0.029 A 
ATOM     33  N   UNL A   1      38.499  30.977  32.150  1.00  0.00    -0.354 N 
ATOM     34  N   UNL A   1      39.514  29.448  29.860  1.00  0.00    -0.248 NA
ATOM     35  C   UNL A   1      39.289  28.698  27.658  1.00  0.00     0.031 C 
ATOM     36  C   UNL A   1      36.660  32.193  31.870  1.00  0.00     0.029 A 
ATOM     37  C   UNL A   1      37.519  31.315  31.229  1.00  0.00     0.049 A 
ATOM     38  H   UNL A   1      39.245  30.359  31.979  1.00  0.00     0.167 HD
ATOM     39  C   UNL A   1      38.365  30.001  29.304  1.00  0.00     0.074 A 
ATOM     40  C   UNL A   1      38.294  29.528  27.937  1.00  0.00     0.031 C 
ATOM     41  C   UNL A   1      37.450  30.824  29.874  1.00  0.00     0.034 A 
BRANCH  28  42
ATOM     42  C   UNL A   1      38.664  32.285  35.756  1.00  0.00     0.023 A 
ATOM     43  C   UNL A   1      38.004  31.666  36.831  1.00  0.00     0.031 A 
ATOM     44  C   UNL A   1      39.004  33.644  35.878  1.00  0.00     0.131 A 
ATOM     45  C   UNL A   1      37.690  32.412  37.978  1.00  0.00     0.055 A 
ATOM     46  C   UNL A   1      38.735  34.367  37.042  1.00  0.00     0.041 A 
ATOM     47  F   UNL A   1      39.622  34.285  34.874  1.00  0.00    -0.206 F 
ATOM     48  C   UNL A   1      38.074  33.750  38.100  1.00  0.00     0.022 A 
BRANCH  45  49
ATOM     49  S   UNL A   1      36.736  31.620  39.300  1.00  0.00     0.124 S 
ATOM     50  O   UNL A   1      37.514  31.983  40.483  1.00  0.00    -0.237 OA
ATOM     51  O   UNL A   1      35.430  32.255  39.177  1.00  0.00    -0.237 OA
ATOM     52  O   UNL A   1      36.774  30.201  38.949  1.00  0.00    -0.744 OA
ENDBRANCH  45  49
ENDBRANCH  28  42
BRANCH  29  53
ATOM     53  C   UNL A   1      41.746  27.110  27.763  1.00  0.00     0.023 A 
ATOM     54  C   UNL A   1      41.674  25.709  27.753  1.00  0.00     0.031 A 
ATOM     55  C   UNL A   1      42.277  27.753  26.630  1.00  0.00     0.131 A 
ATOM     56  C   UNL A   1      42.159  24.992  26.649  1.00  0.00     0.055 A 
ATOM     57  C   UNL A   1      42.709  27.038  25.511  1.00  0.00     0.041 A 
ATOM     58  F   UNL A   1      42.368  29.091  26.588  1.00  0.00    -0.206 F 
ATOM     59  C   UNL A   1      42.662  25.648  25.522  1.00  0.00     0.022 A 
BRANCH  56  60
ATOM     60  S   UNL A   1      42.184  23.181  26.733  1.00  0.00     0.124 S 
ATOM     61  O   UNL A   1      43.447  22.935  27.419  1.00  0.00    -0.237 OA
ATOM     62  O   UNL A   1      40.973  22.894  27.495  1.00  0.00    -0.237 OA
ATOM     63  O   UNL A   1      42.143  22.775  25.330  1.00  0.00    -0.744 OA
ENDBRANCH  56  60
ENDBRANCH  29  53
BRANCH  41  64
ATOM     64  C   UNL A   1      36.307  31.285  29.009  1.00  0.00     0.023 A 
ATOM     65  C   UNL A   1      35.342  30.383  28.531  1.00  0.00     0.031 A 
ATOM     66  C   UNL A   1      36.172  32.643  28.672  1.00  0.00     0.131 A 
ATOM     67  C   UNL A   1      34.307  30.842  27.703  1.00  0.00     0.055 A 
ATOM     68  C   UNL A   1      35.110  33.103  27.894  1.00  0.00     0.041 A 
ATOM     69  F   UNL A   1      37.067  33.547  29.104  1.00  0.00    -0.206 F 
ATOM     70  C   UNL A   1      34.175  32.199  27.396  1.00  0.00     0.022 A 
BRANCH  67  71
ATOM     71  S   UNL A   1      33.170  29.631  26.979  1.00  0.00     0.124 S 
ATOM     72  O   UNL A   1      31.927  30.392  26.901  1.00  0.00    -0.237 OA
ATOM     73  O   UNL A   1      33.809  29.319  25.705  1.00  0.00    -0.237 OA
ATOM     74  O   UNL A   1      33.168  28.539  27.953  1.00  0.00    -0.744 OA
ENDBRANCH  67  71
ENDBRANCH  41  64
ENDBRANCH  15  16
ENDBRANCH   8  10
ENDBRANCH   5   6
ENDBRANCH   4   5
ENDBRANCH   3   4
ENDBRANCH   2   3
ENDBRANCH   1   2
BRANCH   1  75
ATOM     75  C   UNL A   1      47.343  20.419  35.580  1.00  0.00     0.116 C 
BRANCH  75  76
ATOM     76  N   UNL A   1      48.618  20.022  35.016  1.00  0.00    -0.354 N 
ATOM     77  C   UNL A   1      49.844  19.982  35.619  1.00  0.00     0.244 C 
ATOM     78  H   UNL A   1      48.599  19.746  34.071  1.00  0.00     0.163 HD
ATOM     79  O   UNL A   1      50.839  19.908  34.895  1.00  0.00    -0.273 OA
BRANCH  77  80
ATOM     80  C   UNL A   1      49.954  20.175  37.149  1.00  0.00     0.197 C 
BRANCH  80  81
ATOM     81  N   UNL A   1      50.879  19.188  37.735  1.00  0.00    -0.340 N 
ATOM     82  C   UNL A   1      50.834  18.539  38.941  1.00  0.00     0.243 C 
ATOM     83  H   UNL A   1      51.651  18.959  37.169  1.00  0.00     0.164 HD
ATOM     84  O   UNL A   1      51.650  17.639  39.138  1.00  0.00    -0.273 OA
BRANCH  82  85
ATOM     85  C   UNL A   1      49.725  18.869  39.959  1.00  0.00     0.175 C 
BRANCH  85  86
ATOM     86  N   UNL A   1      50.007  20.178  40.594  1.00  0.00    -0.342 N 
ATOM     87  C   UNL A   1      50.675  20.647  41.684  1.00  0.00     0.243 C 
ATOM     88  H   UNL A   1      49.597  20.915  40.087  1.00  0.00     0.164 HD
ATOM     89  O   UNL A   1      50.621  21.879  41.819  1.00  0.00    -0.273 OA
BRANCH  87  90
ATOM     90  C   UNL A   1      51.592  19.824  42.662  1.00  0.00     0.176 C 
BRANCH  90  91
ATOM     91  N   UNL A   1      50.701  19.193  43.656  1.00  0.00    -0.340 N 
ATOM     92  C   UNL A   1      50.997  18.564  44.838  1.00  0.00     0.251 C 
ATOM     93  H   UNL A   1      49.742  19.229  43.435  1.00  0.00     0.164 HD
ATOM     94  O   UNL A   1      50.163  17.879  45.417  1.00  0.00    -0.269 OA
BRANCH  92  95
ATOM     95  C   UNL A   1      52.346  18.700  45.418  1.00  0.00     0.040 A 
ATOM     96  C   UNL A   1      52.771  19.941  45.894  1.00  0.00     0.017 A 
ATOM     97  C   UNL A   1      53.167  17.575  45.547  1.00  0.00     0.017 A 
ATOM     98  C   UNL A   1      54.056  20.079  46.418  1.00  0.00     0.040 A 
ATOM     99  C   UNL A   1      54.457  17.718  46.058  1.00  0.00     0.040 A 
ATOM    100  C   UNL A   1      54.895  18.971  46.476  1.00  0.00     0.123 A 
ATOM    101  F   UNL A   1      56.139  19.114  46.947  1.00  0.00    -0.207 F 
ENDBRANCH  92  95
ENDBRANCH  90  91
BRANCH  90 102
ATOM    102  C   UNL A   1      52.449  18.792  41.947  1.00  0.00     0.070 C 
BRANCH 102 103
ATOM    103  C   UNL A   1      53.920  18.593  42.203  1.00  0.00    -0.045 A 
ATOM    104  C   UNL A   1      54.696  19.703  42.590  1.00  0.00     0.007 A 
ATOM    105  C   UNL A   1      54.571  17.410  41.846  1.00  0.00     0.007 A 
ATOM    106  C   UNL A   1      56.086  19.646  42.571  1.00  0.00     0.046 A 
ATOM    107  C   UNL A   1      55.964  17.341  41.863  1.00  0.00     0.046 A 
ATOM    108  C   UNL A   1      56.709  18.467  42.187  1.00  0.00     0.115 A 
BRANCH 108 109
ATOM    109  O   UNL A   1      58.065  18.397  42.073  1.00  0.00    -0.508 OA
ATOM    110  H   UNL A   1      58.475  17.585  41.848  1.00  0.00     0.293 HD
ENDBRANCH 108 109
ENDBRANCH 102 103
ENDBRANCH  90 102
ENDBRANCH  87  90
ENDBRANCH  85  86
BRANCH  85 111
ATOM    111  C   UNL A   1      48.360  18.865  39.229  1.00  0.00     0.072 C 
BRANCH 111 112
ATOM    112  C   UNL A   1      47.221  19.028  40.191  1.00  0.00    -0.020 A 
ATOM    113  C   UNL A   1      46.443  20.155  40.374  1.00  0.00     0.087 A 
ATOM    114  C   UNL A   1      46.790  18.065  41.165  1.00  0.00     0.003 A 
ATOM    115  N   UNL A   1      45.613  19.937  41.444  1.00  0.00    -0.361 N 
ATOM    116  C   UNL A   1      45.831  18.682  41.967  1.00  0.00     0.046 A 
ATOM    117  C   UNL A   1      47.189  16.752  41.483  1.00  0.00     0.010 A 
ATOM    118  H   UNL A   1      44.956  20.584  41.788  1.00  0.00     0.166 HD
ATOM    119  C   UNL A   1      45.281  18.064  43.096  1.00  0.00     0.026 A 
ATOM    120  C   UNL A   1      46.651  16.118  42.607  1.00  0.00     0.001 A 
ATOM    121  C   UNL A   1      45.715  16.770  43.405  1.00  0.00     0.002 A 
ENDBRANCH 111 112
ENDBRANCH  85 111
ENDBRANCH  82  85
ENDBRANCH  80  81
BRANCH  80 122
ATOM    122  C   UNL A   1      50.408  21.613  37.458  1.00  0.00     0.191 C 
BRANCH 122 123
ATOM    123  O   UNL A   1      49.445  22.562  36.993  1.00  0.00    -0.394 OA
ATOM    124  H   UNL A   1      48.756  22.678  37.665  1.00  0.00     0.210 HD
ENDBRANCH 122 123
ENDBRANCH  80 122
ENDBRANCH  77  80
ENDBRANCH  75  76
ENDBRANCH   1  75
TORSDOF 29
ENDMDL
