MODEL 1
REMARK VINA RESULT:     -11.7      0.000      0.000
REMARK SMILES Cc1cccc(C[C@H](CC(=O)NCCCCCCNC(=O)c2ccc(-c3c4nc(c(-c5cc(S(=O)(=O)[O-])ccc5F)c5ccc([nH]5)c(-c5cc(S(=O)(=O)[O-])ccc5F)c5nc(c(-c6cc(S(=O)(=O)[O-])ccc6F)c6ccc3[nH]6)C=C5)C=C4)cc2)NC(=O)OC(C)(C)C)c1
REMARK SMILES IDX 15 1 14 2 13 3 12 4 10 5 11 6 9 8 8 9 7 10 6 11 1 12 2 13
REMARK SMILES IDX 3 14 93 15 4 16 5 17 85 18 86 19 87 21 88 22 89 23 90 24
REMARK SMILES IDX 91 25 92 26 16 27 17 28 18 29 19 30 20 31 21 33 22 34 23 35
REMARK SMILES IDX 84 36 24 37 83 38 25 39 26 40 27 41 77 42 28 43 82 44 76 45
REMARK SMILES IDX 78 46 29 47 81 48 75 49 74 50 30 52 62 53 42 54 61 55 43 56
REMARK SMILES IDX 46 57 60 58 79 59 44 60 45 61 59 63 80 64 47 65 31 66 32 67
REMARK SMILES IDX 40 68 33 69 39 70 41 71 38 72 34 73 35 74 36 75 37 76 63 77
REMARK SMILES IDX 64 78 72 79 65 80 71 81 73 82 70 83 66 84 67 85 68 86 69 87
REMARK SMILES IDX 48 88 49 89 57 90 50 91 56 92 58 93 55 94 51 95 52 96 53 97
REMARK SMILES IDX 54 98
REMARK H PARENT 12 7 85 20 19 32 78 51 46 62
REMARK Flexibility Score: inf
ROOT
ATOM      1  C   UNL A   1      31.615  27.344  26.974  1.00  0.00     0.002 C 
ENDROOT
BRANCH   1   2
ATOM      2  C   UNL A   1      31.151  26.724  25.657  1.00  0.00     0.021 C 
BRANCH   2   3
ATOM      3  C   UNL A   1      30.683  25.270  25.791  1.00  0.00     0.116 C 
BRANCH   3   4
ATOM      4  N   UNL A   1      30.645  24.605  24.505  1.00  0.00    -0.356 N 
ATOM      5  C   UNL A   1      31.028  23.352  24.145  1.00  0.00     0.222 C 
ATOM      6  O   UNL A   1      30.866  22.998  22.974  1.00  0.00    -0.275 OA
ATOM      7  H   UNL A   1      30.282  25.151  23.771  1.00  0.00     0.163 HD
BRANCH   5   8
ATOM      8  C   UNL A   1      31.613  22.379  25.156  1.00  0.00     0.125 C 
BRANCH   8   9
ATOM      9  C   UNL A   1      32.693  21.398  24.647  1.00  0.00     0.099 C 
BRANCH   9  10
ATOM     10  C   UNL A   1      32.111  20.015  24.240  1.00  0.00     0.061 C 
BRANCH  10  11
ATOM     11  C   UNL A   1      32.962  18.790  24.519  1.00  0.00    -0.046 A 
ATOM     12  C   UNL A   1      32.425  15.164  25.590  1.00  0.00     0.044 C 
ATOM     13  C   UNL A   1      33.091  16.443  25.186  1.00  0.00    -0.051 A 
ATOM     14  C   UNL A   1      34.481  16.474  25.033  1.00  0.00     0.003 A 
ATOM     15  C   UNL A   1      32.344  17.607  24.950  1.00  0.00     0.007 A 
ATOM     16  C   UNL A   1      35.099  17.619  24.554  1.00  0.00     0.001 A 
ATOM     17  C   UNL A   1      34.338  18.747  24.258  1.00  0.00     0.004 A 
ENDBRANCH  10  11
ENDBRANCH   9  10
BRANCH   9  18
ATOM     18  N   UNL A   1      33.454  22.044  23.582  1.00  0.00    -0.318 N 
ATOM     19  C   UNL A   1      34.426  22.994  23.628  1.00  0.00     0.407 C 
ATOM     20  H   UNL A   1      33.225  21.740  22.674  1.00  0.00     0.167 HD
ATOM     21  O   UNL A   1      34.905  23.410  22.592  1.00  0.00    -0.225 OA
BRANCH  19  22
ATOM     22  O   UNL A   1      34.808  23.323  24.884  1.00  0.00    -0.444 OA
BRANCH  22  23
ATOM     23  C   UNL A   1      35.986  22.681  25.438  1.00  0.00     0.106 C 
ATOM     24  C   UNL A   1      36.546  21.611  24.488  1.00  0.00     0.056 C 
ATOM     25  C   UNL A   1      37.052  23.713  25.825  1.00  0.00     0.056 C 
ATOM     26  C   UNL A   1      35.494  21.980  26.712  1.00  0.00     0.056 C 
ENDBRANCH  22  23
ENDBRANCH  19  22
ENDBRANCH   9  18
ENDBRANCH   8   9
ENDBRANCH   5   8
ENDBRANCH   3   4
ENDBRANCH   2   3
ENDBRANCH   1   2
BRANCH   1  27
ATOM     27  C   UNL A   1      31.935  28.842  26.903  1.00  0.00     0.002 C 
BRANCH  27  28
ATOM     28  C   UNL A   1      33.177  29.277  27.672  1.00  0.00     0.021 C 
BRANCH  28  29
ATOM     29  C   UNL A   1      33.735  30.605  27.191  1.00  0.00     0.116 C 
BRANCH  29  30
ATOM     30  N   UNL A   1      34.301  31.434  28.248  1.00  0.00    -0.352 N 
ATOM     31  C   UNL A   1      35.316  31.159  29.147  1.00  0.00     0.251 C 
ATOM     32  H   UNL A   1      33.899  32.328  28.335  1.00  0.00     0.163 HD
ATOM     33  O   UNL A   1      35.577  31.949  30.051  1.00  0.00    -0.269 OA
BRANCH  31  34
ATOM     34  C   UNL A   1      36.214  29.997  28.916  1.00  0.00     0.039 A 
ATOM     35  C   UNL A   1      36.688  29.328  30.054  1.00  0.00     0.014 A 
ATOM     36  C   UNL A   1      36.840  29.817  27.690  1.00  0.00     0.014 A 
ATOM     37  C   UNL A   1      37.958  28.771  30.028  1.00  0.00     0.010 A 
ATOM     38  C   UNL A   1      38.148  29.422  27.692  1.00  0.00     0.010 A 
ATOM     39  C   UNL A   1      38.714  28.955  28.875  1.00  0.00    -0.014 A 
BRANCH  39  40
ATOM     40  C   UNL A   1      40.110  28.616  28.755  1.00  0.00     0.031 A 
ATOM     41  C   UNL A   1      40.401  27.211  28.458  1.00  0.00     0.074 A 
ATOM     42  C   UNL A   1      41.024  29.606  28.815  1.00  0.00     0.049 A 
ATOM     43  N   UNL A   1      41.399  26.560  28.927  1.00  0.00    -0.248 NA
ATOM     44  C   UNL A   1      39.500  26.382  27.651  1.00  0.00     0.031 C 
ATOM     45  C   UNL A   1      42.451  29.552  28.532  1.00  0.00     0.029 A 
ATOM     46  N   UNL A   1      40.830  30.875  29.364  1.00  0.00    -0.354 N 
ATOM     47  C   UNL A   1      41.464  25.380  28.221  1.00  0.00     0.074 A 
ATOM     48  C   UNL A   1      40.193  25.244  27.560  1.00  0.00     0.031 C 
ATOM     49  C   UNL A   1      43.051  30.587  29.151  1.00  0.00     0.029 A 
ATOM     50  C   UNL A   1      42.044  31.263  29.957  1.00  0.00     0.049 A 
ATOM     51  H   UNL A   1      39.998  31.401  29.340  1.00  0.00     0.167 HD
ATOM     52  C   UNL A   1      42.664  24.756  28.093  1.00  0.00     0.034 A 
ATOM     53  C   UNL A   1      42.098  31.415  31.314  1.00  0.00     0.034 A 
ATOM     54  C   UNL A   1      43.701  25.554  28.738  1.00  0.00     0.049 A 
ATOM     55  C   UNL A   1      42.932  30.328  31.963  1.00  0.00     0.074 A 
ATOM     56  C   UNL A   1      44.568  26.513  28.238  1.00  0.00     0.029 A 
ATOM     57  N   UNL A   1      43.658  25.736  30.112  1.00  0.00    -0.354 N 
ATOM     58  N   UNL A   1      43.193  29.172  31.410  1.00  0.00    -0.248 NA
ATOM     59  C   UNL A   1      43.589  30.489  33.255  1.00  0.00     0.031 C 
ATOM     60  C   UNL A   1      44.984  27.328  29.323  1.00  0.00     0.029 A 
ATOM     61  C   UNL A   1      44.396  26.844  30.479  1.00  0.00     0.049 A 
ATOM     62  H   UNL A   1      43.168  25.156  30.739  1.00  0.00     0.167 HD
ATOM     63  C   UNL A   1      44.043  28.456  32.215  1.00  0.00     0.074 A 
ATOM     64  C   UNL A   1      44.267  29.331  33.354  1.00  0.00     0.031 C 
ATOM     65  C   UNL A   1      44.505  27.210  31.881  1.00  0.00     0.034 A 
BRANCH  52  66
ATOM     66  C   UNL A   1      42.950  23.661  27.106  1.00  0.00     0.023 A 
ATOM     67  C   UNL A   1      42.364  22.398  27.317  1.00  0.00     0.031 A 
ATOM     68  C   UNL A   1      43.764  23.778  25.963  1.00  0.00     0.131 A 
ATOM     69  C   UNL A   1      42.635  21.311  26.473  1.00  0.00     0.055 A 
ATOM     70  C   UNL A   1      44.067  22.683  25.140  1.00  0.00     0.041 A 
ATOM     71  F   UNL A   1      44.267  24.959  25.576  1.00  0.00    -0.206 F 
ATOM     72  C   UNL A   1      43.504  21.439  25.394  1.00  0.00     0.022 A 
BRANCH  69  73
ATOM     73  S   UNL A   1      41.806  19.736  26.807  1.00  0.00     0.124 S 
ATOM     74  O   UNL A   1      40.660  20.155  27.609  1.00  0.00    -0.237 OA
ATOM     75  O   UNL A   1      41.509  19.250  25.464  1.00  0.00    -0.237 OA
ATOM     76  O   UNL A   1      42.818  18.968  27.531  1.00  0.00    -0.744 OA
ENDBRANCH  69  73
ENDBRANCH  52  66
BRANCH  53  77
ATOM     77  C   UNL A   1      40.838  32.021  31.857  1.00  0.00     0.023 A 
ATOM     78  C   UNL A   1      40.083  31.235  32.760  1.00  0.00     0.031 A 
ATOM     79  C   UNL A   1      40.666  33.412  31.906  1.00  0.00     0.131 A 
ATOM     80  C   UNL A   1      39.343  31.847  33.787  1.00  0.00     0.055 A 
ATOM     81  C   UNL A   1      39.903  34.012  32.918  1.00  0.00     0.041 A 
ATOM     82  F   UNL A   1      41.346  34.215  31.075  1.00  0.00    -0.206 F 
ATOM     83  C   UNL A   1      39.289  33.235  33.899  1.00  0.00     0.022 A 
BRANCH  80  84
ATOM     84  S   UNL A   1      38.626  30.803  35.088  1.00  0.00     0.124 S 
ATOM     85  O   UNL A   1      37.569  31.655  35.622  1.00  0.00    -0.237 OA
ATOM     86  O   UNL A   1      38.179  29.632  34.339  1.00  0.00    -0.237 OA
ATOM     87  O   UNL A   1      39.744  30.557  35.996  1.00  0.00    -0.744 OA
ENDBRANCH  80  84
ENDBRANCH  53  77
BRANCH  65  88
ATOM     88  C   UNL A   1      45.186  26.238  32.820  1.00  0.00     0.023 A 
ATOM     89  C   UNL A   1      44.476  25.331  33.610  1.00  0.00     0.031 A 
ATOM     90  C   UNL A   1      46.600  26.127  32.887  1.00  0.00     0.131 A 
ATOM     91  C   UNL A   1      45.136  24.463  34.492  1.00  0.00     0.055 A 
ATOM     92  C   UNL A   1      47.256  25.176  33.672  1.00  0.00     0.041 A 
ATOM     93  F   UNL A   1      47.416  26.929  32.189  1.00  0.00    -0.206 F 
ATOM     94  C   UNL A   1      46.523  24.351  34.506  1.00  0.00     0.022 A 
BRANCH  91  95
ATOM     95  S   UNL A   1      44.127  23.581  35.704  1.00  0.00     0.124 S 
ATOM     96  O   UNL A   1      44.592  22.206  35.529  1.00  0.00    -0.237 OA
ATOM     97  O   UNL A   1      44.508  24.222  36.958  1.00  0.00    -0.237 OA
ATOM     98  O   UNL A   1      42.758  23.835  35.262  1.00  0.00    -0.744 OA
ENDBRANCH  91  95
ENDBRANCH  65  88
ENDBRANCH  39  40
ENDBRANCH  31  34
ENDBRANCH  29  30
ENDBRANCH  28  29
ENDBRANCH  27  28
ENDBRANCH   1  27
TORSDOF 22
ENDMDL
MODEL 2
REMARK VINA RESULT:     -11.2      1.352      2.382
REMARK SMILES Cc1cccc(C[C@H](CC(=O)NCCCCCCNC(=O)c2ccc(-c3c4nc(c(-c5cc(S(=O)(=O)[O-])ccc5F)c5ccc([nH]5)c(-c5cc(S(=O)(=O)[O-])ccc5F)c5nc(c(-c6cc(S(=O)(=O)[O-])ccc6F)c6ccc3[nH]6)C=C5)C=C4)cc2)NC(=O)OC(C)(C)C)c1
REMARK SMILES IDX 15 1 14 2 13 3 12 4 10 5 11 6 9 8 8 9 7 10 6 11 1 12 2 13
REMARK SMILES IDX 3 14 93 15 4 16 5 17 85 18 86 19 87 21 88 22 89 23 90 24
REMARK SMILES IDX 91 25 92 26 16 27 17 28 18 29 19 30 20 31 21 33 22 34 23 35
REMARK SMILES IDX 84 36 24 37 83 38 25 39 26 40 27 41 77 42 28 43 82 44 76 45
REMARK SMILES IDX 78 46 29 47 81 48 75 49 74 50 30 52 62 53 42 54 61 55 43 56
REMARK SMILES IDX 46 57 60 58 79 59 44 60 45 61 59 63 80 64 47 65 31 66 32 67
REMARK SMILES IDX 40 68 33 69 39 70 41 71 38 72 34 73 35 74 36 75 37 76 63 77
REMARK SMILES IDX 64 78 72 79 65 80 71 81 73 82 70 83 66 84 67 85 68 86 69 87
REMARK SMILES IDX 48 88 49 89 57 90 50 91 56 92 58 93 55 94 51 95 52 96 53 97
REMARK SMILES IDX 54 98
REMARK H PARENT 12 7 85 20 19 32 78 51 46 62
REMARK Flexibility Score: inf
ROOT
ATOM      1  C   UNL A   1      32.210  29.159  27.234  1.00  0.00     0.002 C 
ENDROOT
BRANCH   1   2
ATOM      2  C   UNL A   1      31.686  28.321  26.068  1.00  0.00     0.021 C 
BRANCH   2   3
ATOM      3  C   UNL A   1      32.354  28.645  24.726  1.00  0.00     0.116 C 
BRANCH   3   4
ATOM      4  N   UNL A   1      31.423  28.512  23.625  1.00  0.00    -0.356 N 
ATOM      5  C   UNL A   1      31.472  27.732  22.513  1.00  0.00     0.222 C 
ATOM      6  O   UNL A   1      30.528  27.771  21.721  1.00  0.00    -0.275 OA
ATOM      7  H   UNL A   1      30.622  29.080  23.693  1.00  0.00     0.163 HD
BRANCH   5   8
ATOM      8  C   UNL A   1      32.642  26.798  22.250  1.00  0.00     0.125 C 
BRANCH   8   9
ATOM      9  C   UNL A   1      32.745  25.531  23.128  1.00  0.00     0.099 C 
BRANCH   9  10
ATOM     10  C   UNL A   1      31.397  24.765  23.246  1.00  0.00     0.061 C 
BRANCH  10  11
ATOM     11  C   UNL A   1      31.253  23.775  24.386  1.00  0.00    -0.046 A 
ATOM     12  C   UNL A   1      32.239  20.161  25.127  1.00  0.00     0.044 C 
ATOM     13  C   UNL A   1      31.662  21.535  25.273  1.00  0.00    -0.051 A 
ATOM     14  C   UNL A   1      31.039  21.894  26.472  1.00  0.00     0.003 A 
ATOM     15  C   UNL A   1      31.745  22.471  24.230  1.00  0.00     0.007 A 
ATOM     16  C   UNL A   1      30.599  23.196  26.661  1.00  0.00     0.001 A 
ATOM     17  C   UNL A   1      30.749  24.134  25.643  1.00  0.00     0.004 A 
ENDBRANCH  10  11
ENDBRANCH   9  10
BRANCH   9  18
ATOM     18  N   UNL A   1      33.842  24.703  22.637  1.00  0.00    -0.318 N 
ATOM     19  C   UNL A   1      34.874  24.107  23.291  1.00  0.00     0.407 C 
ATOM     20  H   UNL A   1      33.834  24.550  21.664  1.00  0.00     0.167 HD
ATOM     21  O   UNL A   1      35.699  23.478  22.659  1.00  0.00    -0.225 OA
BRANCH  19  22
ATOM     22  O   UNL A   1      34.812  24.234  24.637  1.00  0.00    -0.444 OA
BRANCH  22  23
ATOM     23  C   UNL A   1      35.400  23.191  25.457  1.00  0.00     0.106 C 
ATOM     24  C   UNL A   1      34.669  23.048  26.801  1.00  0.00     0.056 C 
ATOM     25  C   UNL A   1      35.465  21.859  24.700  1.00  0.00     0.056 C 
ATOM     26  C   UNL A   1      36.831  23.667  25.739  1.00  0.00     0.056 C 
ENDBRANCH  22  23
ENDBRANCH  19  22
ENDBRANCH   9  18
ENDBRANCH   8   9
ENDBRANCH   5   8
ENDBRANCH   3   4
ENDBRANCH   2   3
ENDBRANCH   1   2
BRANCH   1  27
ATOM     27  C   UNL A   1      33.230  30.236  26.843  1.00  0.00     0.002 C 
BRANCH  27  28
ATOM     28  C   UNL A   1      33.135  31.535  27.635  1.00  0.00     0.021 C 
BRANCH  28  29
ATOM     29  C   UNL A   1      34.489  32.178  27.879  1.00  0.00     0.116 C 
BRANCH  29  30
ATOM     30  N   UNL A   1      34.807  32.387  29.287  1.00  0.00    -0.352 N 
ATOM     31  C   UNL A   1      35.495  31.577  30.173  1.00  0.00     0.251 C 
ATOM     32  H   UNL A   1      34.482  33.236  29.664  1.00  0.00     0.163 HD
ATOM     33  O   UNL A   1      35.561  31.875  31.363  1.00  0.00    -0.269 OA
BRANCH  31  34
ATOM     34  C   UNL A   1      36.308  30.444  29.660  1.00  0.00     0.039 A 
ATOM     35  C   UNL A   1      36.733  29.495  30.602  1.00  0.00     0.014 A 
ATOM     36  C   UNL A   1      36.921  30.516  28.417  1.00  0.00     0.014 A 
ATOM     37  C   UNL A   1      37.961  28.874  30.424  1.00  0.00     0.010 A 
ATOM     38  C   UNL A   1      38.199  30.042  28.305  1.00  0.00     0.010 A 
ATOM     39  C   UNL A   1      38.729  29.272  29.335  1.00  0.00    -0.014 A 
BRANCH  39  40
ATOM     40  C   UNL A   1      40.098  28.876  29.117  1.00  0.00     0.031 A 
ATOM     41  C   UNL A   1      40.303  27.473  28.746  1.00  0.00     0.074 A 
ATOM     42  C   UNL A   1      41.060  29.820  29.162  1.00  0.00     0.049 A 
ATOM     43  N   UNL A   1      41.295  26.758  29.125  1.00  0.00    -0.248 NA
ATOM     44  C   UNL A   1      39.318  26.722  27.962  1.00  0.00     0.031 C 
ATOM     45  C   UNL A   1      42.463  29.714  28.790  1.00  0.00     0.029 A 
ATOM     46  N   UNL A   1      40.959  31.071  29.773  1.00  0.00    -0.354 N 
ATOM     47  C   UNL A   1      41.261  25.608  28.369  1.00  0.00     0.074 A 
ATOM     48  C   UNL A   1      39.948  25.559  27.782  1.00  0.00     0.031 C 
ATOM     49  C   UNL A   1      43.148  30.692  29.413  1.00  0.00     0.029 A 
ATOM     50  C   UNL A   1      42.223  31.377  30.306  1.00  0.00     0.049 A 
ATOM     51  H   UNL A   1      40.153  31.634  29.821  1.00  0.00     0.167 HD
ATOM     52  C   UNL A   1      42.421  24.937  28.143  1.00  0.00     0.034 A 
ATOM     53  C   UNL A   1      42.365  31.468  31.662  1.00  0.00     0.034 A 
ATOM     54  C   UNL A   1      43.531  25.658  28.755  1.00  0.00     0.049 A 
ATOM     55  C   UNL A   1      43.183  30.316  32.215  1.00  0.00     0.074 A 
ATOM     56  C   UNL A   1      44.412  26.597  28.243  1.00  0.00     0.029 A 
ATOM     57  N   UNL A   1      43.578  25.782  30.136  1.00  0.00    -0.354 N 
ATOM     58  N   UNL A   1      43.355  29.175  31.600  1.00  0.00    -0.248 NA
ATOM     59  C   UNL A   1      43.922  30.391  33.470  1.00  0.00     0.031 C 
ATOM     60  C   UNL A   1      44.929  27.345  29.334  1.00  0.00     0.029 A 
ATOM     61  C   UNL A   1      44.388  26.837  30.503  1.00  0.00     0.049 A 
ATOM     62  H   UNL A   1      43.098  25.198  30.767  1.00  0.00     0.167 HD
ATOM     63  C   UNL A   1      44.216  28.387  32.321  1.00  0.00     0.074 A 
ATOM     64  C   UNL A   1      44.548  29.201  33.479  1.00  0.00     0.031 C 
ATOM     65  C   UNL A   1      44.598  27.137  31.908  1.00  0.00     0.034 A 
BRANCH  52  66
ATOM     66  C   UNL A   1      42.596  23.874  27.096  1.00  0.00     0.023 A 
ATOM     67  C   UNL A   1      42.109  22.581  27.366  1.00  0.00     0.031 A 
ATOM     68  C   UNL A   1      43.210  24.050  25.842  1.00  0.00     0.131 A 
ATOM     69  C   UNL A   1      42.291  21.523  26.463  1.00  0.00     0.055 A 
ATOM     70  C   UNL A   1      43.428  22.986  24.954  1.00  0.00     0.041 A 
ATOM     71  F   UNL A   1      43.591  25.261  25.410  1.00  0.00    -0.206 F 
ATOM     72  C   UNL A   1      42.970  21.711  25.264  1.00  0.00     0.022 A 
BRANCH  69  73
ATOM     73  S   UNL A   1      41.598  19.903  26.885  1.00  0.00     0.124 S 
ATOM     74  O   UNL A   1      42.798  19.119  27.161  1.00  0.00    -0.237 OA
ATOM     75  O   UNL A   1      40.755  20.216  28.034  1.00  0.00    -0.237 OA
ATOM     76  O   UNL A   1      40.874  19.519  25.674  1.00  0.00    -0.744 OA
ENDBRANCH  69  73
ENDBRANCH  52  66
BRANCH  53  77
ATOM     77  C   UNL A   1      41.170  32.105  32.306  1.00  0.00     0.023 A 
ATOM     78  C   UNL A   1      40.292  31.255  33.020  1.00  0.00     0.031 A 
ATOM     79  C   UNL A   1      41.167  33.468  32.637  1.00  0.00     0.131 A 
ATOM     80  C   UNL A   1      39.597  31.735  34.144  1.00  0.00     0.055 A 
ATOM     81  C   UNL A   1      40.447  33.943  33.743  1.00  0.00     0.041 A 
ATOM     82  F   UNL A   1      41.968  34.330  31.995  1.00  0.00    -0.206 F 
ATOM     83  C   UNL A   1      39.708  33.068  34.538  1.00  0.00     0.022 A 
BRANCH  80  84
ATOM     84  S   UNL A   1      38.711  30.549  35.195  1.00  0.00     0.124 S 
ATOM     85  O   UNL A   1      38.121  29.645  34.215  1.00  0.00    -0.237 OA
ATOM     86  O   UNL A   1      39.787  29.988  36.009  1.00  0.00    -0.237 OA
ATOM     87  O   UNL A   1      37.758  31.378  35.931  1.00  0.00    -0.744 OA
ENDBRANCH  80  84
ENDBRANCH  53  77
BRANCH  65  88
ATOM     88  C   UNL A   1      45.285  26.095  32.764  1.00  0.00     0.023 A 
ATOM     89  C   UNL A   1      44.580  25.192  33.564  1.00  0.00     0.031 A 
ATOM     90  C   UNL A   1      46.693  25.912  32.735  1.00  0.00     0.131 A 
ATOM     91  C   UNL A   1      45.249  24.258  34.368  1.00  0.00     0.055 A 
ATOM     92  C   UNL A   1      47.347  24.898  33.438  1.00  0.00     0.041 A 
ATOM     93  F   UNL A   1      47.503  26.702  32.016  1.00  0.00    -0.206 F 
ATOM     94  C   UNL A   1      46.626  24.077  34.286  1.00  0.00     0.022 A 
BRANCH  91  95
ATOM     95  S   UNL A   1      44.275  23.377  35.608  1.00  0.00     0.124 S 
ATOM     96  O   UNL A   1      42.921  23.526  35.081  1.00  0.00    -0.237 OA
ATOM     97  O   UNL A   1      44.832  22.030  35.548  1.00  0.00    -0.237 OA
ATOM     98  O   UNL A   1      44.546  24.110  36.842  1.00  0.00    -0.744 OA
ENDBRANCH  91  95
ENDBRANCH  65  88
ENDBRANCH  39  40
ENDBRANCH  31  34
ENDBRANCH  29  30
ENDBRANCH  28  29
ENDBRANCH  27  28
ENDBRANCH   1  27
TORSDOF 22
ENDMDL
MODEL 3
REMARK VINA RESULT:     -11.1      2.365      3.715
REMARK SMILES Cc1cccc(C[C@H](CC(=O)NCCCCCCNC(=O)c2ccc(-c3c4nc(c(-c5cc(S(=O)(=O)[O-])ccc5F)c5ccc([nH]5)c(-c5cc(S(=O)(=O)[O-])ccc5F)c5nc(c(-c6cc(S(=O)(=O)[O-])ccc6F)c6ccc3[nH]6)C=C5)C=C4)cc2)NC(=O)OC(C)(C)C)c1
REMARK SMILES IDX 15 1 14 2 13 3 12 4 10 5 11 6 9 8 8 9 7 10 6 11 1 12 2 13
REMARK SMILES IDX 3 14 93 15 4 16 5 17 85 18 86 19 87 21 88 22 89 23 90 24
REMARK SMILES IDX 91 25 92 26 16 27 17 28 18 29 19 30 20 31 21 33 22 34 23 35
REMARK SMILES IDX 84 36 24 37 83 38 25 39 26 40 27 41 77 42 28 43 82 44 76 45
REMARK SMILES IDX 78 46 29 47 81 48 75 49 74 50 30 52 62 53 42 54 61 55 43 56
REMARK SMILES IDX 46 57 60 58 79 59 44 60 45 61 59 63 80 64 47 65 31 66 32 67
REMARK SMILES IDX 40 68 33 69 39 70 41 71 38 72 34 73 35 74 36 75 37 76 63 77
REMARK SMILES IDX 64 78 72 79 65 80 71 81 73 82 70 83 66 84 67 85 68 86 69 87
REMARK SMILES IDX 48 88 49 89 57 90 50 91 56 92 58 93 55 94 51 95 52 96 53 97
REMARK SMILES IDX 54 98
REMARK H PARENT 12 7 85 20 19 32 78 51 46 62
REMARK Flexibility Score: inf
ROOT
ATOM      1  C   UNL A   1      32.893  27.857  26.898  1.00  0.00     0.002 C 
ENDROOT
BRANCH   1   2
ATOM      2  C   UNL A   1      32.893  26.599  26.030  1.00  0.00     0.021 C 
BRANCH   2   3
ATOM      3  C   UNL A   1      31.489  26.090  25.684  1.00  0.00     0.116 C 
BRANCH   3   4
ATOM      4  N   UNL A   1      31.060  25.054  26.600  1.00  0.00    -0.356 N 
ATOM      5  C   UNL A   1      31.014  23.703  26.451  1.00  0.00     0.222 C 
ATOM      6  O   UNL A   1      30.633  23.017  27.402  1.00  0.00    -0.275 OA
ATOM      7  H   UNL A   1      30.750  25.381  27.475  1.00  0.00     0.163 HD
BRANCH   5   8
ATOM      8  C   UNL A   1      31.454  23.032  25.160  1.00  0.00     0.125 C 
BRANCH   8   9
ATOM      9  C   UNL A   1      32.839  22.347  25.157  1.00  0.00     0.099 C 
BRANCH   9  10
ATOM     10  C   UNL A   1      33.996  23.321  25.518  1.00  0.00     0.061 C 
BRANCH  10  11
ATOM     11  C   UNL A   1      35.414  22.797  25.394  1.00  0.00    -0.046 A 
ATOM     12  C   UNL A   1      38.907  23.796  26.570  1.00  0.00     0.044 C 
ATOM     13  C   UNL A   1      37.790  23.053  25.905  1.00  0.00    -0.051 A 
ATOM     14  C   UNL A   1      38.067  21.867  25.218  1.00  0.00     0.003 A 
ATOM     15  C   UNL A   1      36.468  23.521  25.970  1.00  0.00     0.007 A 
ATOM     16  C   UNL A   1      37.030  21.112  24.693  1.00  0.00     0.001 A 
ATOM     17  C   UNL A   1      35.715  21.553  24.822  1.00  0.00     0.004 A 
ENDBRANCH  10  11
ENDBRANCH   9  10
BRANCH   9  18
ATOM     18  N   UNL A   1      32.785  21.167  26.015  1.00  0.00    -0.318 N 
ATOM     19  C   UNL A   1      32.661  19.847  25.711  1.00  0.00     0.407 C 
ATOM     20  H   UNL A   1      32.848  21.359  26.978  1.00  0.00     0.167 HD
ATOM     21  O   UNL A   1      32.608  19.030  26.608  1.00  0.00    -0.225 OA
BRANCH  19  22
ATOM     22  O   UNL A   1      32.685  19.588  24.383  1.00  0.00    -0.444 OA
BRANCH  22  23
ATOM     23  C   UNL A   1      32.947  18.229  23.949  1.00  0.00     0.106 C 
ATOM     24  C   UNL A   1      32.228  17.203  24.838  1.00  0.00     0.056 C 
ATOM     25  C   UNL A   1      32.600  18.041  22.467  1.00  0.00     0.056 C 
ATOM     26  C   UNL A   1      34.459  18.040  24.128  1.00  0.00     0.056 C 
ENDBRANCH  22  23
ENDBRANCH  19  22
ENDBRANCH   9  18
ENDBRANCH   8   9
ENDBRANCH   5   8
ENDBRANCH   3   4
ENDBRANCH   2   3
ENDBRANCH   1   2
BRANCH   1  27
ATOM     27  C   UNL A   1      34.095  28.785  26.685  1.00  0.00     0.002 C 
BRANCH  27  28
ATOM     28  C   UNL A   1      33.991  30.146  27.363  1.00  0.00     0.021 C 
BRANCH  28  29
ATOM     29  C   UNL A   1      35.337  30.829  27.526  1.00  0.00     0.116 C 
BRANCH  29  30
ATOM     30  N   UNL A   1      35.658  31.198  28.900  1.00  0.00    -0.352 N 
ATOM     31  C   UNL A   1      36.541  30.620  29.794  1.00  0.00     0.251 C 
ATOM     32  H   UNL A   1      35.170  31.981  29.245  1.00  0.00     0.163 HD
ATOM     33  O   UNL A   1      36.588  31.006  30.959  1.00  0.00    -0.269 OA
BRANCH  31  34
ATOM     34  C   UNL A   1      37.563  29.657  29.305  1.00  0.00     0.039 A 
ATOM     35  C   UNL A   1      37.723  28.476  30.046  1.00  0.00     0.014 A 
ATOM     36  C   UNL A   1      38.545  30.058  28.411  1.00  0.00     0.014 A 
ATOM     37  C   UNL A   1      38.984  27.905  30.136  1.00  0.00     0.010 A 
ATOM     38  C   UNL A   1      39.820  29.609  28.616  1.00  0.00     0.010 A 
ATOM     39  C   UNL A   1      40.036  28.574  29.520  1.00  0.00    -0.014 A 
BRANCH  39  40
ATOM     40  C   UNL A   1      41.426  28.227  29.682  1.00  0.00     0.031 A 
ATOM     41  C   UNL A   1      41.886  27.066  28.914  1.00  0.00     0.074 A 
ATOM     42  C   UNL A   1      42.213  29.034  30.422  1.00  0.00     0.049 A 
ATOM     43  N   UNL A   1      42.746  26.214  29.330  1.00  0.00    -0.248 NA
ATOM     44  C   UNL A   1      41.319  26.722  27.607  1.00  0.00     0.031 C 
ATOM     45  C   UNL A   1      43.661  29.012  30.574  1.00  0.00     0.029 A 
ATOM     46  N   UNL A   1      41.781  29.958  31.376  1.00  0.00    -0.354 N 
ATOM     47  C   UNL A   1      43.095  25.446  28.242  1.00  0.00     0.074 A 
ATOM     48  C   UNL A   1      42.084  25.689  27.247  1.00  0.00     0.031 C 
ATOM     49  C   UNL A   1      43.982  29.642  31.721  1.00  0.00     0.029 A 
ATOM     50  C   UNL A   1      42.740  29.975  32.404  1.00  0.00     0.049 A 
ATOM     51  H   UNL A   1      40.958  30.497  31.336  1.00  0.00     0.167 HD
ATOM     52  C   UNL A   1      44.320  24.858  28.218  1.00  0.00     0.034 A 
ATOM     53  C   UNL A   1      42.385  29.530  33.647  1.00  0.00     0.034 A 
ATOM     54  C   UNL A   1      45.066  25.235  29.413  1.00  0.00     0.049 A 
ATOM     55  C   UNL A   1      43.065  28.218  33.983  1.00  0.00     0.074 A 
ATOM     56  C   UNL A   1      45.974  26.256  29.647  1.00  0.00     0.029 A 
ATOM     57  N   UNL A   1      44.611  24.817  30.655  1.00  0.00    -0.354 N 
ATOM     58  N   UNL A   1      43.554  27.394  33.094  1.00  0.00    -0.248 NA
ATOM     59  C   UNL A   1      43.304  27.769  35.350  1.00  0.00     0.031 C 
ATOM     60  C   UNL A   1      45.998  26.502  31.046  1.00  0.00     0.029 A 
ATOM     61  C   UNL A   1      45.132  25.610  31.657  1.00  0.00     0.049 A 
ATOM     62  H   UNL A   1      44.001  24.058  30.801  1.00  0.00     0.167 HD
ATOM     63  C   UNL A   1      44.179  26.349  33.726  1.00  0.00     0.074 A 
ATOM     64  C   UNL A   1      44.000  26.638  35.140  1.00  0.00     0.031 C 
ATOM     65  C   UNL A   1      44.803  25.336  33.045  1.00  0.00     0.034 A 
BRANCH  52  66
ATOM     66  C   UNL A   1      44.956  24.273  26.990  1.00  0.00     0.023 A 
ATOM     67  C   UNL A   1      44.614  22.958  26.620  1.00  0.00     0.031 A 
ATOM     68  C   UNL A   1      45.879  24.926  26.153  1.00  0.00     0.131 A 
ATOM     69  C   UNL A   1      45.213  22.322  25.523  1.00  0.00     0.055 A 
ATOM     70  C   UNL A   1      46.509  24.280  25.078  1.00  0.00     0.041 A 
ATOM     71  F   UNL A   1      46.181  26.222  26.316  1.00  0.00    -0.206 F 
ATOM     72  C   UNL A   1      46.179  22.969  24.759  1.00  0.00     0.022 A 
BRANCH  69  73
ATOM     73  S   UNL A   1      44.682  20.641  25.107  1.00  0.00     0.124 S 
ATOM     74  O   UNL A   1      45.790  19.835  25.611  1.00  0.00    -0.237 OA
ATOM     75  O   UNL A   1      43.420  20.526  25.830  1.00  0.00    -0.237 OA
ATOM     76  O   UNL A   1      44.557  20.677  23.650  1.00  0.00    -0.744 OA
ENDBRANCH  69  73
ENDBRANCH  52  66
BRANCH  53  77
ATOM     77  C   UNL A   1      40.983  29.928  34.001  1.00  0.00     0.023 A 
ATOM     78  C   UNL A   1      40.763  31.287  34.334  1.00  0.00     0.031 A 
ATOM     79  C   UNL A   1      39.883  29.184  33.550  1.00  0.00     0.131 A 
ATOM     80  C   UNL A   1      39.535  31.902  34.035  1.00  0.00     0.055 A 
ATOM     81  C   UNL A   1      38.653  29.802  33.281  1.00  0.00     0.041 A 
ATOM     82  F   UNL A   1      40.019  27.891  33.225  1.00  0.00    -0.206 F 
ATOM     83  C   UNL A   1      38.492  31.174  33.464  1.00  0.00     0.022 A 
BRANCH  80  84
ATOM     84  S   UNL A   1      39.394  33.703  34.213  1.00  0.00     0.124 S 
ATOM     85  O   UNL A   1      38.755  34.090  32.961  1.00  0.00    -0.237 OA
ATOM     86  O   UNL A   1      38.572  33.835  35.413  1.00  0.00    -0.237 OA
ATOM     87  O   UNL A   1      40.777  34.148  34.369  1.00  0.00    -0.744 OA
ENDBRANCH  80  84
ENDBRANCH  53  77
BRANCH  65  88
ATOM     88  C   UNL A   1      45.244  24.014  33.634  1.00  0.00     0.023 A 
ATOM     89  C   UNL A   1      46.539  23.794  34.107  1.00  0.00     0.031 A 
ATOM     90  C   UNL A   1      44.335  22.939  33.824  1.00  0.00     0.131 A 
ATOM     91  C   UNL A   1      46.923  22.546  34.620  1.00  0.00     0.055 A 
ATOM     92  C   UNL A   1      44.688  21.742  34.452  1.00  0.00     0.041 A 
ATOM     93  F   UNL A   1      43.058  23.000  33.420  1.00  0.00    -0.206 F 
ATOM     94  C   UNL A   1      46.000  21.527  34.830  1.00  0.00     0.022 A 
BRANCH  91  95
ATOM     95  S   UNL A   1      48.688  22.261  34.884  1.00  0.00     0.124 S 
ATOM     96  O   UNL A   1      48.814  22.503  36.320  1.00  0.00    -0.237 OA
ATOM     97  O   UNL A   1      48.851  20.875  34.461  1.00  0.00    -0.237 OA
ATOM     98  O   UNL A   1      49.329  23.256  34.028  1.00  0.00    -0.744 OA
ENDBRANCH  91  95
ENDBRANCH  65  88
ENDBRANCH  39  40
ENDBRANCH  31  34
ENDBRANCH  29  30
ENDBRANCH  28  29
ENDBRANCH  27  28
ENDBRANCH   1  27
TORSDOF 22
ENDMDL
