MODEL 1
REMARK VINA RESULT:     -12.1      0.000      0.000
REMARK SMILES C[C@@H](C(=O)NCCCCCCNC(=O)c1ccc(-c2c3nc(c(-c4cc(S(=O)(=O)[O-])ccc4F)c4ccc([nH]4)c(-c4cc(S(=O)(=O)[O-])ccc4F)c4nc(c(-c5cc(S(=O)(=O)[O-])ccc5F)c5ccc2[nH]5)C=C4)C=C3)cc1)c1ccc(-c2ccccc2)c(F)c1
REMARK SMILES IDX 9 1 8 2 7 3 6 4 5 5 3 6 4 7 2 9 1 10 78 11 79 12 90 13 80 14
REMARK SMILES IDX 88 15 81 16 89 17 82 18 83 19 87 20 84 21 86 22 85 23 10 24
REMARK SMILES IDX 11 25 12 26 13 27 14 29 15 30 16 31 77 32 17 33 76 34 18 35
REMARK SMILES IDX 19 36 20 37 70 38 21 39 75 40 69 41 71 42 22 43 74 44 68 45
REMARK SMILES IDX 67 46 23 48 55 49 35 50 54 51 36 52 39 53 53 54 72 55 37 56
REMARK SMILES IDX 38 57 52 59 73 60 40 61 24 62 25 63 33 64 26 65 32 66 34 67
REMARK SMILES IDX 31 68 27 69 28 70 29 71 30 72 56 73 57 74 65 75 58 76 64 77
REMARK SMILES IDX 66 78 63 79 59 80 60 81 61 82 62 83 41 84 42 85 50 86 43 87
REMARK SMILES IDX 49 88 51 89 48 90 44 91 45 92 46 93 47 94
REMARK H PARENT 5 8 12 28 71 47 39 58
REMARK Flexibility Score: inf
ROOT
ATOM      1  C   UNL A   1      35.406  23.092  23.541  1.00  0.00     0.002 C 
ENDROOT
BRANCH   1   2
ATOM      2  C   UNL A   1      34.819  23.921  24.685  1.00  0.00     0.002 C 
BRANCH   2   3
ATOM      3  C   UNL A   1      34.384  25.342  24.297  1.00  0.00     0.021 C 
BRANCH   3   4
ATOM      4  C   UNL A   1      33.289  25.932  25.193  1.00  0.00     0.116 C 
BRANCH   4   5
ATOM      5  N   UNL A   1      32.333  26.665  24.393  1.00  0.00    -0.356 N 
ATOM      6  C   UNL A   1      31.090  26.323  23.954  1.00  0.00     0.227 C 
ATOM      7  O   UNL A   1      30.643  27.043  23.061  1.00  0.00    -0.274 OA
ATOM      8  H   UNL A   1      32.631  27.563  24.120  1.00  0.00     0.163 HD
BRANCH   6   9
ATOM      9  C   UNL A   1      30.336  25.144  24.602  1.00  0.00     0.105 C 
ATOM     10  C   UNL A   1      30.149  25.339  26.113  1.00  0.00     0.023 C 
BRANCH   9  11
ATOM     11  C   UNL A   1      30.912  23.738  24.383  1.00  0.00    -0.033 A 
ATOM     12  C   UNL A   1      31.054  22.889  25.496  1.00  0.00     0.005 A 
ATOM     13  C   UNL A   1      31.405  23.274  23.158  1.00  0.00     0.044 A 
ATOM     14  C   UNL A   1      31.695  21.646  25.390  1.00  0.00     0.012 A 
ATOM     15  C   UNL A   1      32.019  22.027  23.054  1.00  0.00     0.131 A 
ATOM     16  C   UNL A   1      32.202  21.196  24.164  1.00  0.00     0.017 A 
ATOM     17  F   UNL A   1      32.459  21.645  21.843  1.00  0.00    -0.206 F 
BRANCH  16  18
ATOM     18  C   UNL A   1      32.925  19.920  24.050  1.00  0.00    -0.015 A 
ATOM     19  C   UNL A   1      34.159  19.723  24.686  1.00  0.00     0.009 A 
ATOM     20  C   UNL A   1      32.390  18.857  23.302  1.00  0.00     0.009 A 
ATOM     21  C   UNL A   1      34.832  18.502  24.585  1.00  0.00     0.001 A 
ATOM     22  C   UNL A   1      33.060  17.637  23.200  1.00  0.00     0.001 A 
ATOM     23  C   UNL A   1      34.280  17.460  23.843  1.00  0.00     0.000 A 
ENDBRANCH  16  18
ENDBRANCH   9  11
ENDBRANCH   6   9
ENDBRANCH   4   5
ENDBRANCH   3   4
ENDBRANCH   2   3
ENDBRANCH   1   2
BRANCH   1  24
ATOM     24  C   UNL A   1      36.680  22.326  23.901  1.00  0.00     0.021 C 
BRANCH  24  25
ATOM     25  C   UNL A   1      36.957  22.241  25.398  1.00  0.00     0.116 C 
BRANCH  25  26
ATOM     26  N   UNL A   1      37.950  21.227  25.706  1.00  0.00    -0.352 N 
ATOM     27  C   UNL A   1      39.234  21.390  26.165  1.00  0.00     0.251 C 
ATOM     28  H   UNL A   1      37.664  20.294  25.569  1.00  0.00     0.163 HD
ATOM     29  O   UNL A   1      40.014  20.440  26.153  1.00  0.00    -0.269 OA
BRANCH  27  30
ATOM     30  C   UNL A   1      39.674  22.716  26.645  1.00  0.00     0.039 A 
ATOM     31  C   UNL A   1      40.624  22.789  27.665  1.00  0.00     0.014 A 
ATOM     32  C   UNL A   1      39.159  23.886  26.078  1.00  0.00     0.014 A 
ATOM     33  C   UNL A   1      41.100  24.035  28.076  1.00  0.00     0.010 A 
ATOM     34  C   UNL A   1      39.694  25.121  26.432  1.00  0.00     0.010 A 
ATOM     35  C   UNL A   1      40.666  25.210  27.439  1.00  0.00    -0.014 A 
BRANCH  35  36
ATOM     36  C   UNL A   1      41.217  26.538  27.817  1.00  0.00     0.031 A 
ATOM     37  C   UNL A   1      42.646  26.882  27.497  1.00  0.00     0.074 A 
ATOM     38  C   UNL A   1      40.446  27.412  28.495  1.00  0.00     0.049 A 
ATOM     39  N   UNL A   1      43.326  27.960  27.796  1.00  0.00    -0.248 NA
ATOM     40  C   UNL A   1      43.421  25.865  26.770  1.00  0.00     0.031 C 
ATOM     41  C   UNL A   1      39.055  27.178  28.893  1.00  0.00     0.029 A 
ATOM     42  N   UNL A   1      40.717  28.670  28.971  1.00  0.00    -0.354 N 
ATOM     43  C   UNL A   1      44.609  27.748  27.302  1.00  0.00     0.074 A 
ATOM     44  C   UNL A   1      44.628  26.410  26.749  1.00  0.00     0.031 C 
ATOM     45  C   UNL A   1      38.589  28.267  29.523  1.00  0.00     0.029 A 
ATOM     46  C   UNL A   1      39.658  29.256  29.623  1.00  0.00     0.049 A 
ATOM     47  H   UNL A   1      41.590  29.111  28.857  1.00  0.00     0.167 HD
ATOM     48  C   UNL A   1      45.664  28.600  27.288  1.00  0.00     0.034 A 
ATOM     49  C   UNL A   1      39.559  30.450  30.243  1.00  0.00     0.034 A 
ATOM     50  C   UNL A   1      45.625  29.931  27.842  1.00  0.00     0.049 A 
ATOM     51  C   UNL A   1      40.760  31.362  30.256  1.00  0.00     0.074 A 
ATOM     52  C   UNL A   1      46.617  30.896  27.838  1.00  0.00     0.029 A 
ATOM     53  N   UNL A   1      44.539  30.485  28.512  1.00  0.00    -0.354 N 
ATOM     54  N   UNL A   1      41.952  31.168  29.739  1.00  0.00    -0.248 NA
ATOM     55  C   UNL A   1      40.599  32.657  30.929  1.00  0.00     0.031 C 
ATOM     56  C   UNL A   1      46.164  31.996  28.574  1.00  0.00     0.029 A 
ATOM     57  C   UNL A   1      44.855  31.759  28.960  1.00  0.00     0.049 A 
ATOM     58  H   UNL A   1      43.673  30.037  28.649  1.00  0.00     0.167 HD
ATOM     59  C   UNL A   1      42.672  32.332  29.997  1.00  0.00     0.074 A 
ATOM     60  C   UNL A   1      41.774  33.225  30.700  1.00  0.00     0.031 C 
ATOM     61  C   UNL A   1      43.955  32.637  29.676  1.00  0.00     0.034 A 
BRANCH  48  62
ATOM     62  C   UNL A   1      46.955  28.098  26.682  1.00  0.00     0.023 A 
ATOM     63  C   UNL A   1      47.211  28.193  25.302  1.00  0.00     0.031 A 
ATOM     64  C   UNL A   1      47.931  27.484  27.487  1.00  0.00     0.131 A 
ATOM     65  C   UNL A   1      48.365  27.610  24.759  1.00  0.00     0.055 A 
ATOM     66  C   UNL A   1      49.122  26.988  26.953  1.00  0.00     0.041 A 
ATOM     67  F   UNL A   1      47.738  27.342  28.807  1.00  0.00    -0.206 F 
ATOM     68  C   UNL A   1      49.337  27.032  25.578  1.00  0.00     0.022 A 
BRANCH  65  69
ATOM     69  S   UNL A   1      48.496  27.468  22.955  1.00  0.00     0.124 S 
ATOM     70  O   UNL A   1      48.420  26.021  22.768  1.00  0.00    -0.237 OA
ATOM     71  O   UNL A   1      47.344  28.234  22.495  1.00  0.00    -0.237 OA
ATOM     72  O   UNL A   1      49.799  28.060  22.659  1.00  0.00    -0.744 OA
ENDBRANCH  65  69
ENDBRANCH  48  62
BRANCH  49  73
ATOM     73  C   UNL A   1      38.289  30.850  30.914  1.00  0.00     0.023 A 
ATOM     74  C   UNL A   1      37.294  31.556  30.218  1.00  0.00     0.031 A 
ATOM     75  C   UNL A   1      38.065  30.565  32.273  1.00  0.00     0.131 A 
ATOM     76  C   UNL A   1      36.145  31.994  30.894  1.00  0.00     0.055 A 
ATOM     77  C   UNL A   1      36.894  30.952  32.926  1.00  0.00     0.041 A 
ATOM     78  F   UNL A   1      38.982  29.891  32.986  1.00  0.00    -0.206 F 
ATOM     79  C   UNL A   1      35.930  31.683  32.239  1.00  0.00     0.022 A 
BRANCH  76  80
ATOM     80  S   UNL A   1      34.970  33.058  30.011  1.00  0.00     0.124 S 
ATOM     81  O   UNL A   1      35.853  34.082  29.464  1.00  0.00    -0.237 OA
ATOM     82  O   UNL A   1      34.387  32.130  29.048  1.00  0.00    -0.237 OA
ATOM     83  O   UNL A   1      34.065  33.511  31.065  1.00  0.00    -0.744 OA
ENDBRANCH  76  80
ENDBRANCH  49  73
BRANCH  61  84
ATOM     84  C   UNL A   1      44.450  34.015  30.049  1.00  0.00     0.023 A 
ATOM     85  C   UNL A   1      44.250  35.127  29.212  1.00  0.00     0.031 A 
ATOM     86  C   UNL A   1      45.143  34.214  31.257  1.00  0.00     0.131 A 
ATOM     87  C   UNL A   1      44.789  36.374  29.566  1.00  0.00     0.055 A 
ATOM     88  C   UNL A   1      45.614  35.472  31.636  1.00  0.00     0.041 A 
ATOM     89  F   UNL A   1      45.367  33.188  32.093  1.00  0.00    -0.206 F 
ATOM     90  C   UNL A   1      45.451  36.558  30.782  1.00  0.00     0.022 A 
BRANCH  87  91
ATOM     91  S   UNL A   1      44.703  37.732  28.365  1.00  0.00     0.124 S 
ATOM     92  O   UNL A   1      43.309  38.145  28.475  1.00  0.00    -0.237 OA
ATOM     93  O   UNL A   1      45.689  38.672  28.888  1.00  0.00    -0.237 OA
ATOM     94  O   UNL A   1      45.065  37.095  27.101  1.00  0.00    -0.744 OA
ENDBRANCH  87  91
ENDBRANCH  61  84
ENDBRANCH  35  36
ENDBRANCH  27  30
ENDBRANCH  25  26
ENDBRANCH  24  25
ENDBRANCH   1  24
TORSDOF 18
ENDMDL
MODEL 2
REMARK VINA RESULT:     -11.8      4.750      9.565
REMARK SMILES C[C@@H](C(=O)NCCCCCCNC(=O)c1ccc(-c2c3nc(c(-c4cc(S(=O)(=O)[O-])ccc4F)c4ccc([nH]4)c(-c4cc(S(=O)(=O)[O-])ccc4F)c4nc(c(-c5cc(S(=O)(=O)[O-])ccc5F)c5ccc2[nH]5)C=C4)C=C3)cc1)c1ccc(-c2ccccc2)c(F)c1
REMARK SMILES IDX 9 1 8 2 7 3 6 4 5 5 3 6 4 7 2 9 1 10 78 11 79 12 90 13 80 14
REMARK SMILES IDX 88 15 81 16 89 17 82 18 83 19 87 20 84 21 86 22 85 23 10 24
REMARK SMILES IDX 11 25 12 26 13 27 14 29 15 30 16 31 77 32 17 33 76 34 18 35
REMARK SMILES IDX 19 36 20 37 70 38 21 39 75 40 69 41 71 42 22 43 74 44 68 45
REMARK SMILES IDX 67 46 23 48 55 49 35 50 54 51 36 52 39 53 53 54 72 55 37 56
REMARK SMILES IDX 38 57 52 59 73 60 40 61 24 62 25 63 33 64 26 65 32 66 34 67
REMARK SMILES IDX 31 68 27 69 28 70 29 71 30 72 56 73 57 74 65 75 58 76 64 77
REMARK SMILES IDX 66 78 63 79 59 80 60 81 61 82 62 83 41 84 42 85 50 86 43 87
REMARK SMILES IDX 49 88 51 89 48 90 44 91 45 92 46 93 47 94
REMARK H PARENT 5 8 12 28 71 47 39 58
REMARK Flexibility Score: inf
ROOT
ATOM      1  C   UNL A   1      31.958  27.455  25.490  1.00  0.00     0.002 C 
ENDROOT
BRANCH   1   2
ATOM      2  C   UNL A   1      30.613  26.759  25.267  1.00  0.00     0.002 C 
BRANCH   2   3
ATOM      3  C   UNL A   1      30.203  26.600  23.796  1.00  0.00     0.021 C 
BRANCH   3   4
ATOM      4  C   UNL A   1      30.422  25.194  23.229  1.00  0.00     0.116 C 
BRANCH   4   5
ATOM      5  N   UNL A   1      31.622  25.165  22.421  1.00  0.00    -0.356 N 
ATOM      6  C   UNL A   1      32.921  24.939  22.762  1.00  0.00     0.227 C 
ATOM      7  O   UNL A   1      33.743  25.260  21.904  1.00  0.00    -0.274 OA
ATOM      8  H   UNL A   1      31.474  25.337  21.463  1.00  0.00     0.163 HD
BRANCH   6   9
ATOM      9  C   UNL A   1      33.265  24.284  24.116  1.00  0.00     0.105 C 
ATOM     10  C   UNL A   1      34.543  24.868  24.731  1.00  0.00     0.023 C 
BRANCH   9  11
ATOM     11  C   UNL A   1      33.393  22.754  24.142  1.00  0.00    -0.033 A 
ATOM     12  C   UNL A   1      32.279  21.980  23.762  1.00  0.00     0.005 A 
ATOM     13  C   UNL A   1      34.515  22.067  24.618  1.00  0.00     0.044 A 
ATOM     14  C   UNL A   1      32.282  20.584  23.891  1.00  0.00     0.012 A 
ATOM     15  C   UNL A   1      34.521  20.677  24.720  1.00  0.00     0.131 A 
ATOM     16  C   UNL A   1      33.404  19.906  24.385  1.00  0.00     0.017 A 
ATOM     17  F   UNL A   1      35.639  20.088  25.177  1.00  0.00    -0.206 F 
BRANCH  16  18
ATOM     18  C   UNL A   1      33.401  18.447  24.577  1.00  0.00    -0.015 A 
ATOM     19  C   UNL A   1      32.756  17.858  25.674  1.00  0.00     0.009 A 
ATOM     20  C   UNL A   1      34.042  17.601  23.655  1.00  0.00     0.009 A 
ATOM     21  C   UNL A   1      32.744  16.469  25.840  1.00  0.00     0.001 A 
ATOM     22  C   UNL A   1      34.032  16.215  23.818  1.00  0.00     0.001 A 
ATOM     23  C   UNL A   1      33.382  15.650  24.910  1.00  0.00     0.000 A 
ENDBRANCH  16  18
ENDBRANCH   9  11
ENDBRANCH   6   9
ENDBRANCH   4   5
ENDBRANCH   3   4
ENDBRANCH   2   3
ENDBRANCH   1   2
BRANCH   1  24
ATOM     24  C   UNL A   1      31.853  28.884  26.025  1.00  0.00     0.021 C 
BRANCH  24  25
ATOM     25  C   UNL A   1      33.193  29.594  26.179  1.00  0.00     0.116 C 
BRANCH  25  26
ATOM     26  N   UNL A   1      33.026  30.977  26.593  1.00  0.00    -0.352 N 
ATOM     27  C   UNL A   1      33.759  31.697  27.504  1.00  0.00     0.251 C 
ATOM     28  H   UNL A   1      32.288  31.465  26.161  1.00  0.00     0.163 HD
ATOM     29  O   UNL A   1      33.341  32.781  27.905  1.00  0.00    -0.269 OA
BRANCH  27  30
ATOM     30  C   UNL A   1      35.032  31.147  28.014  1.00  0.00     0.039 A 
ATOM     31  C   UNL A   1      36.161  31.968  28.048  1.00  0.00     0.014 A 
ATOM     32  C   UNL A   1      35.107  29.828  28.471  1.00  0.00     0.014 A 
ATOM     33  C   UNL A   1      37.350  31.481  28.595  1.00  0.00     0.010 A 
ATOM     34  C   UNL A   1      36.268  29.373  29.089  1.00  0.00     0.010 A 
ATOM     35  C   UNL A   1      37.404  30.193  29.153  1.00  0.00    -0.014 A 
BRANCH  35  36
ATOM     36  C   UNL A   1      38.642  29.688  29.801  1.00  0.00     0.031 A 
ATOM     37  C   UNL A   1      39.061  30.218  31.145  1.00  0.00     0.074 A 
ATOM     38  C   UNL A   1      39.416  28.791  29.157  1.00  0.00     0.049 A 
ATOM     39  N   UNL A   1      40.134  29.949  31.845  1.00  0.00    -0.248 NA
ATOM     40  C   UNL A   1      38.169  31.206  31.771  1.00  0.00     0.031 C 
ATOM     41  C   UNL A   1      39.132  28.229  27.834  1.00  0.00     0.029 A 
ATOM     42  N   UNL A   1      40.597  28.196  29.521  1.00  0.00    -0.354 N 
ATOM     43  C   UNL A   1      40.050  30.738  32.987  1.00  0.00     0.074 A 
ATOM     44  C   UNL A   1      38.857  31.547  32.849  1.00  0.00     0.031 C 
ATOM     45  C   UNL A   1      40.094  27.350  27.514  1.00  0.00     0.029 A 
ATOM     46  C   UNL A   1      41.090  27.321  28.581  1.00  0.00     0.049 A 
ATOM     47  H   UNL A   1      41.050  28.377  30.376  1.00  0.00     0.167 HD
ATOM     48  C   UNL A   1      40.877  30.767  34.062  1.00  0.00     0.034 A 
ATOM     49  C   UNL A   1      42.223  26.590  28.570  1.00  0.00     0.034 A 
ATOM     50  C   UNL A   1      42.060  29.950  34.183  1.00  0.00     0.049 A 
ATOM     51  C   UNL A   1      43.152  26.672  29.756  1.00  0.00     0.074 A 
ATOM     52  C   UNL A   1      42.940  29.861  35.247  1.00  0.00     0.029 A 
ATOM     53  N   UNL A   1      42.539  29.090  33.201  1.00  0.00    -0.354 N 
ATOM     54  N   UNL A   1      43.032  27.385  30.852  1.00  0.00    -0.248 NA
ATOM     55  C   UNL A   1      44.363  25.845  29.705  1.00  0.00     0.031 C 
ATOM     56  C   UNL A   1      43.992  29.015  34.878  1.00  0.00     0.029 A 
ATOM     57  C   UNL A   1      43.723  28.500  33.620  1.00  0.00     0.049 A 
ATOM     58  H   UNL A   1      42.102  28.924  32.335  1.00  0.00     0.167 HD
ATOM     59  C   UNL A   1      44.138  27.065  31.636  1.00  0.00     0.074 A 
ATOM     60  C   UNL A   1      44.901  26.085  30.892  1.00  0.00     0.031 C 
ATOM     61  C   UNL A   1      44.486  27.534  32.861  1.00  0.00     0.034 A 
BRANCH  48  62
ATOM     62  C   UNL A   1      40.540  31.736  35.173  1.00  0.00     0.023 A 
ATOM     63  C   UNL A   1      39.576  31.434  36.151  1.00  0.00     0.031 A 
ATOM     64  C   UNL A   1      41.166  32.993  35.237  1.00  0.00     0.131 A 
ATOM     65  C   UNL A   1      39.204  32.404  37.094  1.00  0.00     0.055 A 
ATOM     66  C   UNL A   1      40.859  33.920  36.236  1.00  0.00     0.041 A 
ATOM     67  F   UNL A   1      42.079  33.351  34.320  1.00  0.00    -0.206 F 
ATOM     68  C   UNL A   1      39.859  33.635  37.161  1.00  0.00     0.022 A 
BRANCH  65  69
ATOM     69  S   UNL A   1      37.740  32.096  38.121  1.00  0.00     0.124 S 
ATOM     70  O   UNL A   1      37.406  30.723  37.752  1.00  0.00    -0.237 OA
ATOM     71  O   UNL A   1      38.256  32.288  39.471  1.00  0.00    -0.237 OA
ATOM     72  O   UNL A   1      36.786  33.106  37.666  1.00  0.00    -0.744 OA
ENDBRANCH  65  69
ENDBRANCH  48  62
BRANCH  49  73
ATOM     73  C   UNL A   1      42.554  25.727  27.400  1.00  0.00     0.023 A 
ATOM     74  C   UNL A   1      42.121  24.392  27.339  1.00  0.00     0.031 A 
ATOM     75  C   UNL A   1      43.340  26.212  26.340  1.00  0.00     0.131 A 
ATOM     76  C   UNL A   1      42.516  23.577  26.266  1.00  0.00     0.055 A 
ATOM     77  C   UNL A   1      43.682  25.415  25.246  1.00  0.00     0.041 A 
ATOM     78  F   UNL A   1      43.780  27.481  26.345  1.00  0.00    -0.206 F 
ATOM     79  C   UNL A   1      43.280  24.083  25.212  1.00  0.00     0.022 A 
BRANCH  76  80
ATOM     80  S   UNL A   1      42.092  21.814  26.314  1.00  0.00     0.124 S 
ATOM     81  O   UNL A   1      40.680  21.839  25.950  1.00  0.00    -0.237 OA
ATOM     82  O   UNL A   1      43.002  21.257  25.318  1.00  0.00    -0.237 OA
ATOM     83  O   UNL A   1      42.376  21.434  27.695  1.00  0.00    -0.744 OA
ENDBRANCH  76  80
ENDBRANCH  49  73
BRANCH  61  84
ATOM     84  C   UNL A   1      45.732  26.956  33.491  1.00  0.00     0.023 A 
ATOM     85  C   UNL A   1      45.702  25.767  34.240  1.00  0.00     0.031 A 
ATOM     86  C   UNL A   1      46.967  27.615  33.348  1.00  0.00     0.131 A 
ATOM     87  C   UNL A   1      46.871  25.306  34.866  1.00  0.00     0.055 A 
ATOM     88  C   UNL A   1      48.139  27.113  33.914  1.00  0.00     0.041 A 
ATOM     89  F   UNL A   1      47.055  28.758  32.648  1.00  0.00    -0.206 F 
ATOM     90  C   UNL A   1      48.093  25.959  34.691  1.00  0.00     0.022 A 
BRANCH  87  91
ATOM     91  S   UNL A   1      46.752  23.894  36.000  1.00  0.00     0.124 S 
ATOM     92  O   UNL A   1      47.740  22.976  35.445  1.00  0.00    -0.237 OA
ATOM     93  O   UNL A   1      47.094  24.497  37.284  1.00  0.00    -0.237 OA
ATOM     94  O   UNL A   1      45.361  23.465  35.869  1.00  0.00    -0.744 OA
ENDBRANCH  87  91
ENDBRANCH  61  84
ENDBRANCH  35  36
ENDBRANCH  27  30
ENDBRANCH  25  26
ENDBRANCH  24  25
ENDBRANCH   1  24
TORSDOF 18
ENDMDL
MODEL 3
REMARK VINA RESULT:     -11.7      2.002      2.234
REMARK SMILES C[C@@H](C(=O)NCCCCCCNC(=O)c1ccc(-c2c3nc(c(-c4cc(S(=O)(=O)[O-])ccc4F)c4ccc([nH]4)c(-c4cc(S(=O)(=O)[O-])ccc4F)c4nc(c(-c5cc(S(=O)(=O)[O-])ccc5F)c5ccc2[nH]5)C=C4)C=C3)cc1)c1ccc(-c2ccccc2)c(F)c1
REMARK SMILES IDX 9 1 8 2 7 3 6 4 5 5 3 6 4 7 2 9 1 10 78 11 79 12 90 13 80 14
REMARK SMILES IDX 88 15 81 16 89 17 82 18 83 19 87 20 84 21 86 22 85 23 10 24
REMARK SMILES IDX 11 25 12 26 13 27 14 29 15 30 16 31 77 32 17 33 76 34 18 35
REMARK SMILES IDX 19 36 20 37 70 38 21 39 75 40 69 41 71 42 22 43 74 44 68 45
REMARK SMILES IDX 67 46 23 48 55 49 35 50 54 51 36 52 39 53 53 54 72 55 37 56
REMARK SMILES IDX 38 57 52 59 73 60 40 61 24 62 25 63 33 64 26 65 32 66 34 67
REMARK SMILES IDX 31 68 27 69 28 70 29 71 30 72 56 73 57 74 65 75 58 76 64 77
REMARK SMILES IDX 66 78 63 79 59 80 60 81 61 82 62 83 41 84 42 85 50 86 43 87
REMARK SMILES IDX 49 88 51 89 48 90 44 91 45 92 46 93 47 94
REMARK H PARENT 5 8 12 28 71 47 39 58
REMARK Flexibility Score: inf
ROOT
ATOM      1  C   UNL A   1      35.357  22.976  23.568  1.00  0.00     0.002 C 
ENDROOT
BRANCH   1   2
ATOM      2  C   UNL A   1      34.763  23.759  24.741  1.00  0.00     0.002 C 
BRANCH   2   3
ATOM      3  C   UNL A   1      34.478  25.240  24.452  1.00  0.00     0.021 C 
BRANCH   3   4
ATOM      4  C   UNL A   1      33.354  25.842  25.301  1.00  0.00     0.116 C 
BRANCH   4   5
ATOM      5  N   UNL A   1      32.429  26.570  24.460  1.00  0.00    -0.356 N 
ATOM      6  C   UNL A   1      31.202  26.226  23.980  1.00  0.00     0.227 C 
ATOM      7  O   UNL A   1      30.789  26.937  23.064  1.00  0.00    -0.274 OA
ATOM      8  H   UNL A   1      32.739  27.464  24.188  1.00  0.00     0.163 HD
BRANCH   6   9
ATOM      9  C   UNL A   1      30.422  25.055  24.613  1.00  0.00     0.105 C 
ATOM     10  C   UNL A   1      30.247  25.230  26.127  1.00  0.00     0.023 C 
BRANCH   9  11
ATOM     11  C   UNL A   1      30.962  23.639  24.368  1.00  0.00    -0.033 A 
ATOM     12  C   UNL A   1      31.118  22.779  25.472  1.00  0.00     0.005 A 
ATOM     13  C   UNL A   1      31.410  23.173  23.127  1.00  0.00     0.044 A 
ATOM     14  C   UNL A   1      31.730  21.525  25.340  1.00  0.00     0.012 A 
ATOM     15  C   UNL A   1      31.995  21.915  22.997  1.00  0.00     0.131 A 
ATOM     16  C   UNL A   1      32.192  21.073  24.096  1.00  0.00     0.017 A 
ATOM     17  F   UNL A   1      32.391  21.532  21.771  1.00  0.00    -0.206 F 
BRANCH  16  18
ATOM     18  C   UNL A   1      32.885  19.783  23.954  1.00  0.00    -0.015 A 
ATOM     19  C   UNL A   1      34.070  19.512  24.653  1.00  0.00     0.009 A 
ATOM     20  C   UNL A   1      32.370  18.781  23.112  1.00  0.00     0.009 A 
ATOM     21  C   UNL A   1      34.713  18.277  24.523  1.00  0.00     0.001 A 
ATOM     22  C   UNL A   1      33.010  17.548  22.981  1.00  0.00     0.001 A 
ATOM     23  C   UNL A   1      34.182  17.297  23.688  1.00  0.00     0.000 A 
ENDBRANCH  16  18
ENDBRANCH   9  11
ENDBRANCH   6   9
ENDBRANCH   4   5
ENDBRANCH   3   4
ENDBRANCH   2   3
ENDBRANCH   1   2
BRANCH   1  24
ATOM     24  C   UNL A   1      36.628  22.195  23.905  1.00  0.00     0.021 C 
BRANCH  24  25
ATOM     25  C   UNL A   1      36.817  21.920  25.392  1.00  0.00     0.116 C 
BRANCH  25  26
ATOM     26  N   UNL A   1      37.760  20.838  25.625  1.00  0.00    -0.352 N 
ATOM     27  C   UNL A   1      39.072  20.911  26.025  1.00  0.00     0.251 C 
ATOM     28  H   UNL A   1      37.411  19.930  25.478  1.00  0.00     0.163 HD
ATOM     29  O   UNL A   1      39.790  19.917  25.950  1.00  0.00    -0.269 OA
BRANCH  27  30
ATOM     30  C   UNL A   1      39.614  22.194  26.517  1.00  0.00     0.039 A 
ATOM     31  C   UNL A   1      40.686  22.180  27.412  1.00  0.00     0.014 A 
ATOM     32  C   UNL A   1      39.074  23.409  26.085  1.00  0.00     0.014 A 
ATOM     33  C   UNL A   1      41.253  23.386  27.827  1.00  0.00     0.010 A 
ATOM     34  C   UNL A   1      39.692  24.606  26.435  1.00  0.00     0.010 A 
ATOM     35  C   UNL A   1      40.785  24.608  27.315  1.00  0.00    -0.014 A 
BRANCH  35  36
ATOM     36  C   UNL A   1      41.424  25.895  27.693  1.00  0.00     0.031 A 
ATOM     37  C   UNL A   1      42.843  26.184  27.281  1.00  0.00     0.074 A 
ATOM     38  C   UNL A   1      40.747  26.781  28.450  1.00  0.00     0.049 A 
ATOM     39  N   UNL A   1      43.593  27.218  27.563  1.00  0.00    -0.248 NA
ATOM     40  C   UNL A   1      43.514  25.157  26.470  1.00  0.00     0.031 C 
ATOM     41  C   UNL A   1      39.378  26.598  28.940  1.00  0.00     0.029 A 
ATOM     42  N   UNL A   1      41.112  28.008  28.944  1.00  0.00    -0.354 N 
ATOM     43  C   UNL A   1      44.827  26.964  26.972  1.00  0.00     0.074 A 
ATOM     44  C   UNL A   1      44.742  25.646  26.379  1.00  0.00     0.031 C 
ATOM     45  C   UNL A   1      39.011  27.686  29.635  1.00  0.00     0.029 A 
ATOM     46  C   UNL A   1      40.131  28.621  29.688  1.00  0.00     0.049 A 
ATOM     47  H   UNL A   1      41.995  28.412  28.781  1.00  0.00     0.167 HD
ATOM     48  C   UNL A   1      45.919  27.765  26.908  1.00  0.00     0.034 A 
ATOM     49  C   UNL A   1      40.135  29.796  30.349  1.00  0.00     0.034 A 
ATOM     50  C   UNL A   1      45.983  29.078  27.503  1.00  0.00     0.049 A 
ATOM     51  C   UNL A   1      41.376  30.650  30.304  1.00  0.00     0.074 A 
ATOM     52  C   UNL A   1      47.018  29.996  27.457  1.00  0.00     0.029 A 
ATOM     53  N   UNL A   1      44.976  29.658  28.266  1.00  0.00    -0.354 N 
ATOM     54  N   UNL A   1      42.518  30.418  29.697  1.00  0.00    -0.248 NA
ATOM     55  C   UNL A   1      41.326  31.928  31.026  1.00  0.00     0.031 C 
ATOM     56  C   UNL A   1      46.672  31.090  28.258  1.00  0.00     0.029 A 
ATOM     57  C   UNL A   1      45.384  30.901  28.730  1.00  0.00     0.049 A 
ATOM     58  H   UNL A   1      44.101  29.246  28.451  1.00  0.00     0.167 HD
ATOM     59  C   UNL A   1      43.309  31.539  29.938  1.00  0.00     0.074 A 
ATOM     60  C   UNL A   1      42.508  32.448  30.730  1.00  0.00     0.031 C 
ATOM     61  C   UNL A   1      44.581  31.795  29.534  1.00  0.00     0.034 A 
BRANCH  48  62
ATOM     62  C   UNL A   1      47.138  27.225  26.196  1.00  0.00     0.023 A 
ATOM     63  C   UNL A   1      48.105  26.454  26.865  1.00  0.00     0.031 A 
ATOM     64  C   UNL A   1      47.356  27.512  24.837  1.00  0.00     0.131 A 
ATOM     65  C   UNL A   1      49.281  26.071  26.202  1.00  0.00     0.055 A 
ATOM     66  C   UNL A   1      48.484  27.048  24.156  1.00  0.00     0.041 A 
ATOM     67  F   UNL A   1      46.482  28.262  24.147  1.00  0.00    -0.206 F 
ATOM     68  C   UNL A   1      49.465  26.339  24.844  1.00  0.00     0.022 A 
BRANCH  65  69
ATOM     69  S   UNL A   1      50.636  25.368  27.181  1.00  0.00     0.124 S 
ATOM     70  O   UNL A   1      49.945  24.322  27.931  1.00  0.00    -0.237 OA
ATOM     71  O   UNL A   1      51.564  24.912  26.153  1.00  0.00    -0.237 OA
ATOM     72  O   UNL A   1      51.099  26.499  27.985  1.00  0.00    -0.744 OA
ENDBRANCH  65  69
ENDBRANCH  48  62
BRANCH  49  73
ATOM     73  C   UNL A   1      38.936  30.231  31.122  1.00  0.00     0.023 A 
ATOM     74  C   UNL A   1      37.946  31.034  30.531  1.00  0.00     0.031 A 
ATOM     75  C   UNL A   1      38.778  29.884  32.475  1.00  0.00     0.131 A 
ATOM     76  C   UNL A   1      36.870  31.500  31.303  1.00  0.00     0.055 A 
ATOM     77  C   UNL A   1      37.676  30.301  33.223  1.00  0.00     0.041 A 
ATOM     78  F   UNL A   1      39.693  29.116  33.090  1.00  0.00    -0.206 F 
ATOM     79  C   UNL A   1      36.720  31.126  32.639  1.00  0.00     0.022 A 
BRANCH  76  80
ATOM     80  S   UNL A   1      35.712  32.681  30.556  1.00  0.00     0.124 S 
ATOM     81  O   UNL A   1      36.370  33.953  30.830  1.00  0.00    -0.237 OA
ATOM     82  O   UNL A   1      35.701  32.251  29.161  1.00  0.00    -0.237 OA
ATOM     83  O   UNL A   1      34.470  32.447  31.288  1.00  0.00    -0.744 OA
ENDBRANCH  76  80
ENDBRANCH  49  73
BRANCH  61  84
ATOM     84  C   UNL A   1      45.167  33.135  29.912  1.00  0.00     0.023 A 
ATOM     85  C   UNL A   1      45.892  33.319  31.102  1.00  0.00     0.031 A 
ATOM     86  C   UNL A   1      44.985  34.248  29.071  1.00  0.00     0.131 A 
ATOM     87  C   UNL A   1      46.357  34.598  31.446  1.00  0.00     0.055 A 
ATOM     88  C   UNL A   1      45.512  35.501  29.385  1.00  0.00     0.041 A 
ATOM     89  F   UNL A   1      44.296  34.133  27.924  1.00  0.00    -0.206 F 
ATOM     90  C   UNL A   1      46.190  35.686  30.585  1.00  0.00     0.022 A 
BRANCH  87  91
ATOM     91  S   UNL A   1      47.095  34.844  33.086  1.00  0.00     0.124 S 
ATOM     92  O   UNL A   1      45.928  35.177  33.896  1.00  0.00    -0.237 OA
ATOM     93  O   UNL A   1      47.705  33.546  33.351  1.00  0.00    -0.237 OA
ATOM     94  O   UNL A   1      48.039  35.941  32.876  1.00  0.00    -0.744 OA
ENDBRANCH  87  91
ENDBRANCH  61  84
ENDBRANCH  35  36
ENDBRANCH  27  30
ENDBRANCH  25  26
ENDBRANCH  24  25
ENDBRANCH   1  24
TORSDOF 18
ENDMDL
