MODEL 1
REMARK VINA RESULT:     -12.8      0.000      0.000
REMARK SMILES Cc1ccc(S(=O)(=O)n2cc(C(=O)C(=O)NCC(=O)NCC(=O)NCCCCCCNC(=O)c3ccc(-c4c5nc(c(-c6cc(S(=O)(=O)[O-])ccc6F)c6ccc([nH]6)c(-c6cc(S(=O)(=O)[O-])ccc6F)c6nc(c(-c7cc(S(=O)(=O)[O-])ccc7F)c7ccc4[nH]7)C=C6)C=C5)cc3)c3ccccc32)cc1
REMARK SMILES IDX 25 1 24 2 22 3 23 4 21 6 20 7 18 8 19 9 17 11 16 12 14 13
REMARK SMILES IDX 15 14 12 16 13 17 11 18 9 19 10 20 102 21 97 22 101 23 98 24
REMARK SMILES IDX 100 25 99 26 6 27 7 28 8 29 5 30 1 31 2 32 3 33 104 34 4 35
REMARK SMILES IDX 103 36 26 37 27 38 28 39 29 40 30 41 31 42 32 43 33 45 34 46
REMARK SMILES IDX 35 47 96 48 36 49 95 50 37 51 38 52 39 53 89 54 40 55 94 56
REMARK SMILES IDX 88 57 90 58 41 59 93 60 87 61 86 62 42 64 74 65 54 66 73 67
REMARK SMILES IDX 55 68 58 69 72 70 91 71 56 72 57 73 71 75 92 76 59 77 43 78
REMARK SMILES IDX 44 79 52 80 45 81 51 82 53 83 50 84 46 85 47 86 48 87 49 88
REMARK SMILES IDX 75 89 76 90 84 91 77 92 83 93 85 94 82 95 78 96 79 97 80 98
REMARK SMILES IDX 81 99 60 100 61 101 69 102 62 103 68 104 70 105 67 106
REMARK SMILES IDX 63 107 64 108 65 109 66 110
REMARK H PARENT 24 5 20 10 16 15 31 44 90 63 58 74
REMARK Flexibility Score: inf
ROOT
ATOM      1  C   UNL A   1      33.595  33.557  28.203  1.00  0.00     0.116 C 
ENDROOT
BRANCH   1   2
ATOM      2  N   UNL A   1      34.257  32.322  28.557  1.00  0.00    -0.355 N 
ATOM      3  C   UNL A   1      34.339  31.159  27.850  1.00  0.00     0.239 C 
ATOM      4  O   UNL A   1      35.171  30.317  28.203  1.00  0.00    -0.273 OA
ATOM      5  H   UNL A   1      34.712  32.322  29.429  1.00  0.00     0.163 HD
BRANCH   3   6
ATOM      6  C   UNL A   1      33.558  30.966  26.538  1.00  0.00     0.216 C 
BRANCH   6   7
ATOM      7  N   UNL A   1      33.719  29.676  25.888  1.00  0.00    -0.346 N 
ATOM      8  C   UNL A   1      32.818  28.884  25.243  1.00  0.00     0.239 C 
ATOM      9  O   UNL A   1      33.235  27.844  24.728  1.00  0.00    -0.273 OA
ATOM     10  H   UNL A   1      34.633  29.313  25.920  1.00  0.00     0.164 HD
BRANCH   8  11
ATOM     11  C   UNL A   1      31.346  29.296  25.066  1.00  0.00     0.216 C 
BRANCH  11  12
ATOM     12  N   UNL A   1      30.888  29.525  23.693  1.00  0.00    -0.340 N 
ATOM     13  C   UNL A   1      30.055  28.801  22.865  1.00  0.00     0.292 C 
ATOM     14  O   UNL A   1      29.825  29.221  21.736  1.00  0.00    -0.265 OA
ATOM     15  H   UNL A   1      31.241  30.349  23.286  1.00  0.00     0.164 HD
BRANCH  13  16
ATOM     16  C   UNL A   1      29.405  27.491  23.353  1.00  0.00     0.252 C 
ATOM     17  O   UNL A   1      28.179  27.460  23.422  1.00  0.00    -0.283 OA
BRANCH  16  18
ATOM     18  C   UNL A   1      30.179  26.294  23.714  1.00  0.00     0.054 A 
ATOM     19  N   UNL A   1      31.072  24.544  24.776  1.00  0.00    -0.240 N 
ATOM     20  C   UNL A   1      30.148  25.554  24.884  1.00  0.00     0.117 A 
ATOM     21  C   UNL A   1      31.718  24.582  23.557  1.00  0.00     0.065 A 
ATOM     22  C   UNL A   1      31.171  25.673  22.872  1.00  0.00     0.012 A 
ATOM     23  C   UNL A   1      32.743  23.796  22.998  1.00  0.00     0.028 A 
ATOM     24  C   UNL A   1      31.664  25.969  21.581  1.00  0.00     0.011 A 
ATOM     25  C   UNL A   1      33.226  24.137  21.730  1.00  0.00     0.002 A 
ATOM     26  C   UNL A   1      32.690  25.207  21.027  1.00  0.00     0.001 A 
BRANCH  19  27
ATOM     27  S   UNL A   1      31.462  23.465  26.038  1.00  0.00     0.268 S 
ATOM     28  O   UNL A   1      30.687  22.271  25.777  1.00  0.00    -0.201 OA
ATOM     29  O   UNL A   1      31.327  24.223  27.271  1.00  0.00    -0.201 OA
BRANCH  27  30
ATOM     30  C   UNL A   1      33.178  23.028  25.880  1.00  0.00     0.088 A 
ATOM     31  C   UNL A   1      37.247  21.839  25.136  1.00  0.00     0.044 C 
ATOM     32  C   UNL A   1      35.831  22.252  25.415  1.00  0.00    -0.051 A 
ATOM     33  C   UNL A   1      34.780  21.366  25.148  1.00  0.00     0.005 A 
ATOM     34  C   UNL A   1      35.541  23.515  25.946  1.00  0.00     0.005 A 
ATOM     35  C   UNL A   1      33.458  21.753  25.373  1.00  0.00     0.022 A 
ATOM     36  C   UNL A   1      34.220  23.902  26.191  1.00  0.00     0.022 A 
ENDBRANCH  27  30
ENDBRANCH  19  27
ENDBRANCH  16  18
ENDBRANCH  13  16
ENDBRANCH  11  12
ENDBRANCH   8  11
ENDBRANCH   6   7
ENDBRANCH   3   6
ENDBRANCH   1   2
BRANCH   1  37
ATOM     37  C   UNL A   1      34.394  34.805  28.538  1.00  0.00     0.021 C 
BRANCH  37  38
ATOM     38  C   UNL A   1      33.547  36.061  28.727  1.00  0.00     0.002 C 
BRANCH  38  39
ATOM     39  C   UNL A   1      33.603  36.703  30.123  1.00  0.00     0.002 C 
BRANCH  39  40
ATOM     40  C   UNL A   1      32.373  36.501  31.004  1.00  0.00     0.021 C 
BRANCH  40  41
ATOM     41  C   UNL A   1      32.559  35.487  32.119  1.00  0.00     0.116 C 
BRANCH  41  42
ATOM     42  N   UNL A   1      33.578  35.837  33.099  1.00  0.00    -0.352 N 
ATOM     43  C   UNL A   1      34.655  35.092  33.552  1.00  0.00     0.251 C 
ATOM     44  H   UNL A   1      33.489  36.734  33.496  1.00  0.00     0.163 HD
ATOM     45  O   UNL A   1      35.283  35.416  34.557  1.00  0.00    -0.269 OA
BRANCH  43  46
ATOM     46  C   UNL A   1      35.204  34.015  32.685  1.00  0.00     0.039 A 
ATOM     47  C   UNL A   1      35.215  32.730  33.252  1.00  0.00     0.014 A 
ATOM     48  C   UNL A   1      36.035  34.317  31.617  1.00  0.00     0.014 A 
ATOM     49  C   UNL A   1      36.281  31.886  32.988  1.00  0.00     0.010 A 
ATOM     50  C   UNL A   1      37.173  33.569  31.475  1.00  0.00     0.010 A 
ATOM     51  C   UNL A   1      37.313  32.394  32.212  1.00  0.00    -0.014 A 
BRANCH  51  52
ATOM     52  C   UNL A   1      38.601  31.763  32.060  1.00  0.00     0.031 A 
ATOM     53  C   UNL A   1      38.613  30.471  31.370  1.00  0.00     0.074 A 
ATOM     54  C   UNL A   1      39.697  32.460  32.424  1.00  0.00     0.049 A 
ATOM     55  N   UNL A   1      39.459  29.536  31.590  1.00  0.00    -0.248 NA
ATOM     56  C   UNL A   1      37.574  30.090  30.412  1.00  0.00     0.031 C 
ATOM     57  C   UNL A   1      41.095  32.197  32.112  1.00  0.00     0.029 A 
ATOM     58  N   UNL A   1      39.746  33.496  33.355  1.00  0.00    -0.354 N 
ATOM     59  C   UNL A   1      39.309  28.620  30.571  1.00  0.00     0.074 A 
ATOM     60  C   UNL A   1      38.034  28.916  29.975  1.00  0.00     0.031 C 
ATOM     61  C   UNL A   1      41.869  32.848  33.002  1.00  0.00     0.029 A 
ATOM     62  C   UNL A   1      40.987  33.425  34.005  1.00  0.00     0.049 A 
ATOM     63  H   UNL A   1      39.037  34.159  33.523  1.00  0.00     0.167 HD
ATOM     64  C   UNL A   1      40.383  27.867  30.215  1.00  0.00     0.034 A 
ATOM     65  C   UNL A   1      41.025  33.131  35.342  1.00  0.00     0.034 A 
ATOM     66  C   UNL A   1      41.526  28.217  31.056  1.00  0.00     0.049 A 
ATOM     67  C   UNL A   1      41.643  31.774  35.597  1.00  0.00     0.074 A 
ATOM     68  C   UNL A   1      42.584  29.088  30.855  1.00  0.00     0.029 A 
ATOM     69  N   UNL A   1      41.474  27.959  32.417  1.00  0.00    -0.354 N 
ATOM     70  N   UNL A   1      41.672  30.806  34.720  1.00  0.00    -0.248 NA
ATOM     71  C   UNL A   1      42.326  31.429  36.837  1.00  0.00     0.031 C 
ATOM     72  C   UNL A   1      43.130  29.403  32.125  1.00  0.00     0.029 A 
ATOM     73  C   UNL A   1      42.422  28.702  33.088  1.00  0.00     0.049 A 
ATOM     74  H   UNL A   1      40.848  27.332  32.845  1.00  0.00     0.167 HD
ATOM     75  C   UNL A   1      42.365  29.740  35.235  1.00  0.00     0.074 A 
ATOM     76  C   UNL A   1      42.762  30.188  36.560  1.00  0.00     0.031 C 
ATOM     77  C   UNL A   1      42.563  28.584  34.529  1.00  0.00     0.034 A 
BRANCH  64  78
ATOM     78  C   UNL A   1      40.535  27.095  28.927  1.00  0.00     0.023 A 
ATOM     79  C   UNL A   1      41.553  27.500  28.039  1.00  0.00     0.031 A 
ATOM     80  C   UNL A   1      39.751  26.012  28.489  1.00  0.00     0.131 A 
ATOM     81  C   UNL A   1      41.712  26.914  26.775  1.00  0.00     0.055 A 
ATOM     82  C   UNL A   1      39.887  25.443  27.214  1.00  0.00     0.041 A 
ATOM     83  F   UNL A   1      38.851  25.417  29.282  1.00  0.00    -0.206 F 
ATOM     84  C   UNL A   1      40.868  25.898  26.344  1.00  0.00     0.022 A 
BRANCH  81  85
ATOM     85  S   UNL A   1      43.051  27.510  25.712  1.00  0.00     0.124 S 
ATOM     86  O   UNL A   1      42.325  28.277  24.706  1.00  0.00    -0.237 OA
ATOM     87  O   UNL A   1      43.869  28.277  26.645  1.00  0.00    -0.237 OA
ATOM     88  O   UNL A   1      43.668  26.277  25.223  1.00  0.00    -0.744 OA
ENDBRANCH  81  85
ENDBRANCH  64  78
BRANCH  65  89
ATOM     89  C   UNL A   1      39.863  33.724  36.080  1.00  0.00     0.023 A 
ATOM     90  C   UNL A   1      38.890  32.813  36.553  1.00  0.00     0.031 A 
ATOM     91  C   UNL A   1      39.959  34.968  36.721  1.00  0.00     0.131 A 
ATOM     92  C   UNL A   1      38.222  33.059  37.763  1.00  0.00     0.055 A 
ATOM     93  C   UNL A   1      39.226  35.240  37.886  1.00  0.00     0.041 A 
ATOM     94  F   UNL A   1      40.865  35.874  36.328  1.00  0.00    -0.206 F 
ATOM     95  C   UNL A   1      38.403  34.261  38.446  1.00  0.00     0.022 A 
BRANCH  92  96
ATOM     96  S   UNL A   1      37.375  31.672  38.581  1.00  0.00     0.124 S 
ATOM     97  O   UNL A   1      36.011  32.175  38.708  1.00  0.00    -0.237 OA
ATOM     98  O   UNL A   1      37.561  30.578  37.631  1.00  0.00    -0.237 OA
ATOM     99  O   UNL A   1      38.109  31.506  39.836  1.00  0.00    -0.744 OA
ENDBRANCH  92  96
ENDBRANCH  65  89
BRANCH  77 100
ATOM    100  C   UNL A   1      42.998  27.254  35.112  1.00  0.00     0.023 A 
ATOM    101  C   UNL A   1      44.133  26.573  34.666  1.00  0.00     0.031 A 
ATOM    102  C   UNL A   1      42.322  26.654  36.206  1.00  0.00     0.131 A 
ATOM    103  C   UNL A   1      44.484  25.319  35.189  1.00  0.00     0.055 A 
ATOM    104  C   UNL A   1      42.742  25.463  36.805  1.00  0.00     0.041 A 
ATOM    105  F   UNL A   1      41.229  27.197  36.760  1.00  0.00    -0.206 F 
ATOM    106  C   UNL A   1      43.816  24.769  36.278  1.00  0.00     0.022 A 
BRANCH 103 107
ATOM    107  S   UNL A   1      45.769  24.387  34.324  1.00  0.00     0.124 S 
ATOM    108  O   UNL A   1      46.965  25.160  34.648  1.00  0.00    -0.237 OA
ATOM    109  O   UNL A   1      45.679  23.072  34.950  1.00  0.00    -0.237 OA
ATOM    110  O   UNL A   1      45.352  24.444  32.926  1.00  0.00    -0.744 OA
ENDBRANCH 103 107
ENDBRANCH  77 100
ENDBRANCH  51  52
ENDBRANCH  43  46
ENDBRANCH  41  42
ENDBRANCH  40  41
ENDBRANCH  39  40
ENDBRANCH  38  39
ENDBRANCH  37  38
ENDBRANCH   1  37
TORSDOF 23
ENDMDL
MODEL 2
REMARK VINA RESULT:     -12.6      1.686      2.226
REMARK SMILES Cc1ccc(S(=O)(=O)n2cc(C(=O)C(=O)NCC(=O)NCC(=O)NCCCCCCNC(=O)c3ccc(-c4c5nc(c(-c6cc(S(=O)(=O)[O-])ccc6F)c6ccc([nH]6)c(-c6cc(S(=O)(=O)[O-])ccc6F)c6nc(c(-c7cc(S(=O)(=O)[O-])ccc7F)c7ccc4[nH]7)C=C6)C=C5)cc3)c3ccccc32)cc1
REMARK SMILES IDX 25 1 24 2 22 3 23 4 21 6 20 7 18 8 19 9 17 11 16 12 14 13
REMARK SMILES IDX 15 14 12 16 13 17 11 18 9 19 10 20 102 21 97 22 101 23 98 24
REMARK SMILES IDX 100 25 99 26 6 27 7 28 8 29 5 30 1 31 2 32 3 33 104 34 4 35
REMARK SMILES IDX 103 36 26 37 27 38 28 39 29 40 30 41 31 42 32 43 33 45 34 46
REMARK SMILES IDX 35 47 96 48 36 49 95 50 37 51 38 52 39 53 89 54 40 55 94 56
REMARK SMILES IDX 88 57 90 58 41 59 93 60 87 61 86 62 42 64 74 65 54 66 73 67
REMARK SMILES IDX 55 68 58 69 72 70 91 71 56 72 57 73 71 75 92 76 59 77 43 78
REMARK SMILES IDX 44 79 52 80 45 81 51 82 53 83 50 84 46 85 47 86 48 87 49 88
REMARK SMILES IDX 75 89 76 90 84 91 77 92 83 93 85 94 82 95 78 96 79 97 80 98
REMARK SMILES IDX 81 99 60 100 61 101 69 102 62 103 68 104 70 105 67 106
REMARK SMILES IDX 63 107 64 108 65 109 66 110
REMARK H PARENT 24 5 20 10 16 15 31 44 90 63 58 74
REMARK Flexibility Score: inf
ROOT
ATOM      1  C   UNL A   1      33.931  33.758  28.958  1.00  0.00     0.116 C 
ENDROOT
BRANCH   1   2
ATOM      2  N   UNL A   1      34.896  32.764  28.549  1.00  0.00    -0.355 N 
ATOM      3  C   UNL A   1      34.697  31.609  27.852  1.00  0.00     0.239 C 
ATOM      4  O   UNL A   1      35.682  31.038  27.372  1.00  0.00    -0.273 OA
ATOM      5  H   UNL A   1      35.828  32.947  28.809  1.00  0.00     0.163 HD
BRANCH   3   6
ATOM      6  C   UNL A   1      33.279  31.122  27.503  1.00  0.00     0.216 C 
BRANCH   6   7
ATOM      7  N   UNL A   1      33.064  29.687  27.583  1.00  0.00    -0.346 N 
ATOM      8  C   UNL A   1      32.334  28.850  26.796  1.00  0.00     0.239 C 
ATOM      9  O   UNL A   1      32.361  27.646  27.060  1.00  0.00    -0.273 OA
ATOM     10  H   UNL A   1      33.524  29.246  28.333  1.00  0.00     0.164 HD
BRANCH   8  11
ATOM     11  C   UNL A   1      31.568  29.351  25.559  1.00  0.00     0.216 C 
BRANCH  11  12
ATOM     12  N   UNL A   1      32.349  29.531  24.332  1.00  0.00    -0.340 N 
ATOM     13  C   UNL A   1      32.339  28.863  23.125  1.00  0.00     0.292 C 
ATOM     14  O   UNL A   1      33.108  29.221  22.239  1.00  0.00    -0.265 OA
ATOM     15  H   UNL A   1      33.002  30.267  24.378  1.00  0.00     0.164 HD
BRANCH  13  16
ATOM     16  C   UNL A   1      31.364  27.694  22.880  1.00  0.00     0.252 C 
ATOM     17  O   UNL A   1      30.285  27.957  22.356  1.00  0.00    -0.283 OA
BRANCH  16  18
ATOM     18  C   UNL A   1      31.677  26.299  23.227  1.00  0.00     0.054 A 
ATOM     19  N   UNL A   1      32.453  24.205  23.247  1.00  0.00    -0.240 N 
ATOM     20  C   UNL A   1      32.500  25.400  22.571  1.00  0.00     0.117 A 
ATOM     21  C   UNL A   1      31.625  24.283  24.347  1.00  0.00     0.065 A 
ATOM     22  C   UNL A   1      31.126  25.591  24.356  1.00  0.00     0.012 A 
ATOM     23  C   UNL A   1      31.235  23.337  25.316  1.00  0.00     0.028 A 
ATOM     24  C   UNL A   1      30.221  25.957  25.377  1.00  0.00     0.011 A 
ATOM     25  C   UNL A   1      30.316  23.728  26.294  1.00  0.00     0.002 A 
ATOM     26  C   UNL A   1      29.818  25.023  26.330  1.00  0.00     0.001 A 
BRANCH  19  27
ATOM     27  S   UNL A   1      33.219  22.775  22.718  1.00  0.00     0.268 S 
ATOM     28  O   UNL A   1      33.594  23.025  21.343  1.00  0.00    -0.201 OA
ATOM     29  O   UNL A   1      32.335  21.684  23.095  1.00  0.00    -0.201 OA
BRANCH  27  30
ATOM     30  C   UNL A   1      34.720  22.576  23.649  1.00  0.00     0.088 A 
ATOM     31  C   UNL A   1      38.371  21.726  25.763  1.00  0.00     0.044 C 
ATOM     32  C   UNL A   1      37.093  22.036  25.039  1.00  0.00    -0.051 A 
ATOM     33  C   UNL A   1      36.018  21.143  25.106  1.00  0.00     0.005 A 
ATOM     34  C   UNL A   1      36.956  23.215  24.295  1.00  0.00     0.005 A 
ATOM     35  C   UNL A   1      34.838  21.406  24.410  1.00  0.00     0.022 A 
ATOM     36  C   UNL A   1      35.769  23.495  23.610  1.00  0.00     0.022 A 
ENDBRANCH  27  30
ENDBRANCH  19  27
ENDBRANCH  16  18
ENDBRANCH  13  16
ENDBRANCH  11  12
ENDBRANCH   8  11
ENDBRANCH   6   7
ENDBRANCH   3   6
ENDBRANCH   1   2
BRANCH   1  37
ATOM     37  C   UNL A   1      34.147  35.125  28.331  1.00  0.00     0.021 C 
BRANCH  37  38
ATOM     38  C   UNL A   1      33.191  36.204  28.835  1.00  0.00     0.002 C 
BRANCH  38  39
ATOM     39  C   UNL A   1      33.425  36.686  30.277  1.00  0.00     0.002 C 
BRANCH  39  40
ATOM     40  C   UNL A   1      32.274  36.464  31.254  1.00  0.00     0.021 C 
BRANCH  40  41
ATOM     41  C   UNL A   1      32.539  35.401  32.305  1.00  0.00     0.116 C 
BRANCH  41  42
ATOM     42  N   UNL A   1      33.582  35.737  33.264  1.00  0.00    -0.352 N 
ATOM     43  C   UNL A   1      34.678  34.991  33.670  1.00  0.00     0.251 C 
ATOM     44  H   UNL A   1      33.498  36.624  33.683  1.00  0.00     0.163 HD
ATOM     45  O   UNL A   1      35.331  35.297  34.664  1.00  0.00    -0.269 OA
BRANCH  43  46
ATOM     46  C   UNL A   1      35.210  33.939  32.763  1.00  0.00     0.039 A 
ATOM     47  C   UNL A   1      35.429  32.685  33.357  1.00  0.00     0.014 A 
ATOM     48  C   UNL A   1      35.854  34.276  31.582  1.00  0.00     0.014 A 
ATOM     49  C   UNL A   1      36.530  31.938  32.969  1.00  0.00     0.010 A 
ATOM     50  C   UNL A   1      37.032  33.637  31.304  1.00  0.00     0.010 A 
ATOM     51  C   UNL A   1      37.390  32.513  32.044  1.00  0.00    -0.014 A 
BRANCH  51  52
ATOM     52  C   UNL A   1      38.702  32.004  31.731  1.00  0.00     0.031 A 
ATOM     53  C   UNL A   1      38.759  30.642  31.195  1.00  0.00     0.074 A 
ATOM     54  C   UNL A   1      39.748  32.852  31.812  1.00  0.00     0.049 A 
ATOM     55  N   UNL A   1      39.741  29.836  31.359  1.00  0.00    -0.248 NA
ATOM     56  C   UNL A   1      37.631  30.034  30.489  1.00  0.00     0.031 C 
ATOM     57  C   UNL A   1      41.095  32.697  31.282  1.00  0.00     0.029 A 
ATOM     58  N   UNL A   1      39.822  33.999  32.599  1.00  0.00    -0.354 N 
ATOM     59  C   UNL A   1      39.537  28.786  30.490  1.00  0.00     0.074 A 
ATOM     60  C   UNL A   1      38.154  28.868  30.106  1.00  0.00     0.031 C 
ATOM     61  C   UNL A   1      41.920  33.534  31.941  1.00  0.00     0.029 A 
ATOM     62  C   UNL A   1      41.154  34.142  33.018  1.00  0.00     0.049 A 
ATOM     63  H   UNL A   1      39.075  34.601  32.820  1.00  0.00     0.167 HD
ATOM     64  C   UNL A   1      40.622  28.108  30.029  1.00  0.00     0.034 A 
ATOM     65  C   UNL A   1      41.452  34.029  34.350  1.00  0.00     0.034 A 
ATOM     66  C   UNL A   1      41.837  28.681  30.607  1.00  0.00     0.049 A 
ATOM     67  C   UNL A   1      42.268  32.788  34.635  1.00  0.00     0.074 A 
ATOM     68  C   UNL A   1      42.730  29.623  30.122  1.00  0.00     0.029 A 
ATOM     69  N   UNL A   1      42.047  28.597  31.973  1.00  0.00    -0.354 N 
ATOM     70  N   UNL A   1      42.270  31.723  33.878  1.00  0.00    -0.248 NA
ATOM     71  C   UNL A   1      43.187  32.678  35.761  1.00  0.00     0.031 C 
ATOM     72  C   UNL A   1      43.437  30.154  31.231  1.00  0.00     0.029 A 
ATOM     73  C   UNL A   1      42.994  29.514  32.376  1.00  0.00     0.049 A 
ATOM     74  H   UNL A   1      41.584  27.969  32.574  1.00  0.00     0.167 HD
ATOM     75  C   UNL A   1      43.168  30.810  34.372  1.00  0.00     0.074 A 
ATOM     76  C   UNL A   1      43.722  31.464  35.547  1.00  0.00     0.031 C 
ATOM     77  C   UNL A   1      43.387  29.599  33.772  1.00  0.00     0.034 A 
BRANCH  64  78
ATOM     78  C   UNL A   1      40.651  27.196  28.828  1.00  0.00     0.023 A 
ATOM     79  C   UNL A   1      41.652  27.422  27.860  1.00  0.00     0.031 A 
ATOM     80  C   UNL A   1      39.767  26.140  28.542  1.00  0.00     0.131 A 
ATOM     81  C   UNL A   1      41.704  26.697  26.661  1.00  0.00     0.055 A 
ATOM     82  C   UNL A   1      39.796  25.431  27.331  1.00  0.00     0.041 A 
ATOM     83  F   UNL A   1      38.865  25.705  29.430  1.00  0.00    -0.206 F 
ATOM     84  C   UNL A   1      40.765  25.712  26.378  1.00  0.00     0.022 A 
BRANCH  81  85
ATOM     85  S   UNL A   1      43.029  27.068  25.486  1.00  0.00     0.124 S 
ATOM     86  O   UNL A   1      44.059  27.630  26.354  1.00  0.00    -0.237 OA
ATOM     87  O   UNL A   1      43.311  25.757  24.912  1.00  0.00    -0.237 OA
ATOM     88  O   UNL A   1      42.408  28.022  24.567  1.00  0.00    -0.744 OA
ENDBRANCH  81  85
ENDBRANCH  64  78
BRANCH  65  89
ATOM     89  C   UNL A   1      40.365  34.588  35.217  1.00  0.00     0.023 A 
ATOM     90  C   UNL A   1      39.366  33.680  35.635  1.00  0.00     0.031 A 
ATOM     91  C   UNL A   1      40.566  35.740  35.992  1.00  0.00     0.131 A 
ATOM     92  C   UNL A   1      38.776  33.813  36.902  1.00  0.00     0.055 A 
ATOM     93  C   UNL A   1      39.909  35.909  37.220  1.00  0.00     0.041 A 
ATOM     94  F   UNL A   1      41.502  36.639  35.656  1.00  0.00    -0.206 F 
ATOM     95  C   UNL A   1      39.061  34.914  37.709  1.00  0.00     0.022 A 
BRANCH  92  96
ATOM     96  S   UNL A   1      37.892  32.384  37.601  1.00  0.00     0.124 S 
ATOM     97  O   UNL A   1      38.724  32.037  38.747  1.00  0.00    -0.237 OA
ATOM     98  O   UNL A   1      36.579  32.943  37.917  1.00  0.00    -0.237 OA
ATOM     99  O   UNL A   1      37.881  31.413  36.507  1.00  0.00    -0.744 OA
ENDBRANCH  92  96
ENDBRANCH  65  89
BRANCH  77 100
ATOM    100  C   UNL A   1      44.076  28.408  34.408  1.00  0.00     0.023 A 
ATOM    101  C   UNL A   1      43.387  27.452  35.158  1.00  0.00     0.031 A 
ATOM    102  C   UNL A   1      45.457  28.145  34.214  1.00  0.00     0.131 A 
ATOM    103  C   UNL A   1      44.058  26.387  35.777  1.00  0.00     0.055 A 
ATOM    104  C   UNL A   1      46.102  27.019  34.733  1.00  0.00     0.041 A 
ATOM    105  F   UNL A   1      46.250  28.957  33.500  1.00  0.00    -0.206 F 
ATOM    106  C   UNL A   1      45.408  26.142  35.548  1.00  0.00     0.022 A 
BRANCH 103 107
ATOM    107  S   UNL A   1      43.131  25.405  36.979  1.00  0.00     0.124 S 
ATOM    108  O   UNL A   1      42.339  24.540  36.107  1.00  0.00    -0.237 OA
ATOM    109  O   UNL A   1      44.192  24.742  37.729  1.00  0.00    -0.237 OA
ATOM    110  O   UNL A   1      42.368  26.403  37.722  1.00  0.00    -0.744 OA
ENDBRANCH 103 107
ENDBRANCH  77 100
ENDBRANCH  51  52
ENDBRANCH  43  46
ENDBRANCH  41  42
ENDBRANCH  40  41
ENDBRANCH  39  40
ENDBRANCH  38  39
ENDBRANCH  37  38
ENDBRANCH   1  37
TORSDOF 23
ENDMDL
MODEL 3
REMARK VINA RESULT:     -11.9      1.535      2.121
REMARK SMILES Cc1ccc(S(=O)(=O)n2cc(C(=O)C(=O)NCC(=O)NCC(=O)NCCCCCCNC(=O)c3ccc(-c4c5nc(c(-c6cc(S(=O)(=O)[O-])ccc6F)c6ccc([nH]6)c(-c6cc(S(=O)(=O)[O-])ccc6F)c6nc(c(-c7cc(S(=O)(=O)[O-])ccc7F)c7ccc4[nH]7)C=C6)C=C5)cc3)c3ccccc32)cc1
REMARK SMILES IDX 25 1 24 2 22 3 23 4 21 6 20 7 18 8 19 9 17 11 16 12 14 13
REMARK SMILES IDX 15 14 12 16 13 17 11 18 9 19 10 20 102 21 97 22 101 23 98 24
REMARK SMILES IDX 100 25 99 26 6 27 7 28 8 29 5 30 1 31 2 32 3 33 104 34 4 35
REMARK SMILES IDX 103 36 26 37 27 38 28 39 29 40 30 41 31 42 32 43 33 45 34 46
REMARK SMILES IDX 35 47 96 48 36 49 95 50 37 51 38 52 39 53 89 54 40 55 94 56
REMARK SMILES IDX 88 57 90 58 41 59 93 60 87 61 86 62 42 64 74 65 54 66 73 67
REMARK SMILES IDX 55 68 58 69 72 70 91 71 56 72 57 73 71 75 92 76 59 77 43 78
REMARK SMILES IDX 44 79 52 80 45 81 51 82 53 83 50 84 46 85 47 86 48 87 49 88
REMARK SMILES IDX 75 89 76 90 84 91 77 92 83 93 85 94 82 95 78 96 79 97 80 98
REMARK SMILES IDX 81 99 60 100 61 101 69 102 62 103 68 104 70 105 67 106
REMARK SMILES IDX 63 107 64 108 65 109 66 110
REMARK H PARENT 24 5 20 10 16 15 31 44 90 63 58 74
REMARK Flexibility Score: inf
ROOT
ATOM      1  C   UNL A   1      34.220  33.135  29.425  1.00  0.00     0.116 C 
ENDROOT
BRANCH   1   2
ATOM      2  N   UNL A   1      35.090  32.127  28.865  1.00  0.00    -0.355 N 
ATOM      3  C   UNL A   1      34.834  31.225  27.874  1.00  0.00     0.239 C 
ATOM      4  O   UNL A   1      35.788  30.635  27.359  1.00  0.00    -0.273 OA
ATOM      5  H   UNL A   1      35.995  32.086  29.252  1.00  0.00     0.163 HD
BRANCH   3   6
ATOM      6  C   UNL A   1      33.423  31.077  27.277  1.00  0.00     0.216 C 
BRANCH   6   7
ATOM      7  N   UNL A   1      32.821  29.759  27.392  1.00  0.00    -0.346 N 
ATOM      8  C   UNL A   1      32.244  28.958  26.454  1.00  0.00     0.239 C 
ATOM      9  O   UNL A   1      31.850  27.847  26.815  1.00  0.00    -0.273 OA
ATOM     10  H   UNL A   1      32.830  29.383  28.301  1.00  0.00     0.164 HD
BRANCH   8  11
ATOM     11  C   UNL A   1      32.161  29.362  24.972  1.00  0.00     0.216 C 
BRANCH  11  12
ATOM     12  N   UNL A   1      33.430  29.458  24.245  1.00  0.00    -0.340 N 
ATOM     13  C   UNL A   1      33.990  28.673  23.258  1.00  0.00     0.292 C 
ATOM     14  O   UNL A   1      35.087  28.979  22.804  1.00  0.00    -0.265 OA
ATOM     15  H   UNL A   1      33.986  30.226  24.511  1.00  0.00     0.164 HD
BRANCH  13  16
ATOM     16  C   UNL A   1      33.242  27.439  22.715  1.00  0.00     0.252 C 
ATOM     17  O   UNL A   1      33.390  27.166  21.527  1.00  0.00    -0.283 OA
BRANCH  16  18
ATOM     18  C   UNL A   1      32.390  26.581  23.552  1.00  0.00     0.054 A 
ATOM     19  N   UNL A   1      31.605  24.996  24.916  1.00  0.00    -0.240 N 
ATOM     20  C   UNL A   1      32.748  25.509  24.352  1.00  0.00     0.117 A 
ATOM     21  C   UNL A   1      30.489  25.704  24.521  1.00  0.00     0.065 A 
ATOM     22  C   UNL A   1      30.958  26.706  23.664  1.00  0.00     0.012 A 
ATOM     23  C   UNL A   1      29.116  25.551  24.799  1.00  0.00     0.028 A 
ATOM     24  C   UNL A   1      30.017  27.587  23.083  1.00  0.00     0.011 A 
ATOM     25  C   UNL A   1      28.213  26.423  24.183  1.00  0.00     0.002 A 
ATOM     26  C   UNL A   1      28.656  27.432  23.340  1.00  0.00     0.001 A 
BRANCH  19  27
ATOM     27  S   UNL A   1      31.561  23.586  25.875  1.00  0.00     0.268 S 
ATOM     28  O   UNL A   1      30.453  22.807  25.364  1.00  0.00    -0.201 OA
ATOM     29  O   UNL A   1      31.620  24.038  27.256  1.00  0.00    -0.201 OA
BRANCH  27  30
ATOM     30  C   UNL A   1      33.047  22.661  25.566  1.00  0.00     0.088 A 
ATOM     31  C   UNL A   1      36.720  20.448  25.202  1.00  0.00     0.044 C 
ATOM     32  C   UNL A   1      35.440  21.225  25.310  1.00  0.00    -0.051 A 
ATOM     33  C   UNL A   1      35.415  22.434  26.015  1.00  0.00     0.005 A 
ATOM     34  C   UNL A   1      34.263  20.760  24.710  1.00  0.00     0.005 A 
ATOM     35  C   UNL A   1      34.224  23.148  26.149  1.00  0.00     0.022 A 
ATOM     36  C   UNL A   1      33.069  21.479  24.824  1.00  0.00     0.022 A 
ENDBRANCH  27  30
ENDBRANCH  19  27
ENDBRANCH  16  18
ENDBRANCH  13  16
ENDBRANCH  11  12
ENDBRANCH   8  11
ENDBRANCH   6   7
ENDBRANCH   3   6
ENDBRANCH   1   2
BRANCH   1  37
ATOM     37  C   UNL A   1      34.322  34.488  28.741  1.00  0.00     0.021 C 
BRANCH  37  38
ATOM     38  C   UNL A   1      33.157  35.430  29.037  1.00  0.00     0.002 C 
BRANCH  38  39
ATOM     39  C   UNL A   1      33.431  36.528  30.077  1.00  0.00     0.002 C 
BRANCH  39  40
ATOM     40  C   UNL A   1      32.457  36.599  31.250  1.00  0.00     0.021 C 
BRANCH  40  41
ATOM     41  C   UNL A   1      32.599  35.469  32.254  1.00  0.00     0.116 C 
BRANCH  41  42
ATOM     42  N   UNL A   1      33.574  35.708  33.308  1.00  0.00    -0.352 N 
ATOM     43  C   UNL A   1      34.678  34.953  33.674  1.00  0.00     0.251 C 
ATOM     44  H   UNL A   1      33.429  36.526  33.838  1.00  0.00     0.163 HD
ATOM     45  O   UNL A   1      35.263  35.144  34.736  1.00  0.00    -0.269 OA
BRANCH  43  46
ATOM     46  C   UNL A   1      35.303  34.054  32.667  1.00  0.00     0.039 A 
ATOM     47  C   UNL A   1      35.210  32.680  32.944  1.00  0.00     0.014 A 
ATOM     48  C   UNL A   1      36.268  34.528  31.792  1.00  0.00     0.014 A 
ATOM     49  C   UNL A   1      36.278  31.856  32.632  1.00  0.00     0.010 A 
ATOM     50  C   UNL A   1      37.395  33.769  31.628  1.00  0.00     0.010 A 
ATOM     51  C   UNL A   1      37.412  32.461  32.108  1.00  0.00    -0.014 A 
BRANCH  51  52
ATOM     52  C   UNL A   1      38.692  31.810  31.976  1.00  0.00     0.031 A 
ATOM     53  C   UNL A   1      38.708  30.559  31.213  1.00  0.00     0.074 A 
ATOM     54  C   UNL A   1      39.785  32.459  32.427  1.00  0.00     0.049 A 
ATOM     55  N   UNL A   1      39.525  29.593  31.415  1.00  0.00    -0.248 NA
ATOM     56  C   UNL A   1      37.706  30.258  30.190  1.00  0.00     0.031 C 
ATOM     57  C   UNL A   1      41.189  32.182  32.162  1.00  0.00     0.029 A 
ATOM     58  N   UNL A   1      39.813  33.439  33.418  1.00  0.00    -0.354 N 
ATOM     59  C   UNL A   1      39.401  28.742  30.339  1.00  0.00     0.074 A 
ATOM     60  C   UNL A   1      38.161  29.100  29.706  1.00  0.00     0.031 C 
ATOM     61  C   UNL A   1      41.936  32.763  33.122  1.00  0.00     0.029 A 
ATOM     62  C   UNL A   1      41.022  33.302  34.117  1.00  0.00     0.049 A 
ATOM     63  H   UNL A   1      39.111  34.107  33.593  1.00  0.00     0.167 HD
ATOM     64  C   UNL A   1      40.475  27.985  29.987  1.00  0.00     0.034 A 
ATOM     65  C   UNL A   1      40.994  32.932  35.434  1.00  0.00     0.034 A 
ATOM     66  C   UNL A   1      41.585  28.260  30.897  1.00  0.00     0.049 A 
ATOM     67  C   UNL A   1      41.572  31.548  35.637  1.00  0.00     0.074 A 
ATOM     68  C   UNL A   1      42.670  29.116  30.792  1.00  0.00     0.029 A 
ATOM     69  N   UNL A   1      41.467  27.926  32.236  1.00  0.00    -0.354 N 
ATOM     70  N   UNL A   1      41.620  30.632  34.707  1.00  0.00    -0.248 NA
ATOM     71  C   UNL A   1      42.191  31.117  36.883  1.00  0.00     0.031 C 
ATOM     72  C   UNL A   1      43.164  29.345  32.101  1.00  0.00     0.029 A 
ATOM     73  C   UNL A   1      42.400  28.607  32.990  1.00  0.00     0.049 A 
ATOM     74  H   UNL A   1      40.810  27.291  32.599  1.00  0.00     0.167 HD
ATOM     75  C   UNL A   1      42.267  29.522  35.189  1.00  0.00     0.074 A 
ATOM     76  C   UNL A   1      42.613  29.884  36.554  1.00  0.00     0.031 C 
ATOM     77  C   UNL A   1      42.473  28.404  34.427  1.00  0.00     0.034 A 
BRANCH  64  78
ATOM     78  C   UNL A   1      40.669  27.285  28.665  1.00  0.00     0.023 A 
ATOM     79  C   UNL A   1      40.970  25.908  28.692  1.00  0.00     0.031 A 
ATOM     80  C   UNL A   1      40.604  27.861  27.382  1.00  0.00     0.131 A 
ATOM     81  C   UNL A   1      41.267  25.188  27.525  1.00  0.00     0.055 A 
ATOM     82  C   UNL A   1      40.929  27.152  26.215  1.00  0.00     0.041 A 
ATOM     83  F   UNL A   1      40.181  29.114  27.184  1.00  0.00    -0.206 F 
ATOM     84  C   UNL A   1      41.270  25.809  26.282  1.00  0.00     0.022 A 
BRANCH  81  85
ATOM     85  S   UNL A   1      41.642  23.424  27.674  1.00  0.00     0.124 S 
ATOM     86  O   UNL A   1      40.341  22.812  27.421  1.00  0.00    -0.237 OA
ATOM     87  O   UNL A   1      42.657  23.235  26.643  1.00  0.00    -0.237 OA
ATOM     88  O   UNL A   1      42.128  23.296  29.047  1.00  0.00    -0.744 OA
ENDBRANCH  81  85
ENDBRANCH  64  78
BRANCH  65  89
ATOM     89  C   UNL A   1      39.812  33.508  36.155  1.00  0.00     0.023 A 
ATOM     90  C   UNL A   1      38.863  32.581  36.644  1.00  0.00     0.031 A 
ATOM     91  C   UNL A   1      39.870  34.768  36.767  1.00  0.00     0.131 A 
ATOM     92  C   UNL A   1      38.183  32.835  37.846  1.00  0.00     0.055 A 
ATOM     93  C   UNL A   1      39.124  35.046  37.922  1.00  0.00     0.041 A 
ATOM     94  F   UNL A   1      40.752  35.691  36.356  1.00  0.00    -0.206 F 
ATOM     95  C   UNL A   1      38.327  34.057  38.502  1.00  0.00     0.022 A 
BRANCH  92  96
ATOM     96  S   UNL A   1      37.371  31.444  38.692  1.00  0.00     0.124 S 
ATOM     97  O   UNL A   1      38.124  31.361  39.939  1.00  0.00    -0.237 OA
ATOM     98  O   UNL A   1      35.990  31.906  38.815  1.00  0.00    -0.237 OA
ATOM     99  O   UNL A   1      37.547  30.324  37.768  1.00  0.00    -0.744 OA
ENDBRANCH  92  96
ENDBRANCH  65  89
BRANCH  77 100
ATOM    100  C   UNL A   1      42.854  27.033  34.949  1.00  0.00     0.023 A 
ATOM    101  C   UNL A   1      44.166  26.694  35.284  1.00  0.00     0.031 A 
ATOM    102  C   UNL A   1      41.884  26.030  35.209  1.00  0.00     0.131 A 
ATOM    103  C   UNL A   1      44.499  25.402  35.719  1.00  0.00     0.055 A 
ATOM    104  C   UNL A   1      42.201  24.782  35.754  1.00  0.00     0.041 A 
ATOM    105  F   UNL A   1      40.579  26.211  34.962  1.00  0.00    -0.206 F 
ATOM    106  C   UNL A   1      43.523  24.448  35.986  1.00  0.00     0.022 A 
BRANCH 103 107
ATOM    107  S   UNL A   1      46.254  24.980  35.810  1.00  0.00     0.124 S 
ATOM    108  O   UNL A   1      46.579  24.757  34.403  1.00  0.00    -0.237 OA
ATOM    109  O   UNL A   1      46.834  26.178  36.409  1.00  0.00    -0.237 OA
ATOM    110  O   UNL A   1      46.278  23.786  36.650  1.00  0.00    -0.744 OA
ENDBRANCH 103 107
ENDBRANCH  77 100
ENDBRANCH  51  52
ENDBRANCH  43  46
ENDBRANCH  41  42
ENDBRANCH  40  41
ENDBRANCH  39  40
ENDBRANCH  38  39
ENDBRANCH  37  38
ENDBRANCH   1  37
TORSDOF 23
ENDMDL
