MODEL 1
REMARK VINA RESULT:     -11.1      0.000      0.000
REMARK SMILES CC(C)[C@@H]([NH3+])C(=O)N[C@@H](C)C(=O)N1CCC[C@@H]1C(=O)NCC(=O)NCCCCCCNC(=O)c1ccc(-c2c3nc(c(-c4cc(S(=O)(=O)[O-])ccc4F)c4ccc([nH]4)c(-c4cc(S(=O)(=O)[O-])ccc4F)c4nc(c(-c5cc(S(=O)(=O)[O-])ccc5F)c5ccc2[nH]5)C=C4)C=C3)cc1
REMARK SMILES IDX 25 1 24 2 22 3 23 4 21 6 20 7 18 8 19 9 17 11 13 12 14 13
REMARK SMILES IDX 15 14 16 15 11 16 12 17 9 18 10 19 8 20 6 21 7 22 4 24 2 25
REMARK SMILES IDX 1 26 3 27 5 28 26 32 27 33 28 34 29 35 30 36 31 37 32 38
REMARK SMILES IDX 33 40 34 41 35 42 96 43 36 44 95 45 37 46 38 47 39 48 89 49
REMARK SMILES IDX 40 50 94 51 88 52 90 53 41 54 93 55 87 56 86 57 42 59 74 60
REMARK SMILES IDX 54 61 73 62 55 63 58 64 72 65 91 66 56 67 57 68 71 70 92 71
REMARK SMILES IDX 59 72 43 73 44 74 52 75 45 76 51 77 53 78 50 79 46 80 47 81
REMARK SMILES IDX 48 82 49 83 75 84 76 85 84 86 77 87 83 88 85 89 82 90 78 91
REMARK SMILES IDX 79 92 80 93 81 94 60 95 61 96 69 97 62 98 68 99 70 100
REMARK SMILES IDX 67 101 63 102 64 103 65 104 66 105
REMARK H PARENT 24 5 20 10 8 23 5 29 5 30 5 31 31 39 90 58 58 69
REMARK Flexibility Score: inf
ROOT
ATOM      1  C   UNL A   1      29.882  25.789  25.575  1.00  0.00     0.116 C 
ENDROOT
BRANCH   1   2
ATOM      2  N   UNL A   1      29.463  24.782  26.515  1.00  0.00    -0.355 N 
ATOM      3  C   UNL A   1      30.025  23.565  26.752  1.00  0.00     0.239 C 
ATOM      4  O   UNL A   1      29.588  22.903  27.698  1.00  0.00    -0.273 OA
ATOM      5  H   UNL A   1      28.669  25.000  27.055  1.00  0.00     0.163 HD
BRANCH   3   6
ATOM      6  C   UNL A   1      31.305  23.133  26.019  1.00  0.00     0.216 C 
BRANCH   6   7
ATOM      7  N   UNL A   1      32.320  22.418  26.774  1.00  0.00    -0.345 N 
ATOM      8  C   UNL A   1      33.685  22.404  26.722  1.00  0.00     0.243 C 
ATOM      9  O   UNL A   1      34.220  21.462  27.322  1.00  0.00    -0.273 OA
ATOM     10  H   UNL A   1      31.949  21.823  27.464  1.00  0.00     0.164 HD
BRANCH   8  11
ATOM     11  C   UNL A   1      34.556  23.341  25.831  1.00  0.00     0.174 C 
ATOM     12  N   UNL A   1      34.906  22.823  24.510  1.00  0.00    -0.329 N 
ATOM     13  C   UNL A   1      36.342  22.852  24.290  1.00  0.00     0.120 C 
ATOM     14  C   UNL A   1      36.941  22.957  25.684  1.00  0.00     0.024 C 
ATOM     15  C   UNL A   1      35.892  23.746  26.461  1.00  0.00     0.037 C 
BRANCH  12  16
ATOM     16  C   UNL A   1      33.893  22.681  23.587  1.00  0.00     0.245 C 
ATOM     17  O   UNL A   1      33.304  23.684  23.166  1.00  0.00    -0.272 OA
BRANCH  16  18
ATOM     18  C   UNL A   1      33.272  21.299  23.314  1.00  0.00     0.168 C 
ATOM     19  C   UNL A   1      32.080  21.495  22.378  1.00  0.00     0.041 C 
BRANCH  18  20
ATOM     20  N   UNL A   1      32.871  20.456  24.429  1.00  0.00    -0.339 N 
ATOM     21  C   UNL A   1      32.667  19.104  24.412  1.00  0.00     0.279 C 
ATOM     22  O   UNL A   1      32.173  18.586  25.417  1.00  0.00    -0.268 OA
ATOM     23  H   UNL A   1      32.729  20.909  25.291  1.00  0.00     0.164 HD
BRANCH  21  24
ATOM     24  C   UNL A   1      33.075  18.228  23.188  1.00  0.00     0.273 C 
BRANCH  24  25
ATOM     25  C   UNL A   1      34.078  17.091  23.510  1.00  0.00     0.051 C 
ATOM     26  C   UNL A   1      35.188  17.524  24.474  1.00  0.00     0.014 C 
ATOM     27  C   UNL A   1      33.363  15.859  24.073  1.00  0.00     0.014 C 
ENDBRANCH  24  25
BRANCH  24  28
ATOM     28  N   UNL A   1      31.842  17.734  22.540  1.00  0.00    -0.347 N 
ATOM     29  H   UNL A   1      31.054  17.854  23.176  1.00  0.00     0.345 HD
ATOM     30  H   UNL A   1      31.950  16.746  22.314  1.00  0.00     0.345 HD
ATOM     31  H   UNL A   1      31.672  18.263  21.685  1.00  0.00     0.345 HD
ENDBRANCH  24  28
ENDBRANCH  21  24
ENDBRANCH  18  20
ENDBRANCH  16  18
ENDBRANCH  12  16
ENDBRANCH   8  11
ENDBRANCH   6   7
ENDBRANCH   3   6
ENDBRANCH   1   2
BRANCH   1  32
ATOM     32  C   UNL A   1      30.831  26.792  26.209  1.00  0.00     0.021 C 
BRANCH  32  33
ATOM     33  C   UNL A   1      32.292  26.482  25.887  1.00  0.00     0.002 C 
BRANCH  33  34
ATOM     34  C   UNL A   1      33.293  27.447  26.535  1.00  0.00     0.002 C 
BRANCH  34  35
ATOM     35  C   UNL A   1      32.772  28.875  26.722  1.00  0.00     0.021 C 
BRANCH  35  36
ATOM     36  C   UNL A   1      33.604  29.933  26.008  1.00  0.00     0.116 C 
BRANCH  36  37
ATOM     37  N   UNL A   1      33.418  31.245  26.607  1.00  0.00    -0.352 N 
ATOM     38  C   UNL A   1      34.069  31.810  27.675  1.00  0.00     0.251 C 
ATOM     39  H   UNL A   1      32.728  31.808  26.187  1.00  0.00     0.163 HD
ATOM     40  O   UNL A   1      33.621  32.816  28.205  1.00  0.00    -0.269 OA
BRANCH  38  41
ATOM     41  C   UNL A   1      35.304  31.173  28.177  1.00  0.00     0.039 A 
ATOM     42  C   UNL A   1      36.525  31.825  28.000  1.00  0.00     0.014 A 
ATOM     43  C   UNL A   1      35.246  29.936  28.828  1.00  0.00     0.014 A 
ATOM     44  C   UNL A   1      37.686  31.261  28.530  1.00  0.00     0.010 A 
ATOM     45  C   UNL A   1      36.390  29.416  29.419  1.00  0.00     0.010 A 
ATOM     46  C   UNL A   1      37.623  30.070  29.270  1.00  0.00    -0.014 A 
BRANCH  46  47
ATOM     47  C   UNL A   1      38.836  29.471  29.882  1.00  0.00     0.031 A 
ATOM     48  C   UNL A   1      39.315  29.964  31.221  1.00  0.00     0.074 A 
ATOM     49  C   UNL A   1      39.535  28.537  29.209  1.00  0.00     0.049 A 
ATOM     50  N   UNL A   1      40.405  29.658  31.874  1.00  0.00    -0.248 NA
ATOM     51  C   UNL A   1      38.464  30.955  31.898  1.00  0.00     0.031 C 
ATOM     52  C   UNL A   1      39.178  27.996  27.896  1.00  0.00     0.029 A 
ATOM     53  N   UNL A   1      40.699  27.883  29.530  1.00  0.00    -0.354 N 
ATOM     54  C   UNL A   1      40.376  30.423  33.035  1.00  0.00     0.074 A 
ATOM     55  C   UNL A   1      39.196  31.258  32.959  1.00  0.00     0.031 C 
ATOM     56  C   UNL A   1      40.089  27.076  27.537  1.00  0.00     0.029 A 
ATOM     57  C   UNL A   1      41.123  27.000  28.563  1.00  0.00     0.049 A 
ATOM     58  H   UNL A   1      41.184  28.031  30.374  1.00  0.00     0.167 HD
ATOM     59  C   UNL A   1      41.239  30.410  34.081  1.00  0.00     0.034 A 
ATOM     60  C   UNL A   1      42.230  26.234  28.504  1.00  0.00     0.034 A 
ATOM     61  C   UNL A   1      42.409  29.568  34.141  1.00  0.00     0.049 A 
ATOM     62  C   UNL A   1      43.210  26.285  29.652  1.00  0.00     0.074 A 
ATOM     63  C   UNL A   1      43.337  29.454  35.160  1.00  0.00     0.029 A 
ATOM     64  N   UNL A   1      42.813  28.698  33.136  1.00  0.00    -0.354 N 
ATOM     65  N   UNL A   1      43.155  26.993  30.756  1.00  0.00    -0.248 NA
ATOM     66  C   UNL A   1      44.398  25.427  29.548  1.00  0.00     0.031 C 
ATOM     67  C   UNL A   1      44.339  28.570  34.745  1.00  0.00     0.029 A 
ATOM     68  C   UNL A   1      43.992  28.065  33.502  1.00  0.00     0.049 A 
ATOM     69  H   UNL A   1      42.334  28.551  32.289  1.00  0.00     0.167 HD
ATOM     70  C   UNL A   1      44.277  26.630  31.496  1.00  0.00     0.074 A 
ATOM     71  C   UNL A   1      44.985  25.637  30.716  1.00  0.00     0.031 C 
ATOM     72  C   UNL A   1      44.683  27.072  32.715  1.00  0.00     0.034 A 
BRANCH  59  73
ATOM     73  C   UNL A   1      40.955  31.350  35.228  1.00  0.00     0.023 A 
ATOM     74  C   UNL A   1      39.810  31.205  36.031  1.00  0.00     0.031 A 
ATOM     75  C   UNL A   1      41.824  32.419  35.510  1.00  0.00     0.131 A 
ATOM     76  C   UNL A   1      39.524  32.154  37.023  1.00  0.00     0.055 A 
ATOM     77  C   UNL A   1      41.578  33.311  36.556  1.00  0.00     0.041 A 
ATOM     78  F   UNL A   1      42.922  32.624  34.765  1.00  0.00    -0.206 F 
ATOM     79  C   UNL A   1      40.415  33.190  37.311  1.00  0.00     0.022 A 
BRANCH  76  80
ATOM     80  S   UNL A   1      37.901  32.097  37.831  1.00  0.00     0.124 S 
ATOM     81  O   UNL A   1      37.530  30.695  37.647  1.00  0.00    -0.237 OA
ATOM     82  O   UNL A   1      38.212  32.501  39.196  1.00  0.00    -0.237 OA
ATOM     83  O   UNL A   1      37.103  33.051  37.063  1.00  0.00    -0.744 OA
ENDBRANCH  76  80
ENDBRANCH  59  73
BRANCH  60  84
ATOM     84  C   UNL A   1      42.490  25.359  27.324  1.00  0.00     0.023 A 
ATOM     85  C   UNL A   1      42.024  24.035  27.294  1.00  0.00     0.031 A 
ATOM     86  C   UNL A   1      43.261  25.809  26.238  1.00  0.00     0.131 A 
ATOM     87  C   UNL A   1      42.386  23.188  26.236  1.00  0.00     0.055 A 
ATOM     88  C   UNL A   1      43.564  24.981  25.155  1.00  0.00     0.041 A 
ATOM     89  F   UNL A   1      43.731  27.066  26.211  1.00  0.00    -0.206 F 
ATOM     90  C   UNL A   1      43.141  23.656  25.158  1.00  0.00     0.022 A 
BRANCH  87  91
ATOM     91  S   UNL A   1      41.951  21.430  26.345  1.00  0.00     0.124 S 
ATOM     92  O   UNL A   1      40.547  21.449  25.949  1.00  0.00    -0.237 OA
ATOM     93  O   UNL A   1      42.879  20.830  25.394  1.00  0.00    -0.237 OA
ATOM     94  O   UNL A   1      42.201  21.106  27.747  1.00  0.00    -0.744 OA
ENDBRANCH  87  91
ENDBRANCH  60  84
BRANCH  72  95
ATOM     95  C   UNL A   1      45.914  26.430  33.308  1.00  0.00     0.023 A 
ATOM     96  C   UNL A   1      45.845  25.271  34.099  1.00  0.00     0.031 A 
ATOM     97  C   UNL A   1      47.181  26.992  33.066  1.00  0.00     0.131 A 
ATOM     98  C   UNL A   1      47.015  24.739  34.661  1.00  0.00     0.055 A 
ATOM     99  C   UNL A   1      48.348  26.421  33.574  1.00  0.00     0.041 A 
ATOM    100  F   UNL A   1      47.306  28.100  32.318  1.00  0.00    -0.206 F 
ATOM    101  C   UNL A   1      48.267  25.295  34.388  1.00  0.00     0.022 A 
BRANCH  98 102
ATOM    102  S   UNL A   1      46.872  23.354  35.824  1.00  0.00     0.124 S 
ATOM    103  O   UNL A   1      45.868  22.517  35.176  1.00  0.00    -0.237 OA
ATOM    104  O   UNL A   1      48.231  22.821  35.843  1.00  0.00    -0.237 OA
ATOM    105  O   UNL A   1      46.440  23.992  37.066  1.00  0.00    -0.744 OA
ENDBRANCH  98 102
ENDBRANCH  72  95
ENDBRANCH  46  47
ENDBRANCH  38  41
ENDBRANCH  36  37
ENDBRANCH  35  36
ENDBRANCH  34  35
ENDBRANCH  33  34
ENDBRANCH  32  33
ENDBRANCH   1  32
TORSDOF 24
ENDMDL
MODEL 2
REMARK VINA RESULT:     -10.7      1.273      2.499
REMARK SMILES CC(C)[C@@H]([NH3+])C(=O)N[C@@H](C)C(=O)N1CCC[C@@H]1C(=O)NCC(=O)NCCCCCCNC(=O)c1ccc(-c2c3nc(c(-c4cc(S(=O)(=O)[O-])ccc4F)c4ccc([nH]4)c(-c4cc(S(=O)(=O)[O-])ccc4F)c4nc(c(-c5cc(S(=O)(=O)[O-])ccc5F)c5ccc2[nH]5)C=C4)C=C3)cc1
REMARK SMILES IDX 25 1 24 2 22 3 23 4 21 6 20 7 18 8 19 9 17 11 13 12 14 13
REMARK SMILES IDX 15 14 16 15 11 16 12 17 9 18 10 19 8 20 6 21 7 22 4 24 2 25
REMARK SMILES IDX 1 26 3 27 5 28 26 32 27 33 28 34 29 35 30 36 31 37 32 38
REMARK SMILES IDX 33 40 34 41 35 42 96 43 36 44 95 45 37 46 38 47 39 48 89 49
REMARK SMILES IDX 40 50 94 51 88 52 90 53 41 54 93 55 87 56 86 57 42 59 74 60
REMARK SMILES IDX 54 61 73 62 55 63 58 64 72 65 91 66 56 67 57 68 71 70 92 71
REMARK SMILES IDX 59 72 43 73 44 74 52 75 45 76 51 77 53 78 50 79 46 80 47 81
REMARK SMILES IDX 48 82 49 83 75 84 76 85 84 86 77 87 83 88 85 89 82 90 78 91
REMARK SMILES IDX 79 92 80 93 81 94 60 95 61 96 69 97 62 98 68 99 70 100
REMARK SMILES IDX 67 101 63 102 64 103 65 104 66 105
REMARK H PARENT 24 5 20 10 8 23 5 29 5 30 5 31 31 39 90 58 58 69
REMARK Flexibility Score: inf
ROOT
ATOM      1  C   UNL A   1      29.679  25.582  25.743  1.00  0.00     0.116 C 
ENDROOT
BRANCH   1   2
ATOM      2  N   UNL A   1      29.313  24.615  26.746  1.00  0.00    -0.355 N 
ATOM      3  C   UNL A   1      29.926  23.438  27.044  1.00  0.00     0.239 C 
ATOM      4  O   UNL A   1      29.527  22.815  28.033  1.00  0.00    -0.273 OA
ATOM      5  H   UNL A   1      28.517  24.833  27.284  1.00  0.00     0.163 HD
BRANCH   3   6
ATOM      6  C   UNL A   1      31.214  23.014  26.319  1.00  0.00     0.216 C 
BRANCH   6   7
ATOM      7  N   UNL A   1      32.441  22.931  27.092  1.00  0.00    -0.345 N 
ATOM      8  C   UNL A   1      33.762  23.025  26.759  1.00  0.00     0.243 C 
ATOM      9  O   UNL A   1      34.549  22.621  27.625  1.00  0.00    -0.273 OA
ATOM     10  H   UNL A   1      32.290  22.775  28.052  1.00  0.00     0.164 HD
BRANCH   8  11
ATOM     11  C   UNL A   1      34.303  23.404  25.346  1.00  0.00     0.174 C 
ATOM     12  N   UNL A   1      34.669  22.286  24.480  1.00  0.00    -0.329 N 
ATOM     13  C   UNL A   1      36.033  22.414  23.993  1.00  0.00     0.120 C 
ATOM     14  C   UNL A   1      36.690  23.397  24.950  1.00  0.00     0.024 C 
ATOM     15  C   UNL A   1      35.541  24.307  25.368  1.00  0.00     0.037 C 
BRANCH  12  16
ATOM     16  C   UNL A   1      33.656  21.479  24.012  1.00  0.00     0.245 C 
ATOM     17  O   UNL A   1      33.693  20.262  24.230  1.00  0.00    -0.272 OA
BRANCH  16  18
ATOM     18  C   UNL A   1      32.657  22.006  22.965  1.00  0.00     0.168 C 
ATOM     19  C   UNL A   1      32.066  20.802  22.232  1.00  0.00     0.041 C 
BRANCH  18  20
ATOM     20  N   UNL A   1      33.090  22.994  21.989  1.00  0.00    -0.339 N 
ATOM     21  C   UNL A   1      32.671  24.290  21.885  1.00  0.00     0.279 C 
ATOM     22  O   UNL A   1      33.031  24.932  20.893  1.00  0.00    -0.268 OA
ATOM     23  H   UNL A   1      33.758  22.695  21.331  1.00  0.00     0.164 HD
BRANCH  21  24
ATOM     24  C   UNL A   1      31.799  24.963  22.990  1.00  0.00     0.273 C 
BRANCH  24  25
ATOM     25  C   UNL A   1      31.973  26.499  23.107  1.00  0.00     0.051 C 
ATOM     26  C   UNL A   1      33.441  26.937  23.143  1.00  0.00     0.014 C 
ATOM     27  C   UNL A   1      31.249  27.231  21.972  1.00  0.00     0.014 C 
ENDBRANCH  24  25
BRANCH  24  28
ATOM     28  N   UNL A   1      30.393  24.563  22.778  1.00  0.00    -0.347 N 
ATOM     29  H   UNL A   1      29.776  25.249  23.212  1.00  0.00     0.345 HD
ATOM     30  H   UNL A   1      30.233  23.648  23.198  1.00  0.00     0.345 HD
ATOM     31  H   UNL A   1      30.199  24.517  21.778  1.00  0.00     0.345 HD
ENDBRANCH  24  28
ENDBRANCH  21  24
ENDBRANCH  18  20
ENDBRANCH  16  18
ENDBRANCH  12  16
ENDBRANCH   8  11
ENDBRANCH   6   7
ENDBRANCH   3   6
ENDBRANCH   1   2
BRANCH   1  32
ATOM     32  C   UNL A   1      30.395  26.778  26.348  1.00  0.00     0.021 C 
BRANCH  32  33
ATOM     33  C   UNL A   1      31.880  26.501  26.575  1.00  0.00     0.002 C 
BRANCH  33  34
ATOM     34  C   UNL A   1      32.626  27.638  27.287  1.00  0.00     0.002 C 
BRANCH  34  35
ATOM     35  C   UNL A   1      32.214  29.045  26.845  1.00  0.00     0.021 C 
BRANCH  35  36
ATOM     36  C   UNL A   1      33.365  29.880  26.297  1.00  0.00     0.116 C 
BRANCH  36  37
ATOM     37  N   UNL A   1      33.256  31.269  26.714  1.00  0.00    -0.352 N 
ATOM     38  C   UNL A   1      33.984  31.951  27.656  1.00  0.00     0.251 C 
ATOM     39  H   UNL A   1      32.562  31.795  26.255  1.00  0.00     0.163 HD
ATOM     40  O   UNL A   1      33.600  33.038  28.060  1.00  0.00    -0.269 OA
BRANCH  38  41
ATOM     41  C   UNL A   1      35.224  31.342  28.178  1.00  0.00     0.039 A 
ATOM     42  C   UNL A   1      36.407  32.082  28.154  1.00  0.00     0.014 A 
ATOM     43  C   UNL A   1      35.209  30.044  28.698  1.00  0.00     0.014 A 
ATOM     44  C   UNL A   1      37.568  31.538  28.706  1.00  0.00     0.010 A 
ATOM     45  C   UNL A   1      36.345  29.535  29.314  1.00  0.00     0.010 A 
ATOM     46  C   UNL A   1      37.538  30.275  29.319  1.00  0.00    -0.014 A 
BRANCH  46  47
ATOM     47  C   UNL A   1      38.747  29.691  29.953  1.00  0.00     0.031 A 
ATOM     48  C   UNL A   1      39.212  30.210  31.286  1.00  0.00     0.074 A 
ATOM     49  C   UNL A   1      39.455  28.747  29.303  1.00  0.00     0.049 A 
ATOM     50  N   UNL A   1      40.297  29.918  31.955  1.00  0.00    -0.248 NA
ATOM     51  C   UNL A   1      38.352  31.211  31.937  1.00  0.00     0.031 C 
ATOM     52  C   UNL A   1      39.111  28.181  27.997  1.00  0.00     0.029 A 
ATOM     53  N   UNL A   1      40.617  28.102  29.647  1.00  0.00    -0.354 N 
ATOM     54  C   UNL A   1      40.256  30.705  33.101  1.00  0.00     0.074 A 
ATOM     55  C   UNL A   1      39.073  31.535  32.999  1.00  0.00     0.031 C 
ATOM     56  C   UNL A   1      40.027  27.256  27.663  1.00  0.00     0.029 A 
ATOM     57  C   UNL A   1      41.052  27.203  28.700  1.00  0.00     0.049 A 
ATOM     58  H   UNL A   1      41.094  28.267  30.492  1.00  0.00     0.167 HD
ATOM     59  C   UNL A   1      41.109  30.714  34.155  1.00  0.00     0.034 A 
ATOM     60  C   UNL A   1      42.162  26.439  28.665  1.00  0.00     0.034 A 
ATOM     61  C   UNL A   1      42.280  29.876  34.241  1.00  0.00     0.049 A 
ATOM     62  C   UNL A   1      43.132  26.513  29.821  1.00  0.00     0.074 A 
ATOM     63  C   UNL A   1      43.199  29.784  35.270  1.00  0.00     0.029 A 
ATOM     64  N   UNL A   1      42.696  28.989  33.256  1.00  0.00    -0.354 N 
ATOM     65  N   UNL A   1      43.064  27.241  30.912  1.00  0.00    -0.248 NA
ATOM     66  C   UNL A   1      44.322  25.657  29.744  1.00  0.00     0.031 C 
ATOM     67  C   UNL A   1      44.207  28.895  34.881  1.00  0.00     0.029 A 
ATOM     68  C   UNL A   1      43.873  28.366  33.644  1.00  0.00     0.049 A 
ATOM     69  H   UNL A   1      42.225  28.825  32.407  1.00  0.00     0.167 HD
ATOM     70  C   UNL A   1      44.181  26.896  31.668  1.00  0.00     0.074 A 
ATOM     71  C   UNL A   1      44.898  25.890  30.913  1.00  0.00     0.031 C 
ATOM     72  C   UNL A   1      44.574  27.361  32.882  1.00  0.00     0.034 A 
BRANCH  59  73
ATOM     73  C   UNL A   1      40.812  31.674  35.282  1.00  0.00     0.023 A 
ATOM     74  C   UNL A   1      39.719  31.478  36.145  1.00  0.00     0.031 A 
ATOM     75  C   UNL A   1      41.613  32.811  35.484  1.00  0.00     0.131 A 
ATOM     76  C   UNL A   1      39.412  32.441  37.117  1.00  0.00     0.055 A 
ATOM     77  C   UNL A   1      41.353  33.722  36.510  1.00  0.00     0.041 A 
ATOM     78  F   UNL A   1      42.657  33.065  34.679  1.00  0.00    -0.206 F 
ATOM     79  C   UNL A   1      40.238  33.548  37.325  1.00  0.00     0.022 A 
BRANCH  76  80
ATOM     80  S   UNL A   1      37.837  32.301  38.005  1.00  0.00     0.124 S 
ATOM     81  O   UNL A   1      37.550  30.874  37.871  1.00  0.00    -0.237 OA
ATOM     82  O   UNL A   1      38.186  32.759  39.344  1.00  0.00    -0.237 OA
ATOM     83  O   UNL A   1      36.942  33.182  37.257  1.00  0.00    -0.744 OA
ENDBRANCH  76  80
ENDBRANCH  59  73
BRANCH  60  84
ATOM     84  C   UNL A   1      42.435  25.543  27.504  1.00  0.00     0.023 A 
ATOM     85  C   UNL A   1      42.075  24.186  27.541  1.00  0.00     0.031 A 
ATOM     86  C   UNL A   1      43.117  26.010  26.366  1.00  0.00     0.131 A 
ATOM     87  C   UNL A   1      42.453  23.331  26.496  1.00  0.00     0.055 A 
ATOM     88  C   UNL A   1      43.434  25.168  25.298  1.00  0.00     0.041 A 
ATOM     89  F   UNL A   1      43.484  27.298  26.274  1.00  0.00    -0.206 F 
ATOM     90  C   UNL A   1      43.117  23.816  25.367  1.00  0.00     0.022 A 
BRANCH  87  91
ATOM     91  S   UNL A   1      42.165  21.550  26.686  1.00  0.00     0.124 S 
ATOM     92  O   UNL A   1      42.098  21.416  28.137  1.00  0.00    -0.237 OA
ATOM     93  O   UNL A   1      40.910  21.369  25.966  1.00  0.00    -0.237 OA
ATOM     94  O   UNL A   1      43.337  20.948  26.055  1.00  0.00    -0.744 OA
ENDBRANCH  87  91
ENDBRANCH  60  84
BRANCH  72  95
ATOM     95  C   UNL A   1      45.801  26.734  33.498  1.00  0.00     0.023 A 
ATOM     96  C   UNL A   1      45.728  25.589  34.309  1.00  0.00     0.031 A 
ATOM     97  C   UNL A   1      47.069  27.295  33.258  1.00  0.00     0.131 A 
ATOM     98  C   UNL A   1      46.894  25.070  34.890  1.00  0.00     0.055 A 
ATOM     99  C   UNL A   1      48.232  26.737  33.788  1.00  0.00     0.041 A 
ATOM    100  F   UNL A   1      47.198  28.391  32.493  1.00  0.00    -0.206 F 
ATOM    101  C   UNL A   1      48.147  25.625  34.620  1.00  0.00     0.022 A 
BRANCH  98 102
ATOM    102  S   UNL A   1      46.745  23.704  36.076  1.00  0.00     0.124 S 
ATOM    103  O   UNL A   1      47.794  24.023  37.038  1.00  0.00    -0.237 OA
ATOM    104  O   UNL A   1      45.374  23.853  36.553  1.00  0.00    -0.237 OA
ATOM    105  O   UNL A   1      46.991  22.515  35.262  1.00  0.00    -0.744 OA
ENDBRANCH  98 102
ENDBRANCH  72  95
ENDBRANCH  46  47
ENDBRANCH  38  41
ENDBRANCH  36  37
ENDBRANCH  35  36
ENDBRANCH  34  35
ENDBRANCH  33  34
ENDBRANCH  32  33
ENDBRANCH   1  32
TORSDOF 24
ENDMDL
MODEL 3
REMARK VINA RESULT:     -10.6      5.680     10.365
REMARK SMILES CC(C)[C@@H]([NH3+])C(=O)N[C@@H](C)C(=O)N1CCC[C@@H]1C(=O)NCC(=O)NCCCCCCNC(=O)c1ccc(-c2c3nc(c(-c4cc(S(=O)(=O)[O-])ccc4F)c4ccc([nH]4)c(-c4cc(S(=O)(=O)[O-])ccc4F)c4nc(c(-c5cc(S(=O)(=O)[O-])ccc5F)c5ccc2[nH]5)C=C4)C=C3)cc1
REMARK SMILES IDX 25 1 24 2 22 3 23 4 21 6 20 7 18 8 19 9 17 11 13 12 14 13
REMARK SMILES IDX 15 14 16 15 11 16 12 17 9 18 10 19 8 20 6 21 7 22 4 24 2 25
REMARK SMILES IDX 1 26 3 27 5 28 26 32 27 33 28 34 29 35 30 36 31 37 32 38
REMARK SMILES IDX 33 40 34 41 35 42 96 43 36 44 95 45 37 46 38 47 39 48 89 49
REMARK SMILES IDX 40 50 94 51 88 52 90 53 41 54 93 55 87 56 86 57 42 59 74 60
REMARK SMILES IDX 54 61 73 62 55 63 58 64 72 65 91 66 56 67 57 68 71 70 92 71
REMARK SMILES IDX 59 72 43 73 44 74 52 75 45 76 51 77 53 78 50 79 46 80 47 81
REMARK SMILES IDX 48 82 49 83 75 84 76 85 84 86 77 87 83 88 85 89 82 90 78 91
REMARK SMILES IDX 79 92 80 93 81 94 60 95 61 96 69 97 62 98 68 99 70 100
REMARK SMILES IDX 67 101 63 102 64 103 65 104 66 105
REMARK H PARENT 24 5 20 10 8 23 5 29 5 30 5 31 31 39 90 58 58 69
REMARK Flexibility Score: inf
ROOT
ATOM      1  C   UNL A   1      37.890  22.273  25.723  1.00  0.00     0.116 C 
ENDROOT
BRANCH   1   2
ATOM      2  N   UNL A   1      37.444  22.279  24.353  1.00  0.00    -0.355 N 
ATOM      3  C   UNL A   1      36.466  23.037  23.789  1.00  0.00     0.239 C 
ATOM      4  O   UNL A   1      36.329  22.983  22.563  1.00  0.00    -0.273 OA
ATOM      5  H   UNL A   1      37.906  21.654  23.747  1.00  0.00     0.163 HD
BRANCH   3   6
ATOM      6  C   UNL A   1      35.715  24.095  24.614  1.00  0.00     0.216 C 
BRANCH   6   7
ATOM      7  N   UNL A   1      34.805  24.989  23.919  1.00  0.00    -0.345 N 
ATOM      8  C   UNL A   1      33.534  25.414  24.179  1.00  0.00     0.243 C 
ATOM      9  O   UNL A   1      32.957  25.951  23.224  1.00  0.00    -0.273 OA
ATOM     10  H   UNL A   1      35.181  25.365  23.091  1.00  0.00     0.164 HD
BRANCH   8  11
ATOM     11  C   UNL A   1      32.734  25.099  25.480  1.00  0.00     0.174 C 
ATOM     12  N   UNL A   1      31.521  24.302  25.309  1.00  0.00    -0.329 N 
ATOM     13  C   UNL A   1      30.364  24.962  25.890  1.00  0.00     0.120 C 
ATOM     14  C   UNL A   1      30.779  26.420  26.019  1.00  0.00     0.024 C 
ATOM     15  C   UNL A   1      32.283  26.340  26.258  1.00  0.00     0.037 C 
BRANCH  12  16
ATOM     16  C   UNL A   1      31.667  22.986  24.932  1.00  0.00     0.245 C 
ATOM     17  O   UNL A   1      30.976  22.533  24.011  1.00  0.00    -0.272 OA
BRANCH  16  18
ATOM     18  C   UNL A   1      32.432  21.995  25.829  1.00  0.00     0.168 C 
ATOM     19  C   UNL A   1      32.557  22.619  27.218  1.00  0.00     0.041 C 
BRANCH  18  20
ATOM     20  N   UNL A   1      33.733  21.499  25.408  1.00  0.00    -0.339 N 
ATOM     21  C   UNL A   1      34.071  20.205  25.123  1.00  0.00     0.279 C 
ATOM     22  O   UNL A   1      35.265  19.952  24.938  1.00  0.00    -0.268 OA
ATOM     23  H   UNL A   1      34.448  22.168  25.320  1.00  0.00     0.164 HD
BRANCH  21  24
ATOM     24  C   UNL A   1      32.994  19.084  24.995  1.00  0.00     0.273 C 
BRANCH  24  25
ATOM     25  C   UNL A   1      33.297  18.016  23.913  1.00  0.00     0.051 C 
ATOM     26  C   UNL A   1      33.168  16.580  24.434  1.00  0.00     0.014 C 
ATOM     27  C   UNL A   1      32.400  18.197  22.685  1.00  0.00     0.014 C 
ENDBRANCH  24  25
BRANCH  24  28
ATOM     28  N   UNL A   1      32.777  18.496  26.333  1.00  0.00    -0.347 N 
ATOM     29  H   UNL A   1      33.560  18.736  26.940  1.00  0.00     0.345 HD
ATOM     30  H   UNL A   1      32.708  17.482  26.251  1.00  0.00     0.345 HD
ATOM     31  H   UNL A   1      31.913  18.864  26.731  1.00  0.00     0.345 HD
ENDBRANCH  24  28
ENDBRANCH  21  24
ENDBRANCH  18  20
ENDBRANCH  16  18
ENDBRANCH  12  16
ENDBRANCH   8  11
ENDBRANCH   6   7
ENDBRANCH   3   6
ENDBRANCH   1   2
BRANCH   1  32
ATOM     32  C   UNL A   1      39.272  21.659  25.864  1.00  0.00     0.021 C 
BRANCH  32  33
ATOM     33  C   UNL A   1      40.040  22.242  27.049  1.00  0.00     0.002 C 
BRANCH  33  34
ATOM     34  C   UNL A   1      41.119  21.310  27.615  1.00  0.00     0.002 C 
BRANCH  34  35
ATOM     35  C   UNL A   1      41.285  19.992  26.854  1.00  0.00     0.021 C 
BRANCH  35  36
ATOM     36  C   UNL A   1      42.610  19.287  27.123  1.00  0.00     0.116 C 
BRANCH  36  37
ATOM     37  N   UNL A   1      43.352  19.068  25.892  1.00  0.00    -0.352 N 
ATOM     38  C   UNL A   1      43.908  19.988  25.040  1.00  0.00     0.251 C 
ATOM     39  H   UNL A   1      43.474  18.126  25.634  1.00  0.00     0.163 HD
ATOM     40  O   UNL A   1      44.278  19.648  23.926  1.00  0.00    -0.269 OA
BRANCH  38  41
ATOM     41  C   UNL A   1      44.035  21.390  25.487  1.00  0.00     0.039 A 
ATOM     42  C   UNL A   1      44.813  21.677  26.611  1.00  0.00     0.014 A 
ATOM     43  C   UNL A   1      43.392  22.416  24.787  1.00  0.00     0.014 A 
ATOM     44  C   UNL A   1      44.991  23.005  27.000  1.00  0.00     0.010 A 
ATOM     45  C   UNL A   1      43.633  23.740  25.131  1.00  0.00     0.010 A 
ATOM     46  C   UNL A   1      44.430  24.048  26.245  1.00  0.00    -0.014 A 
BRANCH  46  47
ATOM     47  C   UNL A   1      44.641  25.471  26.611  1.00  0.00     0.031 A 
ATOM     48  C   UNL A   1      46.000  26.091  26.436  1.00  0.00     0.074 A 
ATOM     49  C   UNL A   1      43.633  26.179  27.155  1.00  0.00     0.049 A 
ATOM     50  N   UNL A   1      46.423  27.275  26.795  1.00  0.00    -0.248 NA
ATOM     51  C   UNL A   1      47.027  25.253  25.796  1.00  0.00     0.031 C 
ATOM     52  C   UNL A   1      42.277  25.678  27.391  1.00  0.00     0.029 A 
ATOM     53  N   UNL A   1      43.593  27.470  27.620  1.00  0.00    -0.354 N 
ATOM     54  C   UNL A   1      47.765  27.322  26.433  1.00  0.00     0.074 A 
ATOM     55  C   UNL A   1      48.100  26.022  25.891  1.00  0.00     0.031 C 
ATOM     56  C   UNL A   1      41.533  26.658  27.931  1.00  0.00     0.029 A 
ATOM     57  C   UNL A   1      42.369  27.837  28.133  1.00  0.00     0.049 A 
ATOM     58  H   UNL A   1      44.366  28.078  27.587  1.00  0.00     0.167 HD
ATOM     59  C   UNL A   1      48.630  28.362  26.518  1.00  0.00     0.034 A 
ATOM     60  C   UNL A   1      41.974  28.985  28.717  1.00  0.00     0.034 A 
ATOM     61  C   UNL A   1      48.277  29.653  27.058  1.00  0.00     0.049 A 
ATOM     62  C   UNL A   1      42.975  30.108  28.860  1.00  0.00     0.074 A 
ATOM     63  C   UNL A   1      49.064  30.785  27.169  1.00  0.00     0.029 A 
ATOM     64  N   UNL A   1      47.032  29.981  27.581  1.00  0.00    -0.354 N 
ATOM     65  N   UNL A   1      44.233  30.148  28.487  1.00  0.00    -0.248 NA
ATOM     66  C   UNL A   1      42.498  31.343  29.496  1.00  0.00     0.031 C 
ATOM     67  C   UNL A   1      48.320  31.774  27.822  1.00  0.00     0.029 A 
ATOM     68  C   UNL A   1      47.041  31.289  28.041  1.00  0.00     0.049 A 
ATOM     69  H   UNL A   1      46.258  29.375  27.620  1.00  0.00     0.167 HD
ATOM     70  C   UNL A   1      44.682  31.427  28.803  1.00  0.00     0.074 A 
ATOM     71  C   UNL A   1      43.559  32.128  29.389  1.00  0.00     0.031 C 
ATOM     72  C   UNL A   1      45.910  31.976  28.618  1.00  0.00     0.034 A 
BRANCH  59  73
ATOM     73  C   UNL A   1      50.042  28.134  26.036  1.00  0.00     0.023 A 
ATOM     74  C   UNL A   1      50.424  28.426  24.714  1.00  0.00     0.031 A 
ATOM     75  C   UNL A   1      51.015  27.595  26.896  1.00  0.00     0.131 A 
ATOM     76  C   UNL A   1      51.715  28.108  24.269  1.00  0.00     0.055 A 
ATOM     77  C   UNL A   1      52.324  27.361  26.471  1.00  0.00     0.041 A 
ATOM     78  F   UNL A   1      50.707  27.274  28.162  1.00  0.00    -0.206 F 
ATOM     79  C   UNL A   1      52.677  27.603  25.147  1.00  0.00     0.022 A 
BRANCH  76  80
ATOM     80  S   UNL A   1      52.072  28.224  22.495  1.00  0.00     0.124 S 
ATOM     81  O   UNL A   1      51.276  29.390  22.112  1.00  0.00    -0.237 OA
ATOM     82  O   UNL A   1      53.518  28.404  22.474  1.00  0.00    -0.237 OA
ATOM     83  O   UNL A   1      51.592  26.950  21.964  1.00  0.00    -0.744 OA
ENDBRANCH  76  80
ENDBRANCH  59  73
BRANCH  60  84
ATOM     84  C   UNL A   1      40.580  29.144  29.224  1.00  0.00     0.023 A 
ATOM     85  C   UNL A   1      40.309  29.125  30.602  1.00  0.00     0.031 A 
ATOM     86  C   UNL A   1      39.491  29.252  28.342  1.00  0.00     0.131 A 
ATOM     87  C   UNL A   1      38.982  29.146  31.056  1.00  0.00     0.055 A 
ATOM     88  C   UNL A   1      38.174  29.339  28.801  1.00  0.00     0.041 A 
ATOM     89  F   UNL A   1      39.689  29.278  27.014  1.00  0.00    -0.206 F 
ATOM     90  C   UNL A   1      37.913  29.269  30.165  1.00  0.00     0.022 A 
BRANCH  87  91
ATOM     91  S   UNL A   1      38.668  28.897  32.824  1.00  0.00     0.124 S 
ATOM     92  O   UNL A   1      39.974  28.449  33.295  1.00  0.00    -0.237 OA
ATOM     93  O   UNL A   1      38.254  30.229  33.249  1.00  0.00    -0.237 OA
ATOM     94  O   UNL A   1      37.616  27.883  32.842  1.00  0.00    -0.744 OA
ENDBRANCH  87  91
ENDBRANCH  60  84
BRANCH  72  95
ATOM     95  C   UNL A   1      46.081  33.429  28.992  1.00  0.00     0.023 A 
ATOM     96  C   UNL A   1      45.867  34.468  28.070  1.00  0.00     0.031 A 
ATOM     97  C   UNL A   1      46.458  33.775  30.303  1.00  0.00     0.131 A 
ATOM     98  C   UNL A   1      46.079  35.799  28.457  1.00  0.00     0.055 A 
ATOM     99  C   UNL A   1      46.606  35.104  30.699  1.00  0.00     0.041 A 
ATOM    100  F   UNL A   1      46.678  32.823  31.224  1.00  0.00    -0.206 F 
ATOM    101  C   UNL A   1      46.428  36.125  29.770  1.00  0.00     0.022 A 
BRANCH  98 102
ATOM    102  S   UNL A   1      45.973  37.102  27.199  1.00  0.00     0.124 S 
ATOM    103  O   UNL A   1      46.796  38.155  27.782  1.00  0.00    -0.237 OA
ATOM    104  O   UNL A   1      46.522  36.442  26.019  1.00  0.00    -0.237 OA
ATOM    105  O   UNL A   1      44.543  37.398  27.132  1.00  0.00    -0.744 OA
ENDBRANCH  98 102
ENDBRANCH  72  95
ENDBRANCH  46  47
ENDBRANCH  38  41
ENDBRANCH  36  37
ENDBRANCH  35  36
ENDBRANCH  34  35
ENDBRANCH  33  34
ENDBRANCH  32  33
ENDBRANCH   1  32
TORSDOF 24
ENDMDL
