MODEL 1
REMARK VINA RESULT:     -12.0      0.000      0.000
REMARK SMILES O=C(NCCCCCCNC(=O)[C@H]1CN(S(=O)(=O)c2ccc(Cl)nc2)c2ccccc21)c1ccc(-c2c3nc(c(-c4cc(S(=O)(=O)[O-])ccc4F)c4ccc([nH]4)c(-c4cc(S(=O)(=O)[O-])ccc4F)c4nc(c(-c5cc(S(=O)(=O)[O-])ccc5F)c5ccc2[nH]5)C=C4)C=C3)cc1
REMARK SMILES IDX 6 1 5 2 4 3 3 4 1 5 2 6 32 8 33 9 94 10 34 11 93 12 35 13
REMARK SMILES IDX 36 14 37 15 87 16 38 17 92 18 86 19 88 20 39 21 91 22 85 23
REMARK SMILES IDX 84 24 40 26 72 27 52 28 71 29 53 30 56 31 70 32 89 33 54 34
REMARK SMILES IDX 55 35 69 37 90 38 57 39 41 40 42 41 50 42 43 43 49 44 51 45
REMARK SMILES IDX 48 46 44 47 45 48 46 49 47 50 73 51 74 52 82 53 75 54 81 55
REMARK SMILES IDX 83 56 80 57 76 58 77 59 78 60 79 61 58 62 59 63 67 64 60 65
REMARK SMILES IDX 66 66 68 67 65 68 61 69 62 70 63 71 64 72 7 73 8 74 9 75
REMARK SMILES IDX 10 76 11 77 12 79 13 80 14 81 31 82 15 83 26 84 30 85 27 86
REMARK SMILES IDX 29 87 28 88 16 89 17 90 18 91 19 92 20 93 25 94 21 95 24 96
REMARK SMILES IDX 22 97 23 98
REMARK H PARENT 3 7 88 25 56 36 10 78
REMARK Flexibility Score: inf
ROOT
ATOM      1  C   UNL A   1      35.581  21.414  24.745  1.00  0.00     0.002 C 
ENDROOT
BRANCH   1   2
ATOM      2  C   UNL A   1      36.113  22.827  24.480  1.00  0.00     0.021 C 
BRANCH   2   3
ATOM      3  C   UNL A   1      37.027  23.374  25.571  1.00  0.00     0.116 C 
BRANCH   3   4
ATOM      4  N   UNL A   1      38.027  22.396  25.969  1.00  0.00    -0.352 N 
ATOM      5  O   UNL A   1      40.084  21.655  26.496  1.00  0.00    -0.269 OA
ATOM      6  C   UNL A   1      39.294  22.594  26.451  1.00  0.00     0.251 C 
ATOM      7  H   UNL A   1      37.753  21.454  25.880  1.00  0.00     0.163 HD
BRANCH   6   8
ATOM      8  C   UNL A   1      39.707  23.936  26.911  1.00  0.00     0.039 A 
ATOM      9  C   UNL A   1      39.563  24.308  28.251  1.00  0.00     0.014 A 
ATOM     10  C   UNL A   1      40.286  24.817  25.994  1.00  0.00     0.014 A 
ATOM     11  C   UNL A   1      39.904  25.595  28.656  1.00  0.00     0.010 A 
ATOM     12  C   UNL A   1      40.689  26.085  26.416  1.00  0.00     0.010 A 
ATOM     13  C   UNL A   1      40.485  26.490  27.746  1.00  0.00    -0.014 A 
BRANCH  13  14
ATOM     14  C   UNL A   1      40.920  27.836  28.195  1.00  0.00     0.031 A 
ATOM     15  C   UNL A   1      42.381  28.162  28.319  1.00  0.00     0.074 A 
ATOM     16  C   UNL A   1      39.989  28.751  28.525  1.00  0.00     0.049 A 
ATOM     17  N   UNL A   1      42.953  29.237  28.795  1.00  0.00    -0.248 NA
ATOM     18  C   UNL A   1      43.321  27.130  27.858  1.00  0.00     0.031 C 
ATOM     19  C   UNL A   1      38.542  28.547  28.436  1.00  0.00     0.029 A 
ATOM     20  N   UNL A   1      40.117  30.026  29.012  1.00  0.00    -0.354 N 
ATOM     21  C   UNL A   1      44.322  29.008  28.710  1.00  0.00     0.074 A 
ATOM     22  C   UNL A   1      44.488  27.673  28.172  1.00  0.00     0.031 C 
ATOM     23  C   UNL A   1      37.917  29.658  28.848  1.00  0.00     0.029 A 
ATOM     24  C   UNL A   1      38.913  30.626  29.296  1.00  0.00     0.049 A 
ATOM     25  H   UNL A   1      40.986  30.469  29.147  1.00  0.00     0.167 HD
ATOM     26  C   UNL A   1      45.341  29.841  29.045  1.00  0.00     0.034 A 
ATOM     27  C   UNL A   1      38.637  31.802  29.890  1.00  0.00     0.034 A 
ATOM     28  C   UNL A   1      45.145  31.164  29.593  1.00  0.00     0.049 A 
ATOM     29  C   UNL A   1      39.778  32.684  30.318  1.00  0.00     0.074 A 
ATOM     30  C   UNL A   1      46.099  32.102  29.948  1.00  0.00     0.029 A 
ATOM     31  N   UNL A   1      43.909  31.731  29.885  1.00  0.00    -0.354 N 
ATOM     32  N   UNL A   1      41.069  32.464  30.227  1.00  0.00    -0.248 NA
ATOM     33  C   UNL A   1      39.428  33.973  30.926  1.00  0.00     0.031 C 
ATOM     34  C   UNL A   1      45.446  33.200  30.521  1.00  0.00     0.029 A 
ATOM     35  C   UNL A   1      44.078  32.988  30.445  1.00  0.00     0.049 A 
ATOM     36  H   UNL A   1      43.038  31.301  29.718  1.00  0.00     0.167 HD
ATOM     37  C   UNL A   1      41.687  33.601  30.734  1.00  0.00     0.074 A 
ATOM     38  C   UNL A   1      40.625  34.505  31.133  1.00  0.00     0.031 C 
ATOM     39  C   UNL A   1      43.011  33.878  30.846  1.00  0.00     0.034 A 
BRANCH  26  40
ATOM     40  C   UNL A   1      46.749  29.312  28.880  1.00  0.00     0.023 A 
ATOM     41  C   UNL A   1      47.350  29.188  27.614  1.00  0.00     0.031 A 
ATOM     42  C   UNL A   1      47.481  28.874  29.997  1.00  0.00     0.131 A 
ATOM     43  C   UNL A   1      48.595  28.552  27.487  1.00  0.00     0.055 A 
ATOM     44  C   UNL A   1      48.760  28.327  29.874  1.00  0.00     0.041 A 
ATOM     45  F   UNL A   1      46.956  28.947  31.230  1.00  0.00    -0.206 F 
ATOM     46  C   UNL A   1      49.316  28.144  28.611  1.00  0.00     0.022 A 
BRANCH  43  47
ATOM     47  S   UNL A   1      49.171  28.102  25.826  1.00  0.00     0.124 S 
ATOM     48  O   UNL A   1      47.986  28.373  25.015  1.00  0.00    -0.237 OA
ATOM     49  O   UNL A   1      50.299  29.005  25.626  1.00  0.00    -0.237 OA
ATOM     50  O   UNL A   1      49.517  26.688  25.952  1.00  0.00    -0.744 OA
ENDBRANCH  43  47
ENDBRANCH  26  40
BRANCH  27  51
ATOM     51  C   UNL A   1      37.221  32.183  30.147  1.00  0.00     0.023 A 
ATOM     52  C   UNL A   1      36.469  32.882  29.190  1.00  0.00     0.031 A 
ATOM     53  C   UNL A   1      36.593  31.834  31.357  1.00  0.00     0.131 A 
ATOM     54  C   UNL A   1      35.139  33.230  29.470  1.00  0.00     0.055 A 
ATOM     55  C   UNL A   1      35.256  32.139  31.609  1.00  0.00     0.041 A 
ATOM     56  F   UNL A   1      37.267  31.158  32.301  1.00  0.00    -0.206 F 
ATOM     57  C   UNL A   1      34.522  32.849  30.665  1.00  0.00     0.022 A 
BRANCH  54  58
ATOM     58  S   UNL A   1      34.232  34.235  28.264  1.00  0.00     0.124 S 
ATOM     59  O   UNL A   1      35.210  34.364  27.189  1.00  0.00    -0.237 OA
ATOM     60  O   UNL A   1      33.072  33.398  27.979  1.00  0.00    -0.237 OA
ATOM     61  O   UNL A   1      33.943  35.467  28.995  1.00  0.00    -0.744 OA
ENDBRANCH  54  58
ENDBRANCH  27  51
BRANCH  39  62
ATOM     62  C   UNL A   1      43.388  35.244  31.365  1.00  0.00     0.023 A 
ATOM     63  C   UNL A   1      43.606  36.337  30.509  1.00  0.00     0.031 A 
ATOM     64  C   UNL A   1      43.516  35.452  32.751  1.00  0.00     0.131 A 
ATOM     65  C   UNL A   1      43.976  37.580  31.045  1.00  0.00     0.055 A 
ATOM     66  C   UNL A   1      43.831  36.703  33.282  1.00  0.00     0.041 A 
ATOM     67  F   UNL A   1      43.323  34.441  33.614  1.00  0.00    -0.206 F 
ATOM     68  C   UNL A   1      44.071  37.774  32.426  1.00  0.00     0.022 A 
BRANCH  65  69
ATOM     69  S   UNL A   1      44.398  38.933  29.913  1.00  0.00     0.124 S 
ATOM     70  O   UNL A   1      43.206  39.010  29.074  1.00  0.00    -0.237 OA
ATOM     71  O   UNL A   1      44.608  40.052  30.826  1.00  0.00    -0.237 OA
ATOM     72  O   UNL A   1      45.602  38.453  29.237  1.00  0.00    -0.744 OA
ENDBRANCH  65  69
ENDBRANCH  39  62
ENDBRANCH  13  14
ENDBRANCH   6   8
ENDBRANCH   3   4
ENDBRANCH   2   3
ENDBRANCH   1   2
BRANCH   1  73
ATOM     73  C   UNL A   1      34.118  21.336  25.204  1.00  0.00     0.002 C 
BRANCH  73  74
ATOM     74  C   UNL A   1      33.861  21.814  26.635  1.00  0.00     0.021 C 
BRANCH  74  75
ATOM     75  C   UNL A   1      33.249  23.208  26.710  1.00  0.00     0.116 C 
BRANCH  75  76
ATOM     76  N   UNL A   1      31.888  23.199  27.209  1.00  0.00    -0.356 N 
ATOM     77  C   UNL A   1      30.737  23.726  26.711  1.00  0.00     0.229 C 
ATOM     78  H   UNL A   1      31.776  22.724  28.065  1.00  0.00     0.163 HD
ATOM     79  O   UNL A   1      29.699  23.473  27.336  1.00  0.00    -0.274 OA
BRANCH  77  80
ATOM     80  C   UNL A   1      30.669  24.668  25.519  1.00  0.00     0.131 C 
ATOM     81  C   UNL A   1      31.249  26.038  25.886  1.00  0.00     0.154 C 
ATOM     82  C   UNL A   1      31.442  24.297  24.289  1.00  0.00    -0.009 A 
ATOM     83  N   UNL A   1      32.538  26.184  25.110  1.00  0.00    -0.265 N 
ATOM     84  C   UNL A   1      32.492  25.197  24.065  1.00  0.00     0.056 A 
ATOM     85  C   UNL A   1      31.283  23.145  23.525  1.00  0.00     0.007 A 
ATOM     86  C   UNL A   1      33.479  24.868  23.149  1.00  0.00     0.027 A 
ATOM     87  C   UNL A   1      32.246  22.854  22.561  1.00  0.00     0.000 A 
ATOM     88  C   UNL A   1      33.344  23.701  22.386  1.00  0.00     0.002 A 
BRANCH  83  89
ATOM     89  S   UNL A   1      32.925  27.811  24.812  1.00  0.00     0.265 S 
ATOM     90  O   UNL A   1      33.010  28.494  26.091  1.00  0.00    -0.201 OA
ATOM     91  O   UNL A   1      34.063  27.816  23.918  1.00  0.00    -0.201 OA
BRANCH  89  92
ATOM     92  C   UNL A   1      31.572  28.489  23.927  1.00  0.00     0.106 A 
ATOM     93  C   UNL A   1      30.849  29.568  24.437  1.00  0.00     0.027 A 
ATOM     94  C   UNL A   1      31.229  27.966  22.693  1.00  0.00     0.135 A 
ATOM     95  C   UNL A   1      29.753  30.039  23.720  1.00  0.00     0.042 A 
ATOM     96  N   UNL A   1      30.173  28.413  21.976  1.00  0.00    -0.243 NA
ATOM     97  C   UNL A   1      29.459  29.430  22.511  1.00  0.00     0.129 A 
ATOM     98  Cl  UNL A   1      28.112  29.933  21.582  1.00  0.00    -0.062 Cl
ENDBRANCH  89  92
ENDBRANCH  83  89
ENDBRANCH  77  80
ENDBRANCH  75  76
ENDBRANCH  74  75
ENDBRANCH  73  74
ENDBRANCH   1  73
TORSDOF 18
ENDMDL
MODEL 2
REMARK VINA RESULT:     -12.0      5.179      8.473
REMARK SMILES O=C(NCCCCCCNC(=O)[C@H]1CN(S(=O)(=O)c2ccc(Cl)nc2)c2ccccc21)c1ccc(-c2c3nc(c(-c4cc(S(=O)(=O)[O-])ccc4F)c4ccc([nH]4)c(-c4cc(S(=O)(=O)[O-])ccc4F)c4nc(c(-c5cc(S(=O)(=O)[O-])ccc5F)c5ccc2[nH]5)C=C4)C=C3)cc1
REMARK SMILES IDX 6 1 5 2 4 3 3 4 1 5 2 6 32 8 33 9 94 10 34 11 93 12 35 13
REMARK SMILES IDX 36 14 37 15 87 16 38 17 92 18 86 19 88 20 39 21 91 22 85 23
REMARK SMILES IDX 84 24 40 26 72 27 52 28 71 29 53 30 56 31 70 32 89 33 54 34
REMARK SMILES IDX 55 35 69 37 90 38 57 39 41 40 42 41 50 42 43 43 49 44 51 45
REMARK SMILES IDX 48 46 44 47 45 48 46 49 47 50 73 51 74 52 82 53 75 54 81 55
REMARK SMILES IDX 83 56 80 57 76 58 77 59 78 60 79 61 58 62 59 63 67 64 60 65
REMARK SMILES IDX 66 66 68 67 65 68 61 69 62 70 63 71 64 72 7 73 8 74 9 75
REMARK SMILES IDX 10 76 11 77 12 79 13 80 14 81 31 82 15 83 26 84 30 85 27 86
REMARK SMILES IDX 29 87 28 88 16 89 17 90 18 91 19 92 20 93 25 94 21 95 24 96
REMARK SMILES IDX 22 97 23 98
REMARK H PARENT 3 7 88 25 56 36 10 78
REMARK Flexibility Score: inf
ROOT
ATOM      1  C   UNL A   1      31.289  30.107  25.775  1.00  0.00     0.002 C 
ENDROOT
BRANCH   1   2
ATOM      2  C   UNL A   1      31.317  31.611  26.064  1.00  0.00     0.021 C 
BRANCH   2   3
ATOM      3  C   UNL A   1      32.545  32.085  26.834  1.00  0.00     0.116 C 
BRANCH   3   4
ATOM      4  N   UNL A   1      32.411  33.472  27.249  1.00  0.00    -0.352 N 
ATOM      5  O   UNL A   1      32.645  35.241  28.619  1.00  0.00    -0.269 OA
ATOM      6  C   UNL A   1      33.064  34.148  28.247  1.00  0.00     0.251 C 
ATOM      7  H   UNL A   1      31.758  34.003  26.739  1.00  0.00     0.163 HD
BRANCH   6   8
ATOM      8  C   UNL A   1      34.266  33.559  28.873  1.00  0.00     0.039 A 
ATOM      9  C   UNL A   1      35.541  34.051  28.575  1.00  0.00     0.014 A 
ATOM     10  C   UNL A   1      34.108  32.529  29.804  1.00  0.00     0.014 A 
ATOM     11  C   UNL A   1      36.665  33.447  29.130  1.00  0.00     0.010 A 
ATOM     12  C   UNL A   1      35.233  31.969  30.411  1.00  0.00     0.010 A 
ATOM     13  C   UNL A   1      36.522  32.412  30.065  1.00  0.00    -0.014 A 
BRANCH  13  14
ATOM     14  C   UNL A   1      37.717  31.820  30.716  1.00  0.00     0.031 A 
ATOM     15  C   UNL A   1      38.532  30.777  30.006  1.00  0.00     0.074 A 
ATOM     16  C   UNL A   1      38.041  32.202  31.966  1.00  0.00     0.049 A 
ATOM     17  N   UNL A   1      39.538  30.069  30.448  1.00  0.00    -0.248 NA
ATOM     18  C   UNL A   1      38.151  30.485  28.617  1.00  0.00     0.031 C 
ATOM     19  C   UNL A   1      37.325  33.212  32.748  1.00  0.00     0.029 A 
ATOM     20  N   UNL A   1      39.043  31.781  32.802  1.00  0.00    -0.354 N 
ATOM     21  C   UNL A   1      39.903  29.231  29.400  1.00  0.00     0.074 A 
ATOM     22  C   UNL A   1      38.981  29.497  28.315  1.00  0.00     0.031 C 
ATOM     23  C   UNL A   1      37.913  33.337  33.945  1.00  0.00     0.029 A 
ATOM     24  C   UNL A   1      39.001  32.369  34.044  1.00  0.00     0.049 A 
ATOM     25  H   UNL A   1      39.724  31.121  32.539  1.00  0.00     0.167 HD
ATOM     26  C   UNL A   1      40.918  28.331  29.352  1.00  0.00     0.034 A 
ATOM     27  C   UNL A   1      39.726  32.130  35.152  1.00  0.00     0.034 A 
ATOM     28  C   UNL A   1      41.816  28.076  30.456  1.00  0.00     0.049 A 
ATOM     29  C   UNL A   1      40.802  31.080  35.103  1.00  0.00     0.074 A 
ATOM     30  C   UNL A   1      42.891  27.207  30.513  1.00  0.00     0.029 A 
ATOM     31  N   UNL A   1      41.731  28.680  31.707  1.00  0.00    -0.354 N 
ATOM     32  N   UNL A   1      41.146  30.298  34.106  1.00  0.00    -0.248 NA
ATOM     33  C   UNL A   1      41.591  30.881  36.325  1.00  0.00     0.031 C 
ATOM     34  C   UNL A   1      43.406  27.227  31.815  1.00  0.00     0.029 A 
ATOM     35  C   UNL A   1      42.711  28.176  32.549  1.00  0.00     0.049 A 
ATOM     36  H   UNL A   1      41.070  29.366  31.958  1.00  0.00     0.167 HD
ATOM     37  C   UNL A   1      42.214  29.538  34.568  1.00  0.00     0.074 A 
ATOM     38  C   UNL A   1      42.457  29.954  35.936  1.00  0.00     0.031 C 
ATOM     39  C   UNL A   1      42.937  28.593  33.915  1.00  0.00     0.034 A 
BRANCH  26  40
ATOM     40  C   UNL A   1      41.064  27.521  28.082  1.00  0.00     0.023 A 
ATOM     41  C   UNL A   1      40.675  26.170  28.016  1.00  0.00     0.031 A 
ATOM     42  C   UNL A   1      41.650  28.089  26.937  1.00  0.00     0.131 A 
ATOM     43  C   UNL A   1      40.967  25.411  26.872  1.00  0.00     0.055 A 
ATOM     44  C   UNL A   1      41.852  27.353  25.768  1.00  0.00     0.041 A 
ATOM     45  F   UNL A   1      42.061  29.367  26.943  1.00  0.00    -0.206 F 
ATOM     46  C   UNL A   1      41.529  26.000  25.737  1.00  0.00     0.022 A 
BRANCH  43  47
ATOM     47  S   UNL A   1      40.768  23.609  26.956  1.00  0.00     0.124 S 
ATOM     48  O   UNL A   1      41.205  23.324  28.321  1.00  0.00    -0.237 OA
ATOM     49  O   UNL A   1      39.344  23.434  26.694  1.00  0.00    -0.237 OA
ATOM     50  O   UNL A   1      41.662  23.115  25.911  1.00  0.00    -0.744 OA
ENDBRANCH  43  47
ENDBRANCH  26  40
BRANCH  27  51
ATOM     51  C   UNL A   1      39.421  32.873  36.407  1.00  0.00     0.023 A 
ATOM     52  C   UNL A   1      38.532  32.358  37.361  1.00  0.00     0.031 A 
ATOM     53  C   UNL A   1      40.037  34.110  36.674  1.00  0.00     0.131 A 
ATOM     54  C   UNL A   1      38.264  33.089  38.528  1.00  0.00     0.055 A 
ATOM     55  C   UNL A   1      39.804  34.809  37.858  1.00  0.00     0.041 A 
ATOM     56  F   UNL A   1      40.901  34.641  35.795  1.00  0.00    -0.206 F 
ATOM     57  C   UNL A   1      38.907  34.302  38.791  1.00  0.00     0.022 A 
BRANCH  54  58
ATOM     58  S   UNL A   1      37.021  32.454  39.685  1.00  0.00     0.124 S 
ATOM     59  O   UNL A   1      37.234  33.308  40.848  1.00  0.00    -0.237 OA
ATOM     60  O   UNL A   1      35.780  32.670  38.949  1.00  0.00    -0.237 OA
ATOM     61  O   UNL A   1      37.401  31.054  39.861  1.00  0.00    -0.744 OA
ENDBRANCH  54  58
ENDBRANCH  27  51
BRANCH  39  62
ATOM     62  C   UNL A   1      44.106  27.987  34.654  1.00  0.00     0.023 A 
ATOM     63  C   UNL A   1      43.984  26.814  35.417  1.00  0.00     0.031 A 
ATOM     64  C   UNL A   1      45.372  28.598  34.574  1.00  0.00     0.131 A 
ATOM     65  C   UNL A   1      45.101  26.308  36.101  1.00  0.00     0.055 A 
ATOM     66  C   UNL A   1      46.490  28.060  35.211  1.00  0.00     0.041 A 
ATOM     67  F   UNL A   1      45.543  29.724  33.861  1.00  0.00    -0.206 F 
ATOM     68  C   UNL A   1      46.356  26.913  35.987  1.00  0.00     0.022 A 
BRANCH  65  69
ATOM     69  S   UNL A   1      44.883  24.880  37.199  1.00  0.00     0.124 S 
ATOM     70  O   UNL A   1      43.879  25.370  38.138  1.00  0.00    -0.237 OA
ATOM     71  O   UNL A   1      44.441  23.840  36.277  1.00  0.00    -0.237 OA
ATOM     72  O   UNL A   1      46.215  24.678  37.767  1.00  0.00    -0.744 OA
ENDBRANCH  65  69
ENDBRANCH  39  62
ENDBRANCH  13  14
ENDBRANCH   6   8
ENDBRANCH   3   4
ENDBRANCH   2   3
ENDBRANCH   1   2
BRANCH   1  73
ATOM     73  C   UNL A   1      30.782  29.712  24.381  1.00  0.00     0.002 C 
BRANCH  73  74
ATOM     74  C   UNL A   1      31.815  29.020  23.487  1.00  0.00     0.021 C 
BRANCH  74  75
ATOM     75  C   UNL A   1      31.202  28.023  22.511  1.00  0.00     0.116 C 
BRANCH  75  76
ATOM     76  N   UNL A   1      29.877  27.588  22.908  1.00  0.00    -0.356 N 
ATOM     77  C   UNL A   1      29.461  26.574  23.714  1.00  0.00     0.229 C 
ATOM     78  H   UNL A   1      29.146  28.125  22.526  1.00  0.00     0.163 HD
ATOM     79  O   UNL A   1      28.245  26.507  23.932  1.00  0.00    -0.274 OA
BRANCH  77  80
ATOM     80  C   UNL A   1      30.369  25.484  24.262  1.00  0.00     0.131 C 
ATOM     81  C   UNL A   1      31.059  24.736  23.117  1.00  0.00     0.154 C 
ATOM     82  C   UNL A   1      31.519  25.903  25.128  1.00  0.00    -0.009 A 
ATOM     83  N   UNL A   1      32.525  25.097  23.186  1.00  0.00    -0.265 N 
ATOM     84  C   UNL A   1      32.743  25.647  24.497  1.00  0.00     0.056 A 
ATOM     85  C   UNL A   1      31.443  26.597  26.332  1.00  0.00     0.007 A 
ATOM     86  C   UNL A   1      33.899  26.214  25.010  1.00  0.00     0.027 A 
ATOM     87  C   UNL A   1      32.619  27.108  26.876  1.00  0.00     0.000 A 
ATOM     88  C   UNL A   1      33.836  26.932  26.210  1.00  0.00     0.002 A 
BRANCH  83  89
ATOM     89  S   UNL A   1      33.516  23.882  22.529  1.00  0.00     0.265 S 
ATOM     90  O   UNL A   1      33.055  23.609  21.179  1.00  0.00    -0.201 OA
ATOM     91  O   UNL A   1      34.886  24.291  22.752  1.00  0.00    -0.201 OA
BRANCH  89  92
ATOM     92  C   UNL A   1      33.243  22.445  23.495  1.00  0.00     0.106 A 
ATOM     93  C   UNL A   1      33.793  22.322  24.772  1.00  0.00     0.027 A 
ATOM     94  C   UNL A   1      32.450  21.426  22.998  1.00  0.00     0.135 A 
ATOM     95  C   UNL A   1      33.587  21.142  25.479  1.00  0.00     0.042 A 
ATOM     96  N   UNL A   1      32.231  20.273  23.671  1.00  0.00    -0.243 NA
ATOM     97  C   UNL A   1      32.810  20.158  24.888  1.00  0.00     0.129 A 
ATOM     98  Cl  UNL A   1      32.533  18.667  25.682  1.00  0.00    -0.062 Cl
ENDBRANCH  89  92
ENDBRANCH  83  89
ENDBRANCH  77  80
ENDBRANCH  75  76
ENDBRANCH  74  75
ENDBRANCH  73  74
ENDBRANCH   1  73
TORSDOF 18
ENDMDL
MODEL 3
REMARK VINA RESULT:     -11.9      5.494      8.551
REMARK SMILES O=C(NCCCCCCNC(=O)[C@H]1CN(S(=O)(=O)c2ccc(Cl)nc2)c2ccccc21)c1ccc(-c2c3nc(c(-c4cc(S(=O)(=O)[O-])ccc4F)c4ccc([nH]4)c(-c4cc(S(=O)(=O)[O-])ccc4F)c4nc(c(-c5cc(S(=O)(=O)[O-])ccc5F)c5ccc2[nH]5)C=C4)C=C3)cc1
REMARK SMILES IDX 6 1 5 2 4 3 3 4 1 5 2 6 32 8 33 9 94 10 34 11 93 12 35 13
REMARK SMILES IDX 36 14 37 15 87 16 38 17 92 18 86 19 88 20 39 21 91 22 85 23
REMARK SMILES IDX 84 24 40 26 72 27 52 28 71 29 53 30 56 31 70 32 89 33 54 34
REMARK SMILES IDX 55 35 69 37 90 38 57 39 41 40 42 41 50 42 43 43 49 44 51 45
REMARK SMILES IDX 48 46 44 47 45 48 46 49 47 50 73 51 74 52 82 53 75 54 81 55
REMARK SMILES IDX 83 56 80 57 76 58 77 59 78 60 79 61 58 62 59 63 67 64 60 65
REMARK SMILES IDX 66 66 68 67 65 68 61 69 62 70 63 71 64 72 7 73 8 74 9 75
REMARK SMILES IDX 10 76 11 77 12 79 13 80 14 81 31 82 15 83 26 84 30 85 27 86
REMARK SMILES IDX 29 87 28 88 16 89 17 90 18 91 19 92 20 93 25 94 21 95 24 96
REMARK SMILES IDX 22 97 23 98
REMARK H PARENT 3 7 88 25 56 36 10 78
REMARK Flexibility Score: inf
ROOT
ATOM      1  C   UNL A   1      31.519  30.352  26.065  1.00  0.00     0.002 C 
ENDROOT
BRANCH   1   2
ATOM      2  C   UNL A   1      31.431  31.824  26.482  1.00  0.00     0.021 C 
BRANCH   2   3
ATOM      3  C   UNL A   1      32.664  32.350  27.210  1.00  0.00     0.116 C 
BRANCH   3   4
ATOM      4  N   UNL A   1      32.523  33.757  27.549  1.00  0.00    -0.352 N 
ATOM      5  O   UNL A   1      32.735  35.597  28.825  1.00  0.00    -0.269 OA
ATOM      6  C   UNL A   1      33.160  34.486  28.518  1.00  0.00     0.251 C 
ATOM      7  H   UNL A   1      31.876  34.259  27.001  1.00  0.00     0.163 HD
BRANCH   6   8
ATOM      8  C   UNL A   1      34.353  33.934  29.192  1.00  0.00     0.039 A 
ATOM      9  C   UNL A   1      35.638  34.351  28.828  1.00  0.00     0.014 A 
ATOM     10  C   UNL A   1      34.179  33.018  30.233  1.00  0.00     0.014 A 
ATOM     11  C   UNL A   1      36.752  33.778  29.434  1.00  0.00     0.010 A 
ATOM     12  C   UNL A   1      35.296  32.494  30.885  1.00  0.00     0.010 A 
ATOM     13  C   UNL A   1      36.592  32.857  30.479  1.00  0.00    -0.014 A 
BRANCH  13  14
ATOM     14  C   UNL A   1      37.779  32.304  31.178  1.00  0.00     0.031 A 
ATOM     15  C   UNL A   1      38.544  31.156  30.587  1.00  0.00     0.074 A 
ATOM     16  C   UNL A   1      38.140  32.822  32.367  1.00  0.00     0.049 A 
ATOM     17  N   UNL A   1      39.533  30.469  31.096  1.00  0.00    -0.248 NA
ATOM     18  C   UNL A   1      38.126  30.713  29.249  1.00  0.00     0.031 C 
ATOM     19  C   UNL A   1      37.475  33.944  33.033  1.00  0.00     0.029 A 
ATOM     20  N   UNL A   1      39.143  32.468  33.233  1.00  0.00    -0.354 N 
ATOM     21  C   UNL A   1      39.849  29.499  30.151  1.00  0.00     0.074 A 
ATOM     22  C   UNL A   1      38.915  29.666  29.056  1.00  0.00     0.031 C 
ATOM     23  C   UNL A   1      38.090  34.190  34.197  1.00  0.00     0.029 A 
ATOM     24  C   UNL A   1      39.146  33.202  34.395  1.00  0.00     0.049 A 
ATOM     25  H   UNL A   1      39.796  31.757  33.041  1.00  0.00     0.167 HD
ATOM     26  C   UNL A   1      40.832  28.563  30.196  1.00  0.00     0.034 A 
ATOM     27  C   UNL A   1      39.884  33.071  35.513  1.00  0.00     0.034 A 
ATOM     28  C   UNL A   1      41.741  28.411  31.309  1.00  0.00     0.049 A 
ATOM     29  C   UNL A   1      40.922  31.985  35.575  1.00  0.00     0.074 A 
ATOM     30  C   UNL A   1      42.787  27.516  31.454  1.00  0.00     0.029 A 
ATOM     31  N   UNL A   1      41.702  29.162  32.479  1.00  0.00    -0.354 N 
ATOM     32  N   UNL A   1      41.220  31.077  34.674  1.00  0.00    -0.248 NA
ATOM     33  C   UNL A   1      41.728  31.906  36.799  1.00  0.00     0.031 C 
ATOM     34  C   UNL A   1      43.328  27.673  32.736  1.00  0.00     0.029 A 
ATOM     35  C   UNL A   1      42.680  28.728  33.361  1.00  0.00     0.049 A 
ATOM     36  H   UNL A   1      41.070  29.897  32.656  1.00  0.00     0.167 HD
ATOM     37  C   UNL A   1      42.270  30.340  35.208  1.00  0.00     0.074 A 
ATOM     38  C   UNL A   1      42.553  30.908  36.512  1.00  0.00     0.031 C 
ATOM     39  C   UNL A   1      42.947  29.297  34.663  1.00  0.00     0.034 A 
BRANCH  26  40
ATOM     40  C   UNL A   1      40.925  27.602  29.031  1.00  0.00     0.023 A 
ATOM     41  C   UNL A   1      41.881  27.763  28.011  1.00  0.00     0.031 A 
ATOM     42  C   UNL A   1      40.010  26.542  28.908  1.00  0.00     0.131 A 
ATOM     43  C   UNL A   1      41.837  26.945  26.872  1.00  0.00     0.055 A 
ATOM     44  C   UNL A   1      40.031  25.671  27.816  1.00  0.00     0.041 A 
ATOM     45  F   UNL A   1      39.061  26.346  29.837  1.00  0.00    -0.206 F 
ATOM     46  C   UNL A   1      40.935  25.882  26.779  1.00  0.00     0.022 A 
BRANCH  43  47
ATOM     47  S   UNL A   1      42.852  27.402  25.439  1.00  0.00     0.124 S 
ATOM     48  O   UNL A   1      42.909  26.143  24.699  1.00  0.00    -0.237 OA
ATOM     49  O   UNL A   1      42.068  28.467  24.822  1.00  0.00    -0.237 OA
ATOM     50  O   UNL A   1      44.119  27.822  26.034  1.00  0.00    -0.744 OA
ENDBRANCH  43  47
ENDBRANCH  26  40
BRANCH  27  51
ATOM     51  C   UNL A   1      39.629  33.970  36.674  1.00  0.00     0.023 A 
ATOM     52  C   UNL A   1      39.065  33.484  37.862  1.00  0.00     0.031 A 
ATOM     53  C   UNL A   1      39.967  35.335  36.610  1.00  0.00     0.131 A 
ATOM     54  C   UNL A   1      38.834  34.362  38.932  1.00  0.00     0.055 A 
ATOM     55  C   UNL A   1      39.780  36.192  37.694  1.00  0.00     0.041 A 
ATOM     56  F   UNL A   1      40.517  35.846  35.497  1.00  0.00    -0.206 F 
ATOM     57  C   UNL A   1      39.203  35.708  38.862  1.00  0.00     0.022 A 
BRANCH  54  58
ATOM     58  S   UNL A   1      37.995  33.729  40.409  1.00  0.00     0.124 S 
ATOM     59  O   UNL A   1      38.980  32.788  40.930  1.00  0.00    -0.237 OA
ATOM     60  O   UNL A   1      37.792  34.945  41.190  1.00  0.00    -0.237 OA
ATOM     61  O   UNL A   1      36.775  33.124  39.877  1.00  0.00    -0.744 OA
ENDBRANCH  54  58
ENDBRANCH  27  51
BRANCH  39  62
ATOM     62  C   UNL A   1      44.109  28.743  35.451  1.00  0.00     0.023 A 
ATOM     63  C   UNL A   1      43.974  27.639  36.310  1.00  0.00     0.031 A 
ATOM     64  C   UNL A   1      45.381  29.331  35.323  1.00  0.00     0.131 A 
ATOM     65  C   UNL A   1      45.084  27.179  37.035  1.00  0.00     0.055 A 
ATOM     66  C   UNL A   1      46.493  28.836  36.004  1.00  0.00     0.041 A 
ATOM     67  F   UNL A   1      45.565  30.392  34.519  1.00  0.00    -0.206 F 
ATOM     68  C   UNL A   1      46.346  27.759  36.873  1.00  0.00     0.022 A 
BRANCH  65  69
ATOM     69  S   UNL A   1      44.850  25.851  38.248  1.00  0.00     0.124 S 
ATOM     70  O   UNL A   1      46.135  25.159  38.192  1.00  0.00    -0.237 OA
ATOM     71  O   UNL A   1      44.578  26.591  39.475  1.00  0.00    -0.237 OA
ATOM     72  O   UNL A   1      43.717  25.096  37.717  1.00  0.00    -0.744 OA
ENDBRANCH  65  69
ENDBRANCH  39  62
ENDBRANCH  13  14
ENDBRANCH   6   8
ENDBRANCH   3   4
ENDBRANCH   2   3
ENDBRANCH   1   2
BRANCH   1  73
ATOM     73  C   UNL A   1      32.509  29.496  26.869  1.00  0.00     0.002 C 
BRANCH  73  74
ATOM     74  C   UNL A   1      32.329  27.984  26.721  1.00  0.00     0.021 C 
BRANCH  74  75
ATOM     75  C   UNL A   1      33.408  27.324  25.871  1.00  0.00     0.116 C 
BRANCH  75  76
ATOM     76  N   UNL A   1      33.950  28.213  24.861  1.00  0.00    -0.356 N 
ATOM     77  C   UNL A   1      33.730  28.302  23.521  1.00  0.00     0.229 C 
ATOM     78  H   UNL A   1      34.594  28.871  25.208  1.00  0.00     0.163 HD
ATOM     79  O   UNL A   1      34.287  29.237  22.932  1.00  0.00    -0.274 OA
BRANCH  77  80
ATOM     80  C   UNL A   1      32.942  27.284  22.710  1.00  0.00     0.131 C 
ATOM     81  C   UNL A   1      33.709  25.961  22.622  1.00  0.00     0.154 C 
ATOM     82  C   UNL A   1      31.603  26.859  23.233  1.00  0.00    -0.009 A 
ATOM     83  N   UNL A   1      32.932  24.955  23.437  1.00  0.00    -0.265 N 
ATOM     84  C   UNL A   1      31.618  25.512  23.620  1.00  0.00     0.056 A 
ATOM     85  C   UNL A   1      30.506  27.681  23.471  1.00  0.00     0.007 A 
ATOM     86  C   UNL A   1      30.571  25.016  24.380  1.00  0.00     0.027 A 
ATOM     87  C   UNL A   1      29.427  27.155  24.179  1.00  0.00     0.000 A 
ATOM     88  C   UNL A   1      29.468  25.837  24.645  1.00  0.00     0.002 A 
BRANCH  83  89
ATOM     89  S   UNL A   1      33.179  23.362  22.897  1.00  0.00     0.265 S 
ATOM     90  O   UNL A   1      32.051  22.560  23.336  1.00  0.00    -0.201 OA
ATOM     91  O   UNL A   1      33.500  23.441  21.488  1.00  0.00    -0.201 OA
BRANCH  89  92
ATOM     92  C   UNL A   1      34.611  22.777  23.720  1.00  0.00     0.106 A 
ATOM     93  C   UNL A   1      34.511  22.052  24.909  1.00  0.00     0.027 A 
ATOM     94  C   UNL A   1      35.860  23.011  23.173  1.00  0.00     0.135 A 
ATOM     95  C   UNL A   1      35.679  21.651  25.550  1.00  0.00     0.042 A 
ATOM     96  N   UNL A   1      37.009  22.623  23.776  1.00  0.00    -0.243 NA
ATOM     97  C   UNL A   1      36.888  21.962  24.950  1.00  0.00     0.129 A 
ATOM     98  Cl  UNL A   1      38.370  21.528  25.689  1.00  0.00    -0.062 Cl
ENDBRANCH  89  92
ENDBRANCH  83  89
ENDBRANCH  77  80
ENDBRANCH  75  76
ENDBRANCH  74  75
ENDBRANCH  73  74
ENDBRANCH   1  73
TORSDOF 18
ENDMDL
