MODEL 1
REMARK VINA RESULT:     -10.9      0.000      0.000
REMARK SMILES CN(C)S(=O)(=O)c1ccc(-n2c(CCC(=O)NCCCCCCNC(=O)c3ccc(-c4c5nc(c(-c6cc(S(=O)(=O)[O-])ccc6F)c6ccc([nH]6)c(-c6cc(S(=O)(=O)[O-])ccc6F)c6nc(c(-c7cc(S(=O)(=O)[O-])ccc7F)c7ccc4[nH]7)C=C6)C=C5)cc3)ccc2-c2ccc(F)cc2)cc1
REMARK SMILES IDX 19 1 18 2 17 3 15 4 16 5 14 7 13 8 12 9 11 10 92 11 90 12
REMARK SMILES IDX 91 13 10 14 7 15 8 16 101 17 9 18 100 19 4 20 5 21 6 22 2 23
REMARK SMILES IDX 1 24 3 25 93 26 94 27 99 28 95 29 98 30 96 31 97 32 20 33
REMARK SMILES IDX 21 34 22 35 23 36 24 37 25 38 26 40 27 41 28 42 89 43 29 44
REMARK SMILES IDX 88 45 30 46 31 47 32 48 82 49 33 50 87 51 81 52 83 53 34 54
REMARK SMILES IDX 86 55 80 56 79 57 35 59 67 60 47 61 66 62 48 63 51 64 65 65
REMARK SMILES IDX 84 66 49 67 50 68 64 70 85 71 52 72 36 73 37 74 45 75 38 76
REMARK SMILES IDX 44 77 46 78 43 79 39 80 40 81 41 82 42 83 68 84 69 85 77 86
REMARK SMILES IDX 70 87 76 88 78 89 75 90 71 91 72 92 73 93 74 94 53 95 54 96
REMARK SMILES IDX 62 97 55 98 61 99 63 100 60 101 56 102 57 103 58 104 59 105
REMARK H PARENT 17 6 24 39 83 58 51 69
REMARK Flexibility Score: inf
ROOT
ATOM      1  C   UNL A   1      39.900  28.151  27.291  1.00  0.00     0.021 C 
ENDROOT
BRANCH   1   2
ATOM      2  C   UNL A   1      38.922  29.327  27.374  1.00  0.00     0.116 C 
BRANCH   2   3
ATOM      3  N   UNL A   1      38.329  29.499  28.693  1.00  0.00    -0.356 N 
ATOM      4  C   UNL A   1      37.046  29.797  29.053  1.00  0.00     0.220 C 
ATOM      5  O   UNL A   1      36.768  29.790  30.256  1.00  0.00    -0.275 OA
ATOM      6  H   UNL A   1      38.953  29.381  29.445  1.00  0.00     0.163 HD
BRANCH   4   7
ATOM      7  C   UNL A   1      36.003  30.195  28.024  1.00  0.00     0.106 C 
BRANCH   7   8
ATOM      8  C   UNL A   1      35.098  29.039  27.550  1.00  0.00     0.064 C 
BRANCH   8   9
ATOM      9  C   UNL A   1      33.839  29.496  26.845  1.00  0.00     0.024 A 
ATOM     10  N   UNL A   1      33.191  28.896  25.742  1.00  0.00    -0.314 N 
ATOM     11  C   UNL A   1      32.068  29.701  25.434  1.00  0.00     0.053 A 
ATOM     12  C   UNL A   1      33.173  30.676  27.138  1.00  0.00     0.024 A 
ATOM     13  C   UNL A   1      32.083  30.804  26.266  1.00  0.00     0.029 A 
BRANCH  10  14
ATOM     14  C   UNL A   1      33.460  27.608  25.139  1.00  0.00     0.046 A 
ATOM     15  C   UNL A   1      33.460  25.078  23.914  1.00  0.00     0.082 A 
ATOM     16  C   UNL A   1      33.738  26.209  23.154  1.00  0.00     0.024 A 
ATOM     17  C   UNL A   1      33.252  25.187  25.281  1.00  0.00     0.024 A 
ATOM     18  C   UNL A   1      33.756  27.469  23.773  1.00  0.00     0.028 A 
ATOM     19  C   UNL A   1      33.272  26.442  25.875  1.00  0.00     0.028 A 
BRANCH  15  20
ATOM     20  S   UNL A   1      33.405  23.464  23.196  1.00  0.00     0.242 S 
ATOM     21  O   UNL A   1      34.493  23.347  22.238  1.00  0.00    -0.207 OA
ATOM     22  O   UNL A   1      32.038  23.207  22.823  1.00  0.00    -0.207 OA
BRANCH  20  23
ATOM     23  N   UNL A   1      33.798  22.450  24.526  1.00  0.00    -0.204 NA
ATOM     24  C   UNL A   1      33.250  21.085  24.388  1.00  0.00     0.124 C 
ATOM     25  C   UNL A   1      35.226  22.443  24.913  1.00  0.00     0.124 C 
ENDBRANCH  20  23
ENDBRANCH  15  20
ENDBRANCH  10  14
BRANCH  11  26
ATOM     26  C   UNL A   1      30.953  29.301  24.562  1.00  0.00    -0.001 A 
ATOM     27  C   UNL A   1      30.611  27.962  24.353  1.00  0.00     0.013 A 
ATOM     28  C   UNL A   1      30.181  30.297  23.948  1.00  0.00     0.013 A 
ATOM     29  C   UNL A   1      29.476  27.644  23.594  1.00  0.00     0.040 A 
ATOM     30  C   UNL A   1      29.056  29.989  23.190  1.00  0.00     0.040 A 
ATOM     31  C   UNL A   1      28.706  28.658  23.029  1.00  0.00     0.123 A 
ATOM     32  F   UNL A   1      27.641  28.352  22.278  1.00  0.00    -0.207 F 
ENDBRANCH  11  26
ENDBRANCH   8   9
ENDBRANCH   7   8
ENDBRANCH   4   7
ENDBRANCH   2   3
ENDBRANCH   1   2
BRANCH   1  33
ATOM     33  C   UNL A   1      39.515  26.922  28.124  1.00  0.00     0.002 C 
BRANCH  33  34
ATOM     34  C   UNL A   1      39.755  25.499  27.556  1.00  0.00     0.002 C 
BRANCH  34  35
ATOM     35  C   UNL A   1      40.947  24.629  28.010  1.00  0.00     0.021 C 
BRANCH  35  36
ATOM     36  C   UNL A   1      41.850  24.024  26.905  1.00  0.00     0.116 C 
BRANCH  36  37
ATOM     37  N   UNL A   1      43.148  23.608  27.426  1.00  0.00    -0.352 N 
ATOM     38  C   UNL A   1      44.255  24.298  27.870  1.00  0.00     0.251 C 
ATOM     39  H   UNL A   1      43.255  22.631  27.469  1.00  0.00     0.163 HD
ATOM     40  O   UNL A   1      45.313  23.663  27.882  1.00  0.00    -0.269 OA
BRANCH  38  41
ATOM     41  C   UNL A   1      44.279  25.714  28.350  1.00  0.00     0.039 A 
ATOM     42  C   UNL A   1      44.093  26.734  27.397  1.00  0.00     0.014 A 
ATOM     43  C   UNL A   1      44.614  26.097  29.646  1.00  0.00     0.014 A 
ATOM     44  C   UNL A   1      44.203  28.092  27.741  1.00  0.00     0.010 A 
ATOM     45  C   UNL A   1      44.800  27.456  29.981  1.00  0.00     0.010 A 
ATOM     46  C   UNL A   1      44.545  28.470  29.044  1.00  0.00    -0.014 A 
BRANCH  46  47
ATOM     47  C   UNL A   1      44.290  29.884  29.482  1.00  0.00     0.031 A 
ATOM     48  C   UNL A   1      45.596  30.723  29.425  1.00  0.00     0.074 A 
ATOM     49  C   UNL A   1      43.051  30.272  29.936  1.00  0.00     0.049 A 
ATOM     50  N   UNL A   1      45.995  31.707  30.174  1.00  0.00    -0.248 NA
ATOM     51  C   UNL A   1      46.670  30.332  28.467  1.00  0.00     0.031 C 
ATOM     52  C   UNL A   1      41.845  29.413  29.961  1.00  0.00     0.029 A 
ATOM     53  N   UNL A   1      42.543  31.453  30.467  1.00  0.00    -0.354 N 
ATOM     54  C   UNL A   1      47.232  32.170  29.656  1.00  0.00     0.074 A 
ATOM     55  C   UNL A   1      47.660  31.190  28.713  1.00  0.00     0.031 C 
ATOM     56  C   UNL A   1      40.794  30.057  30.528  1.00  0.00     0.029 A 
ATOM     57  C   UNL A   1      41.185  31.403  30.913  1.00  0.00     0.049 A 
ATOM     58  H   UNL A   1      43.085  32.272  30.532  1.00  0.00     0.167 HD
ATOM     59  C   UNL A   1      47.760  33.403  29.917  1.00  0.00     0.034 A 
ATOM     60  C   UNL A   1      40.433  32.357  31.562  1.00  0.00     0.034 A 
ATOM     61  C   UNL A   1      46.899  34.116  30.794  1.00  0.00     0.049 A 
ATOM     62  C   UNL A   1      41.271  33.564  31.586  1.00  0.00     0.074 A 
ATOM     63  C   UNL A   1      46.570  33.970  32.113  1.00  0.00     0.029 A 
ATOM     64  N   UNL A   1      46.030  35.005  30.207  1.00  0.00    -0.354 N 
ATOM     65  N   UNL A   1      41.490  34.329  30.563  1.00  0.00    -0.248 NA
ATOM     66  C   UNL A   1      41.881  33.980  32.857  1.00  0.00     0.031 C 
ATOM     67  C   UNL A   1      45.234  34.411  32.163  1.00  0.00     0.029 A 
ATOM     68  C   UNL A   1      44.866  34.944  30.919  1.00  0.00     0.049 A 
ATOM     69  H   UNL A   1      46.212  35.574  29.425  1.00  0.00     0.167 HD
ATOM     70  C   UNL A   1      42.512  35.130  31.002  1.00  0.00     0.074 A 
ATOM     71  C   UNL A   1      42.475  35.099  32.448  1.00  0.00     0.031 C 
ATOM     72  C   UNL A   1      43.622  35.224  30.229  1.00  0.00     0.034 A 
BRANCH  59  73
ATOM     73  C   UNL A   1      48.879  34.207  29.292  1.00  0.00     0.023 A 
ATOM     74  C   UNL A   1      48.698  34.577  27.931  1.00  0.00     0.031 A 
ATOM     75  C   UNL A   1      50.175  34.359  29.801  1.00  0.00     0.131 A 
ATOM     76  C   UNL A   1      49.776  34.932  27.111  1.00  0.00     0.055 A 
ATOM     77  C   UNL A   1      51.242  34.791  28.996  1.00  0.00     0.041 A 
ATOM     78  F   UNL A   1      50.486  34.020  31.057  1.00  0.00    -0.206 F 
ATOM     79  C   UNL A   1      51.056  35.042  27.638  1.00  0.00     0.022 A 
BRANCH  76  80
ATOM     80  S   UNL A   1      49.493  35.053  25.320  1.00  0.00     0.124 S 
ATOM     81  O   UNL A   1      48.080  34.707  25.206  1.00  0.00    -0.237 OA
ATOM     82  O   UNL A   1      49.833  36.447  25.051  1.00  0.00    -0.237 OA
ATOM     83  O   UNL A   1      50.420  34.070  24.765  1.00  0.00    -0.744 OA
ENDBRANCH  76  80
ENDBRANCH  59  73
BRANCH  60  84
ATOM     84  C   UNL A   1      39.079  32.557  32.262  1.00  0.00     0.023 A 
ATOM     85  C   UNL A   1      37.909  33.090  31.699  1.00  0.00     0.031 A 
ATOM     86  C   UNL A   1      38.913  32.078  33.610  1.00  0.00     0.131 A 
ATOM     87  C   UNL A   1      36.679  33.044  32.427  1.00  0.00     0.055 A 
ATOM     88  C   UNL A   1      37.693  31.942  34.271  1.00  0.00     0.041 A 
ATOM     89  F   UNL A   1      39.950  31.707  34.374  1.00  0.00    -0.206 F 
ATOM     90  C   UNL A   1      36.557  32.416  33.671  1.00  0.00     0.022 A 
BRANCH  87  91
ATOM     91  S   UNL A   1      35.154  33.808  31.800  1.00  0.00     0.124 S 
ATOM     92  O   UNL A   1      34.151  32.806  32.149  1.00  0.00    -0.237 OA
ATOM     93  O   UNL A   1      35.082  35.067  32.532  1.00  0.00    -0.237 OA
ATOM     94  O   UNL A   1      35.424  33.941  30.368  1.00  0.00    -0.744 OA
ENDBRANCH  87  91
ENDBRANCH  60  84
BRANCH  72  95
ATOM     95  C   UNL A   1      43.343  35.088  28.733  1.00  0.00     0.023 A 
ATOM     96  C   UNL A   1      43.949  34.051  27.992  1.00  0.00     0.031 A 
ATOM     97  C   UNL A   1      42.615  36.032  27.988  1.00  0.00     0.131 A 
ATOM     98  C   UNL A   1      43.844  34.005  26.587  1.00  0.00     0.055 A 
ATOM     99  C   UNL A   1      42.494  35.979  26.593  1.00  0.00     0.041 A 
ATOM    100  F   UNL A   1      42.012  37.059  28.583  1.00  0.00    -0.206 F 
ATOM    101  C   UNL A   1      43.116  34.964  25.883  1.00  0.00     0.022 A 
BRANCH  98 102
ATOM    102  S   UNL A   1      44.660  32.666  25.671  1.00  0.00     0.124 S 
ATOM    103  O   UNL A   1      46.044  32.764  26.122  1.00  0.00    -0.237 OA
ATOM    104  O   UNL A   1      43.925  31.484  26.113  1.00  0.00    -0.237 OA
ATOM    105  O   UNL A   1      44.441  33.029  24.270  1.00  0.00    -0.744 OA
ENDBRANCH  98 102
ENDBRANCH  72  95
ENDBRANCH  46  47
ENDBRANCH  38  41
ENDBRANCH  36  37
ENDBRANCH  35  36
ENDBRANCH  34  35
ENDBRANCH  33  34
ENDBRANCH   1  33
TORSDOF 22
ENDMDL
MODEL 2
REMARK VINA RESULT:     -10.8      2.322      4.505
REMARK SMILES CN(C)S(=O)(=O)c1ccc(-n2c(CCC(=O)NCCCCCCNC(=O)c3ccc(-c4c5nc(c(-c6cc(S(=O)(=O)[O-])ccc6F)c6ccc([nH]6)c(-c6cc(S(=O)(=O)[O-])ccc6F)c6nc(c(-c7cc(S(=O)(=O)[O-])ccc7F)c7ccc4[nH]7)C=C6)C=C5)cc3)ccc2-c2ccc(F)cc2)cc1
REMARK SMILES IDX 19 1 18 2 17 3 15 4 16 5 14 7 13 8 12 9 11 10 92 11 90 12
REMARK SMILES IDX 91 13 10 14 7 15 8 16 101 17 9 18 100 19 4 20 5 21 6 22 2 23
REMARK SMILES IDX 1 24 3 25 93 26 94 27 99 28 95 29 98 30 96 31 97 32 20 33
REMARK SMILES IDX 21 34 22 35 23 36 24 37 25 38 26 40 27 41 28 42 89 43 29 44
REMARK SMILES IDX 88 45 30 46 31 47 32 48 82 49 33 50 87 51 81 52 83 53 34 54
REMARK SMILES IDX 86 55 80 56 79 57 35 59 67 60 47 61 66 62 48 63 51 64 65 65
REMARK SMILES IDX 84 66 49 67 50 68 64 70 85 71 52 72 36 73 37 74 45 75 38 76
REMARK SMILES IDX 44 77 46 78 43 79 39 80 40 81 41 82 42 83 68 84 69 85 77 86
REMARK SMILES IDX 70 87 76 88 78 89 75 90 71 91 72 92 73 93 74 94 53 95 54 96
REMARK SMILES IDX 62 97 55 98 61 99 63 100 60 101 56 102 57 103 58 104 59 105
REMARK H PARENT 17 6 24 39 83 58 51 69
REMARK Flexibility Score: inf
ROOT
ATOM      1  C   UNL A   1      42.955  24.601  28.833  1.00  0.00     0.021 C 
ENDROOT
BRANCH   1   2
ATOM      2  C   UNL A   1      41.556  24.162  28.392  1.00  0.00     0.116 C 
BRANCH   2   3
ATOM      3  N   UNL A   1      40.634  25.270  28.190  1.00  0.00    -0.356 N 
ATOM      4  C   UNL A   1      39.484  25.340  27.458  1.00  0.00     0.220 C 
ATOM      5  O   UNL A   1      38.817  26.378  27.528  1.00  0.00    -0.275 OA
ATOM      6  H   UNL A   1      40.878  26.101  28.657  1.00  0.00     0.163 HD
BRANCH   4   7
ATOM      7  C   UNL A   1      39.061  24.217  26.528  1.00  0.00     0.106 C 
BRANCH   7   8
ATOM      8  C   UNL A   1      37.556  24.196  26.193  1.00  0.00     0.064 C 
BRANCH   8   9
ATOM      9  C   UNL A   1      37.040  22.836  25.772  1.00  0.00     0.024 A 
ATOM     10  N   UNL A   1      35.698  22.425  25.608  1.00  0.00    -0.314 N 
ATOM     11  C   UNL A   1      35.726  21.064  25.223  1.00  0.00     0.053 A 
ATOM     12  C   UNL A   1      37.850  21.729  25.576  1.00  0.00     0.024 A 
ATOM     13  C   UNL A   1      37.040  20.635  25.242  1.00  0.00     0.029 A 
BRANCH  10  14
ATOM     14  C   UNL A   1      34.504  23.244  25.618  1.00  0.00     0.046 A 
ATOM     15  C   UNL A   1      32.456  25.137  25.973  1.00  0.00     0.082 A 
ATOM     16  C   UNL A   1      33.268  25.206  24.846  1.00  0.00     0.024 A 
ATOM     17  C   UNL A   1      32.609  24.101  26.883  1.00  0.00     0.024 A 
ATOM     18  C   UNL A   1      34.278  24.248  24.662  1.00  0.00     0.028 A 
ATOM     19  C   UNL A   1      33.614  23.164  26.685  1.00  0.00     0.028 A 
BRANCH  15  20
ATOM     20  S   UNL A   1      31.179  26.319  26.275  1.00  0.00     0.242 S 
ATOM     21  O   UNL A   1      31.619  27.216  27.333  1.00  0.00    -0.207 OA
ATOM     22  O   UNL A   1      29.937  25.596  26.366  1.00  0.00    -0.207 OA
BRANCH  20  23
ATOM     23  N   UNL A   1      31.162  27.232  24.820  1.00  0.00    -0.204 NA
ATOM     24  C   UNL A   1      29.974  26.960  23.985  1.00  0.00     0.124 C 
ATOM     25  C   UNL A   1      31.411  28.682  24.983  1.00  0.00     0.124 C 
ENDBRANCH  20  23
ENDBRANCH  15  20
ENDBRANCH  10  14
BRANCH  11  26
ATOM     26  C   UNL A   1      34.589  20.318  24.663  1.00  0.00    -0.001 A 
ATOM     27  C   UNL A   1      33.483  20.958  24.097  1.00  0.00     0.013 A 
ATOM     28  C   UNL A   1      34.632  18.916  24.660  1.00  0.00     0.013 A 
ATOM     29  C   UNL A   1      32.476  20.197  23.486  1.00  0.00     0.040 A 
ATOM     30  C   UNL A   1      33.634  18.155  24.059  1.00  0.00     0.040 A 
ATOM     31  C   UNL A   1      32.567  18.806  23.465  1.00  0.00     0.123 A 
ATOM     32  F   UNL A   1      31.589  18.080  22.910  1.00  0.00    -0.207 F 
ENDBRANCH  11  26
ENDBRANCH   8   9
ENDBRANCH   7   8
ENDBRANCH   4   7
ENDBRANCH   2   3
ENDBRANCH   1   2
BRANCH   1  33
ATOM     33  C   UNL A   1      44.052  24.448  27.771  1.00  0.00     0.002 C 
BRANCH  33  34
ATOM     34  C   UNL A   1      43.671  24.423  26.267  1.00  0.00     0.002 C 
BRANCH  34  35
ATOM     35  C   UNL A   1      44.551  23.718  25.214  1.00  0.00     0.021 C 
BRANCH  35  36
ATOM     36  C   UNL A   1      45.981  23.301  25.643  1.00  0.00     0.116 C 
BRANCH  36  37
ATOM     37  N   UNL A   1      47.005  24.118  25.000  1.00  0.00    -0.352 N 
ATOM     38  C   UNL A   1      47.149  25.473  24.803  1.00  0.00     0.251 C 
ATOM     39  H   UNL A   1      47.748  23.590  24.630  1.00  0.00     0.163 HD
ATOM     40  O   UNL A   1      47.924  25.805  23.901  1.00  0.00    -0.269 OA
BRANCH  38  41
ATOM     41  C   UNL A   1      46.477  26.556  25.587  1.00  0.00     0.039 A 
ATOM     42  C   UNL A   1      46.767  26.647  26.962  1.00  0.00     0.014 A 
ATOM     43  C   UNL A   1      45.480  27.386  25.083  1.00  0.00     0.014 A 
ATOM     44  C   UNL A   1      46.106  27.566  27.794  1.00  0.00     0.010 A 
ATOM     45  C   UNL A   1      44.759  28.258  25.927  1.00  0.00     0.010 A 
ATOM     46  C   UNL A   1      45.101  28.395  27.281  1.00  0.00    -0.014 A 
BRANCH  46  47
ATOM     47  C   UNL A   1      44.683  29.604  28.069  1.00  0.00     0.031 A 
ATOM     48  C   UNL A   1      45.890  30.553  28.304  1.00  0.00     0.074 A 
ATOM     49  C   UNL A   1      43.400  29.727  28.547  1.00  0.00     0.049 A 
ATOM     50  N   UNL A   1      46.162  31.331  29.309  1.00  0.00    -0.248 NA
ATOM     51  C   UNL A   1      47.020  30.546  27.332  1.00  0.00     0.031 C 
ATOM     52  C   UNL A   1      42.295  28.778  28.281  1.00  0.00     0.029 A 
ATOM     53  N   UNL A   1      42.754  30.663  29.350  1.00  0.00    -0.354 N 
ATOM     54  C   UNL A   1      47.352  32.038  28.996  1.00  0.00     0.074 A 
ATOM     55  C   UNL A   1      47.905  31.399  27.848  1.00  0.00     0.031 C 
ATOM     56  C   UNL A   1      41.168  29.135  28.947  1.00  0.00     0.029 A 
ATOM     57  C   UNL A   1      41.400  30.358  29.698  1.00  0.00     0.049 A 
ATOM     58  H   UNL A   1      43.201  31.483  29.660  1.00  0.00     0.167 HD
ATOM     59  C   UNL A   1      47.736  33.200  29.605  1.00  0.00     0.034 A 
ATOM     60  C   UNL A   1      40.534  31.020  30.540  1.00  0.00     0.034 A 
ATOM     61  C   UNL A   1      46.783  33.558  30.596  1.00  0.00     0.049 A 
ATOM     62  C   UNL A   1      41.234  32.252  30.929  1.00  0.00     0.074 A 
ATOM     63  C   UNL A   1      46.444  33.026  31.810  1.00  0.00     0.029 A 
ATOM     64  N   UNL A   1      45.834  34.482  30.227  1.00  0.00    -0.354 N 
ATOM     65  N   UNL A   1      41.389  33.284  30.160  1.00  0.00    -0.248 NA
ATOM     66  C   UNL A   1      41.768  32.365  32.294  1.00  0.00     0.031 C 
ATOM     67  C   UNL A   1      45.067  33.302  31.910  1.00  0.00     0.029 A 
ATOM     68  C   UNL A   1      44.669  34.113  30.837  1.00  0.00     0.049 A 
ATOM     69  H   UNL A   1      45.968  35.258  29.636  1.00  0.00     0.167 HD
ATOM     70  C   UNL A   1      42.308  34.034  30.848  1.00  0.00     0.074 A 
ATOM     71  C   UNL A   1      42.244  33.606  32.230  1.00  0.00     0.031 C 
ATOM     72  C   UNL A   1      43.417  34.445  30.186  1.00  0.00     0.034 A 
BRANCH  59  73
ATOM     73  C   UNL A   1      48.772  34.251  29.275  1.00  0.00     0.023 A 
ATOM     74  C   UNL A   1      48.666  34.853  27.991  1.00  0.00     0.031 A 
ATOM     75  C   UNL A   1      49.975  34.472  29.957  1.00  0.00     0.131 A 
ATOM     76  C   UNL A   1      49.750  35.500  27.385  1.00  0.00     0.055 A 
ATOM     77  C   UNL A   1      51.035  35.190  29.378  1.00  0.00     0.041 A 
ATOM     78  F   UNL A   1      50.215  33.938  31.160  1.00  0.00    -0.206 F 
ATOM     79  C   UNL A   1      50.942  35.674  28.075  1.00  0.00     0.022 A 
BRANCH  76  80
ATOM     80  S   UNL A   1      49.623  35.930  25.624  1.00  0.00     0.124 S 
ATOM     81  O   UNL A   1      49.712  34.623  24.979  1.00  0.00    -0.237 OA
ATOM     82  O   UNL A   1      48.318  36.583  25.563  1.00  0.00    -0.237 OA
ATOM     83  O   UNL A   1      50.768  36.809  25.407  1.00  0.00    -0.744 OA
ENDBRANCH  76  80
ENDBRANCH  59  73
BRANCH  60  84
ATOM     84  C   UNL A   1      39.153  30.885  31.199  1.00  0.00     0.023 A 
ATOM     85  C   UNL A   1      38.205  31.903  31.389  1.00  0.00     0.031 A 
ATOM     86  C   UNL A   1      38.694  29.579  31.599  1.00  0.00     0.131 A 
ATOM     87  C   UNL A   1      36.892  31.582  31.856  1.00  0.00     0.055 A 
ATOM     88  C   UNL A   1      37.384  29.260  31.953  1.00  0.00     0.041 A 
ATOM     89  F   UNL A   1      39.512  28.520  31.667  1.00  0.00    -0.206 F 
ATOM     90  C   UNL A   1      36.464  30.269  32.071  1.00  0.00     0.022 A 
BRANCH  87  91
ATOM     91  S   UNL A   1      35.655  32.863  32.220  1.00  0.00     0.124 S 
ATOM     92  O   UNL A   1      35.745  32.961  33.674  1.00  0.00    -0.237 OA
ATOM     93  O   UNL A   1      36.136  34.018  31.471  1.00  0.00    -0.237 OA
ATOM     94  O   UNL A   1      34.417  32.271  31.714  1.00  0.00    -0.744 OA
ENDBRANCH  87  91
ENDBRANCH  60  84
BRANCH  72  95
ATOM     95  C   UNL A   1      43.185  34.694  28.696  1.00  0.00     0.023 A 
ATOM     96  C   UNL A   1      43.986  34.037  27.737  1.00  0.00     0.031 A 
ATOM     97  C   UNL A   1      42.300  35.664  28.197  1.00  0.00     0.131 A 
ATOM     98  C   UNL A   1      43.908  34.376  26.371  1.00  0.00     0.055 A 
ATOM     99  C   UNL A   1      42.207  35.990  26.837  1.00  0.00     0.041 A 
ATOM    100  F   UNL A   1      41.505  36.352  29.014  1.00  0.00    -0.206 F 
ATOM    101  C   UNL A   1      43.020  35.349  25.916  1.00  0.00     0.022 A 
BRANCH  98 102
ATOM    102  S   UNL A   1      44.975  33.523  25.174  1.00  0.00     0.124 S 
ATOM    103  O   UNL A   1      44.649  32.118  25.396  1.00  0.00    -0.237 OA
ATOM    104  O   UNL A   1      44.540  34.088  23.900  1.00  0.00    -0.237 OA
ATOM    105  O   UNL A   1      46.325  33.913  25.583  1.00  0.00    -0.744 OA
ENDBRANCH  98 102
ENDBRANCH  72  95
ENDBRANCH  46  47
ENDBRANCH  38  41
ENDBRANCH  36  37
ENDBRANCH  35  36
ENDBRANCH  34  35
ENDBRANCH  33  34
ENDBRANCH   1  33
TORSDOF 22
ENDMDL
MODEL 3
REMARK VINA RESULT:     -10.2      5.147     12.364
REMARK SMILES CN(C)S(=O)(=O)c1ccc(-n2c(CCC(=O)NCCCCCCNC(=O)c3ccc(-c4c5nc(c(-c6cc(S(=O)(=O)[O-])ccc6F)c6ccc([nH]6)c(-c6cc(S(=O)(=O)[O-])ccc6F)c6nc(c(-c7cc(S(=O)(=O)[O-])ccc7F)c7ccc4[nH]7)C=C6)C=C5)cc3)ccc2-c2ccc(F)cc2)cc1
REMARK SMILES IDX 19 1 18 2 17 3 15 4 16 5 14 7 13 8 12 9 11 10 92 11 90 12
REMARK SMILES IDX 91 13 10 14 7 15 8 16 101 17 9 18 100 19 4 20 5 21 6 22 2 23
REMARK SMILES IDX 1 24 3 25 93 26 94 27 99 28 95 29 98 30 96 31 97 32 20 33
REMARK SMILES IDX 21 34 22 35 23 36 24 37 25 38 26 40 27 41 28 42 89 43 29 44
REMARK SMILES IDX 88 45 30 46 31 47 32 48 82 49 33 50 87 51 81 52 83 53 34 54
REMARK SMILES IDX 86 55 80 56 79 57 35 59 67 60 47 61 66 62 48 63 51 64 65 65
REMARK SMILES IDX 84 66 49 67 50 68 64 70 85 71 52 72 36 73 37 74 45 75 38 76
REMARK SMILES IDX 44 77 46 78 43 79 39 80 40 81 41 82 42 83 68 84 69 85 77 86
REMARK SMILES IDX 70 87 76 88 78 89 75 90 71 91 72 92 73 93 74 94 53 95 54 96
REMARK SMILES IDX 62 97 55 98 61 99 63 100 60 101 56 102 57 103 58 104 59 105
REMARK H PARENT 17 6 24 39 83 58 51 69
REMARK Flexibility Score: inf
ROOT
ATOM      1  C   UNL A   1      38.144  31.364  31.804  1.00  0.00     0.021 C 
ENDROOT
BRANCH   1   2
ATOM      2  C   UNL A   1      37.062  31.984  32.693  1.00  0.00     0.116 C 
BRANCH   2   3
ATOM      3  N   UNL A   1      37.100  31.516  34.071  1.00  0.00    -0.356 N 
ATOM      4  C   UNL A   1      37.882  31.914  35.117  1.00  0.00     0.220 C 
ATOM      5  O   UNL A   1      37.652  31.425  36.228  1.00  0.00    -0.275 OA
ATOM      6  H   UNL A   1      36.460  30.799  34.282  1.00  0.00     0.163 HD
BRANCH   4   7
ATOM      7  C   UNL A   1      39.045  32.870  34.924  1.00  0.00     0.106 C 
BRANCH   7   8
ATOM      8  C   UNL A   1      38.770  34.314  35.392  1.00  0.00     0.064 C 
BRANCH   8   9
ATOM      9  C   UNL A   1      39.531  34.710  36.640  1.00  0.00     0.024 A 
ATOM     10  N   UNL A   1      40.918  34.938  36.780  1.00  0.00    -0.314 N 
ATOM     11  C   UNL A   1      41.149  35.264  38.138  1.00  0.00     0.053 A 
ATOM     12  C   UNL A   1      38.955  34.811  37.897  1.00  0.00     0.024 A 
ATOM     13  C   UNL A   1      39.954  35.148  38.821  1.00  0.00     0.029 A 
BRANCH  10  14
ATOM     14  C   UNL A   1      41.918  35.033  35.738  1.00  0.00     0.046 A 
ATOM     15  C   UNL A   1      43.554  34.879  33.457  1.00  0.00     0.082 A 
ATOM     16  C   UNL A   1      42.684  35.953  33.607  1.00  0.00     0.024 A 
ATOM     17  C   UNL A   1      43.666  33.924  34.457  1.00  0.00     0.024 A 
ATOM     18  C   UNL A   1      41.883  36.037  34.757  1.00  0.00     0.028 A 
ATOM     19  C   UNL A   1      42.864  34.023  35.586  1.00  0.00     0.028 A 
BRANCH  15  20
ATOM     20  S   UNL A   1      44.578  34.702  32.028  1.00  0.00     0.242 S 
ATOM     21  O   UNL A   1      45.614  33.723  32.321  1.00  0.00    -0.207 OA
ATOM     22  O   UNL A   1      44.900  36.026  31.564  1.00  0.00    -0.207 OA
BRANCH  20  23
ATOM     23  N   UNL A   1      43.513  33.979  30.891  1.00  0.00    -0.204 NA
ATOM     24  C   UNL A   1      42.791  32.813  31.441  1.00  0.00     0.124 C 
ATOM     25  C   UNL A   1      42.608  34.918  30.190  1.00  0.00     0.124 C 
ENDBRANCH  20  23
ENDBRANCH  15  20
ENDBRANCH  10  14
BRANCH  11  26
ATOM     26  C   UNL A   1      42.384  35.860  38.667  1.00  0.00    -0.001 A 
ATOM     27  C   UNL A   1      43.440  35.084  39.154  1.00  0.00     0.013 A 
ATOM     28  C   UNL A   1      42.527  37.255  38.648  1.00  0.00     0.013 A 
ATOM     29  C   UNL A   1      44.634  35.703  39.550  1.00  0.00     0.040 A 
ATOM     30  C   UNL A   1      43.708  37.876  39.044  1.00  0.00     0.040 A 
ATOM     31  C   UNL A   1      44.759  37.089  39.483  1.00  0.00     0.123 A 
ATOM     32  F   UNL A   1      45.888  37.680  39.892  1.00  0.00    -0.207 F 
ENDBRANCH  11  26
ENDBRANCH   8   9
ENDBRANCH   7   8
ENDBRANCH   4   7
ENDBRANCH   2   3
ENDBRANCH   1   2
BRANCH   1  33
ATOM     33  C   UNL A   1      39.143  32.360  31.203  1.00  0.00     0.002 C 
BRANCH  33  34
ATOM     34  C   UNL A   1      38.780  33.128  29.904  1.00  0.00     0.002 C 
BRANCH  34  35
ATOM     35  C   UNL A   1      37.323  33.502  29.557  1.00  0.00     0.021 C 
BRANCH  35  36
ATOM     36  C   UNL A   1      36.809  33.126  28.144  1.00  0.00     0.116 C 
BRANCH  36  37
ATOM     37  N   UNL A   1      35.812  32.061  28.190  1.00  0.00    -0.352 N 
ATOM     38  C   UNL A   1      35.893  30.687  28.155  1.00  0.00     0.251 C 
ATOM     39  H   UNL A   1      34.889  32.395  28.260  1.00  0.00     0.163 HD
ATOM     40  O   UNL A   1      34.859  30.096  27.830  1.00  0.00    -0.269 OA
BRANCH  38  41
ATOM     41  C   UNL A   1      37.096  29.864  28.494  1.00  0.00     0.039 A 
ATOM     42  C   UNL A   1      38.191  29.907  27.609  1.00  0.00     0.014 A 
ATOM     43  C   UNL A   1      37.152  28.951  29.543  1.00  0.00     0.014 A 
ATOM     44  C   UNL A   1      39.318  29.089  27.794  1.00  0.00     0.010 A 
ATOM     45  C   UNL A   1      38.248  28.074  29.691  1.00  0.00     0.010 A 
ATOM     46  C   UNL A   1      39.366  28.171  28.848  1.00  0.00    -0.014 A 
BRANCH  46  47
ATOM     47  C   UNL A   1      40.693  27.594  29.251  1.00  0.00     0.031 A 
ATOM     48  C   UNL A   1      41.111  26.448  28.288  1.00  0.00     0.074 A 
ATOM     49  C   UNL A   1      41.339  28.029  30.384  1.00  0.00     0.049 A 
ATOM     50  N   UNL A   1      41.788  25.363  28.519  1.00  0.00    -0.248 NA
ATOM     51  C   UNL A   1      40.598  26.452  26.888  1.00  0.00     0.031 C 
ATOM     52  C   UNL A   1      40.879  29.133  31.258  1.00  0.00     0.029 A 
ATOM     53  N   UNL A   1      42.505  27.643  31.039  1.00  0.00    -0.354 N 
ATOM     54  C   UNL A   1      41.953  24.687  27.283  1.00  0.00     0.074 A 
ATOM     55  C   UNL A   1      41.073  25.324  26.360  1.00  0.00     0.031 C 
ATOM     56  C   UNL A   1      41.692  29.279  32.335  1.00  0.00     0.029 A 
ATOM     57  C   UNL A   1      42.776  28.312  32.275  1.00  0.00     0.049 A 
ATOM     58  H   UNL A   1      43.106  26.954  30.676  1.00  0.00     0.167 HD
ATOM     59  C   UNL A   1      42.913  23.743  27.047  1.00  0.00     0.034 A 
ATOM     60  C   UNL A   1      43.779  28.097  33.194  1.00  0.00     0.034 A 
ATOM     61  C   UNL A   1      43.680  23.537  28.225  1.00  0.00     0.049 A 
ATOM     62  C   UNL A   1      44.665  27.099  32.578  1.00  0.00     0.074 A 
ATOM     63  C   UNL A   1      43.407  22.967  29.438  1.00  0.00     0.029 A 
ATOM     64  N   UNL A   1      44.873  24.216  28.304  1.00  0.00    -0.354 N 
ATOM     65  N   UNL A   1      45.499  27.349  31.619  1.00  0.00    -0.248 NA
ATOM     66  C   UNL A   1      44.654  25.724  33.096  1.00  0.00     0.031 C 
ATOM     67  C   UNL A   1      44.203  23.709  30.330  1.00  0.00     0.029 A 
ATOM     68  C   UNL A   1      45.030  24.584  29.610  1.00  0.00     0.049 A 
ATOM     69  H   UNL A   1      45.493  24.402  27.562  1.00  0.00     0.167 HD
ATOM     70  C   UNL A   1      45.877  26.094  31.217  1.00  0.00     0.074 A 
ATOM     71  C   UNL A   1      45.604  25.202  32.323  1.00  0.00     0.031 C 
ATOM     72  C   UNL A   1      45.778  25.791  29.899  1.00  0.00     0.034 A 
BRANCH  59  73
ATOM     73  C   UNL A   1      43.452  23.103  25.787  1.00  0.00     0.023 A 
ATOM     74  C   UNL A   1      43.493  21.681  25.775  1.00  0.00     0.031 A 
ATOM     75  C   UNL A   1      44.182  23.744  24.778  1.00  0.00     0.131 A 
ATOM     76  C   UNL A   1      44.326  20.971  24.903  1.00  0.00     0.055 A 
ATOM     77  C   UNL A   1      44.957  23.026  23.852  1.00  0.00     0.041 A 
ATOM     78  F   UNL A   1      44.251  25.078  24.694  1.00  0.00    -0.206 F 
ATOM     79  C   UNL A   1      45.064  21.639  23.934  1.00  0.00     0.022 A 
BRANCH  76  80
ATOM     80  S   UNL A   1      44.564  19.194  25.194  1.00  0.00     0.124 S 
ATOM     81  O   UNL A   1      43.454  18.874  26.085  1.00  0.00    -0.237 OA
ATOM     82  O   UNL A   1      44.476  18.649  23.842  1.00  0.00    -0.237 OA
ATOM     83  O   UNL A   1      45.890  19.126  25.804  1.00  0.00    -0.744 OA
ENDBRANCH  76  80
ENDBRANCH  59  73
BRANCH  60  84
ATOM     84  C   UNL A   1      44.238  28.515  34.600  1.00  0.00     0.023 A 
ATOM     85  C   UNL A   1      44.296  27.705  35.745  1.00  0.00     0.031 A 
ATOM     86  C   UNL A   1      44.763  29.842  34.796  1.00  0.00     0.131 A 
ATOM     87  C   UNL A   1      44.916  28.193  36.937  1.00  0.00     0.055 A 
ATOM     88  C   UNL A   1      45.458  30.273  35.926  1.00  0.00     0.041 A 
ATOM     89  F   UNL A   1      44.627  30.812  33.882  1.00  0.00    -0.206 F 
ATOM     90  C   UNL A   1      45.551  29.437  37.006  1.00  0.00     0.022 A 
BRANCH  87  91
ATOM     91  S   UNL A   1      44.931  27.236  38.482  1.00  0.00     0.124 S 
ATOM     92  O   UNL A   1      46.084  26.363  38.281  1.00  0.00    -0.237 OA
ATOM     93  O   UNL A   1      45.076  28.259  39.511  1.00  0.00    -0.237 OA
ATOM     94  O   UNL A   1      43.633  26.563  38.458  1.00  0.00    -0.744 OA
ENDBRANCH  87  91
ENDBRANCH  60  84
BRANCH  72  95
ATOM     95  C   UNL A   1      45.994  26.989  28.976  1.00  0.00     0.023 A 
ATOM     96  C   UNL A   1      44.886  27.713  28.485  1.00  0.00     0.031 A 
ATOM     97  C   UNL A   1      47.246  27.351  28.450  1.00  0.00     0.131 A 
ATOM     98  C   UNL A   1      45.048  28.711  27.502  1.00  0.00     0.055 A 
ATOM     99  C   UNL A   1      47.412  28.355  27.486  1.00  0.00     0.041 A 
ATOM    100  F   UNL A   1      48.358  26.727  28.834  1.00  0.00    -0.206 F 
ATOM    101  C   UNL A   1      46.307  29.037  27.002  1.00  0.00     0.022 A 
BRANCH  98 102
ATOM    102  S   UNL A   1      43.591  29.600  26.882  1.00  0.00     0.124 S 
ATOM    103  O   UNL A   1      42.816  29.835  28.095  1.00  0.00    -0.237 OA
ATOM    104  O   UNL A   1      44.181  30.782  26.260  1.00  0.00    -0.237 OA
ATOM    105  O   UNL A   1      42.990  28.654  25.940  1.00  0.00    -0.744 OA
ENDBRANCH  98 102
ENDBRANCH  72  95
ENDBRANCH  46  47
ENDBRANCH  38  41
ENDBRANCH  36  37
ENDBRANCH  35  36
ENDBRANCH  34  35
ENDBRANCH  33  34
ENDBRANCH   1  33
TORSDOF 22
ENDMDL
