MODEL 1
REMARK VINA RESULT:     -11.4      0.000      0.000
REMARK SMILES Cc1cc(F)ccc1CCNc1ccc(Cl)c(C(=O)NCCCCCCNC(=O)c2ccc(-c3c4nc(c(-c5cc(S(=O)(=O)[O-])ccc5F)c5ccc([nH]5)c(-c5cc(S(=O)(=O)[O-])ccc5F)c5nc(c(-c6cc(S(=O)(=O)[O-])ccc6F)c6ccc3[nH]6)C=C5)C=C4)cc2)n1
REMARK SMILES IDX 23 1 22 2 21 3 20 4 18 5 19 6 17 8 12 9 13 10 93 11 14 12
REMARK SMILES IDX 15 13 16 14 11 15 10 17 9 18 8 19 1 20 2 21 3 22 4 23 7 24
REMARK SMILES IDX 5 25 6 26 24 27 25 28 26 29 27 30 28 31 29 33 30 34 31 35
REMARK SMILES IDX 92 36 32 37 91 38 33 39 34 40 35 41 85 42 36 43 90 44 84 45
REMARK SMILES IDX 86 46 37 47 89 48 83 49 82 50 38 52 70 53 50 54 69 55 51 56
REMARK SMILES IDX 54 57 68 58 87 59 52 60 53 61 67 63 88 64 55 65 39 66 40 67
REMARK SMILES IDX 48 68 41 69 47 70 49 71 46 72 42 73 43 74 44 75 45 76 71 77
REMARK SMILES IDX 72 78 80 79 73 80 79 81 81 82 78 83 74 84 75 85 76 86 77 87
REMARK SMILES IDX 56 88 57 89 65 90 58 91 64 92 66 93 63 94 59 95 60 96 61 97
REMARK SMILES IDX 62 98
REMARK H PARENT 20 7 11 16 27 32 86 51 54 62
REMARK Flexibility Score: inf
ROOT
ATOM      1  C   UNL A   1      33.810  25.670  25.727  1.00  0.00     0.002 C 
ENDROOT
BRANCH   1   2
ATOM      2  C   UNL A   1      34.216  27.138  25.902  1.00  0.00     0.021 C 
BRANCH   2   3
ATOM      3  C   UNL A   1      33.949  28.070  24.725  1.00  0.00     0.116 C 
BRANCH   3   4
ATOM      4  N   UNL A   1      33.172  29.253  25.035  1.00  0.00    -0.351 N 
ATOM      5  C   UNL A   1      31.802  29.449  25.059  1.00  0.00     0.271 C 
ATOM      6  O   UNL A   1      31.403  30.555  25.439  1.00  0.00    -0.267 OA
ATOM      7  H   UNL A   1      33.706  30.047  25.266  1.00  0.00     0.163 HD
BRANCH   5   8
ATOM      8  C   UNL A   1      30.797  28.434  24.577  1.00  0.00     0.149 A 
ATOM      9  C   UNL A   1      29.922  26.309  25.020  1.00  0.00     0.126 A 
ATOM     10  C   UNL A   1      28.999  26.451  23.997  1.00  0.00     0.048 A 
ATOM     11  N   UNL A   1      30.743  27.314  25.372  1.00  0.00    -0.224 NA
ATOM     12  C   UNL A   1      29.065  27.570  23.180  1.00  0.00     0.027 A 
ATOM     13  C   UNL A   1      30.047  28.532  23.409  1.00  0.00     0.072 A 
ATOM     14  Cl  UNL A   1      30.355  29.620  22.109  1.00  0.00    -0.082 Cl
BRANCH   9  15
ATOM     15  N   UNL A   1      30.091  25.103  25.675  1.00  0.00    -0.370 N 
ATOM     16  H   UNL A   1      29.729  24.969  26.581  1.00  0.00     0.162 HD
BRANCH  15  17
ATOM     17  C   UNL A   1      30.822  24.026  24.995  1.00  0.00     0.119 C 
BRANCH  17  18
ATOM     18  C   UNL A   1      30.822  22.711  25.801  1.00  0.00     0.057 C 
BRANCH  18  19
ATOM     19  C   UNL A   1      32.096  21.906  25.619  1.00  0.00    -0.043 A 
ATOM     20  C   UNL A   1      33.036  22.429  27.968  1.00  0.00     0.045 C 
ATOM     21  C   UNL A   1      33.126  21.840  26.585  1.00  0.00    -0.045 A 
ATOM     22  C   UNL A   1      34.305  21.137  26.274  1.00  0.00     0.043 A 
ATOM     23  C   UNL A   1      34.461  20.523  25.037  1.00  0.00     0.123 A 
ATOM     24  C   UNL A   1      32.266  21.232  24.392  1.00  0.00     0.007 A 
ATOM     25  F   UNL A   1      35.603  19.879  24.758  1.00  0.00    -0.207 F 
ATOM     26  C   UNL A   1      33.448  20.557  24.095  1.00  0.00     0.039 A 
ENDBRANCH  18  19
ENDBRANCH  17  18
ENDBRANCH  15  17
ENDBRANCH   9  15
ENDBRANCH   5   8
ENDBRANCH   3   4
ENDBRANCH   2   3
ENDBRANCH   1   2
BRANCH   1  27
ATOM     27  C   UNL A   1      34.745  24.775  24.905  1.00  0.00     0.002 C 
BRANCH  27  28
ATOM     28  C   UNL A   1      35.886  24.085  25.658  1.00  0.00     0.021 C 
BRANCH  28  29
ATOM     29  C   UNL A   1      37.093  23.675  24.819  1.00  0.00     0.116 C 
BRANCH  29  30
ATOM     30  N   UNL A   1      37.848  22.585  25.413  1.00  0.00    -0.352 N 
ATOM     31  C   UNL A   1      38.971  22.623  26.200  1.00  0.00     0.251 C 
ATOM     32  H   UNL A   1      37.501  21.684  25.222  1.00  0.00     0.163 HD
ATOM     33  O   UNL A   1      39.558  21.572  26.462  1.00  0.00    -0.269 OA
BRANCH  31  34
ATOM     34  C   UNL A   1      39.496  23.911  26.709  1.00  0.00     0.039 A 
ATOM     35  C   UNL A   1      40.252  24.716  25.852  1.00  0.00     0.014 A 
ATOM     36  C   UNL A   1      39.266  24.321  28.025  1.00  0.00     0.014 A 
ATOM     37  C   UNL A   1      40.724  25.953  26.294  1.00  0.00     0.010 A 
ATOM     38  C   UNL A   1      39.671  25.589  28.441  1.00  0.00     0.010 A 
ATOM     39  C   UNL A   1      40.407  26.419  27.582  1.00  0.00    -0.014 A 
BRANCH  39  40
ATOM     40  C   UNL A   1      40.840  27.769  28.037  1.00  0.00     0.031 A 
ATOM     41  C   UNL A   1      42.299  28.132  28.064  1.00  0.00     0.074 A 
ATOM     42  C   UNL A   1      39.918  28.648  28.479  1.00  0.00     0.049 A 
ATOM     43  N   UNL A   1      42.871  29.235  28.475  1.00  0.00    -0.248 NA
ATOM     44  C   UNL A   1      43.241  27.105  27.596  1.00  0.00     0.031 C 
ATOM     45  C   UNL A   1      38.477  28.396  28.543  1.00  0.00     0.029 A 
ATOM     46  N   UNL A   1      40.051  29.925  28.962  1.00  0.00    -0.354 N 
ATOM     47  C   UNL A   1      44.241  29.031  28.327  1.00  0.00     0.074 A 
ATOM     48  C   UNL A   1      44.409  27.674  27.853  1.00  0.00     0.031 C 
ATOM     49  C   UNL A   1      37.859  29.491  29.011  1.00  0.00     0.029 A 
ATOM     50  C   UNL A   1      38.859  30.505  29.329  1.00  0.00     0.049 A 
ATOM     51  H   UNL A   1      40.920  30.384  29.040  1.00  0.00     0.167 HD
ATOM     52  C   UNL A   1      45.258  29.901  28.548  1.00  0.00     0.034 A 
ATOM     53  C   UNL A   1      38.599  31.710  29.875  1.00  0.00     0.034 A 
ATOM     54  C   UNL A   1      45.067  31.253  29.019  1.00  0.00     0.049 A 
ATOM     55  C   UNL A   1      39.744  32.653  30.137  1.00  0.00     0.074 A 
ATOM     56  C   UNL A   1      46.016  32.241  29.215  1.00  0.00     0.029 A 
ATOM     57  N   UNL A   1      43.844  31.805  29.388  1.00  0.00    -0.354 N 
ATOM     58  N   UNL A   1      41.029  32.470  29.933  1.00  0.00    -0.248 NA
ATOM     59  C   UNL A   1      39.405  33.969  30.691  1.00  0.00     0.031 C 
ATOM     60  C   UNL A   1      45.384  33.353  29.780  1.00  0.00     0.029 A 
ATOM     61  C   UNL A   1      44.023  33.101  29.850  1.00  0.00     0.049 A 
ATOM     62  H   UNL A   1      42.976  31.343  29.328  1.00  0.00     0.167 HD
ATOM     63  C   UNL A   1      41.647  33.659  30.309  1.00  0.00     0.074 A 
ATOM     64  C   UNL A   1      40.592  34.556  30.735  1.00  0.00     0.031 C 
ATOM     65  C   UNL A   1      42.966  33.982  30.296  1.00  0.00     0.034 A 
BRANCH  52  66
ATOM     66  C   UNL A   1      46.666  29.399  28.317  1.00  0.00     0.023 A 
ATOM     67  C   UNL A   1      47.461  28.907  29.368  1.00  0.00     0.031 A 
ATOM     68  C   UNL A   1      47.240  29.449  27.034  1.00  0.00     0.131 A 
ATOM     69  C   UNL A   1      48.805  28.577  29.138  1.00  0.00     0.055 A 
ATOM     70  C   UNL A   1      48.549  29.027  26.793  1.00  0.00     0.041 A 
ATOM     71  F   UNL A   1      46.542  29.927  25.991  1.00  0.00    -0.206 F 
ATOM     72  C   UNL A   1      49.347  28.607  27.852  1.00  0.00     0.022 A 
BRANCH  69  73
ATOM     73  S   UNL A   1      49.881  28.281  30.570  1.00  0.00     0.124 S 
ATOM     74  O   UNL A   1      51.081  29.025  30.195  1.00  0.00    -0.237 OA
ATOM     75  O   UNL A   1      49.101  28.835  31.669  1.00  0.00    -0.237 OA
ATOM     76  O   UNL A   1      50.038  26.828  30.584  1.00  0.00    -0.744 OA
ENDBRANCH  69  73
ENDBRANCH  52  66
BRANCH  53  77
ATOM     77  C   UNL A   1      37.198  32.086  30.226  1.00  0.00     0.023 A 
ATOM     78  C   UNL A   1      36.290  32.515  29.244  1.00  0.00     0.031 A 
ATOM     79  C   UNL A   1      36.752  32.035  31.559  1.00  0.00     0.131 A 
ATOM     80  C   UNL A   1      34.996  32.912  29.615  1.00  0.00     0.055 A 
ATOM     81  C   UNL A   1      35.446  32.378  31.915  1.00  0.00     0.041 A 
ATOM     82  F   UNL A   1      37.577  31.629  32.536  1.00  0.00    -0.206 F 
ATOM     83  C   UNL A   1      34.562  32.831  30.941  1.00  0.00     0.022 A 
BRANCH  80  84
ATOM     84  S   UNL A   1      33.902  33.607  28.346  1.00  0.00     0.124 S 
ATOM     85  O   UNL A   1      32.948  34.355  29.155  1.00  0.00    -0.237 OA
ATOM     86  O   UNL A   1      34.829  34.401  27.547  1.00  0.00    -0.237 OA
ATOM     87  O   UNL A   1      33.362  32.424  27.677  1.00  0.00    -0.744 OA
ENDBRANCH  80  84
ENDBRANCH  53  77
BRANCH  65  88
ATOM     88  C   UNL A   1      43.336  35.383  30.724  1.00  0.00     0.023 A 
ATOM     89  C   UNL A   1      43.542  35.718  32.074  1.00  0.00     0.031 A 
ATOM     90  C   UNL A   1      43.470  36.404  29.764  1.00  0.00     0.131 A 
ATOM     91  C   UNL A   1      43.807  37.050  32.432  1.00  0.00     0.055 A 
ATOM     92  C   UNL A   1      43.804  37.711  30.120  1.00  0.00     0.041 A 
ATOM     93  F   UNL A   1      43.278  36.145  28.461  1.00  0.00    -0.206 F 
ATOM     94  C   UNL A   1      43.961  38.043  31.463  1.00  0.00     0.022 A 
BRANCH  91  95
ATOM     95  S   UNL A   1      43.841  37.487  34.193  1.00  0.00     0.124 S 
ATOM     96  O   UNL A   1      45.053  38.297  34.280  1.00  0.00    -0.237 OA
ATOM     97  O   UNL A   1      42.582  38.203  34.361  1.00  0.00    -0.237 OA
ATOM     98  O   UNL A   1      43.913  36.191  34.866  1.00  0.00    -0.744 OA
ENDBRANCH  91  95
ENDBRANCH  65  88
ENDBRANCH  39  40
ENDBRANCH  31  34
ENDBRANCH  29  30
ENDBRANCH  28  29
ENDBRANCH  27  28
ENDBRANCH   1  27
TORSDOF 20
ENDMDL
MODEL 2
REMARK VINA RESULT:     -11.3      5.282      8.618
REMARK SMILES Cc1cc(F)ccc1CCNc1ccc(Cl)c(C(=O)NCCCCCCNC(=O)c2ccc(-c3c4nc(c(-c5cc(S(=O)(=O)[O-])ccc5F)c5ccc([nH]5)c(-c5cc(S(=O)(=O)[O-])ccc5F)c5nc(c(-c6cc(S(=O)(=O)[O-])ccc6F)c6ccc3[nH]6)C=C5)C=C4)cc2)n1
REMARK SMILES IDX 23 1 22 2 21 3 20 4 18 5 19 6 17 8 12 9 13 10 93 11 14 12
REMARK SMILES IDX 15 13 16 14 11 15 10 17 9 18 8 19 1 20 2 21 3 22 4 23 7 24
REMARK SMILES IDX 5 25 6 26 24 27 25 28 26 29 27 30 28 31 29 33 30 34 31 35
REMARK SMILES IDX 92 36 32 37 91 38 33 39 34 40 35 41 85 42 36 43 90 44 84 45
REMARK SMILES IDX 86 46 37 47 89 48 83 49 82 50 38 52 70 53 50 54 69 55 51 56
REMARK SMILES IDX 54 57 68 58 87 59 52 60 53 61 67 63 88 64 55 65 39 66 40 67
REMARK SMILES IDX 48 68 41 69 47 70 49 71 46 72 42 73 43 74 44 75 45 76 71 77
REMARK SMILES IDX 72 78 80 79 73 80 79 81 81 82 78 83 74 84 75 85 76 86 77 87
REMARK SMILES IDX 56 88 57 89 65 90 58 91 64 92 66 93 63 94 59 95 60 96 61 97
REMARK SMILES IDX 62 98
REMARK H PARENT 20 7 11 16 27 32 86 51 54 62
REMARK Flexibility Score: inf
ROOT
ATOM      1  C   UNL A   1      32.314  29.639  25.940  1.00  0.00     0.002 C 
ENDROOT
BRANCH   1   2
ATOM      2  C   UNL A   1      31.544  28.320  26.073  1.00  0.00     0.021 C 
BRANCH   2   3
ATOM      3  C   UNL A   1      32.178  27.240  26.942  1.00  0.00     0.116 C 
BRANCH   3   4
ATOM      4  N   UNL A   1      31.417  26.013  27.058  1.00  0.00    -0.351 N 
ATOM      5  C   UNL A   1      31.598  24.780  26.455  1.00  0.00     0.271 C 
ATOM      6  O   UNL A   1      30.834  23.872  26.800  1.00  0.00    -0.267 OA
ATOM      7  H   UNL A   1      30.643  26.064  27.665  1.00  0.00     0.163 HD
BRANCH   5   8
ATOM      8  C   UNL A   1      32.605  24.515  25.365  1.00  0.00     0.149 A 
ATOM      9  C   UNL A   1      32.943  24.651  23.054  1.00  0.00     0.126 A 
ATOM     10  C   UNL A   1      34.255  24.230  23.197  1.00  0.00     0.048 A 
ATOM     11  N   UNL A   1      32.157  24.884  24.120  1.00  0.00    -0.224 NA
ATOM     12  C   UNL A   1      34.703  23.837  24.450  1.00  0.00     0.027 A 
ATOM     13  C   UNL A   1      33.833  23.882  25.537  1.00  0.00     0.072 A 
ATOM     14  Cl  UNL A   1      34.301  22.963  26.917  1.00  0.00    -0.082 Cl
BRANCH   9  15
ATOM     15  N   UNL A   1      32.360  24.779  21.806  1.00  0.00    -0.370 N 
ATOM     16  H   UNL A   1      32.390  24.037  21.160  1.00  0.00     0.162 HD
BRANCH  15  17
ATOM     17  C   UNL A   1      31.696  26.043  21.463  1.00  0.00     0.119 C 
BRANCH  17  18
ATOM     18  C   UNL A   1      31.789  27.085  22.597  1.00  0.00     0.057 C 
BRANCH  18  19
ATOM     19  C   UNL A   1      30.583  28.005  22.654  1.00  0.00    -0.043 A 
ATOM     20  C   UNL A   1      29.100  26.357  23.980  1.00  0.00     0.045 C 
ATOM     21  C   UNL A   1      29.343  27.637  23.226  1.00  0.00    -0.045 A 
ATOM     22  C   UNL A   1      28.263  28.536  23.143  1.00  0.00     0.043 A 
ATOM     23  C   UNL A   1      28.406  29.762  22.505  1.00  0.00     0.123 A 
ATOM     24  C   UNL A   1      30.708  29.276  22.055  1.00  0.00     0.007 A 
ATOM     25  F   UNL A   1      27.355  30.589  22.419  1.00  0.00    -0.207 F 
ATOM     26  C   UNL A   1      29.622  30.144  21.966  1.00  0.00     0.039 A 
ENDBRANCH  18  19
ENDBRANCH  17  18
ENDBRANCH  15  17
ENDBRANCH   9  15
ENDBRANCH   5   8
ENDBRANCH   3   4
ENDBRANCH   2   3
ENDBRANCH   1   2
BRANCH   1  27
ATOM     27  C   UNL A   1      31.492  30.918  25.750  1.00  0.00     0.002 C 
BRANCH  27  28
ATOM     28  C   UNL A   1      31.412  31.877  26.941  1.00  0.00     0.021 C 
BRANCH  28  29
ATOM     29  C   UNL A   1      32.711  32.576  27.329  1.00  0.00     0.116 C 
BRANCH  29  30
ATOM     30  N   UNL A   1      32.523  33.982  27.643  1.00  0.00    -0.352 N 
ATOM     31  C   UNL A   1      33.148  34.763  28.581  1.00  0.00     0.251 C 
ATOM     32  H   UNL A   1      31.843  34.444  27.100  1.00  0.00     0.163 HD
ATOM     33  O   UNL A   1      32.720  35.897  28.803  1.00  0.00    -0.269 OA
BRANCH  31  34
ATOM     34  C   UNL A   1      34.308  34.247  29.344  1.00  0.00     0.039 A 
ATOM     35  C   UNL A   1      34.074  33.431  30.455  1.00  0.00     0.014 A 
ATOM     36  C   UNL A   1      35.619  34.575  28.987  1.00  0.00     0.014 A 
ATOM     37  C   UNL A   1      35.151  32.898  31.167  1.00  0.00     0.010 A 
ATOM     38  C   UNL A   1      36.692  33.981  29.650  1.00  0.00     0.010 A 
ATOM     39  C   UNL A   1      36.471  33.138  30.750  1.00  0.00    -0.014 A 
BRANCH  39  40
ATOM     40  C   UNL A   1      37.624  32.513  31.455  1.00  0.00     0.031 A 
ATOM     41  C   UNL A   1      38.369  31.368  30.826  1.00  0.00     0.074 A 
ATOM     42  C   UNL A   1      37.962  32.943  32.687  1.00  0.00     0.049 A 
ATOM     43  N   UNL A   1      39.363  30.663  31.305  1.00  0.00    -0.248 NA
ATOM     44  C   UNL A   1      37.917  30.939  29.495  1.00  0.00     0.031 C 
ATOM     45  C   UNL A   1      37.286  34.016  33.419  1.00  0.00     0.029 A 
ATOM     46  N   UNL A   1      38.951  32.531  33.544  1.00  0.00    -0.354 N 
ATOM     47  C   UNL A   1      39.646  29.700  30.341  1.00  0.00     0.074 A 
ATOM     48  C   UNL A   1      38.673  29.874  29.284  1.00  0.00     0.031 C 
ATOM     49  C   UNL A   1      37.896  34.194  34.601  1.00  0.00     0.029 A 
ATOM     50  C   UNL A   1      38.973  33.218  34.736  1.00  0.00     0.049 A 
ATOM     51  H   UNL A   1      39.587  31.810  33.326  1.00  0.00     0.167 HD
ATOM     52  C   UNL A   1      40.637  28.772  30.332  1.00  0.00     0.034 A 
ATOM     53  C   UNL A   1      39.757  33.070  35.822  1.00  0.00     0.034 A 
ATOM     54  C   UNL A   1      41.599  28.619  31.398  1.00  0.00     0.049 A 
ATOM     55  C   UNL A   1      40.835  32.017  35.803  1.00  0.00     0.074 A 
ATOM     56  C   UNL A   1      42.683  27.760  31.465  1.00  0.00     0.029 A 
ATOM     57  N   UNL A   1      41.586  29.328  32.594  1.00  0.00    -0.354 N 
ATOM     58  N   UNL A   1      41.132  31.155  34.858  1.00  0.00    -0.248 NA
ATOM     59  C   UNL A   1      41.691  31.926  36.991  1.00  0.00     0.031 C 
ATOM     60  C   UNL A   1      43.268  27.887  32.729  1.00  0.00     0.029 A 
ATOM     61  C   UNL A   1      42.613  28.894  33.421  1.00  0.00     0.049 A 
ATOM     62  H   UNL A   1      40.941  30.037  32.822  1.00  0.00     0.167 HD
ATOM     63  C   UNL A   1      42.228  30.437  35.328  1.00  0.00     0.074 A 
ATOM     64  C   UNL A   1      42.548  30.980  36.633  1.00  0.00     0.031 C 
ATOM     65  C   UNL A   1      42.911  29.426  34.732  1.00  0.00     0.034 A 
BRANCH  52  66
ATOM     66  C   UNL A   1      40.699  27.832  29.148  1.00  0.00     0.023 A 
ATOM     67  C   UNL A   1      41.643  27.996  28.118  1.00  0.00     0.031 A 
ATOM     68  C   UNL A   1      39.775  26.779  29.026  1.00  0.00     0.131 A 
ATOM     69  C   UNL A   1      41.581  27.186  26.974  1.00  0.00     0.055 A 
ATOM     70  C   UNL A   1      39.782  25.915  27.928  1.00  0.00     0.041 A 
ATOM     71  F   UNL A   1      38.835  26.580  29.964  1.00  0.00    -0.206 F 
ATOM     72  C   UNL A   1      40.675  26.128  26.884  1.00  0.00     0.022 A 
BRANCH  69  73
ATOM     73  S   UNL A   1      42.583  27.649  25.533  1.00  0.00     0.124 S 
ATOM     74  O   UNL A   1      42.471  26.452  24.701  1.00  0.00    -0.237 OA
ATOM     75  O   UNL A   1      41.896  28.837  25.041  1.00  0.00    -0.237 OA
ATOM     76  O   UNL A   1      43.909  27.881  26.099  1.00  0.00    -0.744 OA
ENDBRANCH  69  73
ENDBRANCH  52  66
BRANCH  53  77
ATOM     77  C   UNL A   1      39.542  33.928  37.023  1.00  0.00     0.023 A 
ATOM     78  C   UNL A   1      38.916  33.426  38.176  1.00  0.00     0.031 A 
ATOM     79  C   UNL A   1      39.949  35.274  37.028  1.00  0.00     0.131 A 
ATOM     80  C   UNL A   1      38.681  34.274  39.269  1.00  0.00     0.055 A 
ATOM     81  C   UNL A   1      39.763  36.099  38.139  1.00  0.00     0.041 A 
ATOM     82  F   UNL A   1      40.556  35.805  35.954  1.00  0.00    -0.206 F 
ATOM     83  C   UNL A   1      39.116  35.602  39.265  1.00  0.00     0.022 A 
BRANCH  80  84
ATOM     84  S   UNL A   1      37.733  33.636  40.678  1.00  0.00     0.124 S 
ATOM     85  O   UNL A   1      36.572  33.057  40.015  1.00  0.00    -0.237 OA
ATOM     86  O   UNL A   1      38.672  32.692  41.273  1.00  0.00    -0.237 OA
ATOM     87  O   UNL A   1      37.465  34.832  41.477  1.00  0.00    -0.744 OA
ENDBRANCH  80  84
ENDBRANCH  53  77
BRANCH  65  88
ATOM     88  C   UNL A   1      44.101  28.867  35.477  1.00  0.00     0.023 A 
ATOM     89  C   UNL A   1      43.973  27.808  36.394  1.00  0.00     0.031 A 
ATOM     90  C   UNL A   1      45.382  29.413  35.277  1.00  0.00     0.131 A 
ATOM     91  C   UNL A   1      45.092  27.372  37.121  1.00  0.00     0.055 A 
ATOM     92  C   UNL A   1      46.504  28.928  35.951  1.00  0.00     0.041 A 
ATOM     93  F   UNL A   1      45.564  30.430  34.420  1.00  0.00    -0.206 F 
ATOM     94  C   UNL A   1      46.360  27.911  36.890  1.00  0.00     0.022 A 
BRANCH  91  95
ATOM     95  S   UNL A   1      44.849  26.165  38.453  1.00  0.00     0.124 S 
ATOM     96  O   UNL A   1      44.931  24.898  37.733  1.00  0.00    -0.237 OA
ATOM     97  O   UNL A   1      45.959  26.462  39.351  1.00  0.00    -0.237 OA
ATOM     98  O   UNL A   1      43.524  26.495  38.976  1.00  0.00    -0.744 OA
ENDBRANCH  91  95
ENDBRANCH  65  88
ENDBRANCH  39  40
ENDBRANCH  31  34
ENDBRANCH  29  30
ENDBRANCH  28  29
ENDBRANCH  27  28
ENDBRANCH   1  27
TORSDOF 20
ENDMDL
MODEL 3
REMARK VINA RESULT:     -11.1      3.923      9.115
REMARK SMILES Cc1cc(F)ccc1CCNc1ccc(Cl)c(C(=O)NCCCCCCNC(=O)c2ccc(-c3c4nc(c(-c5cc(S(=O)(=O)[O-])ccc5F)c5ccc([nH]5)c(-c5cc(S(=O)(=O)[O-])ccc5F)c5nc(c(-c6cc(S(=O)(=O)[O-])ccc6F)c6ccc3[nH]6)C=C5)C=C4)cc2)n1
REMARK SMILES IDX 23 1 22 2 21 3 20 4 18 5 19 6 17 8 12 9 13 10 93 11 14 12
REMARK SMILES IDX 15 13 16 14 11 15 10 17 9 18 8 19 1 20 2 21 3 22 4 23 7 24
REMARK SMILES IDX 5 25 6 26 24 27 25 28 26 29 27 30 28 31 29 33 30 34 31 35
REMARK SMILES IDX 92 36 32 37 91 38 33 39 34 40 35 41 85 42 36 43 90 44 84 45
REMARK SMILES IDX 86 46 37 47 89 48 83 49 82 50 38 52 70 53 50 54 69 55 51 56
REMARK SMILES IDX 54 57 68 58 87 59 52 60 53 61 67 63 88 64 55 65 39 66 40 67
REMARK SMILES IDX 48 68 41 69 47 70 49 71 46 72 42 73 43 74 44 75 45 76 71 77
REMARK SMILES IDX 72 78 80 79 73 80 79 81 81 82 78 83 74 84 75 85 76 86 77 87
REMARK SMILES IDX 56 88 57 89 65 90 58 91 64 92 66 93 63 94 59 95 60 96 61 97
REMARK SMILES IDX 62 98
REMARK H PARENT 20 7 11 16 27 32 86 51 54 62
REMARK Flexibility Score: inf
ROOT
ATOM      1  C   UNL A   1      35.550  19.926  24.986  1.00  0.00     0.002 C 
ENDROOT
BRANCH   1   2
ATOM      2  C   UNL A   1      34.322  20.325  25.812  1.00  0.00     0.021 C 
BRANCH   2   3
ATOM      3  C   UNL A   1      32.970  19.817  25.323  1.00  0.00     0.116 C 
BRANCH   3   4
ATOM      4  N   UNL A   1      32.538  20.342  24.043  1.00  0.00    -0.351 N 
ATOM      5  C   UNL A   1      32.545  21.637  23.552  1.00  0.00     0.271 C 
ATOM      6  O   UNL A   1      32.185  21.791  22.381  1.00  0.00    -0.267 OA
ATOM      7  H   UNL A   1      32.180  19.668  23.421  1.00  0.00     0.163 HD
BRANCH   5   8
ATOM      8  C   UNL A   1      32.885  22.850  24.380  1.00  0.00     0.149 A 
ATOM      9  C   UNL A   1      31.990  24.396  25.892  1.00  0.00     0.126 A 
ATOM     10  C   UNL A   1      33.231  24.989  26.055  1.00  0.00     0.048 A 
ATOM     11  N   UNL A   1      31.831  23.288  25.146  1.00  0.00    -0.224 NA
ATOM     12  C   UNL A   1      34.291  24.563  25.268  1.00  0.00     0.027 A 
ATOM     13  C   UNL A   1      34.091  23.543  24.339  1.00  0.00     0.072 A 
ATOM     14  Cl  UNL A   1      35.289  23.397  23.110  1.00  0.00    -0.082 Cl
BRANCH   9  15
ATOM     15  N   UNL A   1      30.847  24.959  26.428  1.00  0.00    -0.370 N 
ATOM     16  H   UNL A   1      30.207  24.410  26.936  1.00  0.00     0.162 HD
BRANCH  15  17
ATOM     17  C   UNL A   1      30.604  26.393  26.225  1.00  0.00     0.119 C 
BRANCH  17  18
ATOM     18  C   UNL A   1      30.318  26.740  24.749  1.00  0.00     0.057 C 
BRANCH  18  19
ATOM     19  C   UNL A   1      31.526  27.316  24.032  1.00  0.00    -0.043 A 
ATOM     20  C   UNL A   1      31.629  25.464  22.233  1.00  0.00     0.045 C 
ATOM     21  C   UNL A   1      32.155  26.690  22.931  1.00  0.00    -0.045 A 
ATOM     22  C   UNL A   1      33.324  27.265  22.399  1.00  0.00     0.043 A 
ATOM     23  C   UNL A   1      33.860  28.423  22.950  1.00  0.00     0.123 A 
ATOM     24  C   UNL A   1      32.069  28.515  24.537  1.00  0.00     0.007 A 
ATOM     25  F   UNL A   1      34.988  28.937  22.440  1.00  0.00    -0.207 F 
ATOM     26  C   UNL A   1      33.238  29.058  24.010  1.00  0.00     0.039 A 
ENDBRANCH  18  19
ENDBRANCH  17  18
ENDBRANCH  15  17
ENDBRANCH   9  15
ENDBRANCH   5   8
ENDBRANCH   3   4
ENDBRANCH   2   3
ENDBRANCH   1   2
BRANCH   1  27
ATOM     27  C   UNL A   1      36.796  20.811  25.105  1.00  0.00     0.002 C 
BRANCH  27  28
ATOM     28  C   UNL A   1      38.152  20.136  24.883  1.00  0.00     0.021 C 
BRANCH  28  29
ATOM     29  C   UNL A   1      39.208  20.379  25.956  1.00  0.00     0.116 C 
BRANCH  29  30
ATOM     30  N   UNL A   1      40.267  19.384  25.941  1.00  0.00    -0.352 N 
ATOM     31  C   UNL A   1      41.628  19.550  26.005  1.00  0.00     0.251 C 
ATOM     32  H   UNL A   1      39.962  18.451  25.874  1.00  0.00     0.163 HD
ATOM     33  O   UNL A   1      42.362  18.582  25.805  1.00  0.00    -0.269 OA
BRANCH  31  34
ATOM     34  C   UNL A   1      42.215  20.880  26.283  1.00  0.00     0.039 A 
ATOM     35  C   UNL A   1      42.492  21.733  25.210  1.00  0.00     0.014 A 
ATOM     36  C   UNL A   1      42.514  21.287  27.587  1.00  0.00     0.014 A 
ATOM     37  C   UNL A   1      43.008  23.008  25.448  1.00  0.00     0.010 A 
ATOM     38  C   UNL A   1      42.956  22.587  27.829  1.00  0.00     0.010 A 
ATOM     39  C   UNL A   1      43.212  23.462  26.762  1.00  0.00    -0.014 A 
BRANCH  39  40
ATOM     40  C   UNL A   1      43.689  24.846  27.030  1.00  0.00     0.031 A 
ATOM     41  C   UNL A   1      42.764  25.866  27.637  1.00  0.00     0.074 A 
ATOM     42  C   UNL A   1      44.940  25.199  26.674  1.00  0.00     0.049 A 
ATOM     43  N   UNL A   1      42.980  27.130  27.898  1.00  0.00    -0.248 NA
ATOM     44  C   UNL A   1      41.406  25.409  27.967  1.00  0.00     0.031 C 
ATOM     45  C   UNL A   1      45.916  24.312  26.037  1.00  0.00     0.029 A 
ATOM     46  N   UNL A   1      45.607  26.393  26.790  1.00  0.00    -0.354 N 
ATOM     47  C   UNL A   1      41.783  27.624  28.409  1.00  0.00     0.074 A 
ATOM     48  C   UNL A   1      40.830  26.535  28.357  1.00  0.00     0.031 C 
ATOM     49  C   UNL A   1      47.060  24.984  25.843  1.00  0.00     0.029 A 
ATOM     50  C   UNL A   1      46.889  26.361  26.293  1.00  0.00     0.049 A 
ATOM     51  H   UNL A   1      45.204  27.197  27.191  1.00  0.00     0.167 HD
ATOM     52  C   UNL A   1      41.513  28.862  28.894  1.00  0.00     0.034 A 
ATOM     53  C   UNL A   1      47.818  27.333  26.194  1.00  0.00     0.034 A 
ATOM     54  C   UNL A   1      42.481  29.933  28.939  1.00  0.00     0.049 A 
ATOM     55  C   UNL A   1      47.490  28.709  26.714  1.00  0.00     0.074 A 
ATOM     56  C   UNL A   1      42.337  31.204  29.467  1.00  0.00     0.029 A 
ATOM     57  N   UNL A   1      43.769  29.867  28.419  1.00  0.00    -0.354 N 
ATOM     58  N   UNL A   1      46.374  29.144  27.254  1.00  0.00    -0.248 NA
ATOM     59  C   UNL A   1      48.549  29.720  26.625  1.00  0.00     0.031 C 
ATOM     60  C   UNL A   1      43.500  31.930  29.191  1.00  0.00     0.029 A 
ATOM     61  C   UNL A   1      44.412  31.087  28.576  1.00  0.00     0.049 A 
ATOM     62  H   UNL A   1      44.169  29.069  28.002  1.00  0.00     0.167 HD
ATOM     63  C   UNL A   1      46.608  30.474  27.592  1.00  0.00     0.074 A 
ATOM     64  C   UNL A   1      47.977  30.762  27.211  1.00  0.00     0.031 C 
ATOM     65  C   UNL A   1      45.771  31.372  28.172  1.00  0.00     0.034 A 
BRANCH  52  66
ATOM     66  C   UNL A   1      40.104  29.128  29.376  1.00  0.00     0.023 A 
ATOM     67  C   UNL A   1      39.763  29.077  30.740  1.00  0.00     0.031 A 
ATOM     68  C   UNL A   1      39.074  29.397  28.456  1.00  0.00     0.131 A 
ATOM     69  C   UNL A   1      38.422  29.196  31.134  1.00  0.00     0.055 A 
ATOM     70  C   UNL A   1      37.756  29.610  28.865  1.00  0.00     0.041 A 
ATOM     71  F   UNL A   1      39.328  29.438  27.138  1.00  0.00    -0.206 F 
ATOM     72  C   UNL A   1      37.419  29.491  30.208  1.00  0.00     0.022 A 
BRANCH  69  73
ATOM     73  S   UNL A   1      37.984  28.785  32.847  1.00  0.00     0.124 S 
ATOM     74  O   UNL A   1      36.622  29.306  32.935  1.00  0.00    -0.237 OA
ATOM     75  O   UNL A   1      38.116  27.333  32.865  1.00  0.00    -0.237 OA
ATOM     76  O   UNL A   1      38.973  29.514  33.637  1.00  0.00    -0.744 OA
ENDBRANCH  69  73
ENDBRANCH  52  66
BRANCH  53  77
ATOM     77  C   UNL A   1      49.139  27.045  25.563  1.00  0.00     0.023 A 
ATOM     78  C   UNL A   1      50.222  26.573  26.322  1.00  0.00     0.031 A 
ATOM     79  C   UNL A   1      49.340  27.255  24.187  1.00  0.00     0.131 A 
ATOM     80  C   UNL A   1      51.467  26.362  25.707  1.00  0.00     0.055 A 
ATOM     81  C   UNL A   1      50.564  26.991  23.570  1.00  0.00     0.041 A 
ATOM     82  F   UNL A   1      48.337  27.702  23.415  1.00  0.00    -0.206 F 
ATOM     83  C   UNL A   1      51.640  26.551  24.334  1.00  0.00     0.022 A 
BRANCH  80  84
ATOM     84  S   UNL A   1      52.883  25.902  26.744  1.00  0.00     0.124 S 
ATOM     85  O   UNL A   1      52.349  26.110  28.084  1.00  0.00    -0.237 OA
ATOM     86  O   UNL A   1      53.110  24.516  26.350  1.00  0.00    -0.237 OA
ATOM     87  O   UNL A   1      53.924  26.843  26.333  1.00  0.00    -0.744 OA
ENDBRANCH  80  84
ENDBRANCH  53  77
BRANCH  65  88
ATOM     88  C   UNL A   1      46.330  32.746  28.462  1.00  0.00     0.023 A 
ATOM     89  C   UNL A   1      46.319  33.772  27.500  1.00  0.00     0.031 A 
ATOM     90  C   UNL A   1      46.897  33.028  29.718  1.00  0.00     0.131 A 
ATOM     91  C   UNL A   1      46.919  35.008  27.788  1.00  0.00     0.055 A 
ATOM     92  C   UNL A   1      47.428  34.282  30.023  1.00  0.00     0.041 A 
ATOM     93  F   UNL A   1      46.942  32.086  30.674  1.00  0.00    -0.206 F 
ATOM     94  C   UNL A   1      47.454  35.276  29.050  1.00  0.00     0.022 A 
BRANCH  91  95
ATOM     95  S   UNL A   1      47.089  36.225  26.453  1.00  0.00     0.124 S 
ATOM     96  O   UNL A   1      45.977  37.131  26.726  1.00  0.00    -0.237 OA
ATOM     97  O   UNL A   1      48.423  36.764  26.689  1.00  0.00    -0.237 OA
ATOM     98  O   UNL A   1      46.950  35.423  25.239  1.00  0.00    -0.744 OA
ENDBRANCH  91  95
ENDBRANCH  65  88
ENDBRANCH  39  40
ENDBRANCH  31  34
ENDBRANCH  29  30
ENDBRANCH  28  29
ENDBRANCH  27  28
ENDBRANCH   1  27
TORSDOF 20
ENDMDL
