MODEL 1
REMARK VINA RESULT:     -11.6      0.000      0.000
REMARK SMILES O=C(NCCCCCCNC(=O)[C@@H]1CC(=O)N(c2ccc(Cl)cc2C(=O)c2ccccc2)C1)c1ccc(-c2c3nc(c(-c4cc(S(=O)(=O)[O-])ccc4F)c4ccc([nH]4)c(-c4cc(S(=O)(=O)[O-])ccc4F)c4nc(c(-c5cc(S(=O)(=O)[O-])ccc5F)c5ccc2[nH]5)C=C4)C=C3)cc1
REMARK SMILES IDX 6 1 5 2 4 3 3 4 1 5 2 6 34 8 35 9 96 10 36 11 95 12 37 13
REMARK SMILES IDX 38 14 39 15 89 16 40 17 94 18 88 19 90 20 41 21 93 22 87 23
REMARK SMILES IDX 86 24 42 26 74 27 54 28 73 29 55 30 58 31 72 32 91 33 56 34
REMARK SMILES IDX 57 35 71 37 92 38 59 39 43 40 44 41 52 42 45 43 51 44 53 45
REMARK SMILES IDX 50 46 46 47 47 48 48 49 49 50 75 51 76 52 84 53 77 54 83 55
REMARK SMILES IDX 85 56 82 57 78 58 79 59 80 60 81 61 60 62 61 63 69 64 62 65
REMARK SMILES IDX 68 66 70 67 67 68 63 69 64 70 65 71 66 72 7 73 8 74 9 75
REMARK SMILES IDX 10 76 11 77 12 79 13 80 14 81 33 82 15 83 17 84 16 85 18 86
REMARK SMILES IDX 19 87 24 88 20 89 23 90 21 91 22 92 25 93 26 94 27 95 28 96
REMARK SMILES IDX 32 97 29 98 31 99 30 100
REMARK H PARENT 3 7 90 25 58 36 10 78
REMARK Flexibility Score: inf
ROOT
ATOM      1  C   UNL A   1      31.564  28.053  26.339  1.00  0.00     0.002 C 
ENDROOT
BRANCH   1   2
ATOM      2  C   UNL A   1      33.004  27.790  26.763  1.00  0.00     0.021 C 
BRANCH   2   3
ATOM      3  C   UNL A   1      34.010  28.800  26.239  1.00  0.00     0.116 C 
BRANCH   3   4
ATOM      4  N   UNL A   1      33.782  30.149  26.737  1.00  0.00    -0.352 N 
ATOM      5  O   UNL A   1      34.158  31.931  28.082  1.00  0.00    -0.269 OA
ATOM      6  C   UNL A   1      34.539  30.849  27.651  1.00  0.00     0.251 C 
ATOM      7  H   UNL A   1      32.993  30.616  26.377  1.00  0.00     0.163 HD
BRANCH   6   8
ATOM      8  C   UNL A   1      35.808  30.250  28.122  1.00  0.00     0.039 A 
ATOM      9  C   UNL A   1      35.840  29.568  29.340  1.00  0.00     0.014 A 
ATOM     10  C   UNL A   1      36.978  30.430  27.380  1.00  0.00     0.014 A 
ATOM     11  C   UNL A   1      37.062  29.215  29.895  1.00  0.00     0.010 A 
ATOM     12  C   UNL A   1      38.196  29.965  27.890  1.00  0.00     0.010 A 
ATOM     13  C   UNL A   1      38.251  29.376  29.163  1.00  0.00    -0.014 A 
BRANCH  13  14
ATOM     14  C   UNL A   1      39.513  28.823  29.724  1.00  0.00     0.031 A 
ATOM     15  C   UNL A   1      40.160  29.410  30.946  1.00  0.00     0.074 A 
ATOM     16  C   UNL A   1      40.050  27.743  29.121  1.00  0.00     0.049 A 
ATOM     17  N   UNL A   1      41.255  29.032  31.557  1.00  0.00    -0.248 NA
ATOM     18  C   UNL A   1      39.502  30.573  31.562  1.00  0.00     0.031 C 
ATOM     19  C   UNL A   1      39.505  27.092  27.924  1.00  0.00     0.029 A 
ATOM     20  N   UNL A   1      41.149  26.985  29.433  1.00  0.00    -0.354 N 
ATOM     21  C   UNL A   1      41.428  29.913  32.620  1.00  0.00     0.074 A 
ATOM     22  C   UNL A   1      40.339  30.866  32.549  1.00  0.00     0.031 C 
ATOM     23  C   UNL A   1      40.232  26.005  27.642  1.00  0.00     0.029 A 
ATOM     24  C   UNL A   1      41.351  25.932  28.570  1.00  0.00     0.049 A 
ATOM     25  H   UNL A   1      41.736  27.176  30.199  1.00  0.00     0.167 HD
ATOM     26  C   UNL A   1      42.401  29.916  33.566  1.00  0.00     0.034 A 
ATOM     27  C   UNL A   1      42.345  25.027  28.506  1.00  0.00     0.034 A 
ATOM     28  C   UNL A   1      43.482  28.956  33.612  1.00  0.00     0.049 A 
ATOM     29  C   UNL A   1      43.444  25.098  29.531  1.00  0.00     0.074 A 
ATOM     30  C   UNL A   1      44.506  28.857  34.539  1.00  0.00     0.029 A 
ATOM     31  N   UNL A   1      43.689  27.939  32.688  1.00  0.00    -0.354 N 
ATOM     32  N   UNL A   1      43.580  25.927  30.540  1.00  0.00    -0.248 NA
ATOM     33  C   UNL A   1      44.521  24.110  29.410  1.00  0.00     0.031 C 
ATOM     34  C   UNL A   1      45.372  27.836  34.133  1.00  0.00     0.029 A 
ATOM     35  C   UNL A   1      44.842  27.233  33.002  1.00  0.00     0.049 A 
ATOM     36  H   UNL A   1      43.102  27.746  31.921  1.00  0.00     0.167 HD
ATOM     37  C   UNL A   1      44.749  25.543  31.188  1.00  0.00     0.074 A 
ATOM     38  C   UNL A   1      45.258  24.390  30.473  1.00  0.00     0.031 C 
ATOM     39  C   UNL A   1      45.350  26.095  32.273  1.00  0.00     0.034 A 
BRANCH  26  40
ATOM     40  C   UNL A   1      42.370  31.012  34.606  1.00  0.00     0.023 A 
ATOM     41  C   UNL A   1      42.978  32.260  34.388  1.00  0.00     0.031 A 
ATOM     42  C   UNL A   1      41.709  30.810  35.832  1.00  0.00     0.131 A 
ATOM     43  C   UNL A   1      42.961  33.235  35.398  1.00  0.00     0.055 A 
ATOM     44  C   UNL A   1      41.630  31.811  36.803  1.00  0.00     0.041 A 
ATOM     45  F   UNL A   1      41.127  29.632  36.109  1.00  0.00    -0.206 F 
ATOM     46  C   UNL A   1      42.269  33.030  36.593  1.00  0.00     0.022 A 
BRANCH  43  47
ATOM     47  S   UNL A   1      43.966  34.730  35.176  1.00  0.00     0.124 S 
ATOM     48  O   UNL A   1      44.748  34.388  33.991  1.00  0.00    -0.237 OA
ATOM     49  O   UNL A   1      42.955  35.766  34.995  1.00  0.00    -0.237 OA
ATOM     50  O   UNL A   1      44.732  34.816  36.418  1.00  0.00    -0.744 OA
ENDBRANCH  43  47
ENDBRANCH  26  40
BRANCH  27  51
ATOM     51  C   UNL A   1      42.376  24.015  27.411  1.00  0.00     0.023 A 
ATOM     52  C   UNL A   1      41.825  22.738  27.590  1.00  0.00     0.031 A 
ATOM     53  C   UNL A   1      43.006  24.295  26.184  1.00  0.00     0.131 A 
ATOM     54  C   UNL A   1      41.966  21.770  26.584  1.00  0.00     0.055 A 
ATOM     55  C   UNL A   1      43.079  23.353  25.159  1.00  0.00     0.041 A 
ATOM     56  F   UNL A   1      43.551  25.501  25.958  1.00  0.00    -0.206 F 
ATOM     57  C   UNL A   1      42.572  22.074  25.363  1.00  0.00     0.022 A 
BRANCH  54  58
ATOM     58  S   UNL A   1      41.448  20.071  26.944  1.00  0.00     0.124 S 
ATOM     59  O   UNL A   1      40.616  20.260  28.127  1.00  0.00    -0.237 OA
ATOM     60  O   UNL A   1      40.748  19.702  25.719  1.00  0.00    -0.237 OA
ATOM     61  O   UNL A   1      42.711  19.374  27.174  1.00  0.00    -0.744 OA
ENDBRANCH  54  58
ENDBRANCH  27  51
BRANCH  39  62
ATOM     62  C   UNL A   1      46.607  25.420  32.767  1.00  0.00     0.023 A 
ATOM     63  C   UNL A   1      46.571  24.435  33.769  1.00  0.00     0.031 A 
ATOM     64  C   UNL A   1      47.861  25.796  32.255  1.00  0.00     0.131 A 
ATOM     65  C   UNL A   1      47.769  23.915  34.281  1.00  0.00     0.055 A 
ATOM     66  C   UNL A   1      49.045  25.220  32.716  1.00  0.00     0.041 A 
ATOM     67  F   UNL A   1      47.957  26.737  31.301  1.00  0.00    -0.206 F 
ATOM     68  C   UNL A   1      49.005  24.287  33.747  1.00  0.00     0.022 A 
BRANCH  65  69
ATOM     69  S   UNL A   1      47.696  22.839  35.739  1.00  0.00     0.124 S 
ATOM     70  O   UNL A   1      48.181  21.571  35.203  1.00  0.00    -0.237 OA
ATOM     71  O   UNL A   1      48.588  23.518  36.673  1.00  0.00    -0.237 OA
ATOM     72  O   UNL A   1      46.282  22.856  36.109  1.00  0.00    -0.744 OA
ENDBRANCH  65  69
ENDBRANCH  39  62
ENDBRANCH  13  14
ENDBRANCH   6   8
ENDBRANCH   3   4
ENDBRANCH   2   3
ENDBRANCH   1   2
BRANCH   1  73
ATOM     73  C   UNL A   1      31.404  28.670  24.947  1.00  0.00     0.002 C 
BRANCH  73  74
ATOM     74  C   UNL A   1      30.203  28.160  24.127  1.00  0.00     0.021 C 
BRANCH  74  75
ATOM     75  C   UNL A   1      29.887  26.668  24.304  1.00  0.00     0.116 C 
BRANCH  75  76
ATOM     76  N   UNL A   1      30.494  25.926  23.217  1.00  0.00    -0.356 N 
ATOM     77  C   UNL A   1      31.794  25.639  22.973  1.00  0.00     0.225 C 
ATOM     78  H   UNL A   1      29.860  25.573  22.552  1.00  0.00     0.163 HD
ATOM     79  O   UNL A   1      32.159  25.591  21.798  1.00  0.00    -0.275 OA
BRANCH  77  80
ATOM     80  C   UNL A   1      32.716  25.286  24.119  1.00  0.00     0.107 C 
ATOM     81  C   UNL A   1      34.132  25.099  23.590  1.00  0.00     0.116 C 
ATOM     82  C   UNL A   1      32.361  23.905  24.664  1.00  0.00     0.139 C 
ATOM     83  C   UNL A   1      34.147  23.653  23.164  1.00  0.00     0.227 C 
ATOM     84  N   UNL A   1      33.106  22.983  23.832  1.00  0.00    -0.311 N 
ATOM     85  O   UNL A   1      34.990  23.171  22.418  1.00  0.00    -0.274 OA
BRANCH  84  86
ATOM     86  C   UNL A   1      33.046  21.566  23.959  1.00  0.00     0.055 A 
ATOM     87  C   UNL A   1      32.323  20.873  22.961  1.00  0.00     0.028 A 
ATOM     88  C   UNL A   1      33.695  20.794  24.943  1.00  0.00     0.048 A 
ATOM     89  C   UNL A   1      32.264  19.478  22.910  1.00  0.00     0.023 A 
ATOM     90  C   UNL A   1      33.618  19.381  24.889  1.00  0.00     0.035 A 
ATOM     91  C   UNL A   1      32.914  18.735  23.878  1.00  0.00     0.041 A 
ATOM     92  Cl  UNL A   1      32.855  17.018  23.822  1.00  0.00    -0.084 Cl
BRANCH  88  93
ATOM     93  C   UNL A   1      34.503  21.290  26.084  1.00  0.00     0.195 C 
ATOM     94  O   UNL A   1      34.005  21.186  27.207  1.00  0.00    -0.289 OA
BRANCH  93  95
ATOM     95  C   UNL A   1      35.829  21.946  25.974  1.00  0.00     0.023 A 
ATOM     96  C   UNL A   1      35.891  23.313  26.293  1.00  0.00     0.012 A 
ATOM     97  C   UNL A   1      36.984  21.288  25.549  1.00  0.00     0.012 A 
ATOM     98  C   UNL A   1      37.093  24.012  26.208  1.00  0.00     0.001 A 
ATOM     99  C   UNL A   1      38.191  21.995  25.467  1.00  0.00     0.001 A 
ATOM    100  C   UNL A   1      38.247  23.350  25.798  1.00  0.00     0.000 A 
ENDBRANCH  93  95
ENDBRANCH  88  93
ENDBRANCH  84  86
ENDBRANCH  77  80
ENDBRANCH  75  76
ENDBRANCH  74  75
ENDBRANCH  73  74
ENDBRANCH   1  73
TORSDOF 19
ENDMDL
MODEL 2
REMARK VINA RESULT:     -11.3      4.157      9.436
REMARK SMILES O=C(NCCCCCCNC(=O)[C@@H]1CC(=O)N(c2ccc(Cl)cc2C(=O)c2ccccc2)C1)c1ccc(-c2c3nc(c(-c4cc(S(=O)(=O)[O-])ccc4F)c4ccc([nH]4)c(-c4cc(S(=O)(=O)[O-])ccc4F)c4nc(c(-c5cc(S(=O)(=O)[O-])ccc5F)c5ccc2[nH]5)C=C4)C=C3)cc1
REMARK SMILES IDX 6 1 5 2 4 3 3 4 1 5 2 6 34 8 35 9 96 10 36 11 95 12 37 13
REMARK SMILES IDX 38 14 39 15 89 16 40 17 94 18 88 19 90 20 41 21 93 22 87 23
REMARK SMILES IDX 86 24 42 26 74 27 54 28 73 29 55 30 58 31 72 32 91 33 56 34
REMARK SMILES IDX 57 35 71 37 92 38 59 39 43 40 44 41 52 42 45 43 51 44 53 45
REMARK SMILES IDX 50 46 46 47 47 48 48 49 49 50 75 51 76 52 84 53 77 54 83 55
REMARK SMILES IDX 85 56 82 57 78 58 79 59 80 60 81 61 60 62 61 63 69 64 62 65
REMARK SMILES IDX 68 66 70 67 67 68 63 69 64 70 65 71 66 72 7 73 8 74 9 75
REMARK SMILES IDX 10 76 11 77 12 79 13 80 14 81 33 82 15 83 17 84 16 85 18 86
REMARK SMILES IDX 19 87 24 88 20 89 23 90 21 91 22 92 25 93 26 94 27 95 28 96
REMARK SMILES IDX 32 97 29 98 31 99 30 100
REMARK H PARENT 3 7 90 25 58 36 10 78
REMARK Flexibility Score: inf
ROOT
ATOM      1  C   UNL A   1      35.417  22.200  24.545  1.00  0.00     0.002 C 
ENDROOT
BRANCH   1   2
ATOM      2  C   UNL A   1      35.845  23.046  25.738  1.00  0.00     0.021 C 
BRANCH   2   3
ATOM      3  C   UNL A   1      37.302  23.475  25.718  1.00  0.00     0.116 C 
BRANCH   3   4
ATOM      4  N   UNL A   1      38.226  22.382  25.980  1.00  0.00    -0.352 N 
ATOM      5  O   UNL A   1      40.231  21.469  26.506  1.00  0.00    -0.269 OA
ATOM      6  C   UNL A   1      39.516  22.465  26.456  1.00  0.00     0.251 C 
ATOM      7  H   UNL A   1      37.887  21.475  25.796  1.00  0.00     0.163 HD
BRANCH   6   8
ATOM      8  C   UNL A   1      40.030  23.787  26.877  1.00  0.00     0.039 A 
ATOM      9  C   UNL A   1      40.383  24.000  28.210  1.00  0.00     0.014 A 
ATOM     10  C   UNL A   1      40.093  24.833  25.952  1.00  0.00     0.014 A 
ATOM     11  C   UNL A   1      40.637  25.289  28.654  1.00  0.00     0.010 A 
ATOM     12  C   UNL A   1      40.466  26.112  26.383  1.00  0.00     0.010 A 
ATOM     13  C   UNL A   1      40.717  26.356  27.742  1.00  0.00    -0.014 A 
BRANCH  13  14
ATOM     14  C   UNL A   1      41.163  27.684  28.237  1.00  0.00     0.031 A 
ATOM     15  C   UNL A   1      42.615  28.073  28.263  1.00  0.00     0.074 A 
ATOM     16  C   UNL A   1      40.217  28.560  28.634  1.00  0.00     0.049 A 
ATOM     17  N   UNL A   1      43.156  29.199  28.657  1.00  0.00    -0.248 NA
ATOM     18  C   UNL A   1      43.586  27.074  27.792  1.00  0.00     0.031 C 
ATOM     19  C   UNL A   1      38.776  28.285  28.653  1.00  0.00     0.029 A 
ATOM     20  N   UNL A   1      40.308  29.856  29.072  1.00  0.00    -0.354 N 
ATOM     21  C   UNL A   1      44.529  29.043  28.497  1.00  0.00     0.074 A 
ATOM     22  C   UNL A   1      44.739  27.698  27.998  1.00  0.00     0.031 C 
ATOM     23  C   UNL A   1      38.119  29.392  29.020  1.00  0.00     0.029 A 
ATOM     24  C   UNL A   1      39.089  30.424  29.360  1.00  0.00     0.049 A 
ATOM     25  H   UNL A   1      41.164  30.332  29.172  1.00  0.00     0.167 HD
ATOM     26  C   UNL A   1      45.516  29.943  28.737  1.00  0.00     0.034 A 
ATOM     27  C   UNL A   1      38.780  31.629  29.873  1.00  0.00     0.034 A 
ATOM     28  C   UNL A   1      45.283  31.278  29.241  1.00  0.00     0.049 A 
ATOM     29  C   UNL A   1      39.902  32.580  30.190  1.00  0.00     0.074 A 
ATOM     30  C   UNL A   1      46.208  32.275  29.498  1.00  0.00     0.029 A 
ATOM     31  N   UNL A   1      44.040  31.801  29.576  1.00  0.00    -0.354 N 
ATOM     32  N   UNL A   1      41.193  32.422  30.013  1.00  0.00    -0.248 NA
ATOM     33  C   UNL A   1      39.525  33.872  30.774  1.00  0.00     0.031 C 
ATOM     34  C   UNL A   1      45.537  33.366  30.062  1.00  0.00     0.029 A 
ATOM     35  C   UNL A   1      44.179  33.090  30.072  1.00  0.00     0.049 A 
ATOM     36  H   UNL A   1      43.183  31.326  29.477  1.00  0.00     0.167 HD
ATOM     37  C   UNL A   1      41.781  33.606  30.444  1.00  0.00     0.074 A 
ATOM     38  C   UNL A   1      40.698  34.478  30.856  1.00  0.00     0.031 C 
ATOM     39  C   UNL A   1      43.095  33.944  30.497  1.00  0.00     0.034 A 
BRANCH  26  40
ATOM     40  C   UNL A   1      46.943  29.505  28.499  1.00  0.00     0.023 A 
ATOM     41  C   UNL A   1      47.703  28.878  29.501  1.00  0.00     0.031 A 
ATOM     42  C   UNL A   1      47.550  29.706  27.245  1.00  0.00     0.131 A 
ATOM     43  C   UNL A   1      49.040  28.526  29.251  1.00  0.00     0.055 A 
ATOM     44  C   UNL A   1      48.854  29.285  26.979  1.00  0.00     0.041 A 
ATOM     45  F   UNL A   1      46.883  30.319  26.254  1.00  0.00    -0.206 F 
ATOM     46  C   UNL A   1      49.612  28.700  27.990  1.00  0.00     0.022 A 
BRANCH  43  47
ATOM     47  S   UNL A   1      50.059  27.951  30.638  1.00  0.00     0.124 S 
ATOM     48  O   UNL A   1      51.329  28.620  30.369  1.00  0.00    -0.237 OA
ATOM     49  O   UNL A   1      49.317  28.436  31.797  1.00  0.00    -0.237 OA
ATOM     50  O   UNL A   1      50.078  26.500  30.472  1.00  0.00    -0.744 OA
ENDBRANCH  43  47
ENDBRANCH  26  40
BRANCH  27  51
ATOM     51  C   UNL A   1      37.362  31.985  30.168  1.00  0.00     0.023 A 
ATOM     52  C   UNL A   1      36.588  32.698  29.242  1.00  0.00     0.031 A 
ATOM     53  C   UNL A   1      36.776  31.660  31.406  1.00  0.00     0.131 A 
ATOM     54  C   UNL A   1      35.294  33.115  29.588  1.00  0.00     0.055 A 
ATOM     55  C   UNL A   1      35.463  32.013  31.717  1.00  0.00     0.041 A 
ATOM     56  F   UNL A   1      37.471  30.978  32.330  1.00  0.00    -0.206 F 
ATOM     57  C   UNL A   1      34.720  32.761  30.811  1.00  0.00     0.022 A 
BRANCH  54  58
ATOM     58  S   UNL A   1      34.416  34.229  28.460  1.00  0.00     0.124 S 
ATOM     59  O   UNL A   1      35.194  34.082  27.235  1.00  0.00    -0.237 OA
ATOM     60  O   UNL A   1      33.078  33.650  28.444  1.00  0.00    -0.237 OA
ATOM     61  O   UNL A   1      34.524  35.530  29.116  1.00  0.00    -0.744 OA
ENDBRANCH  54  58
ENDBRANCH  27  51
BRANCH  39  62
ATOM     62  C   UNL A   1      43.417  35.336  30.985  1.00  0.00     0.023 A 
ATOM     63  C   UNL A   1      43.508  35.636  32.355  1.00  0.00     0.031 A 
ATOM     64  C   UNL A   1      43.596  36.385  30.066  1.00  0.00     0.131 A 
ATOM     65  C   UNL A   1      43.695  36.962  32.769  1.00  0.00     0.055 A 
ATOM     66  C   UNL A   1      43.858  37.690  30.483  1.00  0.00     0.041 A 
ATOM     67  F   UNL A   1      43.514  36.159  28.745  1.00  0.00    -0.206 F 
ATOM     68  C   UNL A   1      43.891  37.989  31.842  1.00  0.00     0.022 A 
BRANCH  65  69
ATOM     69  S   UNL A   1      43.556  37.349  34.536  1.00  0.00     0.124 S 
ATOM     70  O   UNL A   1      42.115  37.514  34.697  1.00  0.00    -0.237 OA
ATOM     71  O   UNL A   1      44.137  36.165  35.161  1.00  0.00    -0.237 OA
ATOM     72  O   UNL A   1      44.341  38.574  34.682  1.00  0.00    -0.744 OA
ENDBRANCH  65  69
ENDBRANCH  39  62
ENDBRANCH  13  14
ENDBRANCH   6   8
ENDBRANCH   3   4
ENDBRANCH   2   3
ENDBRANCH   1   2
BRANCH   1  73
ATOM     73  C   UNL A   1      34.957  20.781  24.892  1.00  0.00     0.002 C 
BRANCH  73  74
ATOM     74  C   UNL A   1      33.436  20.544  24.841  1.00  0.00     0.021 C 
BRANCH  74  75
ATOM     75  C   UNL A   1      32.687  21.374  23.788  1.00  0.00     0.116 C 
BRANCH  75  76
ATOM     76  N   UNL A   1      31.576  22.053  24.427  1.00  0.00    -0.356 N 
ATOM     77  C   UNL A   1      31.567  23.093  25.292  1.00  0.00     0.225 C 
ATOM     78  H   UNL A   1      30.687  21.702  24.192  1.00  0.00     0.163 HD
ATOM     79  O   UNL A   1      30.694  23.109  26.160  1.00  0.00    -0.275 OA
BRANCH  77  80
ATOM     80  C   UNL A   1      32.540  24.237  25.107  1.00  0.00     0.107 C 
ATOM     81  C   UNL A   1      32.532  25.116  26.351  1.00  0.00     0.116 C 
ATOM     82  C   UNL A   1      32.035  25.174  24.012  1.00  0.00     0.139 C 
ATOM     83  C   UNL A   1      31.396  26.070  26.085  1.00  0.00     0.227 C 
ATOM     84  N   UNL A   1      31.150  26.091  24.700  1.00  0.00    -0.311 N 
ATOM     85  O   UNL A   1      30.859  26.749  26.951  1.00  0.00    -0.274 OA
BRANCH  84  86
ATOM     86  C   UNL A   1      30.416  27.126  24.054  1.00  0.00     0.055 A 
ATOM     87  C   UNL A   1      29.053  26.862  23.786  1.00  0.00     0.028 A 
ATOM     88  C   UNL A   1      30.903  28.407  23.726  1.00  0.00     0.048 A 
ATOM     89  C   UNL A   1      28.194  27.821  23.245  1.00  0.00     0.023 A 
ATOM     90  C   UNL A   1      30.027  29.369  23.166  1.00  0.00     0.035 A 
ATOM     91  C   UNL A   1      28.687  29.076  22.936  1.00  0.00     0.041 A 
ATOM     92  Cl  UNL A   1      27.639  30.268  22.277  1.00  0.00    -0.084 Cl
BRANCH  88  93
ATOM     93  C   UNL A   1      32.285  28.914  23.908  1.00  0.00     0.195 C 
ATOM     94  O   UNL A   1      32.990  28.986  22.899  1.00  0.00    -0.289 OA
BRANCH  93  95
ATOM     95  C   UNL A   1      32.897  29.288  25.207  1.00  0.00     0.023 A 
ATOM     96  C   UNL A   1      34.046  28.577  25.596  1.00  0.00     0.012 A 
ATOM     97  C   UNL A   1      32.377  30.268  26.053  1.00  0.00     0.012 A 
ATOM     98  C   UNL A   1      34.680  28.854  26.805  1.00  0.00     0.001 A 
ATOM     99  C   UNL A   1      33.020  30.544  27.267  1.00  0.00     0.001 A 
ATOM    100  C   UNL A   1      34.167  29.843  27.641  1.00  0.00     0.000 A 
ENDBRANCH  93  95
ENDBRANCH  88  93
ENDBRANCH  84  86
ENDBRANCH  77  80
ENDBRANCH  75  76
ENDBRANCH  74  75
ENDBRANCH  73  74
ENDBRANCH   1  73
TORSDOF 19
ENDMDL
MODEL 3
REMARK VINA RESULT:     -11.3      2.698      3.306
REMARK SMILES O=C(NCCCCCCNC(=O)[C@@H]1CC(=O)N(c2ccc(Cl)cc2C(=O)c2ccccc2)C1)c1ccc(-c2c3nc(c(-c4cc(S(=O)(=O)[O-])ccc4F)c4ccc([nH]4)c(-c4cc(S(=O)(=O)[O-])ccc4F)c4nc(c(-c5cc(S(=O)(=O)[O-])ccc5F)c5ccc2[nH]5)C=C4)C=C3)cc1
REMARK SMILES IDX 6 1 5 2 4 3 3 4 1 5 2 6 34 8 35 9 96 10 36 11 95 12 37 13
REMARK SMILES IDX 38 14 39 15 89 16 40 17 94 18 88 19 90 20 41 21 93 22 87 23
REMARK SMILES IDX 86 24 42 26 74 27 54 28 73 29 55 30 58 31 72 32 91 33 56 34
REMARK SMILES IDX 57 35 71 37 92 38 59 39 43 40 44 41 52 42 45 43 51 44 53 45
REMARK SMILES IDX 50 46 46 47 47 48 48 49 49 50 75 51 76 52 84 53 77 54 83 55
REMARK SMILES IDX 85 56 82 57 78 58 79 59 80 60 81 61 60 62 61 63 69 64 62 65
REMARK SMILES IDX 68 66 70 67 67 68 63 69 64 70 65 71 66 72 7 73 8 74 9 75
REMARK SMILES IDX 10 76 11 77 12 79 13 80 14 81 33 82 15 83 17 84 16 85 18 86
REMARK SMILES IDX 19 87 24 88 20 89 23 90 21 91 22 92 25 93 26 94 27 95 28 96
REMARK SMILES IDX 32 97 29 98 31 99 30 100
REMARK H PARENT 3 7 90 25 58 36 10 78
REMARK Flexibility Score: inf
ROOT
ATOM      1  C   UNL A   1      32.358  28.489  22.978  1.00  0.00     0.002 C 
ENDROOT
BRANCH   1   2
ATOM      2  C   UNL A   1      33.438  28.991  23.930  1.00  0.00     0.021 C 
BRANCH   2   3
ATOM      3  C   UNL A   1      33.026  29.024  25.392  1.00  0.00     0.116 C 
BRANCH   3   4
ATOM      4  N   UNL A   1      32.428  30.289  25.791  1.00  0.00    -0.352 N 
ATOM      5  O   UNL A   1      32.176  32.115  27.106  1.00  0.00    -0.269 OA
ATOM      6  C   UNL A   1      32.852  31.143  26.785  1.00  0.00     0.251 C 
ATOM      7  H   UNL A   1      31.627  30.567  25.291  1.00  0.00     0.163 HD
BRANCH   6   8
ATOM      8  C   UNL A   1      34.125  30.845  27.478  1.00  0.00     0.039 A 
ATOM      9  C   UNL A   1      34.371  29.553  27.947  1.00  0.00     0.014 A 
ATOM     10  C   UNL A   1      35.041  31.872  27.719  1.00  0.00     0.014 A 
ATOM     11  C   UNL A   1      35.445  29.326  28.796  1.00  0.00     0.010 A 
ATOM     12  C   UNL A   1      36.187  31.609  28.478  1.00  0.00     0.010 A 
ATOM     13  C   UNL A   1      36.386  30.340  29.044  1.00  0.00    -0.014 A 
BRANCH  13  14
ATOM     14  C   UNL A   1      37.611  30.001  29.815  1.00  0.00     0.031 A 
ATOM     15  C   UNL A   1      37.808  30.462  31.232  1.00  0.00     0.074 A 
ATOM     16  C   UNL A   1      38.540  29.228  29.216  1.00  0.00     0.049 A 
ATOM     17  N   UNL A   1      38.818  30.239  32.035  1.00  0.00    -0.248 NA
ATOM     18  C   UNL A   1      36.741  31.282  31.825  1.00  0.00     0.031 C 
ATOM     19  C   UNL A   1      38.452  28.726  27.839  1.00  0.00     0.029 A 
ATOM     20  N   UNL A   1      39.720  28.707  29.678  1.00  0.00    -0.354 N 
ATOM     21  C   UNL A   1      38.520  30.898  33.223  1.00  0.00     0.074 A 
ATOM     22  C   UNL A   1      37.245  31.557  33.022  1.00  0.00     0.031 C 
ATOM     23  C   UNL A   1      39.495  27.925  27.593  1.00  0.00     0.029 A 
ATOM     24  C   UNL A   1      40.379  27.933  28.750  1.00  0.00     0.049 A 
ATOM     25  H   UNL A   1      40.063  28.871  30.586  1.00  0.00     0.167 HD
ATOM     26  C   UNL A   1      39.240  30.939  34.372  1.00  0.00     0.034 A 
ATOM     27  C   UNL A   1      41.578  27.324  28.806  1.00  0.00     0.034 A 
ATOM     28  C   UNL A   1      40.514  30.277  34.547  1.00  0.00     0.049 A 
ATOM     29  C   UNL A   1      42.383  27.443  30.071  1.00  0.00     0.074 A 
ATOM     30  C   UNL A   1      41.316  30.237  35.674  1.00  0.00     0.029 A 
ATOM     31  N   UNL A   1      41.180  29.550  33.566  1.00  0.00    -0.354 N 
ATOM     32  N   UNL A   1      42.074  28.056  31.191  1.00  0.00    -0.248 NA
ATOM     33  C   UNL A   1      43.695  26.788  30.081  1.00  0.00     0.031 C 
ATOM     34  C   UNL A   1      42.497  29.558  35.354  1.00  0.00     0.029 A 
ATOM     35  C   UNL A   1      42.396  29.092  34.053  1.00  0.00     0.049 A 
ATOM     36  H   UNL A   1      40.838  29.385  32.658  1.00  0.00     0.167 HD
ATOM     37  C   UNL A   1      43.148  27.838  32.047  1.00  0.00     0.074 A 
ATOM     38  C   UNL A   1      44.093  27.012  31.323  1.00  0.00     0.031 C 
ATOM     39  C   UNL A   1      43.339  28.282  33.316  1.00  0.00     0.034 A 
BRANCH  26  40
ATOM     40  C   UNL A   1      38.695  31.758  35.518  1.00  0.00     0.023 A 
ATOM     41  C   UNL A   1      38.156  31.158  36.669  1.00  0.00     0.031 A 
ATOM     42  C   UNL A   1      38.726  33.164  35.466  1.00  0.00     0.131 A 
ATOM     43  C   UNL A   1      37.621  31.957  37.693  1.00  0.00     0.055 A 
ATOM     44  C   UNL A   1      38.262  33.953  36.520  1.00  0.00     0.041 A 
ATOM     45  F   UNL A   1      39.208  33.797  34.385  1.00  0.00    -0.206 F 
ATOM     46  C   UNL A   1      37.694  33.350  37.639  1.00  0.00     0.022 A 
BRANCH  43  47
ATOM     47  S   UNL A   1      36.713  31.147  39.040  1.00  0.00     0.124 S 
ATOM     48  O   UNL A   1      35.539  32.007  39.165  1.00  0.00    -0.237 OA
ATOM     49  O   UNL A   1      36.471  29.814  38.500  1.00  0.00    -0.237 OA
ATOM     50  O   UNL A   1      37.644  31.206  40.165  1.00  0.00    -0.744 OA
ENDBRANCH  43  47
ENDBRANCH  26  40
BRANCH  27  51
ATOM     51  C   UNL A   1      42.111  26.596  27.619  1.00  0.00     0.023 A 
ATOM     52  C   UNL A   1      41.945  25.211  27.485  1.00  0.00     0.031 A 
ATOM     53  C   UNL A   1      42.843  27.271  26.623  1.00  0.00     0.131 A 
ATOM     54  C   UNL A   1      42.551  24.535  26.416  1.00  0.00     0.055 A 
ATOM     55  C   UNL A   1      43.381  26.606  25.523  1.00  0.00     0.041 A 
ATOM     56  F   UNL A   1      43.033  28.598  26.700  1.00  0.00    -0.206 F 
ATOM     57  C   UNL A   1      43.252  25.225  25.424  1.00  0.00     0.022 A 
BRANCH  54  58
ATOM     58  S   UNL A   1      42.510  22.723  26.406  1.00  0.00     0.124 S 
ATOM     59  O   UNL A   1      43.618  22.398  27.297  1.00  0.00    -0.237 OA
ATOM     60  O   UNL A   1      41.172  22.448  26.918  1.00  0.00    -0.237 OA
ATOM     61  O   UNL A   1      42.720  22.387  25.000  1.00  0.00    -0.744 OA
ENDBRANCH  54  58
ENDBRANCH  27  51
BRANCH  39  62
ATOM     62  C   UNL A   1      44.608  27.840  34.005  1.00  0.00     0.023 A 
ATOM     63  C   UNL A   1      44.664  26.656  34.761  1.00  0.00     0.031 A 
ATOM     64  C   UNL A   1      45.765  28.635  33.936  1.00  0.00     0.131 A 
ATOM     65  C   UNL A   1      45.826  26.340  35.478  1.00  0.00     0.055 A 
ATOM     66  C   UNL A   1      46.943  28.276  34.591  1.00  0.00     0.041 A 
ATOM     67  F   UNL A   1      45.768  29.780  33.234  1.00  0.00    -0.206 F 
ATOM     68  C   UNL A   1      46.974  27.132  35.382  1.00  0.00     0.022 A 
BRANCH  65  69
ATOM     69  S   UNL A   1      45.780  24.945  36.637  1.00  0.00     0.124 S 
ATOM     70  O   UNL A   1      46.871  24.109  36.148  1.00  0.00    -0.237 OA
ATOM     71  O   UNL A   1      46.005  25.600  37.922  1.00  0.00    -0.237 OA
ATOM     72  O   UNL A   1      44.441  24.389  36.452  1.00  0.00    -0.744 OA
ENDBRANCH  65  69
ENDBRANCH  39  62
ENDBRANCH  13  14
ENDBRANCH   6   8
ENDBRANCH   3   4
ENDBRANCH   2   3
ENDBRANCH   1   2
BRANCH   1  73
ATOM     73  C   UNL A   1      30.947  29.006  23.275  1.00  0.00     0.002 C 
BRANCH  73  74
ATOM     74  C   UNL A   1      29.816  27.969  23.134  1.00  0.00     0.021 C 
BRANCH  74  75
ATOM     75  C   UNL A   1      29.623  27.054  24.352  1.00  0.00     0.116 C 
BRANCH  75  76
ATOM     76  N   UNL A   1      29.471  25.686  23.894  1.00  0.00    -0.356 N 
ATOM     77  C   UNL A   1      30.402  24.730  23.671  1.00  0.00     0.225 C 
ATOM     78  H   UNL A   1      28.543  25.410  23.719  1.00  0.00     0.163 HD
ATOM     79  O   UNL A   1      30.201  23.939  22.751  1.00  0.00    -0.275 OA
BRANCH  77  80
ATOM     80  C   UNL A   1      31.583  24.595  24.608  1.00  0.00     0.107 C 
ATOM     81  C   UNL A   1      32.875  24.790  23.826  1.00  0.00     0.116 C 
ATOM     82  C   UNL A   1      31.689  23.154  25.103  1.00  0.00     0.139 C 
ATOM     83  C   UNL A   1      33.166  23.409  23.298  1.00  0.00     0.227 C 
ATOM     84  N   UNL A   1      32.468  22.477  24.087  1.00  0.00    -0.311 N 
ATOM     85  O   UNL A   1      33.944  23.179  22.381  1.00  0.00    -0.274 OA
BRANCH  84  86
ATOM     86  C   UNL A   1      32.783  21.089  24.117  1.00  0.00     0.055 A 
ATOM     87  C   UNL A   1      32.165  20.278  23.138  1.00  0.00     0.028 A 
ATOM     88  C   UNL A   1      33.705  20.468  24.984  1.00  0.00     0.048 A 
ATOM     89  C   UNL A   1      32.458  18.921  22.993  1.00  0.00     0.023 A 
ATOM     90  C   UNL A   1      33.986  19.087  24.836  1.00  0.00     0.035 A 
ATOM     91  C   UNL A   1      33.371  18.328  23.847  1.00  0.00     0.041 A 
ATOM     92  Cl  UNL A   1      33.746  16.660  23.673  1.00  0.00    -0.084 Cl
BRANCH  88  93
ATOM     93  C   UNL A   1      34.471  21.104  26.084  1.00  0.00     0.195 C 
ATOM     94  O   UNL A   1      33.994  21.019  27.217  1.00  0.00    -0.289 OA
BRANCH  93  95
ATOM     95  C   UNL A   1      35.728  21.874  25.919  1.00  0.00     0.023 A 
ATOM     96  C   UNL A   1      35.656  23.262  26.128  1.00  0.00     0.012 A 
ATOM     97  C   UNL A   1      36.944  21.298  25.545  1.00  0.00     0.012 A 
ATOM     98  C   UNL A   1      36.785  24.064  25.984  1.00  0.00     0.001 A 
ATOM     99  C   UNL A   1      38.077  22.110  25.404  1.00  0.00     0.001 A 
ATOM    100  C   UNL A   1      38.000  23.486  25.625  1.00  0.00     0.000 A 
ENDBRANCH  93  95
ENDBRANCH  88  93
ENDBRANCH  84  86
ENDBRANCH  77  80
ENDBRANCH  75  76
ENDBRANCH  74  75
ENDBRANCH  73  74
ENDBRANCH   1  73
TORSDOF 19
ENDMDL
