MODEL 1
REMARK VINA RESULT:     -10.7      0.000      0.000
REMARK SMILES CCC(CC)(NC(=O)c1c(C)noc1C)C(=O)NCCCCCCNC(=O)c1ccc(-c2c3nc(c(-c4cc(S(=O)(=O)[O-])ccc4F)c4ccc([nH]4)c(-c4cc(S(=O)(=O)[O-])ccc4F)c4nc(c(-c5cc(S(=O)(=O)[O-])ccc5F)c5ccc2[nH]5)C=C4)C=C3)cc1
REMARK SMILES IDX 22 1 21 2 20 3 19 4 18 5 16 6 17 7 3 9 2 10 1 11 4 12 5 13
REMARK SMILES IDX 6 14 7 15 8 17 9 18 10 19 14 20 11 21 12 22 13 23 15 24
REMARK SMILES IDX 23 25 24 26 25 27 26 28 27 30 28 31 29 32 90 33 30 34 89 35
REMARK SMILES IDX 31 36 32 37 33 38 83 39 34 40 88 41 82 42 84 43 35 44 87 45
REMARK SMILES IDX 81 46 80 47 36 49 68 50 48 51 67 52 49 53 52 54 66 55 85 56
REMARK SMILES IDX 50 57 51 58 65 60 86 61 53 62 37 63 38 64 46 65 39 66 45 67
REMARK SMILES IDX 47 68 44 69 40 70 41 71 42 72 43 73 69 74 70 75 78 76 71 77
REMARK SMILES IDX 77 78 79 79 76 80 72 81 73 82 74 83 75 84 54 85 55 86 63 87
REMARK SMILES IDX 56 88 62 89 64 90 61 91 57 92 58 93 59 94 60 95
REMARK H PARENT 18 8 6 16 25 29 84 48 52 59
REMARK Flexibility Score: inf
ROOT
ATOM      1  C   UNL A   1      32.328  29.663  25.621  1.00  0.00     0.002 C 
ENDROOT
BRANCH   1   2
ATOM      2  C   UNL A   1      31.280  29.324  24.569  1.00  0.00     0.002 C 
BRANCH   2   3
ATOM      3  C   UNL A   1      31.796  29.212  23.137  1.00  0.00     0.021 C 
BRANCH   3   4
ATOM      4  C   UNL A   1      33.210  28.663  22.890  1.00  0.00     0.116 C 
BRANCH   4   5
ATOM      5  N   UNL A   1      33.382  27.551  21.953  1.00  0.00    -0.354 N 
ATOM      6  C   UNL A   1      33.191  26.188  22.050  1.00  0.00     0.245 C 
ATOM      7  O   UNL A   1      33.157  25.547  20.995  1.00  0.00    -0.272 OA
ATOM      8  H   UNL A   1      33.704  27.836  21.068  1.00  0.00     0.163 HD
BRANCH   6   9
ATOM      9  C   UNL A   1      32.812  25.534  23.391  1.00  0.00     0.118 C 
BRANCH   9  10
ATOM     10  C   UNL A   1      31.474  25.945  24.058  1.00  0.00     0.035 C 
ATOM     11  C   UNL A   1      30.181  25.361  23.510  1.00  0.00     0.007 C 
ENDBRANCH   9  10
BRANCH   9  12
ATOM     12  C   UNL A   1      34.027  25.967  24.298  1.00  0.00     0.035 C 
ATOM     13  C   UNL A   1      33.765  26.379  25.735  1.00  0.00     0.007 C 
ENDBRANCH   9  12
BRANCH   9  14
ATOM     14  N   UNL A   1      32.739  24.081  23.164  1.00  0.00    -0.337 N 
ATOM     15  C   UNL A   1      33.153  22.961  23.853  1.00  0.00     0.257 C 
ATOM     16  H   UNL A   1      32.286  23.856  22.319  1.00  0.00     0.164 HD
ATOM     17  O   UNL A   1      33.264  21.996  23.083  1.00  0.00    -0.269 OA
BRANCH  15  18
ATOM     18  C   UNL A   1      33.464  22.759  25.286  1.00  0.00     0.105 A 
ATOM     19  C   UNL A   1      32.379  22.630  26.255  1.00  0.00     0.093 A 
ATOM     20  C   UNL A   1      34.569  22.794  26.145  1.00  0.00     0.146 A 
ATOM     21  C   UNL A   1      30.911  22.702  26.050  1.00  0.00     0.071 C 
ATOM     22  N   UNL A   1      32.813  22.460  27.501  1.00  0.00    -0.084 NA
ATOM     23  O   UNL A   1      34.163  22.548  27.424  1.00  0.00    -0.361 OA
ATOM     24  C   UNL A   1      36.016  23.088  26.180  1.00  0.00     0.092 C 
ENDBRANCH  15  18
ENDBRANCH   9  14
ENDBRANCH   6   9
ENDBRANCH   4   5
ENDBRANCH   3   4
ENDBRANCH   2   3
ENDBRANCH   1   2
BRANCH   1  25
ATOM     25  C   UNL A   1      31.918  30.783  26.574  1.00  0.00     0.021 C 
BRANCH  25  26
ATOM     26  C   UNL A   1      33.081  31.524  27.224  1.00  0.00     0.116 C 
BRANCH  26  27
ATOM     27  N   UNL A   1      32.823  32.949  27.380  1.00  0.00    -0.352 N 
ATOM     28  C   UNL A   1      33.428  33.834  28.241  1.00  0.00     0.251 C 
ATOM     29  H   UNL A   1      32.128  33.326  26.793  1.00  0.00     0.163 HD
ATOM     30  O   UNL A   1      32.994  34.975  28.374  1.00  0.00    -0.269 OA
BRANCH  28  31
ATOM     31  C   UNL A   1      34.585  33.369  29.030  1.00  0.00     0.039 A 
ATOM     32  C   UNL A   1      34.365  32.639  30.198  1.00  0.00     0.014 A 
ATOM     33  C   UNL A   1      35.882  33.576  28.551  1.00  0.00     0.014 A 
ATOM     34  C   UNL A   1      35.448  32.039  30.844  1.00  0.00     0.010 A 
ATOM     35  C   UNL A   1      36.946  32.910  29.149  1.00  0.00     0.010 A 
ATOM     36  C   UNL A   1      36.738  32.129  30.296  1.00  0.00    -0.014 A 
BRANCH  36  37
ATOM     37  C   UNL A   1      37.883  31.397  30.897  1.00  0.00     0.031 A 
ATOM     38  C   UNL A   1      38.368  31.760  32.273  1.00  0.00     0.074 A 
ATOM     39  C   UNL A   1      38.536  30.467  30.172  1.00  0.00     0.049 A 
ATOM     40  N   UNL A   1      39.399  31.305  32.937  1.00  0.00    -0.248 NA
ATOM     41  C   UNL A   1      37.612  32.806  32.977  1.00  0.00     0.031 C 
ATOM     42  C   UNL A   1      38.197  30.075  28.801  1.00  0.00     0.029 A 
ATOM     43  N   UNL A   1      39.628  29.694  30.477  1.00  0.00    -0.354 N 
ATOM     44  C   UNL A   1      39.420  32.011  34.133  1.00  0.00     0.074 A 
ATOM     45  C   UNL A   1      38.348  32.983  34.062  1.00  0.00     0.031 C 
ATOM     46  C   UNL A   1      39.051  29.124  28.393  1.00  0.00     0.029 A 
ATOM     47  C   UNL A   1      40.025  28.869  29.449  1.00  0.00     0.049 A 
ATOM     48  H   UNL A   1      40.085  29.726  31.348  1.00  0.00     0.167 HD
ATOM     49  C   UNL A   1      40.234  31.845  35.206  1.00  0.00     0.034 A 
ATOM     50  C   UNL A   1      41.064  28.015  29.361  1.00  0.00     0.034 A 
ATOM     51  C   UNL A   1      41.299  30.871  35.253  1.00  0.00     0.049 A 
ATOM     52  C   UNL A   1      41.978  27.861  30.550  1.00  0.00     0.074 A 
ATOM     53  C   UNL A   1      42.150  30.572  36.302  1.00  0.00     0.029 A 
ATOM     54  N   UNL A   1      41.669  30.046  34.196  1.00  0.00    -0.354 N 
ATOM     55  N   UNL A   1      41.943  28.487  31.704  1.00  0.00    -0.248 NA
ATOM     56  C   UNL A   1      43.061  26.878  30.429  1.00  0.00     0.031 C 
ATOM     57  C   UNL A   1      43.077  29.621  35.857  1.00  0.00     0.029 A 
ATOM     58  C   UNL A   1      42.758  29.267  34.555  1.00  0.00     0.049 A 
ATOM     59  H   UNL A   1      41.221  30.019  33.320  1.00  0.00     0.167 HD
ATOM     60  C   UNL A   1      42.993  27.963  32.451  1.00  0.00     0.074 A 
ATOM     61  C   UNL A   1      43.625  26.954  31.626  1.00  0.00     0.031 C 
ATOM     62  C   UNL A   1      43.397  28.285  33.708  1.00  0.00     0.034 A 
BRANCH  49  63
ATOM     63  C   UNL A   1      40.008  32.757  36.390  1.00  0.00     0.023 A 
ATOM     64  C   UNL A   1      39.221  32.356  37.486  1.00  0.00     0.031 A 
ATOM     65  C   UNL A   1      40.525  34.063  36.401  1.00  0.00     0.131 A 
ATOM     66  C   UNL A   1      38.887  33.280  38.487  1.00  0.00     0.055 A 
ATOM     67  C   UNL A   1      40.269  34.949  37.450  1.00  0.00     0.041 A 
ATOM     68  F   UNL A   1      41.268  34.515  35.378  1.00  0.00    -0.206 F 
ATOM     69  C   UNL A   1      39.426  34.567  38.492  1.00  0.00     0.022 A 
BRANCH  66  70
ATOM     70  S   UNL A   1      37.589  32.832  39.674  1.00  0.00     0.124 S 
ATOM     71  O   UNL A   1      38.097  31.568  40.202  1.00  0.00    -0.237 OA
ATOM     72  O   UNL A   1      37.603  33.961  40.595  1.00  0.00    -0.237 OA
ATOM     73  O   UNL A   1      36.393  32.716  38.844  1.00  0.00    -0.744 OA
ENDBRANCH  66  70
ENDBRANCH  49  63
BRANCH  50  74
ATOM     74  C   UNL A   1      41.307  27.262  28.098  1.00  0.00     0.023 A 
ATOM     75  C   UNL A   1      41.084  25.878  28.020  1.00  0.00     0.031 A 
ATOM     76  C   UNL A   1      41.772  27.922  26.946  1.00  0.00     0.131 A 
ATOM     77  C   UNL A   1      41.356  25.193  26.825  1.00  0.00     0.055 A 
ATOM     78  C   UNL A   1      41.996  27.244  25.747  1.00  0.00     0.041 A 
ATOM     79  F   UNL A   1      41.992  29.246  26.965  1.00  0.00    -0.206 F 
ATOM     80  C   UNL A   1      41.796  25.869  25.684  1.00  0.00     0.022 A 
BRANCH  77  81
ATOM     81  S   UNL A   1      41.176  23.388  26.795  1.00  0.00     0.124 S 
ATOM     82  O   UNL A   1      41.596  23.025  28.143  1.00  0.00    -0.237 OA
ATOM     83  O   UNL A   1      39.756  23.230  26.499  1.00  0.00    -0.237 OA
ATOM     84  O   UNL A   1      42.082  22.975  25.725  1.00  0.00    -0.744 OA
ENDBRANCH  77  81
ENDBRANCH  50  74
BRANCH  62  85
ATOM     85  C   UNL A   1      44.572  27.519  34.263  1.00  0.00     0.023 A 
ATOM     86  C   UNL A   1      44.415  26.251  34.850  1.00  0.00     0.031 A 
ATOM     87  C   UNL A   1      45.866  28.067  34.211  1.00  0.00     0.131 A 
ATOM     88  C   UNL A   1      45.522  25.597  35.410  1.00  0.00     0.055 A 
ATOM     89  C   UNL A   1      46.975  27.384  34.713  1.00  0.00     0.041 A 
ATOM     90  F   UNL A   1      46.075  29.276  33.665  1.00  0.00    -0.206 F 
ATOM     91  C   UNL A   1      46.804  26.146  35.328  1.00  0.00     0.022 A 
BRANCH  88  92
ATOM     92  S   UNL A   1      45.253  24.054  36.325  1.00  0.00     0.124 S 
ATOM     93  O   UNL A   1      46.261  23.176  35.740  1.00  0.00    -0.237 OA
ATOM     94  O   UNL A   1      45.490  24.464  37.706  1.00  0.00    -0.237 OA
ATOM     95  O   UNL A   1      43.868  23.707  36.012  1.00  0.00    -0.744 OA
ENDBRANCH  88  92
ENDBRANCH  62  85
ENDBRANCH  36  37
ENDBRANCH  28  31
ENDBRANCH  26  27
ENDBRANCH  25  26
ENDBRANCH   1  25
TORSDOF 20
ENDMDL
MODEL 2
REMARK VINA RESULT:     -10.7      2.811      3.841
REMARK SMILES CCC(CC)(NC(=O)c1c(C)noc1C)C(=O)NCCCCCCNC(=O)c1ccc(-c2c3nc(c(-c4cc(S(=O)(=O)[O-])ccc4F)c4ccc([nH]4)c(-c4cc(S(=O)(=O)[O-])ccc4F)c4nc(c(-c5cc(S(=O)(=O)[O-])ccc5F)c5ccc2[nH]5)C=C4)C=C3)cc1
REMARK SMILES IDX 22 1 21 2 20 3 19 4 18 5 16 6 17 7 3 9 2 10 1 11 4 12 5 13
REMARK SMILES IDX 6 14 7 15 8 17 9 18 10 19 14 20 11 21 12 22 13 23 15 24
REMARK SMILES IDX 23 25 24 26 25 27 26 28 27 30 28 31 29 32 90 33 30 34 89 35
REMARK SMILES IDX 31 36 32 37 33 38 83 39 34 40 88 41 82 42 84 43 35 44 87 45
REMARK SMILES IDX 81 46 80 47 36 49 68 50 48 51 67 52 49 53 52 54 66 55 85 56
REMARK SMILES IDX 50 57 51 58 65 60 86 61 53 62 37 63 38 64 46 65 39 66 45 67
REMARK SMILES IDX 47 68 44 69 40 70 41 71 42 72 43 73 69 74 70 75 78 76 71 77
REMARK SMILES IDX 77 78 79 79 76 80 72 81 73 82 74 83 75 84 54 85 55 86 63 87
REMARK SMILES IDX 56 88 62 89 64 90 61 91 57 92 58 93 59 94 60 95
REMARK H PARENT 18 8 6 16 25 29 84 48 52 59
REMARK Flexibility Score: inf
ROOT
ATOM      1  C   UNL A   1      31.943  27.670  25.468  1.00  0.00     0.002 C 
ENDROOT
BRANCH   1   2
ATOM      2  C   UNL A   1      30.786  27.625  24.479  1.00  0.00     0.002 C 
BRANCH   2   3
ATOM      3  C   UNL A   1      30.901  26.575  23.378  1.00  0.00     0.021 C 
BRANCH   3   4
ATOM      4  C   UNL A   1      30.443  25.136  23.663  1.00  0.00     0.116 C 
BRANCH   4   5
ATOM      5  N   UNL A   1      30.361  24.682  25.052  1.00  0.00    -0.354 N 
ATOM      6  C   UNL A   1      31.261  24.086  25.912  1.00  0.00     0.245 C 
ATOM      7  O   UNL A   1      30.974  24.080  27.113  1.00  0.00    -0.272 OA
ATOM      8  H   UNL A   1      29.477  24.834  25.458  1.00  0.00     0.163 HD
BRANCH   6   9
ATOM      9  C   UNL A   1      32.654  23.652  25.425  1.00  0.00     0.118 C 
BRANCH   9  10
ATOM     10  C   UNL A   1      33.598  24.734  24.838  1.00  0.00     0.035 C 
ATOM     11  C   UNL A   1      34.192  24.506  23.455  1.00  0.00     0.007 C 
ENDBRANCH   9  10
BRANCH   9  12
ATOM     12  C   UNL A   1      32.278  22.599  24.314  1.00  0.00     0.035 C 
ATOM     13  C   UNL A   1      31.735  21.245  24.734  1.00  0.00     0.007 C 
ENDBRANCH   9  12
BRANCH   9  14
ATOM     14  N   UNL A   1      33.357  23.064  26.577  1.00  0.00    -0.337 N 
ATOM     15  C   UNL A   1      34.513  22.331  26.748  1.00  0.00     0.257 C 
ATOM     16  H   UNL A   1      32.891  23.234  27.428  1.00  0.00     0.164 HD
ATOM     17  O   UNL A   1      34.469  21.697  27.813  1.00  0.00    -0.269 OA
BRANCH  15  18
ATOM     18  C   UNL A   1      35.718  22.201  25.899  1.00  0.00     0.105 A 
ATOM     19  C   UNL A   1      35.900  21.014  25.069  1.00  0.00     0.093 A 
ATOM     20  C   UNL A   1      36.952  22.835  25.710  1.00  0.00     0.146 A 
ATOM     21  C   UNL A   1      35.042  19.810  24.935  1.00  0.00     0.071 C 
ATOM     22  N   UNL A   1      37.031  21.037  24.370  1.00  0.00    -0.084 NA
ATOM     23  O   UNL A   1      37.668  22.168  24.759  1.00  0.00    -0.361 OA
ATOM     24  C   UNL A   1      37.802  23.926  26.231  1.00  0.00     0.092 C 
ENDBRANCH  15  18
ENDBRANCH   9  14
ENDBRANCH   6   9
ENDBRANCH   4   5
ENDBRANCH   3   4
ENDBRANCH   2   3
ENDBRANCH   1   2
BRANCH   1  25
ATOM     25  C   UNL A   1      32.018  28.958  26.284  1.00  0.00     0.021 C 
BRANCH  25  26
ATOM     26  C   UNL A   1      33.423  29.347  26.732  1.00  0.00     0.116 C 
BRANCH  26  27
ATOM     27  N   UNL A   1      33.513  30.737  27.157  1.00  0.00    -0.352 N 
ATOM     28  C   UNL A   1      34.486  31.330  27.927  1.00  0.00     0.251 C 
ATOM     29  H   UNL A   1      32.785  31.327  26.854  1.00  0.00     0.163 HD
ATOM     30  O   UNL A   1      34.345  32.478  28.340  1.00  0.00    -0.269 OA
BRANCH  28  31
ATOM     31  C   UNL A   1      35.684  30.543  28.277  1.00  0.00     0.039 A 
ATOM     32  C   UNL A   1      36.866  30.748  27.565  1.00  0.00     0.014 A 
ATOM     33  C   UNL A   1      35.652  29.677  29.374  1.00  0.00     0.014 A 
ATOM     34  C   UNL A   1      38.045  30.146  28.010  1.00  0.00     0.010 A 
ATOM     35  C   UNL A   1      36.841  29.147  29.861  1.00  0.00     0.010 A 
ATOM     36  C   UNL A   1      38.050  29.383  29.190  1.00  0.00    -0.014 A 
BRANCH  36  37
ATOM     37  C   UNL A   1      39.314  28.837  29.749  1.00  0.00     0.031 A 
ATOM     38  C   UNL A   1      39.935  29.474  30.961  1.00  0.00     0.074 A 
ATOM     39  C   UNL A   1      39.941  27.826  29.118  1.00  0.00     0.049 A 
ATOM     40  N   UNL A   1      41.072  29.205  31.549  1.00  0.00    -0.248 NA
ATOM     41  C   UNL A   1      39.194  30.590  31.566  1.00  0.00     0.031 C 
ATOM     42  C   UNL A   1      39.467  27.170  27.897  1.00  0.00     0.029 A 
ATOM     43  N   UNL A   1      41.119  27.182  29.403  1.00  0.00    -0.354 N 
ATOM     44  C   UNL A   1      41.186  30.121  32.588  1.00  0.00     0.074 A 
ATOM     45  C   UNL A   1      40.042  31.003  32.493  1.00  0.00     0.031 C 
ATOM     46  C   UNL A   1      40.336  26.207  27.550  1.00  0.00     0.029 A 
ATOM     47  C   UNL A   1      41.449  26.204  28.493  1.00  0.00     0.049 A 
ATOM     48  H   UNL A   1      41.676  27.400  30.184  1.00  0.00     0.167 HD
ATOM     49  C   UNL A   1      42.138  30.200  33.552  1.00  0.00     0.034 A 
ATOM     50  C   UNL A   1      42.533  25.406  28.417  1.00  0.00     0.034 A 
ATOM     51  C   UNL A   1      43.272  29.310  33.626  1.00  0.00     0.049 A 
ATOM     52  C   UNL A   1      43.595  25.523  29.479  1.00  0.00     0.074 A 
ATOM     53  C   UNL A   1      44.267  29.256  34.585  1.00  0.00     0.029 A 
ATOM     54  N   UNL A   1      43.571  28.325  32.690  1.00  0.00    -0.354 N 
ATOM     55  N   UNL A   1      43.655  26.350  30.498  1.00  0.00    -0.248 NA
ATOM     56  C   UNL A   1      44.728  24.595  29.387  1.00  0.00     0.031 C 
ATOM     57  C   UNL A   1      45.203  28.291  34.193  1.00  0.00     0.029 A 
ATOM     58  C   UNL A   1      44.754  27.686  33.030  1.00  0.00     0.049 A 
ATOM     59  H   UNL A   1      43.022  28.112  31.902  1.00  0.00     0.167 HD
ATOM     60  C   UNL A   1      44.826  26.030  31.176  1.00  0.00     0.074 A 
ATOM     61  C   UNL A   1      45.428  24.921  30.464  1.00  0.00     0.031 C 
ATOM     62  C   UNL A   1      45.357  26.600  32.290  1.00  0.00     0.034 A 
BRANCH  49  63
ATOM     63  C   UNL A   1      41.989  31.302  34.577  1.00  0.00     0.023 A 
ATOM     64  C   UNL A   1      42.637  32.541  34.420  1.00  0.00     0.031 A 
ATOM     65  C   UNL A   1      41.248  31.096  35.752  1.00  0.00     0.131 A 
ATOM     66  C   UNL A   1      42.622  33.479  35.463  1.00  0.00     0.055 A 
ATOM     67  C   UNL A   1      41.156  32.074  36.746  1.00  0.00     0.041 A 
ATOM     68  F   UNL A   1      40.621  29.929  35.972  1.00  0.00    -0.206 F 
ATOM     69  C   UNL A   1      41.864  33.266  36.616  1.00  0.00     0.022 A 
BRANCH  66  70
ATOM     70  S   UNL A   1      43.758  34.891  35.369  1.00  0.00     0.124 S 
ATOM     71  O   UNL A   1      43.425  35.450  34.061  1.00  0.00    -0.237 OA
ATOM     72  O   UNL A   1      43.364  35.689  36.524  1.00  0.00    -0.237 OA
ATOM     73  O   UNL A   1      45.079  34.274  35.456  1.00  0.00    -0.744 OA
ENDBRANCH  66  70
ENDBRANCH  49  63
BRANCH  50  74
ATOM     74  C   UNL A   1      42.675  24.446  27.285  1.00  0.00     0.023 A 
ATOM     75  C   UNL A   1      42.110  23.163  27.342  1.00  0.00     0.031 A 
ATOM     76  C   UNL A   1      43.387  24.803  26.125  1.00  0.00     0.131 A 
ATOM     77  C   UNL A   1      42.292  22.271  26.273  1.00  0.00     0.055 A 
ATOM     78  C   UNL A   1      43.526  23.929  25.046  1.00  0.00     0.041 A 
ATOM     79  F   UNL A   1      43.939  26.022  26.016  1.00  0.00    -0.206 F 
ATOM     80  C   UNL A   1      42.984  22.650  25.120  1.00  0.00     0.022 A 
BRANCH  77  81
ATOM     81  S   UNL A   1      41.656  20.579  26.431  1.00  0.00     0.124 S 
ATOM     82  O   UNL A   1      42.416  19.878  25.403  1.00  0.00    -0.237 OA
ATOM     83  O   UNL A   1      41.994  20.257  27.813  1.00  0.00    -0.237 OA
ATOM     84  O   UNL A   1      40.227  20.727  26.160  1.00  0.00    -0.744 OA
ENDBRANCH  77  81
ENDBRANCH  50  74
BRANCH  62  85
ATOM     85  C   UNL A   1      46.648  26.013  32.808  1.00  0.00     0.023 A 
ATOM     86  C   UNL A   1      46.658  24.934  33.707  1.00  0.00     0.031 A 
ATOM     87  C   UNL A   1      47.883  26.547  32.400  1.00  0.00     0.131 A 
ATOM     88  C   UNL A   1      47.877  24.455  34.212  1.00  0.00     0.055 A 
ATOM     89  C   UNL A   1      49.095  26.027  32.857  1.00  0.00     0.041 A 
ATOM     90  F   UNL A   1      47.933  27.581  31.545  1.00  0.00    -0.206 F 
ATOM     91  C   UNL A   1      49.096  24.983  33.779  1.00  0.00     0.022 A 
BRANCH  88  92
ATOM     92  S   UNL A   1      47.846  23.191  35.512  1.00  0.00     0.124 S 
ATOM     93  O   UNL A   1      49.256  23.100  35.878  1.00  0.00    -0.237 OA
ATOM     94  O   UNL A   1      46.967  23.791  36.511  1.00  0.00    -0.237 OA
ATOM     95  O   UNL A   1      47.303  22.016  34.835  1.00  0.00    -0.744 OA
ENDBRANCH  88  92
ENDBRANCH  62  85
ENDBRANCH  36  37
ENDBRANCH  28  31
ENDBRANCH  26  27
ENDBRANCH  25  26
ENDBRANCH   1  25
TORSDOF 20
ENDMDL
MODEL 3
REMARK VINA RESULT:     -10.7      1.889      7.891
REMARK SMILES CCC(CC)(NC(=O)c1c(C)noc1C)C(=O)NCCCCCCNC(=O)c1ccc(-c2c3nc(c(-c4cc(S(=O)(=O)[O-])ccc4F)c4ccc([nH]4)c(-c4cc(S(=O)(=O)[O-])ccc4F)c4nc(c(-c5cc(S(=O)(=O)[O-])ccc5F)c5ccc2[nH]5)C=C4)C=C3)cc1
REMARK SMILES IDX 22 1 21 2 20 3 19 4 18 5 16 6 17 7 3 9 2 10 1 11 4 12 5 13
REMARK SMILES IDX 6 14 7 15 8 17 9 18 10 19 14 20 11 21 12 22 13 23 15 24
REMARK SMILES IDX 23 25 24 26 25 27 26 28 27 30 28 31 29 32 90 33 30 34 89 35
REMARK SMILES IDX 31 36 32 37 33 38 83 39 34 40 88 41 82 42 84 43 35 44 87 45
REMARK SMILES IDX 81 46 80 47 36 49 68 50 48 51 67 52 49 53 52 54 66 55 85 56
REMARK SMILES IDX 50 57 51 58 65 60 86 61 53 62 37 63 38 64 46 65 39 66 45 67
REMARK SMILES IDX 47 68 44 69 40 70 41 71 42 72 43 73 69 74 70 75 78 76 71 77
REMARK SMILES IDX 77 78 79 79 76 80 72 81 73 82 74 83 75 84 54 85 55 86 63 87
REMARK SMILES IDX 56 88 62 89 64 90 61 91 57 92 58 93 59 94 60 95
REMARK H PARENT 18 8 6 16 25 29 84 48 52 59
REMARK Flexibility Score: inf
ROOT
ATOM      1  C   UNL A   1      32.659  29.708  26.963  1.00  0.00     0.002 C 
ENDROOT
BRANCH   1   2
ATOM      2  C   UNL A   1      31.722  28.793  26.186  1.00  0.00     0.002 C 
BRANCH   2   3
ATOM      3  C   UNL A   1      31.391  27.464  26.859  1.00  0.00     0.021 C 
BRANCH   3   4
ATOM      4  C   UNL A   1      32.147  26.197  26.430  1.00  0.00     0.116 C 
BRANCH   4   5
ATOM      5  N   UNL A   1      31.491  25.255  25.523  1.00  0.00    -0.354 N 
ATOM      6  C   UNL A   1      31.726  24.870  24.218  1.00  0.00     0.245 C 
ATOM      7  O   UNL A   1      31.165  23.844  23.823  1.00  0.00    -0.272 OA
ATOM      8  H   UNL A   1      30.718  24.799  25.928  1.00  0.00     0.163 HD
BRANCH   6   9
ATOM      9  C   UNL A   1      32.810  25.559  23.373  1.00  0.00     0.118 C 
BRANCH   9  10
ATOM     10  C   UNL A   1      33.770  26.554  24.075  1.00  0.00     0.035 C 
ATOM     11  C   UNL A   1      33.974  27.928  23.454  1.00  0.00     0.007 C 
ENDBRANCH   9  10
BRANCH   9  12
ATOM     12  C   UNL A   1      31.932  26.315  22.303  1.00  0.00     0.035 C 
ATOM     13  C   UNL A   1      32.110  25.982  20.833  1.00  0.00     0.007 C 
ENDBRANCH   9  12
BRANCH   9  14
ATOM     14  N   UNL A   1      33.655  24.500  22.795  1.00  0.00    -0.337 N 
ATOM     15  C   UNL A   1      34.403  23.459  23.304  1.00  0.00     0.257 C 
ATOM     16  H   UNL A   1      33.694  24.545  21.812  1.00  0.00     0.164 HD
ATOM     17  O   UNL A   1      35.273  23.114  22.490  1.00  0.00    -0.269 OA
BRANCH  15  18
ATOM     18  C   UNL A   1      34.322  22.742  24.596  1.00  0.00     0.105 A 
ATOM     19  C   UNL A   1      35.295  23.024  25.647  1.00  0.00     0.093 A 
ATOM     20  C   UNL A   1      33.640  21.660  25.164  1.00  0.00     0.146 A 
ATOM     21  C   UNL A   1      36.456  23.949  25.642  1.00  0.00     0.071 C 
ATOM     22  N   UNL A   1      35.099  22.297  26.744  1.00  0.00    -0.084 NA
ATOM     23  O   UNL A   1      34.069  21.469  26.445  1.00  0.00    -0.361 OA
ATOM     24  C   UNL A   1      32.675  20.586  24.848  1.00  0.00     0.092 C 
ENDBRANCH  15  18
ENDBRANCH   9  14
ENDBRANCH   6   9
ENDBRANCH   4   5
ENDBRANCH   3   4
ENDBRANCH   2   3
ENDBRANCH   1   2
BRANCH   1  25
ATOM     25  C   UNL A   1      32.270  31.184  26.921  1.00  0.00     0.021 C 
BRANCH  25  26
ATOM     26  C   UNL A   1      33.341  32.140  27.435  1.00  0.00     0.116 C 
BRANCH  26  27
ATOM     27  N   UNL A   1      32.843  33.496  27.618  1.00  0.00    -0.352 N 
ATOM     28  C   UNL A   1      33.219  34.421  28.564  1.00  0.00     0.251 C 
ATOM     29  H   UNL A   1      32.150  33.788  26.983  1.00  0.00     0.163 HD
ATOM     30  O   UNL A   1      32.596  35.471  28.696  1.00  0.00    -0.269 OA
BRANCH  28  31
ATOM     31  C   UNL A   1      34.364  34.105  29.440  1.00  0.00     0.039 A 
ATOM     32  C   UNL A   1      34.135  33.452  30.652  1.00  0.00     0.014 A 
ATOM     33  C   UNL A   1      35.666  34.370  29.008  1.00  0.00     0.014 A 
ATOM     34  C   UNL A   1      35.222  32.986  31.394  1.00  0.00     0.010 A 
ATOM     35  C   UNL A   1      36.741  33.833  29.707  1.00  0.00     0.010 A 
ATOM     36  C   UNL A   1      36.530  33.129  30.901  1.00  0.00    -0.014 A 
BRANCH  36  37
ATOM     37  C   UNL A   1      37.690  32.532  31.612  1.00  0.00     0.031 A 
ATOM     38  C   UNL A   1      38.425  31.370  31.005  1.00  0.00     0.074 A 
ATOM     39  C   UNL A   1      38.026  32.982  32.837  1.00  0.00     0.049 A 
ATOM     40  N   UNL A   1      39.403  30.656  31.501  1.00  0.00    -0.248 NA
ATOM     41  C   UNL A   1      37.970  30.929  29.678  1.00  0.00     0.031 C 
ATOM     42  C   UNL A   1      37.345  34.063  33.555  1.00  0.00     0.029 A 
ATOM     43  N   UNL A   1      39.012  32.579  33.703  1.00  0.00    -0.354 N 
ATOM     44  C   UNL A   1      39.675  29.678  30.551  1.00  0.00     0.074 A 
ATOM     45  C   UNL A   1      38.702  29.843  29.492  1.00  0.00     0.031 C 
ATOM     46  C   UNL A   1      37.945  34.247  34.742  1.00  0.00     0.029 A 
ATOM     47  C   UNL A   1      39.021  33.273  34.890  1.00  0.00     0.049 A 
ATOM     48  H   UNL A   1      39.652  31.861  33.493  1.00  0.00     0.167 HD
ATOM     49  C   UNL A   1      40.665  28.750  30.546  1.00  0.00     0.034 A 
ATOM     50  C   UNL A   1      39.798  33.131  35.983  1.00  0.00     0.034 A 
ATOM     51  C   UNL A   1      41.623  28.602  31.616  1.00  0.00     0.049 A 
ATOM     52  C   UNL A   1      40.875  32.078  35.975  1.00  0.00     0.074 A 
ATOM     53  C   UNL A   1      42.701  27.739  31.696  1.00  0.00     0.029 A 
ATOM     54  N   UNL A   1      41.607  29.327  32.802  1.00  0.00    -0.354 N 
ATOM     55  N   UNL A   1      41.167  31.204  35.039  1.00  0.00    -0.248 NA
ATOM     56  C   UNL A   1      41.733  31.999  37.163  1.00  0.00     0.031 C 
ATOM     57  C   UNL A   1      43.292  27.892  32.957  1.00  0.00     0.029 A 
ATOM     58  C   UNL A   1      42.633  28.905  33.635  1.00  0.00     0.049 A 
ATOM     59  H   UNL A   1      40.962  30.038  33.019  1.00  0.00     0.167 HD
ATOM     60  C   UNL A   1      42.253  30.480  35.521  1.00  0.00     0.074 A 
ATOM     61  C   UNL A   1      42.576  31.036  36.819  1.00  0.00     0.031 C 
ATOM     62  C   UNL A   1      42.924  29.450  34.942  1.00  0.00     0.034 A 
BRANCH  49  63
ATOM     63  C   UNL A   1      40.729  27.820  29.356  1.00  0.00     0.023 A 
ATOM     64  C   UNL A   1      41.687  27.994  28.339  1.00  0.00     0.031 A 
ATOM     65  C   UNL A   1      39.789  26.788  29.198  1.00  0.00     0.131 A 
ATOM     66  C   UNL A   1      41.615  27.227  27.167  1.00  0.00     0.055 A 
ATOM     67  C   UNL A   1      39.784  25.962  28.071  1.00  0.00     0.041 A 
ATOM     68  F   UNL A   1      38.838  26.580  30.122  1.00  0.00    -0.206 F 
ATOM     69  C   UNL A   1      40.686  26.193  27.036  1.00  0.00     0.022 A 
BRANCH  66  70
ATOM     70  S   UNL A   1      42.628  27.727  25.746  1.00  0.00     0.124 S 
ATOM     71  O   UNL A   1      42.185  29.104  25.540  1.00  0.00    -0.237 OA
ATOM     72  O   UNL A   1      43.984  27.560  26.254  1.00  0.00    -0.237 OA
ATOM     73  O   UNL A   1      42.232  26.790  24.698  1.00  0.00    -0.744 OA
ENDBRANCH  66  70
ENDBRANCH  49  63
BRANCH  50  74
ATOM     74  C   UNL A   1      39.569  33.993  37.179  1.00  0.00     0.023 A 
ATOM     75  C   UNL A   1      38.915  33.499  38.317  1.00  0.00     0.031 A 
ATOM     76  C   UNL A   1      40.003  35.331  37.193  1.00  0.00     0.131 A 
ATOM     77  C   UNL A   1      38.684  34.347  39.413  1.00  0.00     0.055 A 
ATOM     78  C   UNL A   1      39.812  36.156  38.303  1.00  0.00     0.041 A 
ATOM     79  F   UNL A   1      40.642  35.849  36.132  1.00  0.00    -0.206 F 
ATOM     80  C   UNL A   1      39.141  35.668  39.419  1.00  0.00     0.022 A 
BRANCH  77  81
ATOM     81  S   UNL A   1      37.727  33.715  40.818  1.00  0.00     0.124 S 
ATOM     82  O   UNL A   1      38.685  32.816  41.451  1.00  0.00    -0.237 OA
ATOM     83  O   UNL A   1      37.416  34.940  41.548  1.00  0.00    -0.237 OA
ATOM     84  O   UNL A   1      36.582  33.064  40.184  1.00  0.00    -0.744 OA
ENDBRANCH  77  81
ENDBRANCH  50  74
BRANCH  62  85
ATOM     85  C   UNL A   1      44.086  28.874  35.714  1.00  0.00     0.023 A 
ATOM     86  C   UNL A   1      43.929  27.769  36.568  1.00  0.00     0.031 A 
ATOM     87  C   UNL A   1      45.366  29.443  35.597  1.00  0.00     0.131 A 
ATOM     88  C   UNL A   1      45.020  27.300  37.314  1.00  0.00     0.055 A 
ATOM     89  C   UNL A   1      46.463  28.934  36.295  1.00  0.00     0.041 A 
ATOM     90  F   UNL A   1      45.574  30.503  34.800  1.00  0.00    -0.206 F 
ATOM     91  C   UNL A   1      46.290  27.864  37.169  1.00  0.00     0.022 A 
BRANCH  88  92
ATOM     92  S   UNL A   1      44.740  25.998  38.545  1.00  0.00     0.124 S 
ATOM     93  O   UNL A   1      43.826  25.107  37.839  1.00  0.00    -0.237 OA
ATOM     94  O   UNL A   1      46.088  25.483  38.768  1.00  0.00    -0.237 OA
ATOM     95  O   UNL A   1      44.158  26.716  39.677  1.00  0.00    -0.744 OA
ENDBRANCH  88  92
ENDBRANCH  62  85
ENDBRANCH  36  37
ENDBRANCH  28  31
ENDBRANCH  26  27
ENDBRANCH  25  26
ENDBRANCH   1  25
TORSDOF 20
ENDMDL
