MODEL 1
REMARK VINA RESULT:     -12.2      0.000      0.000
REMARK SMILES CC[C@@H]1CCC[C@@](Cc2cccc(O)c2)(C(=O)NCCCCCCNC(=O)c2ccc(-c3c4nc(c(-c5cc(S(=O)(=O)[O-])ccc5F)c5ccc([nH]5)c(-c5cc(S(=O)(=O)[O-])ccc5F)c5nc(c(-c6cc(S(=O)(=O)[O-])ccc6F)c6ccc3[nH]6)C=C5)C=C4)cc2)C1
REMARK SMILES IDX 21 1 20 2 19 3 18 4 16 5 17 6 7 8 3 9 4 10 91 11 5 12 6 13
REMARK SMILES IDX 2 14 1 15 8 16 9 17 10 18 15 19 11 20 13 21 12 22 14 23
REMARK SMILES IDX 22 25 23 26 24 27 25 28 26 29 27 31 28 32 29 33 90 34 30 35
REMARK SMILES IDX 89 36 31 37 32 38 33 39 83 40 34 41 88 42 82 43 84 44 35 45
REMARK SMILES IDX 87 46 81 47 80 48 36 50 68 51 48 52 67 53 49 54 52 55 66 56
REMARK SMILES IDX 85 57 50 58 51 59 65 61 86 62 53 63 37 64 38 65 46 66 39 67
REMARK SMILES IDX 45 68 47 69 44 70 40 71 41 72 42 73 43 74 69 75 70 76 78 77
REMARK SMILES IDX 71 78 77 79 79 80 76 81 72 82 73 83 74 84 75 85 54 86 55 87
REMARK SMILES IDX 63 88 56 89 62 90 64 91 61 92 57 93 58 94 59 95 60 96
REMARK H PARENT 18 7 14 24 25 30 84 49 52 60
REMARK Flexibility Score: inf
ROOT
ATOM      1  C   UNL A   1      33.402  21.978  23.980  1.00  0.00     0.002 C 
ENDROOT
BRANCH   1   2
ATOM      2  C   UNL A   1      32.185  22.214  24.881  1.00  0.00     0.021 C 
BRANCH   2   3
ATOM      3  C   UNL A   1      31.195  23.245  24.359  1.00  0.00     0.116 C 
BRANCH   3   4
ATOM      4  N   UNL A   1      30.695  24.137  25.382  1.00  0.00    -0.356 N 
ATOM      5  C   UNL A   1      30.615  25.492  25.438  1.00  0.00     0.226 C 
ATOM      6  O   UNL A   1      29.796  25.930  26.257  1.00  0.00    -0.274 OA
ATOM      7  H   UNL A   1      30.351  23.680  26.182  1.00  0.00     0.163 HD
BRANCH   5   8
ATOM      8  C   UNL A   1      31.435  26.466  24.545  1.00  0.00     0.053 C 
ATOM      9  C   UNL A   1      32.066  27.957  26.596  1.00  0.00    -0.010 C 
ATOM     10  C   UNL A   1      33.521  27.474  26.501  1.00  0.00     0.003 C 
ATOM     11  C   UNL A   1      31.365  27.885  25.222  1.00  0.00     0.020 C 
ATOM     12  C   UNL A   1      33.644  26.135  25.781  1.00  0.00     0.001 C 
ATOM     13  C   UNL A   1      32.947  26.171  24.422  1.00  0.00     0.017 C 
BRANCH   9  14
ATOM     14  C   UNL A   1      31.990  29.393  27.151  1.00  0.00     0.000 C 
ATOM     15  C   UNL A   1      32.002  30.446  26.052  1.00  0.00     0.004 C 
ENDBRANCH   9  14
BRANCH   8  16
ATOM     16  C   UNL A   1      30.730  26.633  23.162  1.00  0.00     0.052 C 
BRANCH  16  17
ATOM     17  C   UNL A   1      29.727  27.746  22.981  1.00  0.00    -0.043 A 
ATOM     18  C   UNL A   1      30.138  29.006  22.513  1.00  0.00     0.004 A 
ATOM     19  C   UNL A   1      28.371  27.546  23.268  1.00  0.00     0.049 A 
ATOM     20  C   UNL A   1      29.219  30.050  22.375  1.00  0.00     0.004 A 
ATOM     21  C   UNL A   1      27.464  28.592  23.128  1.00  0.00     0.115 A 
ATOM     22  C   UNL A   1      27.876  29.846  22.691  1.00  0.00     0.046 A 
BRANCH  21  23
ATOM     23  O   UNL A   1      26.161  28.345  23.446  1.00  0.00    -0.508 OA
ATOM     24  H   UNL A   1      25.628  29.027  23.804  1.00  0.00     0.293 HD
ENDBRANCH  21  23
ENDBRANCH  16  17
ENDBRANCH   8  16
ENDBRANCH   5   8
ENDBRANCH   3   4
ENDBRANCH   2   3
ENDBRANCH   1   2
BRANCH   1  25
ATOM     25  C   UNL A   1      34.593  21.257  24.624  1.00  0.00     0.002 C 
BRANCH  25  26
ATOM     26  C   UNL A   1      35.097  21.829  25.955  1.00  0.00     0.021 C 
BRANCH  26  27
ATOM     27  C   UNL A   1      36.488  22.450  25.924  1.00  0.00     0.116 C 
BRANCH  27  28
ATOM     28  N   UNL A   1      37.536  21.446  25.908  1.00  0.00    -0.352 N 
ATOM     29  C   UNL A   1      38.880  21.572  26.130  1.00  0.00     0.251 C 
ATOM     30  H   UNL A   1      37.233  20.532  25.706  1.00  0.00     0.163 HD
ATOM     31  O   UNL A   1      39.612  20.611  25.887  1.00  0.00    -0.269 OA
BRANCH  29  32
ATOM     32  C   UNL A   1      39.468  22.836  26.635  1.00  0.00     0.039 A 
ATOM     33  C   UNL A   1      39.056  24.037  26.050  1.00  0.00     0.014 A 
ATOM     34  C   UNL A   1      40.461  22.855  27.621  1.00  0.00     0.014 A 
ATOM     35  C   UNL A   1      39.617  25.247  26.463  1.00  0.00     0.010 A 
ATOM     36  C   UNL A   1      40.970  24.069  28.083  1.00  0.00     0.010 A 
ATOM     37  C   UNL A   1      40.571  25.277  27.492  1.00  0.00    -0.014 A 
BRANCH  37  38
ATOM     38  C   UNL A   1      41.188  26.563  27.910  1.00  0.00     0.031 A 
ATOM     39  C   UNL A   1      42.616  26.874  27.543  1.00  0.00     0.074 A 
ATOM     40  C   UNL A   1      40.467  27.447  28.629  1.00  0.00     0.049 A 
ATOM     41  N   UNL A   1      43.326  27.942  27.803  1.00  0.00    -0.248 NA
ATOM     42  C   UNL A   1      43.351  25.829  26.814  1.00  0.00     0.031 C 
ATOM     43  C   UNL A   1      39.091  27.239  29.085  1.00  0.00     0.029 A 
ATOM     44  N   UNL A   1      40.788  28.696  29.098  1.00  0.00    -0.354 N 
ATOM     45  C   UNL A   1      44.590  27.697  27.276  1.00  0.00     0.074 A 
ATOM     46  C   UNL A   1      44.565  26.350  26.745  1.00  0.00     0.031 C 
ATOM     47  C   UNL A   1      38.676  28.336  29.739  1.00  0.00     0.029 A 
ATOM     48  C   UNL A   1      39.760  29.311  29.775  1.00  0.00     0.049 A 
ATOM     49  H   UNL A   1      41.669  29.112  28.962  1.00  0.00     0.167 HD
ATOM     50  C   UNL A   1      45.664  28.525  27.216  1.00  0.00     0.034 A 
ATOM     51  C   UNL A   1      39.699  30.529  30.351  1.00  0.00     0.034 A 
ATOM     52  C   UNL A   1      45.668  29.870  27.739  1.00  0.00     0.049 A 
ATOM     53  C   UNL A   1      40.895  31.440  30.253  1.00  0.00     0.074 A 
ATOM     54  C   UNL A   1      46.685  30.810  27.702  1.00  0.00     0.029 A 
ATOM     55  N   UNL A   1      44.601  30.470  28.398  1.00  0.00    -0.354 N 
ATOM     56  N   UNL A   1      42.067  31.212  29.705  1.00  0.00    -0.248 NA
ATOM     57  C   UNL A   1      40.748  32.783  30.827  1.00  0.00     0.031 C 
ATOM     58  C   UNL A   1      46.251  31.954  28.385  1.00  0.00     0.029 A 
ATOM     59  C   UNL A   1      44.940  31.757  28.786  1.00  0.00     0.049 A 
ATOM     60  H   UNL A   1      43.730  30.042  28.563  1.00  0.00     0.167 HD
ATOM     61  C   UNL A   1      42.786  32.397  29.842  1.00  0.00     0.074 A 
ATOM     62  C   UNL A   1      41.906  33.339  30.503  1.00  0.00     0.031 C 
ATOM     63  C   UNL A   1      44.055  32.683  29.456  1.00  0.00     0.034 A 
BRANCH  50  64
ATOM     64  C   UNL A   1      46.924  27.979  26.582  1.00  0.00     0.023 A 
ATOM     65  C   UNL A   1      47.186  28.132  25.209  1.00  0.00     0.031 A 
ATOM     66  C   UNL A   1      47.858  27.260  27.350  1.00  0.00     0.131 A 
ATOM     67  C   UNL A   1      48.301  27.504  24.632  1.00  0.00     0.055 A 
ATOM     68  C   UNL A   1      49.011  26.711  26.786  1.00  0.00     0.041 A 
ATOM     69  F   UNL A   1      47.655  27.063  28.663  1.00  0.00    -0.206 F 
ATOM     70  C   UNL A   1      49.228  26.816  25.415  1.00  0.00     0.022 A 
BRANCH  67  71
ATOM     71  S   UNL A   1      48.435  27.470  22.822  1.00  0.00     0.124 S 
ATOM     72  O   UNL A   1      48.431  26.034  22.555  1.00  0.00    -0.237 OA
ATOM     73  O   UNL A   1      47.245  28.202  22.403  1.00  0.00    -0.237 OA
ATOM     74  O   UNL A   1      49.706  28.141  22.560  1.00  0.00    -0.744 OA
ENDBRANCH  67  71
ENDBRANCH  50  64
BRANCH  51  75
ATOM     75  C   UNL A   1      38.462  30.967  31.056  1.00  0.00     0.023 A 
ATOM     76  C   UNL A   1      37.398  31.558  30.354  1.00  0.00     0.031 A 
ATOM     77  C   UNL A   1      38.340  30.838  32.450  1.00  0.00     0.131 A 
ATOM     78  C   UNL A   1      36.282  32.043  31.052  1.00  0.00     0.055 A 
ATOM     79  C   UNL A   1      37.207  31.278  33.135  1.00  0.00     0.041 A 
ATOM     80  F   UNL A   1      39.323  30.270  33.167  1.00  0.00    -0.206 F 
ATOM     81  C   UNL A   1      36.174  31.897  32.437  1.00  0.00     0.022 A 
BRANCH  78  82
ATOM     82  S   UNL A   1      35.004  32.941  30.130  1.00  0.00     0.124 S 
ATOM     83  O   UNL A   1      34.605  31.954  29.135  1.00  0.00    -0.237 OA
ATOM     84  O   UNL A   1      34.027  33.232  31.175  1.00  0.00    -0.237 OA
ATOM     85  O   UNL A   1      35.718  34.105  29.607  1.00  0.00    -0.744 OA
ENDBRANCH  78  82
ENDBRANCH  51  75
BRANCH  63  86
ATOM     86  C   UNL A   1      44.541  34.091  29.704  1.00  0.00     0.023 A 
ATOM     87  C   UNL A   1      44.448  35.090  28.719  1.00  0.00     0.031 A 
ATOM     88  C   UNL A   1      45.145  34.424  30.928  1.00  0.00     0.131 A 
ATOM     89  C   UNL A   1      45.019  36.351  28.946  1.00  0.00     0.055 A 
ATOM     90  C   UNL A   1      45.653  35.701  31.173  1.00  0.00     0.041 A 
ATOM     91  F   UNL A   1      45.261  33.510  31.905  1.00  0.00    -0.206 F 
ATOM     92  C   UNL A   1      45.609  36.667  30.172  1.00  0.00     0.022 A 
BRANCH  89  93
ATOM     93  S   UNL A   1      45.095  37.530  27.569  1.00  0.00     0.124 S 
ATOM     94  O   UNL A   1      45.681  36.722  26.505  1.00  0.00    -0.237 OA
ATOM     95  O   UNL A   1      43.693  37.894  27.395  1.00  0.00    -0.237 OA
ATOM     96  O   UNL A   1      45.953  38.599  28.081  1.00  0.00    -0.744 OA
ENDBRANCH  89  93
ENDBRANCH  63  86
ENDBRANCH  37  38
ENDBRANCH  29  32
ENDBRANCH  27  28
ENDBRANCH  26  27
ENDBRANCH  25  26
ENDBRANCH   1  25
TORSDOF 20
ENDMDL
MODEL 2
REMARK VINA RESULT:     -11.7      5.478      8.311
REMARK SMILES CC[C@@H]1CCC[C@@](Cc2cccc(O)c2)(C(=O)NCCCCCCNC(=O)c2ccc(-c3c4nc(c(-c5cc(S(=O)(=O)[O-])ccc5F)c5ccc([nH]5)c(-c5cc(S(=O)(=O)[O-])ccc5F)c5nc(c(-c6cc(S(=O)(=O)[O-])ccc6F)c6ccc3[nH]6)C=C5)C=C4)cc2)C1
REMARK SMILES IDX 21 1 20 2 19 3 18 4 16 5 17 6 7 8 3 9 4 10 91 11 5 12 6 13
REMARK SMILES IDX 2 14 1 15 8 16 9 17 10 18 15 19 11 20 13 21 12 22 14 23
REMARK SMILES IDX 22 25 23 26 24 27 25 28 26 29 27 31 28 32 29 33 90 34 30 35
REMARK SMILES IDX 89 36 31 37 32 38 33 39 83 40 34 41 88 42 82 43 84 44 35 45
REMARK SMILES IDX 87 46 81 47 80 48 36 50 68 51 48 52 67 53 49 54 52 55 66 56
REMARK SMILES IDX 85 57 50 58 51 59 65 61 86 62 53 63 37 64 38 65 46 66 39 67
REMARK SMILES IDX 45 68 47 69 44 70 40 71 41 72 42 73 43 74 69 75 70 76 78 77
REMARK SMILES IDX 71 78 77 79 79 80 76 81 72 82 73 83 74 84 75 85 54 86 55 87
REMARK SMILES IDX 63 88 56 89 62 90 64 91 61 92 57 93 58 94 59 95 60 96
REMARK H PARENT 18 7 14 24 25 30 84 49 52 60
REMARK Flexibility Score: inf
ROOT
ATOM      1  C   UNL A   1      32.112  29.787  26.868  1.00  0.00     0.002 C 
ENDROOT
BRANCH   1   2
ATOM      2  C   UNL A   1      33.405  29.302  26.204  1.00  0.00     0.021 C 
BRANCH   2   3
ATOM      3  C   UNL A   1      33.308  29.086  24.701  1.00  0.00     0.116 C 
BRANCH   3   4
ATOM      4  N   UNL A   1      33.714  27.763  24.279  1.00  0.00    -0.356 N 
ATOM      5  C   UNL A   1      33.014  26.734  23.734  1.00  0.00     0.226 C 
ATOM      6  O   UNL A   1      33.703  25.899  23.133  1.00  0.00    -0.274 OA
ATOM      7  H   UNL A   1      34.671  27.574  24.411  1.00  0.00     0.163 HD
BRANCH   5   8
ATOM      8  C   UNL A   1      31.468  26.583  23.796  1.00  0.00     0.053 C 
ATOM      9  C   UNL A   1      31.655  24.165  24.770  1.00  0.00    -0.010 C 
ATOM     10  C   UNL A   1      31.139  24.670  26.126  1.00  0.00     0.003 C 
ATOM     11  C   UNL A   1      31.145  25.053  23.615  1.00  0.00     0.020 C 
ATOM     12  C   UNL A   1      31.362  26.166  26.313  1.00  0.00     0.001 C 
ATOM     13  C   UNL A   1      30.798  26.962  25.137  1.00  0.00     0.017 C 
BRANCH   9  14
ATOM     14  C   UNL A   1      31.245  22.699  24.528  1.00  0.00     0.000 C 
ATOM     15  C   UNL A   1      32.203  21.709  25.176  1.00  0.00     0.004 C 
ENDBRANCH   9  14
BRANCH   8  16
ATOM     16  C   UNL A   1      30.818  27.292  22.567  1.00  0.00     0.052 C 
BRANCH  16  17
ATOM     17  C   UNL A   1      29.750  28.332  22.803  1.00  0.00    -0.043 A 
ATOM     18  C   UNL A   1      30.098  29.683  22.974  1.00  0.00     0.004 A 
ATOM     19  C   UNL A   1      28.396  27.976  22.848  1.00  0.00     0.049 A 
ATOM     20  C   UNL A   1      29.115  30.645  23.225  1.00  0.00     0.004 A 
ATOM     21  C   UNL A   1      27.426  28.942  23.099  1.00  0.00     0.115 A 
ATOM     22  C   UNL A   1      27.774  30.274  23.296  1.00  0.00     0.046 A 
BRANCH  21  23
ATOM     23  O   UNL A   1      26.127  28.532  23.157  1.00  0.00    -0.508 OA
ATOM     24  H   UNL A   1      25.491  28.907  22.580  1.00  0.00     0.293 HD
ENDBRANCH  21  23
ENDBRANCH  16  17
ENDBRANCH   8  16
ENDBRANCH   5   8
ENDBRANCH   3   4
ENDBRANCH   2   3
ENDBRANCH   1   2
BRANCH   1  25
ATOM     25  C   UNL A   1      31.406  30.970  26.193  1.00  0.00     0.002 C 
BRANCH  25  26
ATOM     26  C   UNL A   1      31.451  32.307  26.941  1.00  0.00     0.021 C 
BRANCH  26  27
ATOM     27  C   UNL A   1      32.838  32.796  27.340  1.00  0.00     0.116 C 
BRANCH  27  28
ATOM     28  N   UNL A   1      32.846  34.208  27.676  1.00  0.00    -0.352 N 
ATOM     29  C   UNL A   1      33.541  34.880  28.645  1.00  0.00     0.251 C 
ATOM     30  H   UNL A   1      32.260  34.770  27.121  1.00  0.00     0.163 HD
ATOM     31  O   UNL A   1      33.255  36.057  28.867  1.00  0.00    -0.269 OA
BRANCH  29  32
ATOM     32  C   UNL A   1      34.607  34.218  29.435  1.00  0.00     0.039 A 
ATOM     33  C   UNL A   1      35.934  34.386  29.028  1.00  0.00     0.014 A 
ATOM     34  C   UNL A   1      34.320  33.385  30.522  1.00  0.00     0.014 A 
ATOM     35  C   UNL A   1      36.966  33.743  29.715  1.00  0.00     0.010 A 
ATOM     36  C   UNL A   1      35.356  32.800  31.252  1.00  0.00     0.010 A 
ATOM     37  C   UNL A   1      36.688  32.953  30.842  1.00  0.00    -0.014 A 
BRANCH  37  38
ATOM     38  C   UNL A   1      37.784  32.247  31.555  1.00  0.00     0.031 A 
ATOM     39  C   UNL A   1      38.538  31.134  30.874  1.00  0.00     0.074 A 
ATOM     40  C   UNL A   1      38.095  32.600  32.818  1.00  0.00     0.049 A 
ATOM     41  N   UNL A   1      39.531  30.409  31.322  1.00  0.00    -0.248 NA
ATOM     42  C   UNL A   1      38.094  30.768  29.521  1.00  0.00     0.031 C 
ATOM     43  C   UNL A   1      37.407  33.630  33.599  1.00  0.00     0.029 A 
ATOM     44  N   UNL A   1      39.070  32.137  33.665  1.00  0.00    -0.354 N 
ATOM     45  C   UNL A   1      39.825  29.499  30.311  1.00  0.00     0.074 A 
ATOM     46  C   UNL A   1      38.858  29.721  29.257  1.00  0.00     0.031 C 
ATOM     47  C   UNL A   1      38.002  33.742  34.798  1.00  0.00     0.029 A 
ATOM     48  C   UNL A   1      39.093  32.776  34.883  1.00  0.00     0.049 A 
ATOM     49  H   UNL A   1      39.695  31.415  33.424  1.00  0.00     0.167 HD
ATOM     50  C   UNL A   1      40.825  28.582  30.254  1.00  0.00     0.034 A 
ATOM     51  C   UNL A   1      39.907  32.609  35.944  1.00  0.00     0.034 A 
ATOM     52  C   UNL A   1      41.789  28.381  31.309  1.00  0.00     0.049 A 
ATOM     53  C   UNL A   1      41.024  31.600  35.850  1.00  0.00     0.074 A 
ATOM     54  C   UNL A   1      42.863  27.508  31.345  1.00  0.00     0.029 A 
ATOM     55  N   UNL A   1      41.796  29.064  32.520  1.00  0.00    -0.354 N 
ATOM     56  N   UNL A   1      41.320  30.783  34.865  1.00  0.00    -0.248 NA
ATOM     57  C   UNL A   1      41.930  31.512  37.001  1.00  0.00     0.031 C 
ATOM     58  C   UNL A   1      43.484  27.625  32.596  1.00  0.00     0.029 A 
ATOM     59  C   UNL A   1      42.843  28.621  33.313  1.00  0.00     0.049 A 
ATOM     60  H   UNL A   1      41.150  29.763  32.775  1.00  0.00     0.167 HD
ATOM     61  C   UNL A   1      42.469  30.106  35.269  1.00  0.00     0.074 A 
ATOM     62  C   UNL A   1      42.819  30.629  36.574  1.00  0.00     0.031 C 
ATOM     63  C   UNL A   1      43.173  29.144  34.620  1.00  0.00     0.034 A 
BRANCH  50  64
ATOM     64  C   UNL A   1      40.898  27.716  29.016  1.00  0.00     0.023 A 
ATOM     65  C   UNL A   1      41.898  27.901  28.045  1.00  0.00     0.031 A 
ATOM     66  C   UNL A   1      39.934  26.718  28.782  1.00  0.00     0.131 A 
ATOM     67  C   UNL A   1      41.861  27.164  26.850  1.00  0.00     0.055 A 
ATOM     68  C   UNL A   1      39.954  25.929  27.630  1.00  0.00     0.041 A 
ATOM     69  F   UNL A   1      38.943  26.506  29.663  1.00  0.00    -0.206 F 
ATOM     70  C   UNL A   1      40.911  26.163  26.647  1.00  0.00     0.022 A 
BRANCH  67  71
ATOM     71  S   UNL A   1      42.978  27.644  25.502  1.00  0.00     0.124 S 
ATOM     72  O   UNL A   1      43.411  26.343  25.001  1.00  0.00    -0.237 OA
ATOM     73  O   UNL A   1      42.100  28.409  24.622  1.00  0.00    -0.237 OA
ATOM     74  O   UNL A   1      44.016  28.420  26.177  1.00  0.00    -0.744 OA
ENDBRANCH  67  71
ENDBRANCH  50  64
BRANCH  51  75
ATOM     75  C   UNL A   1      39.715  33.420  37.178  1.00  0.00     0.023 A 
ATOM     76  C   UNL A   1      39.015  32.905  38.282  1.00  0.00     0.031 A 
ATOM     77  C   UNL A   1      40.194  34.739  37.258  1.00  0.00     0.131 A 
ATOM     78  C   UNL A   1      38.771  33.720  39.398  1.00  0.00     0.055 A 
ATOM     79  C   UNL A   1      39.992  35.530  38.390  1.00  0.00     0.041 A 
ATOM     80  F   UNL A   1      40.880  35.275  36.235  1.00  0.00    -0.206 F 
ATOM     81  C   UNL A   1      39.263  35.025  39.464  1.00  0.00     0.022 A 
BRANCH  78  82
ATOM     82  S   UNL A   1      37.728  33.073  40.733  1.00  0.00     0.124 S 
ATOM     83  O   UNL A   1      38.403  31.823  41.059  1.00  0.00    -0.237 OA
ATOM     84  O   UNL A   1      37.824  34.134  41.731  1.00  0.00    -0.237 OA
ATOM     85  O   UNL A   1      36.417  32.932  40.103  1.00  0.00    -0.744 OA
ENDBRANCH  78  82
ENDBRANCH  51  75
BRANCH  63  86
ATOM     86  C   UNL A   1      44.417  28.633  35.305  1.00  0.00     0.023 A 
ATOM     87  C   UNL A   1      44.385  27.524  36.168  1.00  0.00     0.031 A 
ATOM     88  C   UNL A   1      45.645  29.296  35.127  1.00  0.00     0.131 A 
ATOM     89  C   UNL A   1      45.537  27.156  36.878  1.00  0.00     0.055 A 
ATOM     90  C   UNL A   1      46.804  28.884  35.786  1.00  0.00     0.041 A 
ATOM     91  F   UNL A   1      45.735  30.362  34.315  1.00  0.00    -0.206 F 
ATOM     92  C   UNL A   1      46.751  27.821  36.683  1.00  0.00     0.022 A 
BRANCH  89  93
ATOM     93  S   UNL A   1      45.398  25.878  38.158  1.00  0.00     0.124 S 
ATOM     94  O   UNL A   1      46.434  24.931  37.759  1.00  0.00    -0.237 OA
ATOM     95  O   UNL A   1      45.660  26.632  39.380  1.00  0.00    -0.237 OA
ATOM     96  O   UNL A   1      44.026  25.394  38.011  1.00  0.00    -0.744 OA
ENDBRANCH  89  93
ENDBRANCH  63  86
ENDBRANCH  37  38
ENDBRANCH  29  32
ENDBRANCH  27  28
ENDBRANCH  26  27
ENDBRANCH  25  26
ENDBRANCH   1  25
TORSDOF 20
ENDMDL
MODEL 3
REMARK VINA RESULT:     -11.7      4.655      9.759
REMARK SMILES CC[C@@H]1CCC[C@@](Cc2cccc(O)c2)(C(=O)NCCCCCCNC(=O)c2ccc(-c3c4nc(c(-c5cc(S(=O)(=O)[O-])ccc5F)c5ccc([nH]5)c(-c5cc(S(=O)(=O)[O-])ccc5F)c5nc(c(-c6cc(S(=O)(=O)[O-])ccc6F)c6ccc3[nH]6)C=C5)C=C4)cc2)C1
REMARK SMILES IDX 21 1 20 2 19 3 18 4 16 5 17 6 7 8 3 9 4 10 91 11 5 12 6 13
REMARK SMILES IDX 2 14 1 15 8 16 9 17 10 18 15 19 11 20 13 21 12 22 14 23
REMARK SMILES IDX 22 25 23 26 24 27 25 28 26 29 27 31 28 32 29 33 90 34 30 35
REMARK SMILES IDX 89 36 31 37 32 38 33 39 83 40 34 41 88 42 82 43 84 44 35 45
REMARK SMILES IDX 87 46 81 47 80 48 36 50 68 51 48 52 67 53 49 54 52 55 66 56
REMARK SMILES IDX 85 57 50 58 51 59 65 61 86 62 53 63 37 64 38 65 46 66 39 67
REMARK SMILES IDX 45 68 47 69 44 70 40 71 41 72 42 73 43 74 69 75 70 76 78 77
REMARK SMILES IDX 71 78 77 79 79 80 76 81 72 82 73 83 74 84 75 85 54 86 55 87
REMARK SMILES IDX 63 88 56 89 62 90 64 91 61 92 57 93 58 94 59 95 60 96
REMARK H PARENT 18 7 14 24 25 30 84 49 52 60
REMARK Flexibility Score: inf
ROOT
ATOM      1  C   UNL A   1      30.816  27.000  24.739  1.00  0.00     0.002 C 
ENDROOT
BRANCH   1   2
ATOM      2  C   UNL A   1      29.920  25.865  25.247  1.00  0.00     0.021 C 
BRANCH   2   3
ATOM      3  C   UNL A   1      30.588  24.499  25.301  1.00  0.00     0.116 C 
BRANCH   3   4
ATOM      4  N   UNL A   1      31.310  24.160  24.094  1.00  0.00    -0.356 N 
ATOM      5  C   UNL A   1      32.241  23.205  23.838  1.00  0.00     0.226 C 
ATOM      6  O   UNL A   1      32.374  22.919  22.640  1.00  0.00    -0.274 OA
ATOM      7  H   UNL A   1      31.088  24.723  23.319  1.00  0.00     0.163 HD
BRANCH   5   8
ATOM      8  C   UNL A   1      33.077  22.467  24.922  1.00  0.00     0.053 C 
ATOM      9  C   UNL A   1      35.326  23.281  23.869  1.00  0.00    -0.010 C 
ATOM     10  C   UNL A   1      35.553  24.211  25.069  1.00  0.00     0.003 C 
ATOM     11  C   UNL A   1      34.449  22.071  24.260  1.00  0.00     0.020 C 
ATOM     12  C   UNL A   1      34.256  24.559  25.790  1.00  0.00     0.001 C 
ATOM     13  C   UNL A   1      33.474  23.300  26.162  1.00  0.00     0.017 C 
BRANCH   9  14
ATOM     14  C   UNL A   1      36.664  22.792  23.280  1.00  0.00     0.000 C 
ATOM     15  C   UNL A   1      37.300  21.687  24.112  1.00  0.00     0.004 C 
ENDBRANCH   9  14
BRANCH   8  16
ATOM     16  C   UNL A   1      32.390  21.115  25.289  1.00  0.00     0.052 C 
BRANCH  16  17
ATOM     17  C   UNL A   1      32.849  19.850  24.605  1.00  0.00    -0.043 A 
ATOM     18  C   UNL A   1      34.013  19.191  25.035  1.00  0.00     0.004 A 
ATOM     19  C   UNL A   1      32.125  19.307  23.536  1.00  0.00     0.049 A 
ATOM     20  C   UNL A   1      34.461  18.038  24.383  1.00  0.00     0.004 A 
ATOM     21  C   UNL A   1      32.580  18.159  22.893  1.00  0.00     0.115 A 
ATOM     22  C   UNL A   1      33.747  17.523  23.302  1.00  0.00     0.046 A 
BRANCH  21  23
ATOM     23  O   UNL A   1      31.847  17.691  21.843  1.00  0.00    -0.508 OA
ATOM     24  H   UNL A   1      30.927  17.544  21.942  1.00  0.00     0.293 HD
ENDBRANCH  21  23
ENDBRANCH  16  17
ENDBRANCH   8  16
ENDBRANCH   5   8
ENDBRANCH   3   4
ENDBRANCH   2   3
ENDBRANCH   1   2
BRANCH   1  25
ATOM     25  C   UNL A   1      31.834  27.558  25.740  1.00  0.00     0.002 C 
BRANCH  25  26
ATOM     26  C   UNL A   1      32.938  28.453  25.163  1.00  0.00     0.021 C 
BRANCH  26  27
ATOM     27  C   UNL A   1      34.015  28.893  26.146  1.00  0.00     0.116 C 
BRANCH  27  28
ATOM     28  N   UNL A   1      33.790  30.238  26.641  1.00  0.00    -0.352 N 
ATOM     29  C   UNL A   1      34.457  30.947  27.604  1.00  0.00     0.251 C 
ATOM     30  H   UNL A   1      33.041  30.716  26.219  1.00  0.00     0.163 HD
ATOM     31  O   UNL A   1      33.977  32.013  27.990  1.00  0.00    -0.269 OA
BRANCH  29  32
ATOM     32  C   UNL A   1      35.722  30.449  28.196  1.00  0.00     0.039 A 
ATOM     33  C   UNL A   1      36.929  30.874  27.632  1.00  0.00     0.014 A 
ATOM     34  C   UNL A   1      35.740  29.526  29.248  1.00  0.00     0.014 A 
ATOM     35  C   UNL A   1      38.142  30.395  28.128  1.00  0.00     0.010 A 
ATOM     36  C   UNL A   1      36.954  29.103  29.790  1.00  0.00     0.010 A 
ATOM     37  C   UNL A   1      38.168  29.513  29.221  1.00  0.00    -0.014 A 
BRANCH  37  38
ATOM     38  C   UNL A   1      39.460  28.983  29.730  1.00  0.00     0.031 A 
ATOM     39  C   UNL A   1      40.075  29.557  30.979  1.00  0.00     0.074 A 
ATOM     40  C   UNL A   1      40.084  27.992  29.063  1.00  0.00     0.049 A 
ATOM     41  N   UNL A   1      41.184  29.222  31.588  1.00  0.00    -0.248 NA
ATOM     42  C   UNL A   1      39.363  30.678  31.610  1.00  0.00     0.031 C 
ATOM     43  C   UNL A   1      39.611  27.386  27.816  1.00  0.00     0.029 A 
ATOM     44  N   UNL A   1      41.246  27.316  29.340  1.00  0.00    -0.354 N 
ATOM     45  C   UNL A   1      41.306  30.093  32.666  1.00  0.00     0.074 A 
ATOM     46  C   UNL A   1      40.192  31.014  32.584  1.00  0.00     0.031 C 
ATOM     47  C   UNL A   1      40.457  26.408  27.455  1.00  0.00     0.029 A 
ATOM     48  C   UNL A   1      41.546  26.335  28.424  1.00  0.00     0.049 A 
ATOM     49  H   UNL A   1      41.811  27.515  30.121  1.00  0.00     0.167 HD
ATOM     50  C   UNL A   1      42.243  30.108  33.649  1.00  0.00     0.034 A 
ATOM     51  C   UNL A   1      42.576  25.468  28.378  1.00  0.00     0.034 A 
ATOM     52  C   UNL A   1      43.341  29.175  33.722  1.00  0.00     0.049 A 
ATOM     53  C   UNL A   1      43.593  25.488  29.490  1.00  0.00     0.074 A 
ATOM     54  C   UNL A   1      44.327  29.073  34.689  1.00  0.00     0.029 A 
ATOM     55  N   UNL A   1      43.600  28.177  32.789  1.00  0.00    -0.354 N 
ATOM     56  N   UNL A   1      43.665  26.285  30.531  1.00  0.00    -0.248 NA
ATOM     57  C   UNL A   1      44.651  24.472  29.434  1.00  0.00     0.031 C 
ATOM     58  C   UNL A   1      45.210  28.053  34.312  1.00  0.00     0.029 A 
ATOM     59  C   UNL A   1      44.737  27.469  33.149  1.00  0.00     0.049 A 
ATOM     60  H   UNL A   1      43.053  27.999  31.990  1.00  0.00     0.167 HD
ATOM     61  C   UNL A   1      44.760  25.844  31.271  1.00  0.00     0.074 A 
ATOM     62  C   UNL A   1      45.300  24.699  30.565  1.00  0.00     0.031 C 
ATOM     63  C   UNL A   1      45.271  26.336  32.428  1.00  0.00     0.034 A 
BRANCH  50  64
ATOM     64  C   UNL A   1      42.124  31.188  34.701  1.00  0.00     0.023 A 
ATOM     65  C   UNL A   1      42.802  32.414  34.581  1.00  0.00     0.031 A 
ATOM     66  C   UNL A   1      41.356  30.976  35.860  1.00  0.00     0.131 A 
ATOM     67  C   UNL A   1      42.771  33.341  35.635  1.00  0.00     0.055 A 
ATOM     68  C   UNL A   1      41.258  31.938  36.867  1.00  0.00     0.041 A 
ATOM     69  F   UNL A   1      40.700  29.818  36.043  1.00  0.00    -0.206 F 
ATOM     70  C   UNL A   1      41.983  33.122  36.766  1.00  0.00     0.022 A 
BRANCH  67  71
ATOM     71  S   UNL A   1      43.897  34.762  35.571  1.00  0.00     0.124 S 
ATOM     72  O   UNL A   1      43.149  35.763  36.327  1.00  0.00    -0.237 OA
ATOM     73  O   UNL A   1      45.099  34.241  36.214  1.00  0.00    -0.237 OA
ATOM     74  O   UNL A   1      44.022  35.037  34.142  1.00  0.00    -0.744 OA
ENDBRANCH  67  71
ENDBRANCH  50  64
BRANCH  51  75
ATOM     75  C   UNL A   1      42.696  24.498  27.253  1.00  0.00     0.023 A 
ATOM     76  C   UNL A   1      42.082  23.236  27.316  1.00  0.00     0.031 A 
ATOM     77  C   UNL A   1      43.459  24.803  26.113  1.00  0.00     0.131 A 
ATOM     78  C   UNL A   1      42.283  22.307  26.284  1.00  0.00     0.055 A 
ATOM     79  C   UNL A   1      43.616  23.894  25.065  1.00  0.00     0.041 A 
ATOM     80  F   UNL A   1      44.057  26.000  25.997  1.00  0.00    -0.206 F 
ATOM     81  C   UNL A   1      43.037  22.631  25.154  1.00  0.00     0.022 A 
BRANCH  78  82
ATOM     82  S   UNL A   1      41.608  20.635  26.477  1.00  0.00     0.124 S 
ATOM     83  O   UNL A   1      40.181  20.866  26.285  1.00  0.00    -0.237 OA
ATOM     84  O   UNL A   1      42.291  19.910  25.411  1.00  0.00    -0.237 OA
ATOM     85  O   UNL A   1      42.005  20.263  27.834  1.00  0.00    -0.744 OA
ENDBRANCH  78  82
ENDBRANCH  51  75
BRANCH  63  86
ATOM     86  C   UNL A   1      46.451  25.600  33.017  1.00  0.00     0.023 A 
ATOM     87  C   UNL A   1      47.765  25.840  32.580  1.00  0.00     0.031 A 
ATOM     88  C   UNL A   1      46.250  24.613  33.998  1.00  0.00     0.131 A 
ATOM     89  C   UNL A   1      48.819  25.051  33.066  1.00  0.00     0.055 A 
ATOM     90  C   UNL A   1      47.311  23.876  34.525  1.00  0.00     0.041 A 
ATOM     91  F   UNL A   1      45.016  24.342  34.452  1.00  0.00    -0.206 F 
ATOM     92  C   UNL A   1      48.602  24.079  34.046  1.00  0.00     0.022 A 
BRANCH  89  93
ATOM     93  S   UNL A   1      50.457  25.224  32.305  1.00  0.00     0.124 S 
ATOM     94  O   UNL A   1      50.592  26.673  32.198  1.00  0.00    -0.237 OA
ATOM     95  O   UNL A   1      51.323  24.573  33.282  1.00  0.00    -0.237 OA
ATOM     96  O   UNL A   1      50.319  24.518  31.032  1.00  0.00    -0.744 OA
ENDBRANCH  89  93
ENDBRANCH  63  86
ENDBRANCH  37  38
ENDBRANCH  29  32
ENDBRANCH  27  28
ENDBRANCH  26  27
ENDBRANCH  25  26
ENDBRANCH   1  25
TORSDOF 20
ENDMDL
