MODEL 1
REMARK VINA RESULT:      -9.4      0.000      0.000
REMARK SMILES COc1cccc(/C=C2/C(=O)N(c3cccc(C(=O)NCCCCCCNC(=O)c4ccc(-c5c6nc(c(-c7cc(S(=O)(=O)[O-])ccc7F)c7ccc([nH]7)c(-c7cc(S(=O)(=O)[O-])ccc7F)c7nc(c(-c8cc(S(=O)(=O)[O-])ccc8F)c8ccc5[nH]8)C=C7)C=C6)cc4)c3)N=C2C)c1
REMARK SMILES IDX 23 1 22 2 21 3 20 4 18 5 19 6 17 8 13 9 14 10 93 11 15 12
REMARK SMILES IDX 16 13 12 14 8 15 9 16 10 17 95 18 11 19 94 20 96 21 7 22
REMARK SMILES IDX 3 23 4 24 97 25 5 26 6 27 2 28 1 29 24 30 25 31 26 32 27 33
REMARK SMILES IDX 28 34 29 36 30 37 31 38 92 39 32 40 91 41 33 42 34 43 35 44
REMARK SMILES IDX 85 45 36 46 90 47 84 48 86 49 37 50 89 51 83 52 82 53 38 55
REMARK SMILES IDX 70 56 50 57 69 58 51 59 54 60 68 61 87 62 52 63 53 64 67 66
REMARK SMILES IDX 88 67 55 68 39 69 40 70 48 71 41 72 47 73 49 74 46 75 42 76
REMARK SMILES IDX 43 77 44 78 45 79 71 80 72 81 80 82 73 83 79 84 81 85 78 86
REMARK SMILES IDX 74 87 75 88 76 89 77 90 56 91 57 92 65 93 58 94 64 95 66 96
REMARK SMILES IDX 63 97 59 98 60 99 61 100 62 101
REMARK H PARENT 20 7 27 35 86 54 54 65
REMARK Flexibility Score: inf
ROOT
ATOM      1  C   UNL A   1      38.938  33.659  32.161  1.00  0.00     0.002 C 
ENDROOT
BRANCH   1   2
ATOM      2  C   UNL A   1      38.124  34.390  31.094  1.00  0.00     0.021 C 
BRANCH   2   3
ATOM      3  C   UNL A   1      38.501  34.114  29.642  1.00  0.00     0.116 C 
BRANCH   3   4
ATOM      4  N   UNL A   1      37.411  33.601  28.822  1.00  0.00    -0.352 N 
ATOM      5  C   UNL A   1      36.923  32.320  28.661  1.00  0.00     0.251 C 
ATOM      6  O   UNL A   1      35.988  32.133  27.884  1.00  0.00    -0.269 OA
ATOM      7  H   UNL A   1      36.943  34.285  28.292  1.00  0.00     0.163 HD
BRANCH   5   8
ATOM      8  C   UNL A   1      37.556  31.148  29.328  1.00  0.00     0.041 A 
ATOM      9  C   UNL A   1      39.216  29.390  29.309  1.00  0.00     0.069 A 
ATOM     10  C   UNL A   1      38.436  28.664  30.218  1.00  0.00     0.028 A 
ATOM     11  C   UNL A   1      38.827  30.691  28.980  1.00  0.00     0.042 A 
ATOM     12  C   UNL A   1      37.264  29.209  30.744  1.00  0.00     0.003 A 
ATOM     13  C   UNL A   1      36.802  30.434  30.267  1.00  0.00     0.014 A 
BRANCH   9  14
ATOM     14  N   UNL A   1      40.267  28.760  28.599  1.00  0.00    -0.196 N 
ATOM     15  C   UNL A   1      41.907  27.268  25.841  1.00  0.00     0.024 C 
ATOM     16  C   UNL A   1      41.437  27.611  27.049  1.00  0.00     0.065 C 
ATOM     17  C   UNL A   1      40.418  28.677  27.205  1.00  0.00     0.280 C 
ATOM     18  C   UNL A   1      41.703  27.152  28.423  1.00  0.00     0.071 C 
ATOM     19  O   UNL A   1      39.857  29.265  26.303  1.00  0.00    -0.267 OA
ATOM     20  N   UNL A   1      41.050  27.855  29.312  1.00  0.00    -0.169 NA
ATOM     21  C   UNL A   1      42.537  25.972  28.795  1.00  0.00     0.069 C 
BRANCH  15  22
ATOM     22  C   UNL A   1      42.922  26.249  25.586  1.00  0.00    -0.021 A 
ATOM     23  C   UNL A   1      43.527  23.967  25.044  1.00  0.00     0.119 A 
ATOM     24  C   UNL A   1      44.871  24.284  25.246  1.00  0.00     0.046 A 
ATOM     25  C   UNL A   1      42.553  24.954  25.199  1.00  0.00     0.054 A 
ATOM     26  C   UNL A   1      45.247  25.585  25.579  1.00  0.00     0.004 A 
ATOM     27  C   UNL A   1      44.274  26.567  25.753  1.00  0.00     0.008 A 
BRANCH  23  28
ATOM     28  O   UNL A   1      43.262  22.650  24.783  1.00  0.00    -0.497 OA
ATOM     29  C   UNL A   1      44.011  21.713  25.549  1.00  0.00     0.278 C 
ENDBRANCH  23  28
ENDBRANCH  15  22
ENDBRANCH   9  14
ENDBRANCH   5   8
ENDBRANCH   3   4
ENDBRANCH   2   3
ENDBRANCH   1   2
BRANCH   1  30
ATOM     30  C   UNL A   1      39.553  34.529  33.259  1.00  0.00     0.002 C 
BRANCH  30  31
ATOM     31  C   UNL A   1      38.740  34.672  34.549  1.00  0.00     0.021 C 
BRANCH  31  32
ATOM     32  C   UNL A   1      37.465  33.837  34.627  1.00  0.00     0.116 C 
BRANCH  32  33
ATOM     33  N   UNL A   1      37.399  33.028  35.832  1.00  0.00    -0.352 N 
ATOM     34  C   UNL A   1      38.034  31.846  36.133  1.00  0.00     0.251 C 
ATOM     35  H   UNL A   1      36.813  33.379  36.540  1.00  0.00     0.163 HD
ATOM     36  O   UNL A   1      37.708  31.222  37.139  1.00  0.00    -0.269 OA
BRANCH  34  37
ATOM     37  C   UNL A   1      39.084  31.312  35.236  1.00  0.00     0.039 A 
ATOM     38  C   UNL A   1      38.703  30.529  34.143  1.00  0.00     0.014 A 
ATOM     39  C   UNL A   1      40.437  31.573  35.470  1.00  0.00     0.014 A 
ATOM     40  C   UNL A   1      39.671  30.075  33.242  1.00  0.00     0.010 A 
ATOM     41  C   UNL A   1      41.393  31.177  34.536  1.00  0.00     0.010 A 
ATOM     42  C   UNL A   1      41.020  30.433  33.406  1.00  0.00    -0.014 A 
BRANCH  42  43
ATOM     43  C   UNL A   1      42.047  30.065  32.394  1.00  0.00     0.031 A 
ATOM     44  C   UNL A   1      42.786  28.761  32.503  1.00  0.00     0.074 A 
ATOM     45  C   UNL A   1      42.359  30.940  31.416  1.00  0.00     0.049 A 
ATOM     46  N   UNL A   1      43.788  28.315  31.789  1.00  0.00    -0.248 NA
ATOM     47  C   UNL A   1      42.355  27.845  33.571  1.00  0.00     0.031 C 
ATOM     48  C   UNL A   1      41.723  32.245  31.217  1.00  0.00     0.029 A 
ATOM     49  N   UNL A   1      43.295  30.873  30.413  1.00  0.00    -0.354 N 
ATOM     50  C   UNL A   1      44.112  27.071  32.320  1.00  0.00     0.074 A 
ATOM     51  C   UNL A   1      43.234  26.860  33.453  1.00  0.00     0.031 C 
ATOM     52  C   UNL A   1      42.274  32.844  30.149  1.00  0.00     0.029 A 
ATOM     53  C   UNL A   1      43.339  31.999  29.621  1.00  0.00     0.049 A 
ATOM     54  H   UNL A   1      43.878  30.093  30.273  1.00  0.00     0.167 HD
ATOM     55  C   UNL A   1      45.039  26.179  31.889  1.00  0.00     0.034 A 
ATOM     56  C   UNL A   1      44.162  32.327  28.604  1.00  0.00     0.034 A 
ATOM     57  C   UNL A   1      45.903  26.403  30.754  1.00  0.00     0.049 A 
ATOM     58  C   UNL A   1      45.231  31.345  28.190  1.00  0.00     0.074 A 
ATOM     59  C   UNL A   1      46.848  25.549  30.211  1.00  0.00     0.029 A 
ATOM     60  N   UNL A   1      45.935  27.563  29.992  1.00  0.00    -0.354 N 
ATOM     61  N   UNL A   1      45.498  30.157  28.681  1.00  0.00    -0.248 NA
ATOM     62  C   UNL A   1      46.107  31.747  27.082  1.00  0.00     0.031 C 
ATOM     63  C   UNL A   1      47.504  26.221  29.175  1.00  0.00     0.029 A 
ATOM     64  C   UNL A   1      46.912  27.463  29.012  1.00  0.00     0.049 A 
ATOM     65  H   UNL A   1      45.352  28.344  30.129  1.00  0.00     0.167 HD
ATOM     66  C   UNL A   1      46.553  29.660  27.920  1.00  0.00     0.074 A 
ATOM     67  C   UNL A   1      46.856  30.666  26.923  1.00  0.00     0.031 C 
ATOM     68  C   UNL A   1      47.212  28.478  28.031  1.00  0.00     0.034 A 
BRANCH  55  69
ATOM     69  C   UNL A   1      45.184  24.891  32.662  1.00  0.00     0.023 A 
ATOM     70  C   UNL A   1      46.061  24.780  33.756  1.00  0.00     0.031 A 
ATOM     71  C   UNL A   1      44.434  23.756  32.304  1.00  0.00     0.131 A 
ATOM     72  C   UNL A   1      46.211  23.549  34.411  1.00  0.00     0.055 A 
ATOM     73  C   UNL A   1      44.529  22.556  33.012  1.00  0.00     0.041 A 
ATOM     74  F   UNL A   1      43.598  23.792  31.255  1.00  0.00    -0.206 F 
ATOM     75  C   UNL A   1      45.432  22.444  34.065  1.00  0.00     0.022 A 
BRANCH  72  76
ATOM     76  S   UNL A   1      47.536  23.378  35.637  1.00  0.00     0.124 S 
ATOM     77  O   UNL A   1      47.726  24.764  36.061  1.00  0.00    -0.237 OA
ATOM     78  O   UNL A   1      46.940  22.485  36.624  1.00  0.00    -0.237 OA
ATOM     79  O   UNL A   1      48.643  22.812  34.869  1.00  0.00    -0.744 OA
ENDBRANCH  72  76
ENDBRANCH  55  69
BRANCH  56  80
ATOM     80  C   UNL A   1      44.042  33.647  27.919  1.00  0.00     0.023 A 
ATOM     81  C   UNL A   1      44.257  34.845  28.620  1.00  0.00     0.031 A 
ATOM     82  C   UNL A   1      43.640  33.737  26.574  1.00  0.00     0.131 A 
ATOM     83  C   UNL A   1      44.006  36.077  27.995  1.00  0.00     0.055 A 
ATOM     84  C   UNL A   1      43.460  34.966  25.937  1.00  0.00     0.041 A 
ATOM     85  F   UNL A   1      43.418  32.625  25.855  1.00  0.00    -0.206 F 
ATOM     86  C   UNL A   1      43.626  36.146  26.654  1.00  0.00     0.022 A 
BRANCH  83  87
ATOM     87  S   UNL A   1      44.067  37.586  29.002  1.00  0.00     0.124 S 
ATOM     88  O   UNL A   1      43.835  37.055  30.341  1.00  0.00    -0.237 OA
ATOM     89  O   UNL A   1      45.413  38.077  28.729  1.00  0.00    -0.237 OA
ATOM     90  O   UNL A   1      42.983  38.400  28.456  1.00  0.00    -0.744 OA
ENDBRANCH  83  87
ENDBRANCH  56  80
BRANCH  68  91
ATOM     91  C   UNL A   1      48.301  28.202  27.023  1.00  0.00     0.023 A 
ATOM     92  C   UNL A   1      48.007  27.881  25.687  1.00  0.00     0.031 A 
ATOM     93  C   UNL A   1      49.653  28.247  27.408  1.00  0.00     0.131 A 
ATOM     94  C   UNL A   1      49.045  27.558  24.799  1.00  0.00     0.055 A 
ATOM     95  C   UNL A   1      50.686  27.993  26.504  1.00  0.00     0.041 A 
ATOM     96  F   UNL A   1      49.995  28.544  28.673  1.00  0.00    -0.206 F 
ATOM     97  C   UNL A   1      50.384  27.632  25.194  1.00  0.00     0.022 A 
BRANCH  94  98
ATOM     98  S   UNL A   1      48.618  26.945  23.147  1.00  0.00     0.124 S 
ATOM     99  O   UNL A   1      49.903  27.010  22.458  1.00  0.00    -0.237 OA
ATOM    100  O   UNL A   1      48.114  25.605  23.429  1.00  0.00    -0.237 OA
ATOM    101  O   UNL A   1      47.613  27.898  22.676  1.00  0.00    -0.744 OA
ENDBRANCH  94  98
ENDBRANCH  68  91
ENDBRANCH  42  43
ENDBRANCH  34  37
ENDBRANCH  32  33
ENDBRANCH  31  32
ENDBRANCH  30  31
ENDBRANCH   1  30
TORSDOF 19
ENDMDL
MODEL 2
REMARK VINA RESULT:      -8.4      0.356      7.206
REMARK SMILES COc1cccc(/C=C2/C(=O)N(c3cccc(C(=O)NCCCCCCNC(=O)c4ccc(-c5c6nc(c(-c7cc(S(=O)(=O)[O-])ccc7F)c7ccc([nH]7)c(-c7cc(S(=O)(=O)[O-])ccc7F)c7nc(c(-c8cc(S(=O)(=O)[O-])ccc8F)c8ccc5[nH]8)C=C7)C=C6)cc4)c3)N=C2C)c1
REMARK SMILES IDX 23 1 22 2 21 3 20 4 18 5 19 6 17 8 13 9 14 10 93 11 15 12
REMARK SMILES IDX 16 13 12 14 8 15 9 16 10 17 95 18 11 19 94 20 96 21 7 22
REMARK SMILES IDX 3 23 4 24 97 25 5 26 6 27 2 28 1 29 24 30 25 31 26 32 27 33
REMARK SMILES IDX 28 34 29 36 30 37 31 38 92 39 32 40 91 41 33 42 34 43 35 44
REMARK SMILES IDX 85 45 36 46 90 47 84 48 86 49 37 50 89 51 83 52 82 53 38 55
REMARK SMILES IDX 70 56 50 57 69 58 51 59 54 60 68 61 87 62 52 63 53 64 67 66
REMARK SMILES IDX 88 67 55 68 39 69 40 70 48 71 41 72 47 73 49 74 46 75 42 76
REMARK SMILES IDX 43 77 44 78 45 79 71 80 72 81 80 82 73 83 79 84 81 85 78 86
REMARK SMILES IDX 74 87 75 88 76 89 77 90 56 91 57 92 65 93 58 94 64 95 66 96
REMARK SMILES IDX 63 97 59 98 60 99 61 100 62 101
REMARK H PARENT 20 7 27 35 86 54 54 65
REMARK Flexibility Score: inf
ROOT
ATOM      1  C   UNL A   1      39.258  33.903  32.197  1.00  0.00     0.002 C 
ENDROOT
BRANCH   1   2
ATOM      2  C   UNL A   1      38.450  34.606  31.107  1.00  0.00     0.021 C 
BRANCH   2   3
ATOM      3  C   UNL A   1      38.768  34.217  29.666  1.00  0.00     0.116 C 
BRANCH   3   4
ATOM      4  N   UNL A   1      37.619  33.760  28.896  1.00  0.00    -0.352 N 
ATOM      5  C   UNL A   1      37.060  32.506  28.758  1.00  0.00     0.251 C 
ATOM      6  O   UNL A   1      36.082  32.367  28.023  1.00  0.00    -0.269 OA
ATOM      7  H   UNL A   1      37.162  34.468  28.387  1.00  0.00     0.163 HD
BRANCH   5   8
ATOM      8  C   UNL A   1      37.661  31.303  29.397  1.00  0.00     0.041 A 
ATOM      9  C   UNL A   1      39.266  29.495  29.330  1.00  0.00     0.069 A 
ATOM     10  C   UNL A   1      38.472  28.776  30.233  1.00  0.00     0.028 A 
ATOM     11  C   UNL A   1      38.915  30.813  29.029  1.00  0.00     0.042 A 
ATOM     12  C   UNL A   1      37.321  29.347  30.779  1.00  0.00     0.003 A 
ATOM     13  C   UNL A   1      36.893  30.594  30.329  1.00  0.00     0.014 A 
BRANCH   9  14
ATOM     14  N   UNL A   1      40.291  28.847  28.600  1.00  0.00    -0.196 N 
ATOM     15  C   UNL A   1      41.842  27.308  25.816  1.00  0.00     0.024 C 
ATOM     16  C   UNL A   1      41.408  27.669  27.032  1.00  0.00     0.065 C 
ATOM     17  C   UNL A   1      40.404  28.747  27.203  1.00  0.00     0.280 C 
ATOM     18  C   UNL A   1      41.707  27.223  28.403  1.00  0.00     0.071 C 
ATOM     19  O   UNL A   1      39.824  29.330  26.310  1.00  0.00    -0.267 OA
ATOM     20  N   UNL A   1      41.085  27.942  29.302  1.00  0.00    -0.169 NA
ATOM     21  C   UNL A   1      42.539  26.039  28.767  1.00  0.00     0.069 C 
BRANCH  15  22
ATOM     22  C   UNL A   1      42.840  26.276  25.545  1.00  0.00    -0.021 A 
ATOM     23  C   UNL A   1      43.409  23.977  25.038  1.00  0.00     0.119 A 
ATOM     24  C   UNL A   1      44.762  24.290  25.175  1.00  0.00     0.046 A 
ATOM     25  C   UNL A   1      42.448  24.974  25.208  1.00  0.00     0.054 A 
ATOM     26  C   UNL A   1      45.159  25.597  25.458  1.00  0.00     0.004 A 
ATOM     27  C   UNL A   1      44.199  26.590  25.647  1.00  0.00     0.008 A 
BRANCH  23  28
ATOM     28  O   UNL A   1      43.127  22.656  24.823  1.00  0.00    -0.497 OA
ATOM     29  C   UNL A   1      43.128  21.833  25.985  1.00  0.00     0.278 C 
ENDBRANCH  23  28
ENDBRANCH  15  22
ENDBRANCH   9  14
ENDBRANCH   5   8
ENDBRANCH   3   4
ENDBRANCH   2   3
ENDBRANCH   1   2
BRANCH   1  30
ATOM     30  C   UNL A   1      39.756  34.783  33.345  1.00  0.00     0.002 C 
BRANCH  30  31
ATOM     31  C   UNL A   1      38.785  34.994  34.511  1.00  0.00     0.021 C 
BRANCH  31  32
ATOM     32  C   UNL A   1      37.485  34.198  34.446  1.00  0.00     0.116 C 
BRANCH  32  33
ATOM     33  N   UNL A   1      37.275  33.373  35.624  1.00  0.00    -0.352 N 
ATOM     34  C   UNL A   1      37.859  32.181  35.979  1.00  0.00     0.251 C 
ATOM     35  H   UNL A   1      36.614  33.723  36.266  1.00  0.00     0.163 HD
ATOM     36  O   UNL A   1      37.414  31.548  36.933  1.00  0.00    -0.269 OA
BRANCH  34  37
ATOM     37  C   UNL A   1      38.999  31.647  35.201  1.00  0.00     0.039 A 
ATOM     38  C   UNL A   1      38.738  30.881  34.061  1.00  0.00     0.014 A 
ATOM     39  C   UNL A   1      40.319  31.890  35.591  1.00  0.00     0.014 A 
ATOM     40  C   UNL A   1      39.798  30.427  33.270  1.00  0.00     0.010 A 
ATOM     41  C   UNL A   1      41.372  31.495  34.766  1.00  0.00     0.010 A 
ATOM     42  C   UNL A   1      41.122  30.769  33.591  1.00  0.00    -0.014 A 
BRANCH  42  43
ATOM     43  C   UNL A   1      42.254  30.402  32.698  1.00  0.00     0.031 A 
ATOM     44  C   UNL A   1      42.677  31.327  31.591  1.00  0.00     0.074 A 
ATOM     45  C   UNL A   1      42.854  29.202  32.843  1.00  0.00     0.049 A 
ATOM     46  N   UNL A   1      43.560  31.136  30.644  1.00  0.00    -0.248 NA
ATOM     47  C   UNL A   1      42.003  32.634  31.528  1.00  0.00     0.031 C 
ATOM     48  C   UNL A   1      42.520  28.211  33.868  1.00  0.00     0.029 A 
ATOM     49  N   UNL A   1      43.861  28.606  32.124  1.00  0.00    -0.354 N 
ATOM     50  C   UNL A   1      43.547  32.292  29.871  1.00  0.00     0.074 A 
ATOM     51  C   UNL A   1      42.525  33.155  30.428  1.00  0.00     0.031 C 
ATOM     52  C   UNL A   1      43.318  27.141  33.723  1.00  0.00     0.029 A 
ATOM     53  C   UNL A   1      44.180  27.341  32.563  1.00  0.00     0.049 A 
ATOM     54  H   UNL A   1      44.312  29.042  31.366  1.00  0.00     0.167 HD
ATOM     55  C   UNL A   1      44.329  32.612  28.809  1.00  0.00     0.034 A 
ATOM     56  C   UNL A   1      45.047  26.432  32.072  1.00  0.00     0.034 A 
ATOM     57  C   UNL A   1      45.346  31.742  28.268  1.00  0.00     0.049 A 
ATOM     58  C   UNL A   1      45.855  26.787  30.847  1.00  0.00     0.074 A 
ATOM     59  C   UNL A   1      46.218  31.985  27.221  1.00  0.00     0.029 A 
ATOM     60  N   UNL A   1      45.624  30.460  28.724  1.00  0.00    -0.354 N 
ATOM     61  N   UNL A   1      45.854  27.901  30.150  1.00  0.00    -0.248 NA
ATOM     62  C   UNL A   1      46.781  25.765  30.345  1.00  0.00     0.031 C 
ATOM     63  C   UNL A   1      46.967  30.825  26.993  1.00  0.00     0.029 A 
ATOM     64  C   UNL A   1      46.624  29.886  27.952  1.00  0.00     0.049 A 
ATOM     65  H   UNL A   1      45.175  30.021  29.482  1.00  0.00     0.167 HD
ATOM     66  C   UNL A   1      46.803  27.720  29.147  1.00  0.00     0.074 A 
ATOM     67  C   UNL A   1      47.371  26.403  29.344  1.00  0.00     0.031 C 
ATOM     68  C   UNL A   1      47.174  28.566  28.152  1.00  0.00     0.034 A 
BRANCH  55  69
ATOM     69  C   UNL A   1      44.097  33.948  28.146  1.00  0.00     0.023 A 
ATOM     70  C   UNL A   1      44.339  35.158  28.819  1.00  0.00     0.031 A 
ATOM     71  C   UNL A   1      43.631  34.015  26.821  1.00  0.00     0.131 A 
ATOM     72  C   UNL A   1      44.055  36.379  28.189  1.00  0.00     0.055 A 
ATOM     73  C   UNL A   1      43.427  35.235  26.171  1.00  0.00     0.041 A 
ATOM     74  F   UNL A   1      43.359  32.894  26.134  1.00  0.00    -0.206 F 
ATOM     75  C   UNL A   1      43.627  36.427  26.861  1.00  0.00     0.022 A 
BRANCH  72  76
ATOM     76  S   UNL A   1      44.127  37.899  29.175  1.00  0.00     0.124 S 
ATOM     77  O   UNL A   1      44.273  37.366  30.528  1.00  0.00    -0.237 OA
ATOM     78  O   UNL A   1      45.296  38.576  28.626  1.00  0.00    -0.237 OA
ATOM     79  O   UNL A   1      42.845  38.546  28.904  1.00  0.00    -0.744 OA
ENDBRANCH  72  76
ENDBRANCH  55  69
BRANCH  56  80
ATOM     80  C   UNL A   1      45.186  25.088  32.705  1.00  0.00     0.023 A 
ATOM     81  C   UNL A   1      46.094  24.874  33.754  1.00  0.00     0.031 A 
ATOM     82  C   UNL A   1      44.468  23.978  32.222  1.00  0.00     0.131 A 
ATOM     83  C   UNL A   1      46.308  23.575  34.242  1.00  0.00     0.055 A 
ATOM     84  C   UNL A   1      44.634  22.700  32.758  1.00  0.00     0.041 A 
ATOM     85  F   UNL A   1      43.587  24.122  31.218  1.00  0.00    -0.206 F 
ATOM     86  C   UNL A   1      45.572  22.490  33.763  1.00  0.00     0.022 A 
BRANCH  83  87
ATOM     87  S   UNL A   1      47.655  23.308  35.429  1.00  0.00     0.124 S 
ATOM     88  O   UNL A   1      48.578  22.494  34.647  1.00  0.00    -0.237 OA
ATOM     89  O   UNL A   1      48.083  24.673  35.712  1.00  0.00    -0.237 OA
ATOM     90  O   UNL A   1      46.997  22.618  36.537  1.00  0.00    -0.744 OA
ENDBRANCH  83  87
ENDBRANCH  56  80
BRANCH  68  91
ATOM     91  C   UNL A   1      48.272  28.099  27.227  1.00  0.00     0.023 A 
ATOM     92  C   UNL A   1      48.026  27.814  25.873  1.00  0.00     0.031 A 
ATOM     93  C   UNL A   1      49.580  27.922  27.711  1.00  0.00     0.131 A 
ATOM     94  C   UNL A   1      49.058  27.311  25.065  1.00  0.00     0.055 A 
ATOM     95  C   UNL A   1      50.619  27.487  26.887  1.00  0.00     0.041 A 
ATOM     96  F   UNL A   1      49.873  28.175  28.998  1.00  0.00    -0.206 F 
ATOM     97  C   UNL A   1      50.357  27.165  25.558  1.00  0.00     0.022 A 
BRANCH  94  98
ATOM     98  S   UNL A   1      48.655  26.757  23.386  1.00  0.00     0.124 S 
ATOM     99  O   UNL A   1      48.198  25.390  23.619  1.00  0.00    -0.237 OA
ATOM    100  O   UNL A   1      47.629  27.710  22.978  1.00  0.00    -0.237 OA
ATOM    101  O   UNL A   1      49.926  26.873  22.672  1.00  0.00    -0.744 OA
ENDBRANCH  94  98
ENDBRANCH  68  91
ENDBRANCH  42  43
ENDBRANCH  34  37
ENDBRANCH  32  33
ENDBRANCH  31  32
ENDBRANCH  30  31
ENDBRANCH   1  30
TORSDOF 19
ENDMDL
MODEL 3
REMARK VINA RESULT:      -8.3      2.962      9.536
REMARK SMILES COc1cccc(/C=C2/C(=O)N(c3cccc(C(=O)NCCCCCCNC(=O)c4ccc(-c5c6nc(c(-c7cc(S(=O)(=O)[O-])ccc7F)c7ccc([nH]7)c(-c7cc(S(=O)(=O)[O-])ccc7F)c7nc(c(-c8cc(S(=O)(=O)[O-])ccc8F)c8ccc5[nH]8)C=C7)C=C6)cc4)c3)N=C2C)c1
REMARK SMILES IDX 23 1 22 2 21 3 20 4 18 5 19 6 17 8 13 9 14 10 93 11 15 12
REMARK SMILES IDX 16 13 12 14 8 15 9 16 10 17 95 18 11 19 94 20 96 21 7 22
REMARK SMILES IDX 3 23 4 24 97 25 5 26 6 27 2 28 1 29 24 30 25 31 26 32 27 33
REMARK SMILES IDX 28 34 29 36 30 37 31 38 92 39 32 40 91 41 33 42 34 43 35 44
REMARK SMILES IDX 85 45 36 46 90 47 84 48 86 49 37 50 89 51 83 52 82 53 38 55
REMARK SMILES IDX 70 56 50 57 69 58 51 59 54 60 68 61 87 62 52 63 53 64 67 66
REMARK SMILES IDX 88 67 55 68 39 69 40 70 48 71 41 72 47 73 49 74 46 75 42 76
REMARK SMILES IDX 43 77 44 78 45 79 71 80 72 81 80 82 73 83 79 84 81 85 78 86
REMARK SMILES IDX 74 87 75 88 76 89 77 90 56 91 57 92 65 93 58 94 64 95 66 96
REMARK SMILES IDX 63 97 59 98 60 99 61 100 62 101
REMARK H PARENT 20 7 27 35 86 54 54 65
REMARK Flexibility Score: inf
ROOT
ATOM      1  C   UNL A   1      42.662  22.255  25.416  1.00  0.00     0.002 C 
ENDROOT
BRANCH   1   2
ATOM      2  C   UNL A   1      41.431  21.718  26.146  1.00  0.00     0.021 C 
BRANCH   2   3
ATOM      3  C   UNL A   1      40.941  22.528  27.342  1.00  0.00     0.116 C 
BRANCH   3   4
ATOM      4  N   UNL A   1      41.984  22.892  28.293  1.00  0.00    -0.352 N 
ATOM      5  C   UNL A   1      42.475  24.124  28.673  1.00  0.00     0.251 C 
ATOM      6  O   UNL A   1      43.387  24.173  29.498  1.00  0.00    -0.269 OA
ATOM      7  H   UNL A   1      42.411  22.127  28.742  1.00  0.00     0.163 HD
BRANCH   5   8
ATOM      8  C   UNL A   1      41.998  25.388  28.045  1.00  0.00     0.041 A 
ATOM      9  C   UNL A   1      40.833  27.498  28.241  1.00  0.00     0.069 A 
ATOM     10  C   UNL A   1      40.619  27.491  26.856  1.00  0.00     0.028 A 
ATOM     11  C   UNL A   1      41.644  26.507  28.799  1.00  0.00     0.042 A 
ATOM     12  C   UNL A   1      41.160  26.483  26.057  1.00  0.00     0.003 A 
ATOM     13  C   UNL A   1      41.814  25.409  26.657  1.00  0.00     0.014 A 
BRANCH   9  14
ATOM     14  N   UNL A   1      40.100  28.373  29.078  1.00  0.00    -0.196 N 
ATOM     15  C   UNL A   1      39.559  31.080  31.292  1.00  0.00     0.024 C 
ATOM     16  C   UNL A   1      39.550  29.912  30.634  1.00  0.00     0.065 C 
ATOM     17  C   UNL A   1      40.489  29.650  29.516  1.00  0.00     0.280 C 
ATOM     18  C   UNL A   1      38.754  28.678  30.744  1.00  0.00     0.071 C 
ATOM     19  O   UNL A   1      41.384  30.384  29.150  1.00  0.00    -0.267 OA
ATOM     20  N   UNL A   1      39.055  27.813  29.809  1.00  0.00    -0.169 NA
ATOM     21  C   UNL A   1      37.778  28.371  31.829  1.00  0.00     0.069 C 
BRANCH  15  22
ATOM     22  C   UNL A   1      38.665  31.441  32.389  1.00  0.00    -0.021 A 
ATOM     23  C   UNL A   1      36.694  32.585  33.211  1.00  0.00     0.119 A 
ATOM     24  C   UNL A   1      37.050  32.242  34.516  1.00  0.00     0.046 A 
ATOM     25  C   UNL A   1      37.494  32.171  32.145  1.00  0.00     0.054 A 
ATOM     26  C   UNL A   1      38.185  31.471  34.759  1.00  0.00     0.004 A 
ATOM     27  C   UNL A   1      38.996  31.073  33.697  1.00  0.00     0.008 A 
BRANCH  23  28
ATOM     28  O   UNL A   1      35.599  33.396  33.090  1.00  0.00    -0.497 OA
ATOM     29  C   UNL A   1      35.252  34.133  34.258  1.00  0.00     0.278 C 
ENDBRANCH  23  28
ENDBRANCH  15  22
ENDBRANCH   9  14
ENDBRANCH   5   8
ENDBRANCH   3   4
ENDBRANCH   2   3
ENDBRANCH   1   2
BRANCH   1  30
ATOM     30  C   UNL A   1      43.950  21.443  25.573  1.00  0.00     0.002 C 
BRANCH  30  31
ATOM     31  C   UNL A   1      45.158  22.190  26.146  1.00  0.00     0.021 C 
BRANCH  31  32
ATOM     32  C   UNL A   1      45.107  23.713  26.046  1.00  0.00     0.116 C 
BRANCH  32  33
ATOM     33  N   UNL A   1      46.113  24.247  25.144  1.00  0.00    -0.352 N 
ATOM     34  C   UNL A   1      46.569  25.536  25.000  1.00  0.00     0.251 C 
ATOM     35  H   UNL A   1      46.532  23.587  24.547  1.00  0.00     0.163 HD
ATOM     36  O   UNL A   1      47.299  25.819  24.054  1.00  0.00    -0.269 OA
BRANCH  34  37
ATOM     37  C   UNL A   1      46.161  26.585  25.962  1.00  0.00     0.039 A 
ATOM     38  C   UNL A   1      44.862  27.097  25.892  1.00  0.00     0.014 A 
ATOM     39  C   UNL A   1      47.051  27.070  26.924  1.00  0.00     0.014 A 
ATOM     40  C   UNL A   1      44.432  28.034  26.835  1.00  0.00     0.010 A 
ATOM     41  C   UNL A   1      46.601  27.955  27.904  1.00  0.00     0.010 A 
ATOM     42  C   UNL A   1      45.283  28.438  27.877  1.00  0.00    -0.014 A 
BRANCH  42  43
ATOM     43  C   UNL A   1      44.807  29.339  28.960  1.00  0.00     0.031 A 
ATOM     44  C   UNL A   1      44.392  28.773  30.290  1.00  0.00     0.074 A 
ATOM     45  C   UNL A   1      44.683  30.661  28.719  1.00  0.00     0.049 A 
ATOM     46  N   UNL A   1      43.847  29.379  31.314  1.00  0.00    -0.248 NA
ATOM     47  C   UNL A   1      44.599  27.330  30.487  1.00  0.00     0.031 C 
ATOM     48  C   UNL A   1      45.036  31.326  27.463  1.00  0.00     0.029 A 
ATOM     49  N   UNL A   1      44.217  31.681  29.512  1.00  0.00    -0.354 N 
ATOM     50  C   UNL A   1      43.642  28.395  32.275  1.00  0.00     0.074 A 
ATOM     51  C   UNL A   1      44.069  27.142  31.687  1.00  0.00     0.031 C 
ATOM     52  C   UNL A   1      44.792  32.641  27.577  1.00  0.00     0.029 A 
ATOM     53  C   UNL A   1      44.212  32.908  28.888  1.00  0.00     0.049 A 
ATOM     54  H   UNL A   1      43.917  31.547  30.440  1.00  0.00     0.167 HD
ATOM     55  C   UNL A   1      43.162  28.528  33.537  1.00  0.00     0.034 A 
ATOM     56  C   UNL A   1      43.765  34.108  29.312  1.00  0.00     0.034 A 
ATOM     57  C   UNL A   1      42.744  29.785  34.110  1.00  0.00     0.049 A 
ATOM     58  C   UNL A   1      43.170  34.214  30.696  1.00  0.00     0.074 A 
ATOM     59  C   UNL A   1      42.280  30.035  35.390  1.00  0.00     0.029 A 
ATOM     60  N   UNL A   1      42.730  31.002  33.441  1.00  0.00    -0.354 N 
ATOM     61  N   UNL A   1      43.018  33.278  31.604  1.00  0.00    -0.248 NA
ATOM     62  C   UNL A   1      42.691  35.538  31.112  1.00  0.00     0.031 C 
ATOM     63  C   UNL A   1      41.912  31.382  35.470  1.00  0.00     0.029 A 
ATOM     64  C   UNL A   1      42.226  31.995  34.268  1.00  0.00     0.049 A 
ATOM     65  H   UNL A   1      43.031  31.139  32.513  1.00  0.00     0.167 HD
ATOM     66  C   UNL A   1      42.453  33.911  32.709  1.00  0.00     0.074 A 
ATOM     67  C   UNL A   1      42.316  35.310  32.361  1.00  0.00     0.031 C 
ATOM     68  C   UNL A   1      42.083  33.385  33.905  1.00  0.00     0.034 A 
BRANCH  55  69
ATOM     69  C   UNL A   1      43.039  27.278  34.375  1.00  0.00     0.023 A 
ATOM     70  C   UNL A   1      44.159  26.685  34.984  1.00  0.00     0.031 A 
ATOM     71  C   UNL A   1      41.786  26.671  34.571  1.00  0.00     0.131 A 
ATOM     72  C   UNL A   1      44.013  25.490  35.706  1.00  0.00     0.055 A 
ATOM     73  C   UNL A   1      41.635  25.527  35.358  1.00  0.00     0.041 A 
ATOM     74  F   UNL A   1      40.683  27.177  33.995  1.00  0.00    -0.206 F 
ATOM     75  C   UNL A   1      42.755  24.923  35.920  1.00  0.00     0.022 A 
BRANCH  72  76
ATOM     76  S   UNL A   1      45.507  24.619  36.249  1.00  0.00     0.124 S 
ATOM     77  O   UNL A   1      45.744  25.229  37.556  1.00  0.00    -0.237 OA
ATOM     78  O   UNL A   1      45.073  23.227  36.264  1.00  0.00    -0.237 OA
ATOM     79  O   UNL A   1      46.492  24.956  35.225  1.00  0.00    -0.744 OA
ENDBRANCH  72  76
ENDBRANCH  55  69
BRANCH  56  80
ATOM     80  C   UNL A   1      43.824  35.304  28.422  1.00  0.00     0.023 A 
ATOM     81  C   UNL A   1      45.015  36.032  28.270  1.00  0.00     0.031 A 
ATOM     82  C   UNL A   1      42.674  35.783  27.767  1.00  0.00     0.131 A 
ATOM     83  C   UNL A   1      45.015  37.231  27.538  1.00  0.00     0.055 A 
ATOM     84  C   UNL A   1      42.696  36.937  26.983  1.00  0.00     0.041 A 
ATOM     85  F   UNL A   1      41.506  35.129  27.879  1.00  0.00    -0.206 F 
ATOM     86  C   UNL A   1      43.868  37.679  26.880  1.00  0.00     0.022 A 
BRANCH  83  87
ATOM     87  S   UNL A   1      46.510  38.259  27.563  1.00  0.00     0.124 S 
ATOM     88  O   UNL A   1      47.559  37.255  27.426  1.00  0.00    -0.237 OA
ATOM     89  O   UNL A   1      46.298  39.128  26.411  1.00  0.00    -0.237 OA
ATOM     90  O   UNL A   1      46.444  38.921  28.865  1.00  0.00    -0.744 OA
ENDBRANCH  83  87
ENDBRANCH  56  80
BRANCH  68  91
ATOM     91  C   UNL A   1      41.528  34.341  34.933  1.00  0.00     0.023 A 
ATOM     92  C   UNL A   1      42.300  34.788  36.019  1.00  0.00     0.031 A 
ATOM     93  C   UNL A   1      40.203  34.801  34.832  1.00  0.00     0.131 A 
ATOM     94  C   UNL A   1      41.724  35.618  36.993  1.00  0.00     0.055 A 
ATOM     95  C   UNL A   1      39.655  35.681  35.767  1.00  0.00     0.041 A 
ATOM     96  F   UNL A   1      39.417  34.404  33.818  1.00  0.00    -0.206 F 
ATOM     97  C   UNL A   1      40.413  36.084  36.863  1.00  0.00     0.022 A 
BRANCH  94  98
ATOM     98  S   UNL A   1      42.681  36.003  38.485  1.00  0.00     0.124 S 
ATOM     99  O   UNL A   1      43.008  37.410  38.281  1.00  0.00    -0.237 OA
ATOM    100  O   UNL A   1      41.726  35.720  39.552  1.00  0.00    -0.237 OA
ATOM    101  O   UNL A   1      43.816  35.084  38.411  1.00  0.00    -0.744 OA
ENDBRANCH  94  98
ENDBRANCH  68  91
ENDBRANCH  42  43
ENDBRANCH  34  37
ENDBRANCH  32  33
ENDBRANCH  31  32
ENDBRANCH  30  31
ENDBRANCH   1  30
TORSDOF 19
ENDMDL
