MODEL 1
REMARK VINA RESULT:     -10.9      0.000      0.000
REMARK SMILES COc1ccc(OCCNc2c(Cl)cccc2C(=O)NCCCCCCNC(=O)c2ccc(-c3c4nc(c(-c5cc(S(=O)(=O)[O-])ccc5F)c5ccc([nH]5)c(-c5cc(S(=O)(=O)[O-])ccc5F)c5nc(c(-c6cc(S(=O)(=O)[O-])ccc6F)c6ccc3[nH]6)C=C5)C=C4)cc2)cc1
REMARK SMILES IDX 22 1 21 2 20 3 18 4 19 5 17 7 11 8 12 9 13 10 14 11 16 12
REMARK SMILES IDX 15 13 10 14 9 16 8 17 7 18 6 19 3 20 4 21 94 22 5 23 93 24
REMARK SMILES IDX 2 25 1 26 23 27 24 28 25 29 26 30 27 31 28 32 29 34 30 35
REMARK SMILES IDX 31 36 92 37 32 38 91 39 33 40 34 41 35 42 85 43 36 44 90 45
REMARK SMILES IDX 84 46 86 47 37 48 89 49 83 50 82 51 38 53 70 54 50 55 69 56
REMARK SMILES IDX 51 57 54 58 68 59 87 60 52 61 53 62 67 64 88 65 55 66 39 67
REMARK SMILES IDX 40 68 48 69 41 70 47 71 49 72 46 73 42 74 43 75 44 76 45 77
REMARK SMILES IDX 71 78 72 79 80 80 73 81 79 82 81 83 78 84 74 85 75 86 76 87
REMARK SMILES IDX 77 88 56 89 57 90 65 91 58 92 64 93 66 94 63 95 59 96 60 97
REMARK SMILES IDX 61 98 62 99
REMARK H PARENT 20 6 10 15 27 33 86 52 54 63
REMARK Flexibility Score: inf
ROOT
ATOM      1  C   UNL A   1      34.047  25.351  23.621  1.00  0.00     0.021 C 
ENDROOT
BRANCH   1   2
ATOM      2  C   UNL A   1      33.335  25.254  22.274  1.00  0.00     0.116 C 
BRANCH   2   3
ATOM      3  N   UNL A   1      31.922  24.961  22.369  1.00  0.00    -0.352 N 
ATOM      4  C   UNL A   1      31.233  24.113  23.200  1.00  0.00     0.253 C 
ATOM      5  O   UNL A   1      30.003  24.091  23.102  1.00  0.00    -0.269 OA
ATOM      6  H   UNL A   1      31.359  25.454  21.730  1.00  0.00     0.163 HD
BRANCH   4   7
ATOM      7  C   UNL A   1      31.870  23.148  24.134  1.00  0.00     0.064 A 
ATOM      8  C   UNL A   1      32.016  23.298  25.526  1.00  0.00     0.066 A 
ATOM      9  C   UNL A   1      32.590  22.204  26.232  1.00  0.00     0.065 A 
ATOM     10  Cl  UNL A   1      32.823  22.258  27.953  1.00  0.00    -0.082 Cl
ATOM     11  C   UNL A   1      32.977  21.017  25.604  1.00  0.00     0.023 A 
ATOM     12  C   UNL A   1      32.246  21.931  23.514  1.00  0.00     0.016 A 
ATOM     13  C   UNL A   1      32.806  20.879  24.237  1.00  0.00     0.003 A 
BRANCH   8  14
ATOM     14  N   UNL A   1      31.842  24.488  26.209  1.00  0.00    -0.380 N 
ATOM     15  H   UNL A   1      32.562  24.750  26.827  1.00  0.00     0.160 HD
BRANCH  14  16
ATOM     16  C   UNL A   1      30.710  25.394  26.111  1.00  0.00     0.154 C 
BRANCH  16  17
ATOM     17  C   UNL A   1      31.187  26.862  25.944  1.00  0.00     0.250 C 
BRANCH  17  18
ATOM     18  O   UNL A   1      31.606  27.217  24.613  1.00  0.00    -0.492 OA
BRANCH  18  19
ATOM     19  C   UNL A   1      30.826  28.036  23.842  1.00  0.00     0.119 A 
ATOM     20  C   UNL A   1      29.070  29.290  22.047  1.00  0.00     0.119 A 
ATOM     21  C   UNL A   1      28.568  28.457  23.042  1.00  0.00     0.050 A 
ATOM     22  C   UNL A   1      30.427  29.594  22.027  1.00  0.00     0.050 A 
ATOM     23  C   UNL A   1      29.446  27.824  23.928  1.00  0.00     0.050 A 
ATOM     24  C   UNL A   1      31.294  28.992  22.944  1.00  0.00     0.050 A 
BRANCH  20  25
ATOM     25  O   UNL A   1      28.182  29.849  21.172  1.00  0.00    -0.497 OA
ATOM     26  C   UNL A   1      28.106  31.269  21.296  1.00  0.00     0.278 C 
ENDBRANCH  20  25
ENDBRANCH  18  19
ENDBRANCH  17  18
ENDBRANCH  16  17
ENDBRANCH  14  16
ENDBRANCH   8  14
ENDBRANCH   4   7
ENDBRANCH   2   3
ENDBRANCH   1   2
BRANCH   1  27
ATOM     27  C   UNL A   1      35.132  24.301  23.914  1.00  0.00     0.002 C 
BRANCH  27  28
ATOM     28  C   UNL A   1      35.577  24.114  25.368  1.00  0.00     0.002 C 
BRANCH  28  29
ATOM     29  C   UNL A   1      36.203  22.771  25.730  1.00  0.00     0.021 C 
BRANCH  29  30
ATOM     30  C   UNL A   1      37.437  22.342  24.948  1.00  0.00     0.116 C 
BRANCH  30  31
ATOM     31  N   UNL A   1      38.240  21.349  25.632  1.00  0.00    -0.352 N 
ATOM     32  C   UNL A   1      39.355  21.512  26.417  1.00  0.00     0.251 C 
ATOM     33  H   UNL A   1      37.942  20.418  25.517  1.00  0.00     0.163 HD
ATOM     34  O   UNL A   1      39.945  20.503  26.815  1.00  0.00    -0.269 OA
BRANCH  32  35
ATOM     35  C   UNL A   1      39.880  22.857  26.769  1.00  0.00     0.039 A 
ATOM     36  C   UNL A   1      40.776  22.960  27.841  1.00  0.00     0.014 A 
ATOM     37  C   UNL A   1      39.475  24.020  26.108  1.00  0.00     0.014 A 
ATOM     38  C   UNL A   1      41.279  24.209  28.224  1.00  0.00     0.010 A 
ATOM     39  C   UNL A   1      40.042  25.254  26.436  1.00  0.00     0.010 A 
ATOM     40  C   UNL A   1      40.932  25.369  27.515  1.00  0.00    -0.014 A 
BRANCH  40  41
ATOM     41  C   UNL A   1      41.440  26.706  27.936  1.00  0.00     0.031 A 
ATOM     42  C   UNL A   1      42.861  27.105  27.620  1.00  0.00     0.074 A 
ATOM     43  C   UNL A   1      40.642  27.555  28.614  1.00  0.00     0.049 A 
ATOM     44  N   UNL A   1      43.503  28.206  27.922  1.00  0.00    -0.248 NA
ATOM     45  C   UNL A   1      43.676  26.121  26.893  1.00  0.00     0.031 C 
ATOM     46  C   UNL A   1      39.260  27.277  29.011  1.00  0.00     0.029 A 
ATOM     47  N   UNL A   1      40.874  28.822  29.090  1.00  0.00    -0.354 N 
ATOM     48  C   UNL A   1      44.795  28.041  27.434  1.00  0.00     0.074 A 
ATOM     49  C   UNL A   1      44.864  26.706  26.882  1.00  0.00     0.031 C 
ATOM     50  C   UNL A   1      38.758  28.352  29.640  1.00  0.00     0.029 A 
ATOM     51  C   UNL A   1      39.791  29.381  29.732  1.00  0.00     0.049 A 
ATOM     52  H   UNL A   1      41.734  29.288  28.983  1.00  0.00     0.167 HD
ATOM     53  C   UNL A   1      45.823  28.928  27.422  1.00  0.00     0.034 A 
ATOM     54  C   UNL A   1      39.648  30.581  30.330  1.00  0.00     0.034 A 
ATOM     55  C   UNL A   1      45.738  30.262  27.964  1.00  0.00     0.049 A 
ATOM     56  C   UNL A   1      40.809  31.545  30.319  1.00  0.00     0.074 A 
ATOM     57  C   UNL A   1      46.702  31.255  27.969  1.00  0.00     0.029 A 
ATOM     58  N   UNL A   1      44.623  30.792  28.603  1.00  0.00    -0.354 N 
ATOM     59  N   UNL A   1      42.011  31.389  29.814  1.00  0.00    -0.248 NA
ATOM     60  C   UNL A   1      40.586  32.857  30.941  1.00  0.00     0.031 C 
ATOM     61  C   UNL A   1      46.197  32.357  28.669  1.00  0.00     0.029 A 
ATOM     62  C   UNL A   1      44.885  32.087  29.026  1.00  0.00     0.049 A 
ATOM     63  H   UNL A   1      43.771  30.318  28.736  1.00  0.00     0.167 HD
ATOM     64  C   UNL A   1      42.671  32.598  30.022  1.00  0.00     0.074 A 
ATOM     65  C   UNL A   1      41.728  33.475  30.685  1.00  0.00     0.031 C 
ATOM     66  C   UNL A   1      43.938  32.954  29.689  1.00  0.00     0.034 A 
BRANCH  53  67
ATOM     67  C   UNL A   1      47.134  28.465  26.824  1.00  0.00     0.023 A 
ATOM     68  C   UNL A   1      47.319  28.364  25.433  1.00  0.00     0.031 A 
ATOM     69  C   UNL A   1      48.205  28.089  27.654  1.00  0.00     0.131 A 
ATOM     70  C   UNL A   1      48.507  27.821  24.920  1.00  0.00     0.055 A 
ATOM     71  C   UNL A   1      49.419  27.636  27.134  1.00  0.00     0.041 A 
ATOM     72  F   UNL A   1      48.087  28.143  28.991  1.00  0.00    -0.206 F 
ATOM     73  C   UNL A   1      49.569  27.482  25.759  1.00  0.00     0.022 A 
BRANCH  70  74
ATOM     74  S   UNL A   1      48.580  27.415  23.153  1.00  0.00     0.124 S 
ATOM     75  O   UNL A   1      48.385  25.968  23.174  1.00  0.00    -0.237 OA
ATOM     76  O   UNL A   1      47.482  28.200  22.602  1.00  0.00    -0.237 OA
ATOM     77  O   UNL A   1      49.918  27.850  22.756  1.00  0.00    -0.744 OA
ENDBRANCH  70  74
ENDBRANCH  53  67
BRANCH  54  78
ATOM     78  C   UNL A   1      38.361  30.951  30.991  1.00  0.00     0.023 A 
ATOM     79  C   UNL A   1      37.336  31.594  30.277  1.00  0.00     0.031 A 
ATOM     80  C   UNL A   1      38.157  30.711  32.361  1.00  0.00     0.131 A 
ATOM     81  C   UNL A   1      36.178  32.023  30.946  1.00  0.00     0.055 A 
ATOM     82  C   UNL A   1      36.979  31.087  33.010  1.00  0.00     0.041 A 
ATOM     83  F   UNL A   1      39.102  30.097  33.091  1.00  0.00    -0.206 F 
ATOM     84  C   UNL A   1      35.987  31.761  32.304  1.00  0.00     0.022 A 
BRANCH  81  85
ATOM     85  S   UNL A   1      34.963  33.014  30.034  1.00  0.00     0.124 S 
ATOM     86  O   UNL A   1      34.056  33.426  31.100  1.00  0.00    -0.237 OA
ATOM     87  O   UNL A   1      35.799  34.064  29.461  1.00  0.00    -0.237 OA
ATOM     88  O   UNL A   1      34.406  32.068  29.070  1.00  0.00    -0.744 OA
ENDBRANCH  81  85
ENDBRANCH  54  78
BRANCH  66  89
ATOM     89  C   UNL A   1      44.354  34.378  29.978  1.00  0.00     0.023 A 
ATOM     90  C   UNL A   1      43.908  35.459  29.197  1.00  0.00     0.031 A 
ATOM     91  C   UNL A   1      45.232  34.652  31.042  1.00  0.00     0.131 A 
ATOM     92  C   UNL A   1      44.392  36.752  29.452  1.00  0.00     0.055 A 
ATOM     93  C   UNL A   1      45.656  35.949  31.333  1.00  0.00     0.041 A 
ATOM     94  F   UNL A   1      45.695  33.659  31.820  1.00  0.00    -0.206 F 
ATOM     95  C   UNL A   1      45.249  37.006  30.525  1.00  0.00     0.022 A 
BRANCH  92  96
ATOM     96  S   UNL A   1      43.976  38.082  28.290  1.00  0.00     0.124 S 
ATOM     97  O   UNL A   1      45.216  38.223  27.533  1.00  0.00    -0.237 OA
ATOM     98  O   UNL A   1      42.845  37.519  27.562  1.00  0.00    -0.237 OA
ATOM     99  O   UNL A   1      43.652  39.211  29.162  1.00  0.00    -0.744 OA
ENDBRANCH  92  96
ENDBRANCH  66  89
ENDBRANCH  40  41
ENDBRANCH  32  35
ENDBRANCH  30  31
ENDBRANCH  29  30
ENDBRANCH  28  29
ENDBRANCH  27  28
ENDBRANCH   1  27
TORSDOF 22
ENDMDL
MODEL 2
REMARK VINA RESULT:     -10.1      1.727      2.182
REMARK SMILES COc1ccc(OCCNc2c(Cl)cccc2C(=O)NCCCCCCNC(=O)c2ccc(-c3c4nc(c(-c5cc(S(=O)(=O)[O-])ccc5F)c5ccc([nH]5)c(-c5cc(S(=O)(=O)[O-])ccc5F)c5nc(c(-c6cc(S(=O)(=O)[O-])ccc6F)c6ccc3[nH]6)C=C5)C=C4)cc2)cc1
REMARK SMILES IDX 22 1 21 2 20 3 18 4 19 5 17 7 11 8 12 9 13 10 14 11 16 12
REMARK SMILES IDX 15 13 10 14 9 16 8 17 7 18 6 19 3 20 4 21 94 22 5 23 93 24
REMARK SMILES IDX 2 25 1 26 23 27 24 28 25 29 26 30 27 31 28 32 29 34 30 35
REMARK SMILES IDX 31 36 92 37 32 38 91 39 33 40 34 41 35 42 85 43 36 44 90 45
REMARK SMILES IDX 84 46 86 47 37 48 89 49 83 50 82 51 38 53 70 54 50 55 69 56
REMARK SMILES IDX 51 57 54 58 68 59 87 60 52 61 53 62 67 64 88 65 55 66 39 67
REMARK SMILES IDX 40 68 48 69 41 70 47 71 49 72 46 73 42 74 43 75 44 76 45 77
REMARK SMILES IDX 71 78 72 79 80 80 73 81 79 82 81 83 78 84 74 85 75 86 76 87
REMARK SMILES IDX 77 88 56 89 57 90 65 91 58 92 64 93 66 94 63 95 59 96 60 97
REMARK SMILES IDX 61 98 62 99
REMARK H PARENT 20 6 10 15 27 33 86 52 54 63
REMARK Flexibility Score: inf
ROOT
ATOM      1  C   UNL A   1      34.443  24.591  23.991  1.00  0.00     0.021 C 
ENDROOT
BRANCH   1   2
ATOM      2  C   UNL A   1      33.819  24.798  22.612  1.00  0.00     0.116 C 
BRANCH   2   3
ATOM      3  N   UNL A   1      32.492  24.239  22.472  1.00  0.00    -0.352 N 
ATOM      4  C   UNL A   1      31.821  23.311  23.228  1.00  0.00     0.253 C 
ATOM      5  O   UNL A   1      30.659  23.046  22.911  1.00  0.00    -0.269 OA
ATOM      6  H   UNL A   1      31.983  24.584  21.704  1.00  0.00     0.163 HD
BRANCH   4   7
ATOM      7  C   UNL A   1      32.431  22.530  24.338  1.00  0.00     0.064 A 
ATOM      8  C   UNL A   1      32.350  22.821  25.713  1.00  0.00     0.066 A 
ATOM      9  C   UNL A   1      32.947  21.884  26.602  1.00  0.00     0.065 A 
ATOM     10  Cl  UNL A   1      32.915  22.121  28.323  1.00  0.00    -0.082 Cl
ATOM     11  C   UNL A   1      33.569  20.713  26.161  1.00  0.00     0.023 A 
ATOM     12  C   UNL A   1      33.045  21.329  23.907  1.00  0.00     0.016 A 
ATOM     13  C   UNL A   1      33.621  20.433  24.807  1.00  0.00     0.003 A 
BRANCH   8  14
ATOM     14  N   UNL A   1      31.927  24.030  26.235  1.00  0.00    -0.380 N 
ATOM     15  H   UNL A   1      32.630  24.682  26.456  1.00  0.00     0.160 HD
BRANCH  14  16
ATOM     16  C   UNL A   1      30.557  24.440  26.491  1.00  0.00     0.154 C 
BRANCH  16  17
ATOM     17  C   UNL A   1      30.240  25.787  25.787  1.00  0.00     0.250 C 
BRANCH  17  18
ATOM     18  O   UNL A   1      31.362  26.410  25.134  1.00  0.00    -0.492 OA
BRANCH  18  19
ATOM     19  C   UNL A   1      31.722  27.690  25.457  1.00  0.00     0.119 A 
ATOM     20  C   UNL A   1      32.235  30.220  26.558  1.00  0.00     0.119 A 
ATOM     21  C   UNL A   1      32.820  29.089  27.117  1.00  0.00     0.050 A 
ATOM     22  C   UNL A   1      31.501  30.104  25.382  1.00  0.00     0.050 A 
ATOM     23  C   UNL A   1      32.553  27.827  26.573  1.00  0.00     0.050 A 
ATOM     24  C   UNL A   1      31.275  28.844  24.818  1.00  0.00     0.050 A 
BRANCH  20  25
ATOM     25  O   UNL A   1      32.482  31.427  27.150  1.00  0.00    -0.497 OA
ATOM     26  C   UNL A   1      31.561  32.438  26.742  1.00  0.00     0.278 C 
ENDBRANCH  20  25
ENDBRANCH  18  19
ENDBRANCH  17  18
ENDBRANCH  16  17
ENDBRANCH  14  16
ENDBRANCH   8  14
ENDBRANCH   4   7
ENDBRANCH   2   3
ENDBRANCH   1   2
BRANCH   1  27
ATOM     27  C   UNL A   1      35.779  23.831  24.044  1.00  0.00     0.002 C 
BRANCH  27  28
ATOM     28  C   UNL A   1      36.374  23.521  25.422  1.00  0.00     0.002 C 
BRANCH  28  29
ATOM     29  C   UNL A   1      36.817  22.083  25.673  1.00  0.00     0.021 C 
BRANCH  29  30
ATOM     30  C   UNL A   1      38.117  21.628  25.024  1.00  0.00     0.116 C 
BRANCH  30  31
ATOM     31  N   UNL A   1      38.875  20.699  25.836  1.00  0.00    -0.352 N 
ATOM     32  C   UNL A   1      39.923  20.933  26.693  1.00  0.00     0.251 C 
ATOM     33  H   UNL A   1      38.598  19.757  25.763  1.00  0.00     0.163 HD
ATOM     34  O   UNL A   1      40.491  19.964  27.204  1.00  0.00    -0.269 OA
BRANCH  32  35
ATOM     35  C   UNL A   1      40.403  22.308  26.990  1.00  0.00     0.039 A 
ATOM     36  C   UNL A   1      41.283  22.485  28.065  1.00  0.00     0.014 A 
ATOM     37  C   UNL A   1      39.970  23.428  26.274  1.00  0.00     0.014 A 
ATOM     38  C   UNL A   1      41.744  23.764  28.398  1.00  0.00     0.010 A 
ATOM     39  C   UNL A   1      40.496  24.692  26.554  1.00  0.00     0.010 A 
ATOM     40  C   UNL A   1      41.369  24.881  27.636  1.00  0.00    -0.014 A 
BRANCH  40  41
ATOM     41  C   UNL A   1      41.833  26.250  28.002  1.00  0.00     0.031 A 
ATOM     42  C   UNL A   1      43.233  26.690  27.652  1.00  0.00     0.074 A 
ATOM     43  C   UNL A   1      41.012  27.092  28.662  1.00  0.00     0.049 A 
ATOM     44  N   UNL A   1      43.837  27.825  27.907  1.00  0.00    -0.248 NA
ATOM     45  C   UNL A   1      44.075  25.712  26.948  1.00  0.00     0.031 C 
ATOM     46  C   UNL A   1      39.646  26.777  29.088  1.00  0.00     0.029 A 
ATOM     47  N   UNL A   1      41.202  28.383  29.091  1.00  0.00    -0.354 N 
ATOM     48  C   UNL A   1      45.128  27.691  27.407  1.00  0.00     0.074 A 
ATOM     49  C   UNL A   1      45.240  26.340  26.900  1.00  0.00     0.031 C 
ATOM     50  C   UNL A   1      39.113  27.854  29.686  1.00  0.00     0.029 A 
ATOM     51  C   UNL A   1      40.107  28.923  29.728  1.00  0.00     0.049 A 
ATOM     52  H   UNL A   1      42.042  28.876  28.954  1.00  0.00     0.167 HD
ATOM     53  C   UNL A   1      46.121  28.614  27.348  1.00  0.00     0.034 A 
ATOM     54  C   UNL A   1      39.926  30.138  30.285  1.00  0.00     0.034 A 
ATOM     55  C   UNL A   1      45.993  29.963  27.845  1.00  0.00     0.049 A 
ATOM     56  C   UNL A   1      41.050  31.144  30.224  1.00  0.00     0.074 A 
ATOM     57  C   UNL A   1      46.918  30.991  27.802  1.00  0.00     0.029 A 
ATOM     58  N   UNL A   1      44.867  30.473  28.481  1.00  0.00    -0.354 N 
ATOM     59  N   UNL A   1      42.250  31.015  29.708  1.00  0.00    -0.248 NA
ATOM     60  C   UNL A   1      40.785  32.467  30.804  1.00  0.00     0.031 C 
ATOM     61  C   UNL A   1      46.381  32.097  28.470  1.00  0.00     0.029 A 
ATOM     62  C   UNL A   1      45.086  31.792  28.855  1.00  0.00     0.049 A 
ATOM     63  H   UNL A   1      44.035  29.972  28.643  1.00  0.00     0.167 HD
ATOM     64  C   UNL A   1      42.867  32.254  29.864  1.00  0.00     0.074 A 
ATOM     65  C   UNL A   1      41.900  33.118  30.510  1.00  0.00     0.031 C 
ATOM     66  C   UNL A   1      44.116  32.645  29.501  1.00  0.00     0.034 A 
BRANCH  53  67
ATOM     67  C   UNL A   1      47.441  28.180  26.748  1.00  0.00     0.023 A 
ATOM     68  C   UNL A   1      47.624  28.078  25.357  1.00  0.00     0.031 A 
ATOM     69  C   UNL A   1      48.523  27.832  27.577  1.00  0.00     0.131 A 
ATOM     70  C   UNL A   1      48.823  27.561  24.842  1.00  0.00     0.055 A 
ATOM     71  C   UNL A   1      49.745  27.404  27.054  1.00  0.00     0.041 A 
ATOM     72  F   UNL A   1      48.407  27.887  28.914  1.00  0.00    -0.206 F 
ATOM     73  C   UNL A   1      49.895  27.249  25.679  1.00  0.00     0.022 A 
BRANCH  70  74
ATOM     74  S   UNL A   1      48.901  27.152  23.076  1.00  0.00     0.124 S 
ATOM     75  O   UNL A   1      50.342  27.136  22.841  1.00  0.00    -0.237 OA
ATOM     76  O   UNL A   1      48.229  25.859  23.022  1.00  0.00    -0.237 OA
ATOM     77  O   UNL A   1      48.185  28.254  22.436  1.00  0.00    -0.744 OA
ENDBRANCH  70  74
ENDBRANCH  53  67
BRANCH  54  78
ATOM     78  C   UNL A   1      38.635  30.482  30.951  1.00  0.00     0.023 A 
ATOM     79  C   UNL A   1      37.677  31.284  30.309  1.00  0.00     0.031 A 
ATOM     80  C   UNL A   1      38.361  30.055  32.262  1.00  0.00     0.131 A 
ATOM     81  C   UNL A   1      36.518  31.678  30.996  1.00  0.00     0.055 A 
ATOM     82  C   UNL A   1      37.180  30.401  32.922  1.00  0.00     0.041 A 
ATOM     83  F   UNL A   1      39.240  29.284  32.923  1.00  0.00    -0.206 F 
ATOM     84  C   UNL A   1      36.257  31.230  32.292  1.00  0.00     0.022 A 
BRANCH  81  85
ATOM     85  S   UNL A   1      35.397  32.865  30.204  1.00  0.00     0.124 S 
ATOM     86  O   UNL A   1      36.088  34.128  30.441  1.00  0.00    -0.237 OA
ATOM     87  O   UNL A   1      35.381  32.391  28.824  1.00  0.00    -0.237 OA
ATOM     88  O   UNL A   1      34.145  32.690  30.934  1.00  0.00    -0.744 OA
ENDBRANCH  81  85
ENDBRANCH  54  78
BRANCH  66  89
ATOM     89  C   UNL A   1      44.481  34.093  29.734  1.00  0.00     0.023 A 
ATOM     90  C   UNL A   1      45.087  34.528  30.926  1.00  0.00     0.031 A 
ATOM     91  C   UNL A   1      44.195  35.057  28.750  1.00  0.00     0.131 A 
ATOM     92  C   UNL A   1      45.326  35.896  31.130  1.00  0.00     0.055 A 
ATOM     93  C   UNL A   1      44.498  36.407  28.930  1.00  0.00     0.041 A 
ATOM     94  F   UNL A   1      43.614  34.701  27.592  1.00  0.00    -0.206 F 
ATOM     95  C   UNL A   1      45.052  36.836  30.133  1.00  0.00     0.022 A 
BRANCH  92  96
ATOM     96  S   UNL A   1      45.896  36.447  32.762  1.00  0.00     0.124 S 
ATOM     97  O   UNL A   1      44.868  37.414  33.131  1.00  0.00    -0.237 OA
ATOM     98  O   UNL A   1      45.906  35.204  33.524  1.00  0.00    -0.237 OA
ATOM     99  O   UNL A   1      47.214  37.019  32.490  1.00  0.00    -0.744 OA
ENDBRANCH  92  96
ENDBRANCH  66  89
ENDBRANCH  40  41
ENDBRANCH  32  35
ENDBRANCH  30  31
ENDBRANCH  29  30
ENDBRANCH  28  29
ENDBRANCH  27  28
ENDBRANCH   1  27
TORSDOF 22
ENDMDL
MODEL 3
REMARK VINA RESULT:     -10.1      6.816     11.082
REMARK SMILES COc1ccc(OCCNc2c(Cl)cccc2C(=O)NCCCCCCNC(=O)c2ccc(-c3c4nc(c(-c5cc(S(=O)(=O)[O-])ccc5F)c5ccc([nH]5)c(-c5cc(S(=O)(=O)[O-])ccc5F)c5nc(c(-c6cc(S(=O)(=O)[O-])ccc6F)c6ccc3[nH]6)C=C5)C=C4)cc2)cc1
REMARK SMILES IDX 22 1 21 2 20 3 18 4 19 5 17 7 11 8 12 9 13 10 14 11 16 12
REMARK SMILES IDX 15 13 10 14 9 16 8 17 7 18 6 19 3 20 4 21 94 22 5 23 93 24
REMARK SMILES IDX 2 25 1 26 23 27 24 28 25 29 26 30 27 31 28 32 29 34 30 35
REMARK SMILES IDX 31 36 92 37 32 38 91 39 33 40 34 41 35 42 85 43 36 44 90 45
REMARK SMILES IDX 84 46 86 47 37 48 89 49 83 50 82 51 38 53 70 54 50 55 69 56
REMARK SMILES IDX 51 57 54 58 68 59 87 60 52 61 53 62 67 64 88 65 55 66 39 67
REMARK SMILES IDX 40 68 48 69 41 70 47 71 49 72 46 73 42 74 43 75 44 76 45 77
REMARK SMILES IDX 71 78 72 79 80 80 73 81 79 82 81 83 78 84 74 85 75 86 76 87
REMARK SMILES IDX 77 88 56 89 57 90 65 91 58 92 64 93 66 94 63 95 59 96 60 97
REMARK SMILES IDX 61 98 62 99
REMARK H PARENT 20 6 10 15 27 33 86 52 54 63
REMARK Flexibility Score: inf
ROOT
ATOM      1  C   UNL A   1      47.552  27.285  23.866  1.00  0.00     0.021 C 
ENDROOT
BRANCH   1   2
ATOM      2  C   UNL A   1      46.656  28.087  24.808  1.00  0.00     0.116 C 
BRANCH   2   3
ATOM      3  N   UNL A   1      45.243  27.823  24.651  1.00  0.00    -0.352 N 
ATOM      4  C   UNL A   1      44.442  26.854  25.201  1.00  0.00     0.253 C 
ATOM      5  O   UNL A   1      43.237  26.887  24.932  1.00  0.00    -0.269 OA
ATOM      6  H   UNL A   1      44.776  28.444  24.046  1.00  0.00     0.163 HD
BRANCH   4   7
ATOM      7  C   UNL A   1      44.939  25.711  26.012  1.00  0.00     0.064 A 
ATOM      8  C   UNL A   1      44.662  25.461  27.369  1.00  0.00     0.066 A 
ATOM      9  C   UNL A   1      45.184  24.257  27.918  1.00  0.00     0.065 A 
ATOM     10  Cl  UNL A   1      44.912  23.826  29.579  1.00  0.00    -0.082 Cl
ATOM     11  C   UNL A   1      45.919  23.337  27.164  1.00  0.00     0.023 A 
ATOM     12  C   UNL A   1      45.666  24.760  25.255  1.00  0.00     0.016 A 
ATOM     13  C   UNL A   1      46.163  23.590  25.826  1.00  0.00     0.003 A 
BRANCH   8  14
ATOM     14  N   UNL A   1      44.112  26.384  28.240  1.00  0.00    -0.380 N 
ATOM     15  H   UNL A   1      44.627  27.210  28.388  1.00  0.00     0.160 HD
BRANCH  14  16
ATOM     16  C   UNL A   1      42.855  26.266  28.959  1.00  0.00     0.154 C 
BRANCH  16  17
ATOM     17  C   UNL A   1      41.766  25.606  28.071  1.00  0.00     0.250 C 
BRANCH  17  18
ATOM     18  O   UNL A   1      41.483  24.229  28.378  1.00  0.00    -0.492 OA
BRANCH  18  19
ATOM     19  C   UNL A   1      41.792  23.245  27.478  1.00  0.00     0.119 A 
ATOM     20  C   UNL A   1      42.823  21.146  25.927  1.00  0.00     0.119 A 
ATOM     21  C   UNL A   1      42.372  20.897  27.219  1.00  0.00     0.050 A 
ATOM     22  C   UNL A   1      42.645  22.407  25.369  1.00  0.00     0.050 A 
ATOM     23  C   UNL A   1      41.868  21.947  27.994  1.00  0.00     0.050 A 
ATOM     24  C   UNL A   1      42.100  23.442  26.135  1.00  0.00     0.050 A 
BRANCH  20  25
ATOM     25  O   UNL A   1      43.353  20.102  25.222  1.00  0.00    -0.497 OA
ATOM     26  C   UNL A   1      44.764  20.221  25.040  1.00  0.00     0.278 C 
ENDBRANCH  20  25
ENDBRANCH  18  19
ENDBRANCH  17  18
ENDBRANCH  16  17
ENDBRANCH  14  16
ENDBRANCH   8  14
ENDBRANCH   4   7
ENDBRANCH   2   3
ENDBRANCH   1   2
BRANCH   1  27
ATOM     27  C   UNL A   1      49.071  27.453  24.038  1.00  0.00     0.002 C 
BRANCH  27  28
ATOM     28  C   UNL A   1      49.955  27.310  22.794  1.00  0.00     0.002 C 
BRANCH  28  29
ATOM     29  C   UNL A   1      51.446  27.088  23.030  1.00  0.00     0.021 C 
BRANCH  29  30
ATOM     30  C   UNL A   1      52.021  27.562  24.357  1.00  0.00     0.116 C 
BRANCH  30  31
ATOM     31  N   UNL A   1      52.608  26.499  25.147  1.00  0.00    -0.352 N 
ATOM     32  C   UNL A   1      52.205  25.974  26.350  1.00  0.00     0.251 C 
ATOM     33  H   UNL A   1      53.417  26.091  24.763  1.00  0.00     0.163 HD
ATOM     34  O   UNL A   1      52.927  25.135  26.896  1.00  0.00    -0.269 OA
BRANCH  32  35
ATOM     35  C   UNL A   1      50.951  26.411  27.018  1.00  0.00     0.039 A 
ATOM     36  C   UNL A   1      51.003  27.526  27.864  1.00  0.00     0.014 A 
ATOM     37  C   UNL A   1      49.741  25.725  26.873  1.00  0.00     0.014 A 
ATOM     38  C   UNL A   1      49.854  27.961  28.532  1.00  0.00     0.010 A 
ATOM     39  C   UNL A   1      48.576  26.210  27.473  1.00  0.00     0.010 A 
ATOM     40  C   UNL A   1      48.623  27.319  28.332  1.00  0.00    -0.014 A 
BRANCH  40  41
ATOM     41  C   UNL A   1      47.400  27.758  29.063  1.00  0.00     0.031 A 
ATOM     42  C   UNL A   1      46.668  29.003  28.626  1.00  0.00     0.074 A 
ATOM     43  C   UNL A   1      46.954  27.059  30.126  1.00  0.00     0.049 A 
ATOM     44  N   UNL A   1      45.606  29.570  29.144  1.00  0.00    -0.248 NA
ATOM     45  C   UNL A   1      47.222  29.723  27.470  1.00  0.00     0.031 C 
ATOM     46  C   UNL A   1      47.589  25.856  30.670  1.00  0.00     0.029 A 
ATOM     47  N   UNL A   1      45.865  27.253  30.939  1.00  0.00    -0.354 N 
ATOM     48  C   UNL A   1      45.375  30.714  28.387  1.00  0.00     0.074 A 
ATOM     49  C   UNL A   1      46.450  30.797  27.421  1.00  0.00     0.031 C 
ATOM     50  C   UNL A   1      46.862  25.404  31.704  1.00  0.00     0.029 A 
ATOM     51  C   UNL A   1      45.733  26.304  31.928  1.00  0.00     0.049 A 
ATOM     52  H   UNL A   1      45.236  28.002  30.826  1.00  0.00     0.167 HD
ATOM     53  C   UNL A   1      44.349  31.599  28.468  1.00  0.00     0.034 A 
ATOM     54  C   UNL A   1      44.812  26.174  32.905  1.00  0.00     0.034 A 
ATOM     55  C   UNL A   1      43.275  31.497  29.426  1.00  0.00     0.049 A 
ATOM     56  C   UNL A   1      43.689  27.180  32.987  1.00  0.00     0.074 A 
ATOM     57  C   UNL A   1      42.167  32.312  29.571  1.00  0.00     0.029 A 
ATOM     58  N   UNL A   1      43.176  30.519  30.409  1.00  0.00    -0.354 N 
ATOM     59  N   UNL A   1      43.462  28.231  32.234  1.00  0.00    -0.248 NA
ATOM     60  C   UNL A   1      42.686  26.967  34.039  1.00  0.00     0.031 C 
ATOM     61  C   UNL A   1      41.436  31.872  30.680  1.00  0.00     0.029 A 
ATOM     62  C   UNL A   1      42.039  30.727  31.177  1.00  0.00     0.049 A 
ATOM     63  H   UNL A   1      43.818  29.785  30.541  1.00  0.00     0.167 HD
ATOM     64  C   UNL A   1      42.268  28.780  32.697  1.00  0.00     0.074 A 
ATOM     65  C   UNL A   1      41.819  27.934  33.784  1.00  0.00     0.031 C 
ATOM     66  C   UNL A   1      41.600  29.878  32.260  1.00  0.00     0.034 A 
BRANCH  53  67
ATOM     67  C   UNL A   1      44.361  32.768  27.507  1.00  0.00     0.023 A 
ATOM     68  C   UNL A   1      44.814  34.042  27.895  1.00  0.00     0.031 A 
ATOM     69  C   UNL A   1      43.882  32.618  26.193  1.00  0.00     0.131 A 
ATOM     70  C   UNL A   1      44.701  35.127  27.014  1.00  0.00     0.055 A 
ATOM     71  C   UNL A   1      43.857  33.683  25.290  1.00  0.00     0.041 A 
ATOM     72  F   UNL A   1      43.415  31.433  25.766  1.00  0.00    -0.206 F 
ATOM     73  C   UNL A   1      44.251  34.952  25.704  1.00  0.00     0.022 A 
BRANCH  70  74
ATOM     74  S   UNL A   1      44.998  36.798  27.655  1.00  0.00     0.124 S 
ATOM     75  O   UNL A   1      44.652  36.638  29.066  1.00  0.00    -0.237 OA
ATOM     76  O   UNL A   1      46.412  37.002  27.364  1.00  0.00    -0.237 OA
ATOM     77  O   UNL A   1      44.076  37.631  26.886  1.00  0.00    -0.744 OA
ENDBRANCH  70  74
ENDBRANCH  53  67
BRANCH  54  78
ATOM     78  C   UNL A   1      44.902  25.054  33.888  1.00  0.00     0.023 A 
ATOM     79  C   UNL A   1      45.583  25.210  35.106  1.00  0.00     0.031 A 
ATOM     80  C   UNL A   1      44.349  23.794  33.600  1.00  0.00     0.131 A 
ATOM     81  C   UNL A   1      45.741  24.112  35.967  1.00  0.00     0.055 A 
ATOM     82  C   UNL A   1      44.458  22.719  34.486  1.00  0.00     0.041 A 
ATOM     83  F   UNL A   1      43.684  23.590  32.451  1.00  0.00    -0.206 F 
ATOM     84  C   UNL A   1      45.171  22.872  35.671  1.00  0.00     0.022 A 
BRANCH  81  85
ATOM     85  S   UNL A   1      46.786  24.301  37.438  1.00  0.00     0.124 S 
ATOM     86  O   UNL A   1      46.693  22.975  38.040  1.00  0.00    -0.237 OA
ATOM     87  O   UNL A   1      48.075  24.650  36.849  1.00  0.00    -0.237 OA
ATOM     88  O   UNL A   1      46.133  25.374  38.183  1.00  0.00    -0.744 OA
ENDBRANCH  81  85
ENDBRANCH  54  78
BRANCH  66  89
ATOM     89  C   UNL A   1      40.274  30.186  32.917  1.00  0.00     0.023 A 
ATOM     90  C   UNL A   1      40.150  31.145  33.937  1.00  0.00     0.031 A 
ATOM     91  C   UNL A   1      39.117  29.488  32.525  1.00  0.00     0.131 A 
ATOM     92  C   UNL A   1      38.914  31.332  34.575  1.00  0.00     0.055 A 
ATOM     93  C   UNL A   1      37.876  29.727  33.117  1.00  0.00     0.041 A 
ATOM     94  F   UNL A   1      39.174  28.557  31.558  1.00  0.00    -0.206 F 
ATOM     95  C   UNL A   1      37.773  30.642  34.160  1.00  0.00     0.022 A 
BRANCH  92  96
ATOM     96  S   UNL A   1      38.841  32.408  36.035  1.00  0.00     0.124 S 
ATOM     97  O   UNL A   1      39.469  31.577  37.056  1.00  0.00    -0.237 OA
ATOM     98  O   UNL A   1      39.604  33.573  35.602  1.00  0.00    -0.237 OA
ATOM     99  O   UNL A   1      37.409  32.639  36.219  1.00  0.00    -0.744 OA
ENDBRANCH  92  96
ENDBRANCH  66  89
ENDBRANCH  40  41
ENDBRANCH  32  35
ENDBRANCH  30  31
ENDBRANCH  29  30
ENDBRANCH  28  29
ENDBRANCH  27  28
ENDBRANCH   1  27
TORSDOF 22
ENDMDL
