MODEL 1
REMARK VINA RESULT:     -11.7      0.000      0.000
REMARK SMILES Cc1cccc(S(=O)(=O)Nc2cc(C(=O)NCCCCCCNC(=O)c3ccc(-c4c5nc(c(-c6cc(S(=O)(=O)[O-])ccc6F)c6ccc([nH]6)c(-c6cc(S(=O)(=O)[O-])ccc6F)c6nc(c(-c7cc(S(=O)(=O)[O-])ccc7F)c7ccc4[nH]7)C=C6)C=C5)cc3)ccc2N2CCC[C@H](C[NH+]3CCCC3)C2)c1
REMARK SMILES IDX 19 1 18 2 17 3 16 4 14 5 15 6 13 8 11 9 12 10 91 11 90 12
REMARK SMILES IDX 89 13 10 14 7 16 8 17 9 18 6 19 1 20 2 21 3 22 104 23 4 24
REMARK SMILES IDX 5 25 92 26 93 27 103 28 94 29 96 30 95 31 97 32 98 33 99 34
REMARK SMILES IDX 102 35 100 37 101 38 20 39 21 40 22 41 23 42 24 43 25 45
REMARK SMILES IDX 26 46 27 47 88 48 28 49 87 50 29 51 30 52 31 53 81 54 32 55
REMARK SMILES IDX 86 56 80 57 82 58 33 59 85 60 79 61 78 62 34 64 66 65 46 66
REMARK SMILES IDX 65 67 47 68 50 69 64 70 83 71 48 72 49 73 63 75 84 76 51 77
REMARK SMILES IDX 35 78 36 79 44 80 37 81 43 82 45 83 42 84 38 85 39 86 40 87
REMARK SMILES IDX 41 88 67 89 68 90 76 91 69 92 75 93 77 94 74 95 70 96 71 97
REMARK SMILES IDX 72 98 73 99 52 100 53 101 61 102 54 103 60 104 62 105 59 106
REMARK SMILES IDX 55 107 56 108 57 109 58 110
REMARK H PARENT 16 7 10 15 98 36 23 44 82 63 50 74
REMARK Flexibility Score: inf
ROOT
ATOM      1  C   UNL A   1      36.657  29.978  30.017  1.00  0.00     0.002 C 
ENDROOT
BRANCH   1   2
ATOM      2  C   UNL A   1      36.084  29.376  28.728  1.00  0.00     0.021 C 
BRANCH   2   3
ATOM      3  C   UNL A   1      36.086  30.347  27.549  1.00  0.00     0.116 C 
BRANCH   3   4
ATOM      4  N   UNL A   1      34.821  31.051  27.439  1.00  0.00    -0.352 N 
ATOM      5  C   UNL A   1      33.561  30.650  27.083  1.00  0.00     0.251 C 
ATOM      6  O   UNL A   1      32.640  31.459  27.197  1.00  0.00    -0.269 OA
ATOM      7  H   UNL A   1      34.881  32.008  27.665  1.00  0.00     0.163 HD
BRANCH   5   8
ATOM      8  C   UNL A   1      33.235  29.266  26.638  1.00  0.00     0.042 A 
ATOM      9  C   UNL A   1      33.307  27.399  25.092  1.00  0.00     0.073 A 
ATOM     10  C   UNL A   1      33.507  28.757  25.368  1.00  0.00     0.042 A 
ATOM     11  C   UNL A   1      32.653  26.554  26.014  1.00  0.00     0.061 A 
ATOM     12  C   UNL A   1      32.297  27.103  27.252  1.00  0.00     0.029 A 
ATOM     13  C   UNL A   1      32.609  28.428  27.572  1.00  0.00     0.016 A 
BRANCH   9  14
ATOM     14  N   UNL A   1      33.805  26.895  23.845  1.00  0.00    -0.277 N 
ATOM     15  H   UNL A   1      34.588  26.299  23.838  1.00  0.00     0.180 HD
BRANCH  14  16
ATOM     16  S   UNL A   1      33.057  27.317  22.368  1.00  0.00     0.261 S 
ATOM     17  O   UNL A   1      33.013  26.086  21.601  1.00  0.00    -0.201 OA
ATOM     18  O   UNL A   1      33.777  28.451  21.826  1.00  0.00    -0.201 OA
BRANCH  16  19
ATOM     19  C   UNL A   1      31.370  27.862  22.573  1.00  0.00     0.088 A 
ATOM     20  C   UNL A   1      29.154  30.921  22.100  1.00  0.00     0.044 C 
ATOM     21  C   UNL A   1      29.597  29.513  22.377  1.00  0.00    -0.050 A 
ATOM     22  C   UNL A   1      28.702  28.614  22.970  1.00  0.00     0.003 A 
ATOM     23  C   UNL A   1      30.912  29.100  22.108  1.00  0.00     0.025 A 
ATOM     24  C   UNL A   1      29.127  27.339  23.340  1.00  0.00     0.002 A 
ATOM     25  C   UNL A   1      30.463  26.973  23.167  1.00  0.00     0.022 A 
ENDBRANCH  16  19
ENDBRANCH  14  16
ENDBRANCH   9  14
BRANCH  11  26
ATOM     26  N   UNL A   1      32.296  25.245  25.746  1.00  0.00    -0.369 N 
ATOM     27  C   UNL A   1      30.977  24.783  26.165  1.00  0.00     0.116 C 
ATOM     28  C   UNL A   1      33.112  24.369  24.916  1.00  0.00     0.126 C 
ATOM     29  C   UNL A   1      31.105  23.416  26.834  1.00  0.00     0.022 C 
ATOM     30  C   UNL A   1      33.281  22.985  25.575  1.00  0.00     0.064 C 
ATOM     31  C   UNL A   1      31.892  22.442  25.957  1.00  0.00     0.013 C 
BRANCH  30  32
ATOM     32  C   UNL A   1      34.309  23.089  26.733  1.00  0.00     0.267 C 
BRANCH  32  33
ATOM     33  N   UNL A   1      35.695  22.655  26.528  1.00  0.00    -0.335 N 
ATOM     34  C   UNL A   1      36.614  23.683  26.046  1.00  0.00     0.262 C 
ATOM     35  C   UNL A   1      35.882  21.457  25.717  1.00  0.00     0.262 C 
ATOM     36  H   UNL A   1      35.938  22.425  27.492  1.00  0.00     0.348 HD
ATOM     37  C   UNL A   1      36.811  23.379  24.575  1.00  0.00     0.067 C 
ATOM     38  C   UNL A   1      36.706  21.867  24.502  1.00  0.00     0.067 C 
ENDBRANCH  32  33
ENDBRANCH  30  32
ENDBRANCH  11  26
ENDBRANCH   5   8
ENDBRANCH   3   4
ENDBRANCH   2   3
ENDBRANCH   1   2
BRANCH   1  39
ATOM     39  C   UNL A   1      35.643  30.676  30.941  1.00  0.00     0.002 C 
BRANCH  39  40
ATOM     40  C   UNL A   1      36.135  30.986  32.356  1.00  0.00     0.021 C 
BRANCH  40  41
ATOM     41  C   UNL A   1      35.603  32.305  32.906  1.00  0.00     0.116 C 
BRANCH  41  42
ATOM     42  N   UNL A   1      34.962  33.147  31.905  1.00  0.00    -0.352 N 
ATOM     43  C   UNL A   1      35.555  33.991  30.975  1.00  0.00     0.251 C 
ATOM     44  H   UNL A   1      33.979  33.112  31.885  1.00  0.00     0.163 HD
ATOM     45  O   UNL A   1      34.902  34.707  30.250  1.00  0.00    -0.269 OA
BRANCH  43  46
ATOM     46  C   UNL A   1      37.028  33.900  30.807  1.00  0.00     0.039 A 
ATOM     47  C   UNL A   1      37.499  33.557  29.534  1.00  0.00     0.014 A 
ATOM     48  C   UNL A   1      37.882  33.902  31.905  1.00  0.00     0.014 A 
ATOM     49  C   UNL A   1      38.771  33.005  29.404  1.00  0.00     0.010 A 
ATOM     50  C   UNL A   1      39.110  33.276  31.791  1.00  0.00     0.010 A 
ATOM     51  C   UNL A   1      39.528  32.770  30.552  1.00  0.00    -0.014 A 
BRANCH  51  52
ATOM     52  C   UNL A   1      40.683  31.876  30.571  1.00  0.00     0.031 A 
ATOM     53  C   UNL A   1      40.648  30.560  29.904  1.00  0.00     0.074 A 
ATOM     54  C   UNL A   1      41.827  32.267  31.178  1.00  0.00     0.049 A 
ATOM     55  N   UNL A   1      41.425  29.573  30.202  1.00  0.00    -0.248 NA
ATOM     56  C   UNL A   1      39.686  30.237  28.859  1.00  0.00     0.031 C 
ATOM     57  C   UNL A   1      43.143  31.642  31.082  1.00  0.00     0.029 A 
ATOM     58  N   UNL A   1      41.945  33.167  32.234  1.00  0.00    -0.354 N 
ATOM     59  C   UNL A   1      41.274  28.611  29.235  1.00  0.00     0.074 A 
ATOM     60  C   UNL A   1      40.136  29.045  28.456  1.00  0.00     0.031 C 
ATOM     61  C   UNL A   1      43.848  31.954  32.180  1.00  0.00     0.029 A 
ATOM     62  C   UNL A   1      42.963  32.675  33.075  1.00  0.00     0.049 A 
ATOM     63  H   UNL A   1      41.419  33.989  32.367  1.00  0.00     0.167 HD
ATOM     64  C   UNL A   1      42.203  27.617  29.120  1.00  0.00     0.034 A 
ATOM     65  C   UNL A   1      42.701  32.352  34.376  1.00  0.00     0.034 A 
ATOM     66  C   UNL A   1      43.219  27.678  30.171  1.00  0.00     0.049 A 
ATOM     67  C   UNL A   1      42.969  30.901  34.726  1.00  0.00     0.074 A 
ATOM     68  C   UNL A   1      44.538  28.097  30.231  1.00  0.00     0.029 A 
ATOM     69  N   UNL A   1      42.829  27.472  31.482  1.00  0.00    -0.354 N 
ATOM     70  N   UNL A   1      43.366  29.995  33.874  1.00  0.00    -0.248 NA
ATOM     71  C   UNL A   1      42.713  30.335  36.052  1.00  0.00     0.031 C 
ATOM     72  C   UNL A   1      44.929  28.143  31.603  1.00  0.00     0.029 A 
ATOM     73  C   UNL A   1      43.853  27.738  32.370  1.00  0.00     0.049 A 
ATOM     74  H   UNL A   1      41.931  27.171  31.751  1.00  0.00     0.167 HD
ATOM     75  C   UNL A   1      43.339  28.762  34.474  1.00  0.00     0.074 A 
ATOM     76  C   UNL A   1      42.934  29.028  35.841  1.00  0.00     0.031 C 
ATOM     77  C   UNL A   1      43.593  27.604  33.794  1.00  0.00     0.034 A 
BRANCH  64  78
ATOM     78  C   UNL A   1      42.327  26.732  27.902  1.00  0.00     0.023 A 
ATOM     79  C   UNL A   1      41.859  25.404  27.964  1.00  0.00     0.031 A 
ATOM     80  C   UNL A   1      42.917  27.108  26.680  1.00  0.00     0.131 A 
ATOM     81  C   UNL A   1      42.084  24.496  26.913  1.00  0.00     0.055 A 
ATOM     82  C   UNL A   1      43.206  26.189  25.662  1.00  0.00     0.041 A 
ATOM     83  F   UNL A   1      43.187  28.390  26.396  1.00  0.00    -0.206 F 
ATOM     84  C   UNL A   1      42.804  24.868  25.782  1.00  0.00     0.022 A 
BRANCH  81  85
ATOM     85  S   UNL A   1      41.411  22.817  27.041  1.00  0.00     0.124 S 
ATOM     86  O   UNL A   1      42.021  22.147  25.898  1.00  0.00    -0.237 OA
ATOM     87  O   UNL A   1      41.878  22.401  28.359  1.00  0.00    -0.237 OA
ATOM     88  O   UNL A   1      39.967  23.022  26.936  1.00  0.00    -0.744 OA
ENDBRANCH  81  85
ENDBRANCH  64  78
BRANCH  65  89
ATOM     89  C   UNL A   1      41.641  33.216  34.980  1.00  0.00     0.023 A 
ATOM     90  C   UNL A   1      40.400  32.601  35.261  1.00  0.00     0.031 A 
ATOM     91  C   UNL A   1      41.928  34.428  35.621  1.00  0.00     0.131 A 
ATOM     92  C   UNL A   1      39.591  33.085  36.298  1.00  0.00     0.055 A 
ATOM     93  C   UNL A   1      41.066  34.962  36.586  1.00  0.00     0.041 A 
ATOM     94  F   UNL A   1      43.101  35.049  35.424  1.00  0.00    -0.206 F 
ATOM     95  C   UNL A   1      39.918  34.265  36.965  1.00  0.00     0.022 A 
BRANCH  92  96
ATOM     96  S   UNL A   1      38.304  31.989  36.973  1.00  0.00     0.124 S 
ATOM     97  O   UNL A   1      38.501  32.133  38.410  1.00  0.00    -0.237 OA
ATOM     98  O   UNL A   1      37.073  32.568  36.437  1.00  0.00    -0.237 OA
ATOM     99  O   UNL A   1      38.643  30.682  36.416  1.00  0.00    -0.744 OA
ENDBRANCH  92  96
ENDBRANCH  65  89
BRANCH  77 100
ATOM    100  C   UNL A   1      43.567  26.239  34.436  1.00  0.00     0.023 A 
ATOM    101  C   UNL A   1      44.728  25.463  34.586  1.00  0.00     0.031 A 
ATOM    102  C   UNL A   1      42.357  25.641  34.854  1.00  0.00     0.131 A 
ATOM    103  C   UNL A   1      44.671  24.196  35.196  1.00  0.00     0.055 A 
ATOM    104  C   UNL A   1      42.293  24.349  35.383  1.00  0.00     0.041 A 
ATOM    105  F   UNL A   1      41.189  26.299  34.807  1.00  0.00    -0.206 F 
ATOM    106  C   UNL A   1      43.458  23.623  35.572  1.00  0.00     0.022 A 
BRANCH 103 107
ATOM    107  S   UNL A   1      46.225  23.342  35.566  1.00  0.00     0.124 S 
ATOM    108  O   UNL A   1      45.784  21.976  35.828  1.00  0.00    -0.237 OA
ATOM    109  O   UNL A   1      46.973  23.540  34.327  1.00  0.00    -0.237 OA
ATOM    110  O   UNL A   1      46.748  24.060  36.726  1.00  0.00    -0.744 OA
ENDBRANCH 103 107
ENDBRANCH  77 100
ENDBRANCH  51  52
ENDBRANCH  43  46
ENDBRANCH  41  42
ENDBRANCH  40  41
ENDBRANCH  39  40
ENDBRANCH   1  39
TORSDOF 22
ENDMDL
MODEL 2
REMARK VINA RESULT:     -11.6      2.377      3.074
REMARK SMILES Cc1cccc(S(=O)(=O)Nc2cc(C(=O)NCCCCCCNC(=O)c3ccc(-c4c5nc(c(-c6cc(S(=O)(=O)[O-])ccc6F)c6ccc([nH]6)c(-c6cc(S(=O)(=O)[O-])ccc6F)c6nc(c(-c7cc(S(=O)(=O)[O-])ccc7F)c7ccc4[nH]7)C=C6)C=C5)cc3)ccc2N2CCC[C@H](C[NH+]3CCCC3)C2)c1
REMARK SMILES IDX 19 1 18 2 17 3 16 4 14 5 15 6 13 8 11 9 12 10 91 11 90 12
REMARK SMILES IDX 89 13 10 14 7 16 8 17 9 18 6 19 1 20 2 21 3 22 104 23 4 24
REMARK SMILES IDX 5 25 92 26 93 27 103 28 94 29 96 30 95 31 97 32 98 33 99 34
REMARK SMILES IDX 102 35 100 37 101 38 20 39 21 40 22 41 23 42 24 43 25 45
REMARK SMILES IDX 26 46 27 47 88 48 28 49 87 50 29 51 30 52 31 53 81 54 32 55
REMARK SMILES IDX 86 56 80 57 82 58 33 59 85 60 79 61 78 62 34 64 66 65 46 66
REMARK SMILES IDX 65 67 47 68 50 69 64 70 83 71 48 72 49 73 63 75 84 76 51 77
REMARK SMILES IDX 35 78 36 79 44 80 37 81 43 82 45 83 42 84 38 85 39 86 40 87
REMARK SMILES IDX 41 88 67 89 68 90 76 91 69 92 75 93 77 94 74 95 70 96 71 97
REMARK SMILES IDX 72 98 73 99 52 100 53 101 61 102 54 103 60 104 62 105 59 106
REMARK SMILES IDX 55 107 56 108 57 109 58 110
REMARK H PARENT 16 7 10 15 98 36 23 44 82 63 50 74
REMARK Flexibility Score: inf
ROOT
ATOM      1  C   UNL A   1      36.685  29.656  30.009  1.00  0.00     0.002 C 
ENDROOT
BRANCH   1   2
ATOM      2  C   UNL A   1      37.024  30.476  28.758  1.00  0.00     0.021 C 
BRANCH   2   3
ATOM      3  C   UNL A   1      36.250  30.039  27.516  1.00  0.00     0.116 C 
BRANCH   3   4
ATOM      4  N   UNL A   1      35.011  30.785  27.374  1.00  0.00    -0.352 N 
ATOM      5  C   UNL A   1      33.745  30.423  26.997  1.00  0.00     0.251 C 
ATOM      6  O   UNL A   1      32.850  31.264  27.086  1.00  0.00    -0.269 OA
ATOM      7  H   UNL A   1      35.099  31.741  27.591  1.00  0.00     0.163 HD
BRANCH   5   8
ATOM      8  C   UNL A   1      33.380  29.046  26.561  1.00  0.00     0.042 A 
ATOM      9  C   UNL A   1      33.397  27.170  25.024  1.00  0.00     0.073 A 
ATOM     10  C   UNL A   1      33.635  28.524  25.293  1.00  0.00     0.042 A 
ATOM     11  C   UNL A   1      32.723  26.348  25.952  1.00  0.00     0.061 A 
ATOM     12  C   UNL A   1      32.386  26.913  27.188  1.00  0.00     0.029 A 
ATOM     13  C   UNL A   1      32.735  28.230  27.501  1.00  0.00     0.016 A 
BRANCH   9  14
ATOM     14  N   UNL A   1      33.878  26.646  23.778  1.00  0.00    -0.277 N 
ATOM     15  H   UNL A   1      34.693  26.095  23.763  1.00  0.00     0.180 HD
BRANCH  14  16
ATOM     16  S   UNL A   1      33.053  26.968  22.316  1.00  0.00     0.261 S 
ATOM     17  O   UNL A   1      32.915  25.676  21.669  1.00  0.00    -0.201 OA
ATOM     18  O   UNL A   1      33.779  28.017  21.631  1.00  0.00    -0.201 OA
BRANCH  16  19
ATOM     19  C   UNL A   1      31.404  27.601  22.572  1.00  0.00     0.088 A 
ATOM     20  C   UNL A   1      29.345  30.779  22.185  1.00  0.00     0.044 C 
ATOM     21  C   UNL A   1      29.718  29.346  22.438  1.00  0.00    -0.050 A 
ATOM     22  C   UNL A   1      28.793  28.491  23.048  1.00  0.00     0.003 A 
ATOM     23  C   UNL A   1      31.001  28.866  22.130  1.00  0.00     0.025 A 
ATOM     24  C   UNL A   1      29.158  27.192  23.397  1.00  0.00     0.002 A 
ATOM     25  C   UNL A   1      30.467  26.756  23.184  1.00  0.00     0.022 A 
ENDBRANCH  16  19
ENDBRANCH  14  16
ENDBRANCH   9  14
BRANCH  11  26
ATOM     26  N   UNL A   1      32.331  25.048  25.692  1.00  0.00    -0.369 N 
ATOM     27  C   UNL A   1      31.004  24.622  26.123  1.00  0.00     0.116 C 
ATOM     28  C   UNL A   1      33.116  24.147  24.859  1.00  0.00     0.126 C 
ATOM     29  C   UNL A   1      31.101  23.254  26.796  1.00  0.00     0.022 C 
ATOM     30  C   UNL A   1      33.254  22.762  25.522  1.00  0.00     0.064 C 
ATOM     31  C   UNL A   1      31.855  22.257  25.916  1.00  0.00     0.013 C 
BRANCH  30  32
ATOM     32  C   UNL A   1      34.295  22.843  26.670  1.00  0.00     0.267 C 
BRANCH  32  33
ATOM     33  N   UNL A   1      35.683  22.431  26.438  1.00  0.00    -0.335 N 
ATOM     34  C   UNL A   1      36.619  23.508  26.129  1.00  0.00     0.262 C 
ATOM     35  C   UNL A   1      35.882  21.359  25.469  1.00  0.00     0.262 C 
ATOM     36  H   UNL A   1      35.901  22.063  27.365  1.00  0.00     0.348 HD
ATOM     37  C   UNL A   1      36.849  23.415  24.635  1.00  0.00     0.067 C 
ATOM     38  C   UNL A   1      36.738  21.930  24.344  1.00  0.00     0.067 C 
ENDBRANCH  32  33
ENDBRANCH  30  32
ENDBRANCH  11  26
ENDBRANCH   5   8
ENDBRANCH   3   4
ENDBRANCH   2   3
ENDBRANCH   1   2
BRANCH   1  39
ATOM     39  C   UNL A   1      36.147  30.455  31.210  1.00  0.00     0.002 C 
BRANCH  39  40
ATOM     40  C   UNL A   1      36.114  31.974  31.037  1.00  0.00     0.021 C 
BRANCH  40  41
ATOM     41  C   UNL A   1      36.271  32.736  32.348  1.00  0.00     0.116 C 
BRANCH  41  42
ATOM     42  N   UNL A   1      37.304  33.763  32.315  1.00  0.00    -0.352 N 
ATOM     43  C   UNL A   1      38.662  33.617  32.065  1.00  0.00     0.251 C 
ATOM     44  H   UNL A   1      36.999  34.681  32.494  1.00  0.00     0.163 HD
ATOM     45  O   UNL A   1      39.435  34.544  32.151  1.00  0.00    -0.269 OA
BRANCH  43  46
ATOM     46  C   UNL A   1      39.129  32.300  31.559  1.00  0.00     0.039 A 
ATOM     47  C   UNL A   1      39.257  31.271  32.499  1.00  0.00     0.014 A 
ATOM     48  C   UNL A   1      39.655  32.164  30.278  1.00  0.00     0.014 A 
ATOM     49  C   UNL A   1      40.101  30.198  32.224  1.00  0.00     0.010 A 
ATOM     50  C   UNL A   1      40.559  31.145  30.038  1.00  0.00     0.010 A 
ATOM     51  C   UNL A   1      40.830  30.197  31.034  1.00  0.00    -0.014 A 
BRANCH  51  52
ATOM     52  C   UNL A   1      41.993  29.340  30.818  1.00  0.00     0.031 A 
ATOM     53  C   UNL A   1      41.866  28.021  30.167  1.00  0.00     0.074 A 
ATOM     54  C   UNL A   1      43.222  29.769  31.183  1.00  0.00     0.049 A 
ATOM     55  N   UNL A   1      42.718  27.061  30.299  1.00  0.00    -0.248 NA
ATOM     56  C   UNL A   1      40.724  27.665  29.335  1.00  0.00     0.031 C 
ATOM     57  C   UNL A   1      44.511  29.186  30.823  1.00  0.00     0.029 A 
ATOM     58  N   UNL A   1      43.522  30.675  32.197  1.00  0.00    -0.354 N 
ATOM     59  C   UNL A   1      42.406  26.091  29.378  1.00  0.00     0.074 A 
ATOM     60  C   UNL A   1      41.122  26.487  28.846  1.00  0.00     0.031 C 
ATOM     61  C   UNL A   1      45.412  29.523  31.758  1.00  0.00     0.029 A 
ATOM     62  C   UNL A   1      44.703  30.218  32.815  1.00  0.00     0.049 A 
ATOM     63  H   UNL A   1      43.008  31.480  32.436  1.00  0.00     0.167 HD
ATOM     64  C   UNL A   1      43.324  25.127  29.075  1.00  0.00     0.034 A 
ATOM     65  C   UNL A   1      44.718  29.891  34.141  1.00  0.00     0.034 A 
ATOM     66  C   UNL A   1      44.528  25.223  29.901  1.00  0.00     0.049 A 
ATOM     67  C   UNL A   1      45.096  28.449  34.425  1.00  0.00     0.074 A 
ATOM     68  C   UNL A   1      45.818  25.684  29.697  1.00  0.00     0.029 A 
ATOM     69  N   UNL A   1      44.416  25.008  31.263  1.00  0.00    -0.354 N 
ATOM     70  N   UNL A   1      45.343  27.554  33.507  1.00  0.00    -0.248 NA
ATOM     71  C   UNL A   1      45.130  27.880  35.773  1.00  0.00     0.031 C 
ATOM     72  C   UNL A   1      46.475  25.746  30.962  1.00  0.00     0.029 A 
ATOM     73  C   UNL A   1      45.588  25.309  31.928  1.00  0.00     0.049 A 
ATOM     74  H   UNL A   1      43.600  24.680  31.706  1.00  0.00     0.167 HD
ATOM     75  C   UNL A   1      45.475  26.322  34.096  1.00  0.00     0.074 A 
ATOM     76  C   UNL A   1      45.345  26.579  35.518  1.00  0.00     0.031 C 
ATOM     77  C   UNL A   1      45.625  25.171  33.375  1.00  0.00     0.034 A 
BRANCH  64  78
ATOM     78  C   UNL A   1      43.228  24.243  27.854  1.00  0.00     0.023 A 
ATOM     79  C   UNL A   1      44.314  24.188  26.956  1.00  0.00     0.031 A 
ATOM     80  C   UNL A   1      42.108  23.469  27.496  1.00  0.00     0.131 A 
ATOM     81  C   UNL A   1      44.220  23.501  25.732  1.00  0.00     0.055 A 
ATOM     82  C   UNL A   1      41.985  22.844  26.247  1.00  0.00     0.041 A 
ATOM     83  F   UNL A   1      41.110  23.237  28.359  1.00  0.00    -0.206 F 
ATOM     84  C   UNL A   1      43.040  22.871  25.348  1.00  0.00     0.022 A 
BRANCH  81  85
ATOM     85  S   UNL A   1      45.672  23.433  24.648  1.00  0.00     0.124 S 
ATOM     86  O   UNL A   1      46.081  24.832  24.584  1.00  0.00    -0.237 OA
ATOM     87  O   UNL A   1      46.557  22.533  25.380  1.00  0.00    -0.237 OA
ATOM     88  O   UNL A   1      45.137  22.891  23.400  1.00  0.00    -0.744 OA
ENDBRANCH  81  85
ENDBRANCH  64  78
BRANCH  65  89
ATOM     89  C   UNL A   1      43.774  30.723  34.949  1.00  0.00     0.023 A 
ATOM     90  C   UNL A   1      44.159  32.059  35.202  1.00  0.00     0.031 A 
ATOM     91  C   UNL A   1      42.423  30.391  35.110  1.00  0.00     0.131 A 
ATOM     92  C   UNL A   1      43.187  33.048  35.402  1.00  0.00     0.055 A 
ATOM     93  C   UNL A   1      41.466  31.368  35.411  1.00  0.00     0.041 A 
ATOM     94  F   UNL A   1      41.985  29.150  34.855  1.00  0.00    -0.206 F 
ATOM     95  C   UNL A   1      41.838  32.710  35.506  1.00  0.00     0.022 A 
BRANCH  92  96
ATOM     96  S   UNL A   1      43.670  34.790  35.193  1.00  0.00     0.124 S 
ATOM     97  O   UNL A   1      44.225  34.795  33.845  1.00  0.00    -0.237 OA
ATOM     98  O   UNL A   1      42.404  35.499  35.364  1.00  0.00    -0.237 OA
ATOM     99  O   UNL A   1      44.630  35.009  36.273  1.00  0.00    -0.744 OA
ENDBRANCH  92  96
ENDBRANCH  65  89
BRANCH  77 100
ATOM    100  C   UNL A   1      45.771  23.808  34.004  1.00  0.00     0.023 A 
ATOM    101  C   UNL A   1      47.024  23.275  34.346  1.00  0.00     0.031 A 
ATOM    102  C   UNL A   1      44.655  22.966  34.214  1.00  0.00     0.131 A 
ATOM    103  C   UNL A   1      47.126  22.003  34.939  1.00  0.00     0.055 A 
ATOM    104  C   UNL A   1      44.768  21.671  34.725  1.00  0.00     0.041 A 
ATOM    105  F   UNL A   1      43.403  23.379  33.971  1.00  0.00    -0.206 F 
ATOM    106  C   UNL A   1      46.009  21.186  35.107  1.00  0.00     0.022 A 
BRANCH 103 107
ATOM    107  S   UNL A   1      48.739  21.465  35.564  1.00  0.00     0.124 S 
ATOM    108  O   UNL A   1      48.484  21.277  36.988  1.00  0.00    -0.237 OA
ATOM    109  O   UNL A   1      48.962  20.245  34.793  1.00  0.00    -0.237 OA
ATOM    110  O   UNL A   1      49.628  22.576  35.232  1.00  0.00    -0.744 OA
ENDBRANCH 103 107
ENDBRANCH  77 100
ENDBRANCH  51  52
ENDBRANCH  43  46
ENDBRANCH  41  42
ENDBRANCH  40  41
ENDBRANCH  39  40
ENDBRANCH   1  39
TORSDOF 22
ENDMDL
MODEL 3
REMARK VINA RESULT:     -11.3      5.007      9.341
REMARK SMILES Cc1cccc(S(=O)(=O)Nc2cc(C(=O)NCCCCCCNC(=O)c3ccc(-c4c5nc(c(-c6cc(S(=O)(=O)[O-])ccc6F)c6ccc([nH]6)c(-c6cc(S(=O)(=O)[O-])ccc6F)c6nc(c(-c7cc(S(=O)(=O)[O-])ccc7F)c7ccc4[nH]7)C=C6)C=C5)cc3)ccc2N2CCC[C@H](C[NH+]3CCCC3)C2)c1
REMARK SMILES IDX 19 1 18 2 17 3 16 4 14 5 15 6 13 8 11 9 12 10 91 11 90 12
REMARK SMILES IDX 89 13 10 14 7 16 8 17 9 18 6 19 1 20 2 21 3 22 104 23 4 24
REMARK SMILES IDX 5 25 92 26 93 27 103 28 94 29 96 30 95 31 97 32 98 33 99 34
REMARK SMILES IDX 102 35 100 37 101 38 20 39 21 40 22 41 23 42 24 43 25 45
REMARK SMILES IDX 26 46 27 47 88 48 28 49 87 50 29 51 30 52 31 53 81 54 32 55
REMARK SMILES IDX 86 56 80 57 82 58 33 59 85 60 79 61 78 62 34 64 66 65 46 66
REMARK SMILES IDX 65 67 47 68 50 69 64 70 83 71 48 72 49 73 63 75 84 76 51 77
REMARK SMILES IDX 35 78 36 79 44 80 37 81 43 82 45 83 42 84 38 85 39 86 40 87
REMARK SMILES IDX 41 88 67 89 68 90 76 91 69 92 75 93 77 94 74 95 70 96 71 97
REMARK SMILES IDX 72 98 73 99 52 100 53 101 61 102 54 103 60 104 62 105 59 106
REMARK SMILES IDX 55 107 56 108 57 109 58 110
REMARK H PARENT 16 7 10 15 98 36 23 44 82 63 50 74
REMARK Flexibility Score: inf
ROOT
ATOM      1  C   UNL A   1      36.360  30.698  30.695  1.00  0.00     0.002 C 
ENDROOT
BRANCH   1   2
ATOM      2  C   UNL A   1      35.868  29.421  30.002  1.00  0.00     0.021 C 
BRANCH   2   3
ATOM      3  C   UNL A   1      35.816  29.537  28.480  1.00  0.00     0.116 C 
BRANCH   3   4
ATOM      4  N   UNL A   1      34.803  30.487  28.055  1.00  0.00    -0.352 N 
ATOM      5  C   UNL A   1      33.626  30.348  27.367  1.00  0.00     0.251 C 
ATOM      6  O   UNL A   1      32.900  31.336  27.253  1.00  0.00    -0.269 OA
ATOM      7  H   UNL A   1      35.001  31.417  28.312  1.00  0.00     0.163 HD
BRANCH   5   8
ATOM      8  C   UNL A   1      33.145  29.049  26.818  1.00  0.00     0.042 A 
ATOM      9  C   UNL A   1      33.026  27.302  25.141  1.00  0.00     0.073 A 
ATOM     10  C   UNL A   1      33.383  28.603  25.518  1.00  0.00     0.042 A 
ATOM     11  C   UNL A   1      32.254  26.480  25.990  1.00  0.00     0.061 A 
ATOM     12  C   UNL A   1      31.939  26.979  27.259  1.00  0.00     0.029 A 
ATOM     13  C   UNL A   1      32.403  28.230  27.680  1.00  0.00     0.016 A 
BRANCH   9  14
ATOM     14  N   UNL A   1      33.487  26.831  23.867  1.00  0.00    -0.277 N 
ATOM     15  H   UNL A   1      34.175  26.128  23.827  1.00  0.00     0.180 HD
BRANCH  14  16
ATOM     16  S   UNL A   1      32.856  27.474  22.414  1.00  0.00     0.261 S 
ATOM     17  O   UNL A   1      32.817  26.354  21.492  1.00  0.00    -0.201 OA
ATOM     18  O   UNL A   1      33.654  28.632  22.071  1.00  0.00    -0.201 OA
BRANCH  16  19
ATOM     19  C   UNL A   1      31.182  28.067  22.585  1.00  0.00     0.088 A 
ATOM     20  C   UNL A   1      29.093  31.227  22.211  1.00  0.00     0.044 C 
ATOM     21  C   UNL A   1      29.475  29.789  22.419  1.00  0.00    -0.050 A 
ATOM     22  C   UNL A   1      28.527  28.890  22.920  1.00  0.00     0.003 A 
ATOM     23  C   UNL A   1      30.786  29.346  22.178  1.00  0.00     0.025 A 
ATOM     24  C   UNL A   1      28.892  27.581  23.228  1.00  0.00     0.002 A 
ATOM     25  C   UNL A   1      30.221  27.177  23.087  1.00  0.00     0.022 A 
ENDBRANCH  16  19
ENDBRANCH  14  16
ENDBRANCH   9  14
BRANCH  11  26
ATOM     26  N   UNL A   1      31.748  25.247  25.622  1.00  0.00    -0.369 N 
ATOM     27  C   UNL A   1      30.640  24.691  26.392  1.00  0.00     0.116 C 
ATOM     28  C   UNL A   1      32.160  24.567  24.402  1.00  0.00     0.126 C 
ATOM     29  C   UNL A   1      30.915  23.219  26.693  1.00  0.00     0.022 C 
ATOM     30  C   UNL A   1      32.470  23.081  24.676  1.00  0.00     0.064 C 
ATOM     31  C   UNL A   1      31.278  22.453  25.421  1.00  0.00     0.013 C 
BRANCH  30  32
ATOM     32  C   UNL A   1      33.848  22.965  25.380  1.00  0.00     0.267 C 
BRANCH  32  33
ATOM     33  N   UNL A   1      35.002  23.712  24.871  1.00  0.00    -0.335 N 
ATOM     34  C   UNL A   1      35.440  23.357  23.524  1.00  0.00     0.262 C 
ATOM     35  C   UNL A   1      36.174  23.756  25.737  1.00  0.00     0.262 C 
ATOM     36  H   UNL A   1      34.592  24.647  24.846  1.00  0.00     0.348 HD
ATOM     37  C   UNL A   1      36.684  22.516  23.722  1.00  0.00     0.067 C 
ATOM     38  C   UNL A   1      37.316  23.095  24.973  1.00  0.00     0.067 C 
ENDBRANCH  32  33
ENDBRANCH  30  32
ENDBRANCH  11  26
ENDBRANCH   5   8
ENDBRANCH   3   4
ENDBRANCH   2   3
ENDBRANCH   1   2
BRANCH   1  39
ATOM     39  C   UNL A   1      35.272  31.566  31.354  1.00  0.00     0.002 C 
BRANCH  39  40
ATOM     40  C   UNL A   1      35.712  32.963  31.795  1.00  0.00     0.021 C 
BRANCH  40  41
ATOM     41  C   UNL A   1      35.501  34.029  30.725  1.00  0.00     0.116 C 
BRANCH  41  42
ATOM     42  N   UNL A   1      35.352  33.494  29.378  1.00  0.00    -0.352 N 
ATOM     43  C   UNL A   1      36.329  33.305  28.409  1.00  0.00     0.251 C 
ATOM     44  H   UNL A   1      34.440  33.232  29.122  1.00  0.00     0.163 HD
ATOM     45  O   UNL A   1      36.060  32.928  27.291  1.00  0.00    -0.269 OA
BRANCH  43  46
ATOM     46  C   UNL A   1      37.747  33.460  28.824  1.00  0.00     0.039 A 
ATOM     47  C   UNL A   1      38.378  32.328  29.353  1.00  0.00     0.014 A 
ATOM     48  C   UNL A   1      38.337  34.716  28.921  1.00  0.00     0.014 A 
ATOM     49  C   UNL A   1      39.494  32.491  30.172  1.00  0.00     0.010 A 
ATOM     50  C   UNL A   1      39.391  34.887  29.801  1.00  0.00     0.010 A 
ATOM     51  C   UNL A   1      39.928  33.782  30.475  1.00  0.00    -0.014 A 
BRANCH  51  52
ATOM     52  C   UNL A   1      40.826  34.074  31.590  1.00  0.00     0.031 A 
ATOM     53  C   UNL A   1      40.309  34.549  32.889  1.00  0.00     0.074 A 
ATOM     54  C   UNL A   1      42.156  33.876  31.454  1.00  0.00     0.049 A 
ATOM     55  N   UNL A   1      41.010  35.201  33.756  1.00  0.00    -0.248 NA
ATOM     56  C   UNL A   1      38.924  34.356  33.299  1.00  0.00     0.031 C 
ATOM     57  C   UNL A   1      43.167  33.861  32.508  1.00  0.00     0.029 A 
ATOM     58  N   UNL A   1      42.890  33.923  30.270  1.00  0.00    -0.354 N 
ATOM     59  C   UNL A   1      40.285  35.265  34.921  1.00  0.00     0.074 A 
ATOM     60  C   UNL A   1      38.971  34.779  34.565  1.00  0.00     0.031 C 
ATOM     61  C   UNL A   1      44.355  34.170  31.969  1.00  0.00     0.029 A 
ATOM     62  C   UNL A   1      44.125  34.525  30.581  1.00  0.00     0.049 A 
ATOM     63  H   UNL A   1      42.601  33.598  29.387  1.00  0.00     0.167 HD
ATOM     64  C   UNL A   1      40.909  35.603  36.086  1.00  0.00     0.034 A 
ATOM     65  C   UNL A   1      44.509  35.688  29.976  1.00  0.00     0.034 A 
ATOM     66  C   UNL A   1      42.313  35.964  35.884  1.00  0.00     0.049 A 
ATOM     67  C   UNL A   1      44.743  36.842  30.932  1.00  0.00     0.074 A 
ATOM     68  C   UNL A   1      43.526  35.332  36.105  1.00  0.00     0.029 A 
ATOM     69  N   UNL A   1      42.606  37.091  35.136  1.00  0.00    -0.354 N 
ATOM     70  N   UNL A   1      44.554  36.785  32.223  1.00  0.00    -0.248 NA
ATOM     71  C   UNL A   1      45.116  38.187  30.489  1.00  0.00     0.031 C 
ATOM     72  C   UNL A   1      44.549  36.098  35.472  1.00  0.00     0.029 A 
ATOM     73  C   UNL A   1      43.959  37.199  34.881  1.00  0.00     0.049 A 
ATOM     74  H   UNL A   1      41.932  37.737  34.823  1.00  0.00     0.167 HD
ATOM     75  C   UNL A   1      44.684  38.041  32.759  1.00  0.00     0.074 A 
ATOM     76  C   UNL A   1      45.048  38.883  31.635  1.00  0.00     0.031 C 
ATOM     77  C   UNL A   1      44.429  38.313  34.073  1.00  0.00     0.034 A 
BRANCH  64  78
ATOM     78  C   UNL A   1      40.306  35.368  37.451  1.00  0.00     0.023 A 
ATOM     79  C   UNL A   1      39.469  34.251  37.652  1.00  0.00     0.031 A 
ATOM     80  C   UNL A   1      40.476  36.204  38.571  1.00  0.00     0.131 A 
ATOM     81  C   UNL A   1      38.765  34.068  38.855  1.00  0.00     0.055 A 
ATOM     82  C   UNL A   1      39.722  36.064  39.744  1.00  0.00     0.041 A 
ATOM     83  F   UNL A   1      41.419  37.156  38.599  1.00  0.00    -0.206 F 
ATOM     84  C   UNL A   1      38.846  34.999  39.886  1.00  0.00     0.022 A 
BRANCH  81  85
ATOM     85  S   UNL A   1      37.744  32.583  39.061  1.00  0.00     0.124 S 
ATOM     86  O   UNL A   1      38.380  31.638  38.148  1.00  0.00    -0.237 OA
ATOM     87  O   UNL A   1      37.892  32.305  40.485  1.00  0.00    -0.237 OA
ATOM     88  O   UNL A   1      36.412  33.029  38.655  1.00  0.00    -0.744 OA
ENDBRANCH  81  85
ENDBRANCH  64  78
BRANCH  65  89
ATOM     89  C   UNL A   1      44.000  35.801  28.575  1.00  0.00     0.023 A 
ATOM     90  C   UNL A   1      44.704  35.083  27.581  1.00  0.00     0.031 A 
ATOM     91  C   UNL A   1      42.700  36.227  28.276  1.00  0.00     0.131 A 
ATOM     92  C   UNL A   1      44.041  34.640  26.429  1.00  0.00     0.055 A 
ATOM     93  C   UNL A   1      42.076  35.867  27.076  1.00  0.00     0.041 A 
ATOM     94  F   UNL A   1      41.966  36.885  29.185  1.00  0.00    -0.206 F 
ATOM     95  C   UNL A   1      42.726  35.027  26.170  1.00  0.00     0.022 A 
BRANCH  92  96
ATOM     96  S   UNL A   1      44.799  33.302  25.456  1.00  0.00     0.124 S 
ATOM     97  O   UNL A   1      43.880  32.195  25.689  1.00  0.00    -0.237 OA
ATOM     98  O   UNL A   1      44.806  33.851  24.101  1.00  0.00    -0.237 OA
ATOM     99  O   UNL A   1      46.126  33.158  26.051  1.00  0.00    -0.744 OA
ENDBRANCH  92  96
ENDBRANCH  65  89
BRANCH  77 100
ATOM    100  C   UNL A   1      44.565  39.687  34.680  1.00  0.00     0.023 A 
ATOM    101  C   UNL A   1      43.802  40.778  34.236  1.00  0.00     0.031 A 
ATOM    102  C   UNL A   1      45.524  39.961  35.682  1.00  0.00     0.131 A 
ATOM    103  C   UNL A   1      43.947  42.046  34.829  1.00  0.00     0.055 A 
ATOM    104  C   UNL A   1      45.724  41.239  36.211  1.00  0.00     0.041 A 
ATOM    105  F   UNL A   1      46.280  38.994  36.222  1.00  0.00    -0.206 F 
ATOM    106  C   UNL A   1      44.922  42.290  35.796  1.00  0.00     0.022 A 
BRANCH 103 107
ATOM    107  S   UNL A   1      42.782  43.355  34.373  1.00  0.00     0.124 S 
ATOM    108  O   UNL A   1      43.634  44.539  34.328  1.00  0.00    -0.237 OA
ATOM    109  O   UNL A   1      42.291  42.878  33.083  1.00  0.00    -0.237 OA
ATOM    110  O   UNL A   1      41.799  43.337  35.454  1.00  0.00    -0.744 OA
ENDBRANCH 103 107
ENDBRANCH  77 100
ENDBRANCH  51  52
ENDBRANCH  43  46
ENDBRANCH  41  42
ENDBRANCH  40  41
ENDBRANCH  39  40
ENDBRANCH   1  39
TORSDOF 22
ENDMDL
