MODEL 1
REMARK VINA RESULT:     -11.6      0.000      0.000
REMARK SMILES Cc1cc(=O)cc(C)n1C[C@H]1CCCC[C@@H]1C(=O)NCCCCCCNC(=O)c1ccc(-c2c3nc(c(-c4cc(S(=O)(=O)[O-])ccc4F)c4ccc([nH]4)c(-c4cc(S(=O)(=O)[O-])ccc4F)c4nc(c(-c5cc(S(=O)(=O)[O-])ccc5F)c5ccc2[nH]5)C=C4)C=C3)cc1
REMARK SMILES IDX 23 1 22 2 21 3 20 4 19 5 17 6 18 7 16 9 11 10 12 11 13 12
REMARK SMILES IDX 15 13 14 14 10 15 9 16 1 17 2 18 3 19 4 20 7 21 5 22 6 23
REMARK SMILES IDX 8 24 24 25 25 26 26 27 27 28 28 30 29 31 30 32 91 33 31 34
REMARK SMILES IDX 90 35 32 36 33 37 34 38 84 39 35 40 89 41 83 42 85 43 36 44
REMARK SMILES IDX 88 45 82 46 81 47 37 49 69 50 49 51 68 52 50 53 53 54 67 55
REMARK SMILES IDX 86 56 51 57 52 58 66 60 87 61 54 62 38 63 39 64 47 65 40 66
REMARK SMILES IDX 46 67 48 68 45 69 41 70 42 71 43 72 44 73 70 74 71 75 79 76
REMARK SMILES IDX 72 77 78 78 80 79 77 80 73 81 74 82 75 83 76 84 55 85 56 86
REMARK SMILES IDX 64 87 57 88 63 89 65 90 62 91 58 92 59 93 60 94 61 95
REMARK H PARENT 19 8 26 29 85 48 53 59
REMARK Flexibility Score: inf
ROOT
ATOM      1  C   UNL A   1      31.701  30.679  26.245  1.00  0.00     0.002 C 
ENDROOT
BRANCH   1   2
ATOM      2  C   UNL A   1      32.579  29.910  27.238  1.00  0.00     0.002 C 
BRANCH   2   3
ATOM      3  C   UNL A   1      33.955  29.465  26.717  1.00  0.00     0.021 C 
BRANCH   3   4
ATOM      4  C   UNL A   1      34.013  28.048  26.151  1.00  0.00     0.116 C 
BRANCH   4   5
ATOM      5  N   UNL A   1      32.965  27.226  26.708  1.00  0.00    -0.356 N 
ATOM      6  C   UNL A   1      31.825  26.742  26.169  1.00  0.00     0.223 C 
ATOM      7  O   UNL A   1      31.142  26.030  26.909  1.00  0.00    -0.275 OA
ATOM      8  H   UNL A   1      33.108  26.972  27.649  1.00  0.00     0.163 HD
BRANCH   6   9
ATOM      9  C   UNL A   1      31.420  27.077  24.724  1.00  0.00     0.083 C 
ATOM     10  C   UNL A   1      29.911  26.788  24.437  1.00  0.00     0.021 C 
ATOM     11  C   UNL A   1      29.696  25.270  24.565  1.00  0.00     0.006 C 
ATOM     12  C   UNL A   1      30.582  24.454  23.616  1.00  0.00     0.000 C 
ATOM     13  C   UNL A   1      32.338  26.301  23.758  1.00  0.00     0.014 C 
ATOM     14  C   UNL A   1      32.064  24.796  23.711  1.00  0.00     0.001 C 
BRANCH  10  15
ATOM     15  C   UNL A   1      29.492  27.355  23.039  1.00  0.00     0.126 C 
BRANCH  15  16
ATOM     16  N   UNL A   1      29.038  28.789  23.027  1.00  0.00    -0.349 N 
ATOM     17  C   UNL A   1      31.243  29.486  21.944  1.00  0.00     0.064 C 
ATOM     18  C   UNL A   1      29.909  29.822  22.569  1.00  0.00     0.018 A 
ATOM     19  C   UNL A   1      29.571  31.126  22.595  1.00  0.00     0.073 A 
ATOM     20  C   UNL A   1      28.251  31.533  23.095  1.00  0.00     0.182 A 
ATOM     21  C   UNL A   1      27.702  29.169  23.347  1.00  0.00     0.018 A 
ATOM     22  O   UNL A   1      27.924  32.711  23.175  1.00  0.00    -0.290 OA
ATOM     23  C   UNL A   1      27.310  30.456  23.421  1.00  0.00     0.073 A 
ATOM     24  C   UNL A   1      26.596  28.161  23.516  1.00  0.00     0.064 C 
ENDBRANCH  15  16
ENDBRANCH  10  15
ENDBRANCH   6   9
ENDBRANCH   4   5
ENDBRANCH   3   4
ENDBRANCH   2   3
ENDBRANCH   1   2
BRANCH   1  25
ATOM     25  C   UNL A   1      31.568  32.177  26.519  1.00  0.00     0.021 C 
BRANCH  25  26
ATOM     26  C   UNL A   1      32.694  32.776  27.353  1.00  0.00     0.116 C 
BRANCH  26  27
ATOM     27  N   UNL A   1      32.459  34.170  27.678  1.00  0.00    -0.352 N 
ATOM     28  C   UNL A   1      33.035  34.938  28.664  1.00  0.00     0.251 C 
ATOM     29  H   UNL A   1      31.795  34.632  27.115  1.00  0.00     0.163 HD
ATOM     30  O   UNL A   1      32.589  36.047  28.918  1.00  0.00    -0.269 OA
BRANCH  28  31
ATOM     31  C   UNL A   1      34.179  34.392  29.429  1.00  0.00     0.039 A 
ATOM     32  C   UNL A   1      33.925  33.628  30.569  1.00  0.00     0.014 A 
ATOM     33  C   UNL A   1      35.493  34.621  29.011  1.00  0.00     0.014 A 
ATOM     34  C   UNL A   1      34.990  33.044  31.257  1.00  0.00     0.010 A 
ATOM     35  C   UNL A   1      36.547  33.978  29.653  1.00  0.00     0.010 A 
ATOM     36  C   UNL A   1      36.306  33.188  30.788  1.00  0.00    -0.014 A 
BRANCH  36  37
ATOM     37  C   UNL A   1      37.444  32.544  31.492  1.00  0.00     0.031 A 
ATOM     38  C   UNL A   1      38.179  31.405  30.837  1.00  0.00     0.074 A 
ATOM     39  C   UNL A   1      37.802  32.966  32.721  1.00  0.00     0.049 A 
ATOM     40  N   UNL A   1      39.165  30.684  31.303  1.00  0.00    -0.248 NA
ATOM     41  C   UNL A   1      37.734  31.014  29.489  1.00  0.00     0.031 C 
ATOM     42  C   UNL A   1      37.155  34.051  33.462  1.00  0.00     0.029 A 
ATOM     43  N   UNL A   1      38.801  32.544  33.560  1.00  0.00    -0.354 N 
ATOM     44  C   UNL A   1      39.461  29.760  30.308  1.00  0.00     0.074 A 
ATOM     45  C   UNL A   1      38.507  29.968  29.240  1.00  0.00     0.031 C 
ATOM     46  C   UNL A   1      37.801  34.235  34.625  1.00  0.00     0.029 A 
ATOM     47  C   UNL A   1      38.877  33.256  34.736  1.00  0.00     0.049 A 
ATOM     48  H   UNL A   1      39.408  31.800  33.343  1.00  0.00     0.167 HD
ATOM     49  C   UNL A   1      40.456  28.844  30.272  1.00  0.00     0.034 A 
ATOM     50  C   UNL A   1      39.715  33.130  35.784  1.00  0.00     0.034 A 
ATOM     51  C   UNL A   1      41.415  28.657  31.331  1.00  0.00     0.049 A 
ATOM     52  C   UNL A   1      40.779  32.063  35.746  1.00  0.00     0.074 A 
ATOM     53  C   UNL A   1      42.481  27.777  31.378  1.00  0.00     0.029 A 
ATOM     54  N   UNL A   1      41.426  29.364  32.526  1.00  0.00    -0.354 N 
ATOM     55  N   UNL A   1      41.046  31.202  34.791  1.00  0.00    -0.248 NA
ATOM     56  C   UNL A   1      41.649  31.947  36.923  1.00  0.00     0.031 C 
ATOM     57  C   UNL A   1      43.101  27.908  32.625  1.00  0.00     0.029 A 
ATOM     58  C   UNL A   1      42.462  28.916  33.329  1.00  0.00     0.049 A 
ATOM     59  H   UNL A   1      40.792  30.076  32.766  1.00  0.00     0.167 HD
ATOM     60  C   UNL A   1      42.127  30.454  35.248  1.00  0.00     0.074 A 
ATOM     61  C   UNL A   1      42.470  30.973  36.556  1.00  0.00     0.031 C 
ATOM     62  C   UNL A   1      42.779  29.434  34.637  1.00  0.00     0.034 A 
BRANCH  49  63
ATOM     63  C   UNL A   1      40.560  27.970  29.050  1.00  0.00     0.023 A 
ATOM     64  C   UNL A   1      41.471  28.262  28.022  1.00  0.00     0.031 A 
ATOM     65  C   UNL A   1      39.762  26.821  28.925  1.00  0.00     0.131 A 
ATOM     66  C   UNL A   1      41.534  27.435  26.890  1.00  0.00     0.055 A 
ATOM     67  C   UNL A   1      39.874  25.967  27.826  1.00  0.00     0.041 A 
ATOM     68  F   UNL A   1      38.863  26.506  29.871  1.00  0.00    -0.206 F 
ATOM     69  C   UNL A   1      40.759  26.276  26.797  1.00  0.00     0.022 A 
BRANCH  66  70
ATOM     70  S   UNL A   1      42.590  27.938  25.505  1.00  0.00     0.124 S 
ATOM     71  O   UNL A   1      43.818  28.318  26.197  1.00  0.00    -0.237 OA
ATOM     72  O   UNL A   1      42.659  26.724  24.700  1.00  0.00    -0.237 OA
ATOM     73  O   UNL A   1      41.853  29.046  24.899  1.00  0.00    -0.744 OA
ENDBRANCH  66  70
ENDBRANCH  49  63
BRANCH  50  74
ATOM     74  C   UNL A   1      39.587  34.034  36.961  1.00  0.00     0.023 A 
ATOM     75  C   UNL A   1      39.132  33.548  38.197  1.00  0.00     0.031 A 
ATOM     76  C   UNL A   1      39.907  35.400  36.864  1.00  0.00     0.131 A 
ATOM     77  C   UNL A   1      38.984  34.427  39.281  1.00  0.00     0.055 A 
ATOM     78  C   UNL A   1      39.797  36.262  37.957  1.00  0.00     0.041 A 
ATOM     79  F   UNL A   1      40.352  35.912  35.706  1.00  0.00    -0.206 F 
ATOM     80  C   UNL A   1      39.326  35.777  39.174  1.00  0.00     0.022 A 
BRANCH  77  81
ATOM     81  S   UNL A   1      38.299  33.787  40.834  1.00  0.00     0.124 S 
ATOM     82  O   UNL A   1      39.004  32.517  40.967  1.00  0.00    -0.237 OA
ATOM     83  O   UNL A   1      38.666  34.831  41.783  1.00  0.00    -0.237 OA
ATOM     84  O   UNL A   1      36.868  33.679  40.554  1.00  0.00    -0.744 OA
ENDBRANCH  77  81
ENDBRANCH  50  74
BRANCH  62  85
ATOM     85  C   UNL A   1      43.939  28.813  35.370  1.00  0.00     0.023 A 
ATOM     86  C   UNL A   1      43.749  27.761  36.279  1.00  0.00     0.031 A 
ATOM     87  C   UNL A   1      45.253  29.244  35.113  1.00  0.00     0.131 A 
ATOM     88  C   UNL A   1      44.855  27.188  36.922  1.00  0.00     0.055 A 
ATOM     89  C   UNL A   1      46.354  28.638  35.718  1.00  0.00     0.041 A 
ATOM     90  F   UNL A   1      45.487  30.244  34.248  1.00  0.00    -0.206 F 
ATOM     91  C   UNL A   1      46.157  27.606  36.633  1.00  0.00     0.022 A 
BRANCH  88  92
ATOM     92  S   UNL A   1      44.568  25.904  38.170  1.00  0.00     0.124 S 
ATOM     93  O   UNL A   1      43.823  26.635  39.189  1.00  0.00    -0.237 OA
ATOM     94  O   UNL A   1      43.813  24.903  37.424  1.00  0.00    -0.237 OA
ATOM     95  O   UNL A   1      45.917  25.497  38.560  1.00  0.00    -0.744 OA
ENDBRANCH  88  92
ENDBRANCH  62  85
ENDBRANCH  36  37
ENDBRANCH  28  31
ENDBRANCH  26  27
ENDBRANCH  25  26
ENDBRANCH   1  25
TORSDOF 18
ENDMDL
MODEL 2
REMARK VINA RESULT:     -11.5      2.169      8.505
REMARK SMILES Cc1cc(=O)cc(C)n1C[C@H]1CCCC[C@@H]1C(=O)NCCCCCCNC(=O)c1ccc(-c2c3nc(c(-c4cc(S(=O)(=O)[O-])ccc4F)c4ccc([nH]4)c(-c4cc(S(=O)(=O)[O-])ccc4F)c4nc(c(-c5cc(S(=O)(=O)[O-])ccc5F)c5ccc2[nH]5)C=C4)C=C3)cc1
REMARK SMILES IDX 23 1 22 2 21 3 20 4 19 5 17 6 18 7 16 9 11 10 12 11 13 12
REMARK SMILES IDX 15 13 14 14 10 15 9 16 1 17 2 18 3 19 4 20 7 21 5 22 6 23
REMARK SMILES IDX 8 24 24 25 25 26 26 27 27 28 28 30 29 31 30 32 91 33 31 34
REMARK SMILES IDX 90 35 32 36 33 37 34 38 84 39 35 40 89 41 83 42 85 43 36 44
REMARK SMILES IDX 88 45 82 46 81 47 37 49 69 50 49 51 68 52 50 53 53 54 67 55
REMARK SMILES IDX 86 56 51 57 52 58 66 60 87 61 54 62 38 63 39 64 47 65 40 66
REMARK SMILES IDX 46 67 48 68 45 69 41 70 42 71 43 72 44 73 70 74 71 75 79 76
REMARK SMILES IDX 72 77 78 78 80 79 77 80 73 81 74 82 75 83 76 84 55 85 56 86
REMARK SMILES IDX 64 87 57 88 63 89 65 90 62 91 58 92 59 93 60 94 61 95
REMARK H PARENT 19 8 26 29 85 48 53 59
REMARK Flexibility Score: inf
ROOT
ATOM      1  C   UNL A   1      35.671  32.777  27.993  1.00  0.00     0.002 C 
ENDROOT
BRANCH   1   2
ATOM      2  C   UNL A   1      35.032  31.492  28.529  1.00  0.00     0.002 C 
BRANCH   2   3
ATOM      3  C   UNL A   1      35.082  30.272  27.595  1.00  0.00     0.021 C 
BRANCH   3   4
ATOM      4  C   UNL A   1      33.769  29.929  26.895  1.00  0.00     0.116 C 
BRANCH   4   5
ATOM      5  N   UNL A   1      34.009  29.391  25.578  1.00  0.00    -0.356 N 
ATOM      6  C   UNL A   1      33.792  28.163  25.059  1.00  0.00     0.223 C 
ATOM      7  O   UNL A   1      34.080  28.025  23.869  1.00  0.00    -0.275 OA
ATOM      8  H   UNL A   1      34.402  30.035  24.944  1.00  0.00     0.163 HD
BRANCH   6   9
ATOM      9  C   UNL A   1      33.227  27.022  25.921  1.00  0.00     0.083 C 
ATOM     10  C   UNL A   1      33.515  25.609  25.317  1.00  0.00     0.021 C 
ATOM     11  C   UNL A   1      32.755  25.510  23.983  1.00  0.00     0.006 C 
ATOM     12  C   UNL A   1      31.245  25.724  24.133  1.00  0.00     0.000 C 
ATOM     13  C   UNL A   1      31.715  27.252  26.122  1.00  0.00     0.014 C 
ATOM     14  C   UNL A   1      30.874  27.006  24.867  1.00  0.00     0.001 C 
BRANCH  10  15
ATOM     15  C   UNL A   1      33.131  24.481  26.332  1.00  0.00     0.126 C 
BRANCH  15  16
ATOM     16  N   UNL A   1      33.235  23.073  25.812  1.00  0.00    -0.349 N 
ATOM     17  C   UNL A   1      35.771  23.146  26.103  1.00  0.00     0.064 C 
ATOM     18  C   UNL A   1      34.510  22.459  25.633  1.00  0.00     0.018 A 
ATOM     19  C   UNL A   1      34.659  21.224  25.115  1.00  0.00     0.073 A 
ATOM     20  C   UNL A   1      33.476  20.445  24.723  1.00  0.00     0.182 A 
ATOM     21  C   UNL A   1      32.090  22.253  25.595  1.00  0.00     0.018 A 
ATOM     22  O   UNL A   1      33.572  19.338  24.208  1.00  0.00    -0.290 OA
ATOM     23  C   UNL A   1      32.169  21.024  25.050  1.00  0.00     0.073 A 
ATOM     24  C   UNL A   1      30.714  22.651  26.062  1.00  0.00     0.064 C 
ENDBRANCH  15  16
ENDBRANCH  10  15
ENDBRANCH   6   9
ENDBRANCH   4   5
ENDBRANCH   3   4
ENDBRANCH   2   3
ENDBRANCH   1   2
BRANCH   1  25
ATOM     25  C   UNL A   1      34.774  34.014  28.028  1.00  0.00     0.021 C 
BRANCH  25  26
ATOM     26  C   UNL A   1      33.365  33.765  28.550  1.00  0.00     0.116 C 
BRANCH  26  27
ATOM     27  N   UNL A   1      32.943  34.777  29.502  1.00  0.00    -0.352 N 
ATOM     28  C   UNL A   1      33.405  35.011  30.776  1.00  0.00     0.251 C 
ATOM     29  H   UNL A   1      32.228  35.379  29.192  1.00  0.00     0.163 HD
ATOM     30  O   UNL A   1      32.813  35.789  31.510  1.00  0.00    -0.269 OA
BRANCH  28  31
ATOM     31  C   UNL A   1      34.606  34.290  31.254  1.00  0.00     0.039 A 
ATOM     32  C   UNL A   1      34.452  33.021  31.816  1.00  0.00     0.014 A 
ATOM     33  C   UNL A   1      35.878  34.858  31.131  1.00  0.00     0.014 A 
ATOM     34  C   UNL A   1      35.582  32.297  32.201  1.00  0.00     0.010 A 
ATOM     35  C   UNL A   1      37.006  34.106  31.446  1.00  0.00     0.010 A 
ATOM     36  C   UNL A   1      36.869  32.821  31.991  1.00  0.00    -0.014 A 
BRANCH  36  37
ATOM     37  C   UNL A   1      38.079  32.046  32.366  1.00  0.00     0.031 A 
ATOM     38  C   UNL A   1      38.769  32.326  33.674  1.00  0.00     0.074 A 
ATOM     39  C   UNL A   1      38.567  31.110  31.527  1.00  0.00     0.049 A 
ATOM     40  N   UNL A   1      39.859  31.794  34.162  1.00  0.00    -0.248 NA
ATOM     41  C   UNL A   1      38.164  33.354  34.538  1.00  0.00     0.031 C 
ATOM     42  C   UNL A   1      37.992  30.761  30.227  1.00  0.00     0.029 A 
ATOM     43  N   UNL A   1      39.648  30.275  31.645  1.00  0.00    -0.354 N 
ATOM     44  C   UNL A   1      40.068  32.415  35.388  1.00  0.00     0.074 A 
ATOM     45  C   UNL A   1      39.030  33.412  35.539  1.00  0.00     0.031 C 
ATOM     46  C   UNL A   1      38.702  29.756  29.688  1.00  0.00     0.029 A 
ATOM     47  C   UNL A   1      39.808  29.419  30.579  1.00  0.00     0.049 A 
ATOM     48  H   UNL A   1      40.256  30.287  32.420  1.00  0.00     0.167 HD
ATOM     49  C   UNL A   1      41.018  32.158  36.316  1.00  0.00     0.034 A 
ATOM     50  C   UNL A   1      40.739  28.473  30.345  1.00  0.00     0.034 A 
ATOM     51  C   UNL A   1      42.035  31.149  36.167  1.00  0.00     0.049 A 
ATOM     52  C   UNL A   1      41.822  28.246  31.369  1.00  0.00     0.074 A 
ATOM     53  C   UNL A   1      43.025  30.788  37.064  1.00  0.00     0.029 A 
ATOM     54  N   UNL A   1      42.192  30.338  35.051  1.00  0.00    -0.354 N 
ATOM     55  N   UNL A   1      41.998  28.841  32.526  1.00  0.00    -0.248 NA
ATOM     56  C   UNL A   1      42.831  27.225  31.056  1.00  0.00     0.031 C 
ATOM     57  C   UNL A   1      43.816  29.803  36.467  1.00  0.00     0.029 A 
ATOM     58  C   UNL A   1      43.281  29.501  35.226  1.00  0.00     0.049 A 
ATOM     59  H   UNL A   1      41.614  30.357  34.255  1.00  0.00     0.167 HD
ATOM     60  C   UNL A   1      43.129  28.253  33.085  1.00  0.00     0.074 A 
ATOM     61  C   UNL A   1      43.585  27.249  32.147  1.00  0.00     0.031 C 
ATOM     62  C   UNL A   1      43.731  28.517  34.271  1.00  0.00     0.034 A 
BRANCH  49  63
ATOM     63  C   UNL A   1      41.004  32.979  37.578  1.00  0.00     0.023 A 
ATOM     64  C   UNL A   1      40.212  32.612  38.678  1.00  0.00     0.031 A 
ATOM     65  C   UNL A   1      41.811  34.124  37.692  1.00  0.00     0.131 A 
ATOM     66  C   UNL A   1      40.212  33.407  39.835  1.00  0.00     0.055 A 
ATOM     67  C   UNL A   1      41.854  34.875  38.868  1.00  0.00     0.041 A 
ATOM     68  F   UNL A   1      42.573  34.529  36.664  1.00  0.00    -0.206 F 
ATOM     69  C   UNL A   1      41.047  34.521  39.946  1.00  0.00     0.022 A 
BRANCH  66  70
ATOM     70  S   UNL A   1      39.048  33.004  41.164  1.00  0.00     0.124 S 
ATOM     71  O   UNL A   1      39.304  34.083  42.115  1.00  0.00    -0.237 OA
ATOM     72  O   UNL A   1      37.759  33.047  40.482  1.00  0.00    -0.237 OA
ATOM     73  O   UNL A   1      39.477  31.678  41.603  1.00  0.00    -0.744 OA
ENDBRANCH  66  70
ENDBRANCH  49  63
BRANCH  50  74
ATOM     74  C   UNL A   1      40.696  27.670  29.092  1.00  0.00     0.023 A 
ATOM     75  C   UNL A   1      41.593  27.924  28.042  1.00  0.00     0.031 A 
ATOM     76  C   UNL A   1      39.752  26.643  28.921  1.00  0.00     0.131 A 
ATOM     77  C   UNL A   1      41.509  27.178  26.856  1.00  0.00     0.055 A 
ATOM     78  C   UNL A   1      39.699  25.876  27.755  1.00  0.00     0.041 A 
ATOM     79  F   UNL A   1      38.876  26.356  29.899  1.00  0.00    -0.206 F 
ATOM     80  C   UNL A   1      40.577  26.147  26.711  1.00  0.00     0.022 A 
BRANCH  77  81
ATOM     81  S   UNL A   1      42.615  27.600  25.482  1.00  0.00     0.124 S 
ATOM     82  O   UNL A   1      41.997  28.816  24.967  1.00  0.00    -0.237 OA
ATOM     83  O   UNL A   1      43.896  27.767  26.161  1.00  0.00    -0.237 OA
ATOM     84  O   UNL A   1      42.526  26.434  24.605  1.00  0.00    -0.744 OA
ENDBRANCH  77  81
ENDBRANCH  50  74
BRANCH  62  85
ATOM     85  C   UNL A   1      44.946  27.703  34.631  1.00  0.00     0.023 A 
ATOM     86  C   UNL A   1      44.827  26.454  35.259  1.00  0.00     0.031 A 
ATOM     87  C   UNL A   1      46.232  28.160  34.291  1.00  0.00     0.131 A 
ATOM     88  C   UNL A   1      45.979  25.710  35.553  1.00  0.00     0.055 A 
ATOM     89  C   UNL A   1      47.370  27.395  34.542  1.00  0.00     0.041 A 
ATOM     90  F   UNL A   1      46.397  29.347  33.685  1.00  0.00    -0.206 F 
ATOM     91  C   UNL A   1      47.248  26.163  35.182  1.00  0.00     0.022 A 
BRANCH  88  92
ATOM     92  S   UNL A   1      45.800  24.150  36.460  1.00  0.00     0.124 S 
ATOM     93  O   UNL A   1      44.695  24.451  37.363  1.00  0.00    -0.237 OA
ATOM     94  O   UNL A   1      45.510  23.197  35.394  1.00  0.00    -0.237 OA
ATOM     95  O   UNL A   1      47.100  23.977  37.106  1.00  0.00    -0.744 OA
ENDBRANCH  88  92
ENDBRANCH  62  85
ENDBRANCH  36  37
ENDBRANCH  28  31
ENDBRANCH  26  27
ENDBRANCH  25  26
ENDBRANCH   1  25
TORSDOF 18
ENDMDL
MODEL 3
REMARK VINA RESULT:     -11.4      1.564      7.647
REMARK SMILES Cc1cc(=O)cc(C)n1C[C@H]1CCCC[C@@H]1C(=O)NCCCCCCNC(=O)c1ccc(-c2c3nc(c(-c4cc(S(=O)(=O)[O-])ccc4F)c4ccc([nH]4)c(-c4cc(S(=O)(=O)[O-])ccc4F)c4nc(c(-c5cc(S(=O)(=O)[O-])ccc5F)c5ccc2[nH]5)C=C4)C=C3)cc1
REMARK SMILES IDX 23 1 22 2 21 3 20 4 19 5 17 6 18 7 16 9 11 10 12 11 13 12
REMARK SMILES IDX 15 13 14 14 10 15 9 16 1 17 2 18 3 19 4 20 7 21 5 22 6 23
REMARK SMILES IDX 8 24 24 25 25 26 26 27 27 28 28 30 29 31 30 32 91 33 31 34
REMARK SMILES IDX 90 35 32 36 33 37 34 38 84 39 35 40 89 41 83 42 85 43 36 44
REMARK SMILES IDX 88 45 82 46 81 47 37 49 69 50 49 51 68 52 50 53 53 54 67 55
REMARK SMILES IDX 86 56 51 57 52 58 66 60 87 61 54 62 38 63 39 64 47 65 40 66
REMARK SMILES IDX 46 67 48 68 45 69 41 70 42 71 43 72 44 73 70 74 71 75 79 76
REMARK SMILES IDX 72 77 78 78 80 79 77 80 73 81 74 82 75 83 76 84 55 85 56 86
REMARK SMILES IDX 64 87 57 88 63 89 65 90 62 91 58 92 59 93 60 94 61 95
REMARK H PARENT 19 8 26 29 85 48 53 59
REMARK Flexibility Score: inf
ROOT
ATOM      1  C   UNL A   1      31.354  30.875  26.123  1.00  0.00     0.002 C 
ENDROOT
BRANCH   1   2
ATOM      2  C   UNL A   1      32.324  30.000  26.923  1.00  0.00     0.002 C 
BRANCH   2   3
ATOM      3  C   UNL A   1      33.676  29.706  26.254  1.00  0.00     0.021 C 
BRANCH   3   4
ATOM      4  C   UNL A   1      34.045  28.228  26.146  1.00  0.00     0.116 C 
BRANCH   4   5
ATOM      5  N   UNL A   1      33.029  27.396  26.746  1.00  0.00    -0.356 N 
ATOM      6  C   UNL A   1      31.896  26.862  26.241  1.00  0.00     0.223 C 
ATOM      7  O   UNL A   1      31.244  26.158  27.014  1.00  0.00    -0.275 OA
ATOM      8  H   UNL A   1      33.192  27.180  27.693  1.00  0.00     0.163 HD
BRANCH   6   9
ATOM      9  C   UNL A   1      31.462  27.136  24.791  1.00  0.00     0.083 C 
ATOM     10  C   UNL A   1      29.962  26.783  24.533  1.00  0.00     0.021 C 
ATOM     11  C   UNL A   1      29.804  25.263  24.712  1.00  0.00     0.006 C 
ATOM     12  C   UNL A   1      30.708  24.450  23.779  1.00  0.00     0.000 C 
ATOM     13  C   UNL A   1      32.397  26.363  23.839  1.00  0.00     0.014 C 
ATOM     14  C   UNL A   1      32.177  24.848  23.843  1.00  0.00     0.001 C 
BRANCH  10  15
ATOM     15  C   UNL A   1      29.505  27.289  23.124  1.00  0.00     0.126 C 
BRANCH  15  16
ATOM     16  N   UNL A   1      29.036  28.717  23.064  1.00  0.00    -0.349 N 
ATOM     17  C   UNL A   1      31.249  29.408  21.996  1.00  0.00     0.064 C 
ATOM     18  C   UNL A   1      29.903  29.747  22.591  1.00  0.00     0.018 A 
ATOM     19  C   UNL A   1      29.550  31.047  22.575  1.00  0.00     0.073 A 
ATOM     20  C   UNL A   1      28.218  31.453  23.043  1.00  0.00     0.182 A 
ATOM     21  C   UNL A   1      27.691  29.091  23.353  1.00  0.00     0.018 A 
ATOM     22  O   UNL A   1      27.877  32.628  23.085  1.00  0.00    -0.290 OA
ATOM     23  C   UNL A   1      27.284  30.374  23.385  1.00  0.00     0.073 A 
ATOM     24  C   UNL A   1      26.593  28.075  23.533  1.00  0.00     0.064 C 
ENDBRANCH  15  16
ENDBRANCH  10  15
ENDBRANCH   6   9
ENDBRANCH   4   5
ENDBRANCH   3   4
ENDBRANCH   2   3
ENDBRANCH   1   2
BRANCH   1  25
ATOM     25  C   UNL A   1      31.314  32.346  26.535  1.00  0.00     0.021 C 
BRANCH  25  26
ATOM     26  C   UNL A   1      32.664  32.938  26.921  1.00  0.00     0.116 C 
BRANCH  26  27
ATOM     27  N   UNL A   1      32.531  34.190  27.643  1.00  0.00    -0.352 N 
ATOM     28  C   UNL A   1      33.217  34.625  28.753  1.00  0.00     0.251 C 
ATOM     29  H   UNL A   1      31.858  34.816  27.289  1.00  0.00     0.163 HD
ATOM     30  O   UNL A   1      32.854  35.631  29.345  1.00  0.00    -0.269 OA
BRANCH  28  31
ATOM     31  C   UNL A   1      34.379  33.845  29.237  1.00  0.00     0.039 A 
ATOM     32  C   UNL A   1      35.666  34.296  28.939  1.00  0.00     0.014 A 
ATOM     33  C   UNL A   1      34.196  32.684  29.995  1.00  0.00     0.014 A 
ATOM     34  C   UNL A   1      36.770  33.614  29.453  1.00  0.00     0.010 A 
ATOM     35  C   UNL A   1      35.294  32.050  30.567  1.00  0.00     0.010 A 
ATOM     36  C   UNL A   1      36.594  32.504  30.296  1.00  0.00    -0.014 A 
BRANCH  36  37
ATOM     37  C   UNL A   1      37.760  31.791  30.875  1.00  0.00     0.031 A 
ATOM     38  C   UNL A   1      38.193  32.089  32.285  1.00  0.00     0.074 A 
ATOM     39  C   UNL A   1      38.438  30.894  30.131  1.00  0.00     0.049 A 
ATOM     40  N   UNL A   1      39.208  31.609  32.955  1.00  0.00    -0.248 NA
ATOM     41  C   UNL A   1      37.390  33.071  33.033  1.00  0.00     0.031 C 
ATOM     42  C   UNL A   1      38.121  30.532  28.748  1.00  0.00     0.029 A 
ATOM     43  N   UNL A   1      39.527  30.116  30.434  1.00  0.00    -0.354 N 
ATOM     44  C   UNL A   1      39.164  32.225  34.201  1.00  0.00     0.074 A 
ATOM     45  C   UNL A   1      38.062  33.162  34.171  1.00  0.00     0.031 C 
ATOM     46  C   UNL A   1      38.969  29.574  28.339  1.00  0.00     0.029 A 
ATOM     47  C   UNL A   1      39.918  29.284  29.409  1.00  0.00     0.049 A 
ATOM     48  H   UNL A   1      39.987  30.150  31.304  1.00  0.00     0.167 HD
ATOM     49  C   UNL A   1      39.949  32.005  35.281  1.00  0.00     0.034 A 
ATOM     50  C   UNL A   1      40.927  28.393  29.340  1.00  0.00     0.034 A 
ATOM     51  C   UNL A   1      41.030  31.055  35.309  1.00  0.00     0.049 A 
ATOM     52  C   UNL A   1      41.824  28.210  30.537  1.00  0.00     0.074 A 
ATOM     53  C   UNL A   1      41.865  30.735  36.365  1.00  0.00     0.029 A 
ATOM     54  N   UNL A   1      41.425  30.269  34.235  1.00  0.00    -0.354 N 
ATOM     55  N   UNL A   1      41.761  28.798  31.709  1.00  0.00    -0.248 NA
ATOM     56  C   UNL A   1      42.926  27.250  30.402  1.00  0.00     0.031 C 
ATOM     57  C   UNL A   1      42.803  29.802  35.913  1.00  0.00     0.029 A 
ATOM     58  C   UNL A   1      42.511  29.489  34.595  1.00  0.00     0.049 A 
ATOM     59  H   UNL A   1      40.996  30.267  33.349  1.00  0.00     0.167 HD
ATOM     60  C   UNL A   1      42.806  28.264  32.456  1.00  0.00     0.074 A 
ATOM     61  C   UNL A   1      43.475  27.299  31.609  1.00  0.00     0.031 C 
ATOM     62  C   UNL A   1      43.175  28.544  33.731  1.00  0.00     0.034 A 
BRANCH  49  63
ATOM     63  C   UNL A   1      39.669  32.808  36.524  1.00  0.00     0.023 A 
ATOM     64  C   UNL A   1      38.765  32.352  37.498  1.00  0.00     0.031 A 
ATOM     65  C   UNL A   1      40.331  34.026  36.751  1.00  0.00     0.131 A 
ATOM     66  C   UNL A   1      38.516  33.129  38.638  1.00  0.00     0.055 A 
ATOM     67  C   UNL A   1      40.126  34.764  37.918  1.00  0.00     0.041 A 
ATOM     68  F   UNL A   1      41.191  34.516  35.844  1.00  0.00    -0.206 F 
ATOM     69  C   UNL A   1      39.210  34.320  38.866  1.00  0.00     0.022 A 
BRANCH  66  70
ATOM     70  S   UNL A   1      37.216  32.598  39.784  1.00  0.00     0.124 S 
ATOM     71  O   UNL A   1      36.047  32.572  38.909  1.00  0.00    -0.237 OA
ATOM     72  O   UNL A   1      37.703  31.301  40.239  1.00  0.00    -0.237 OA
ATOM     73  O   UNL A   1      37.206  33.650  40.799  1.00  0.00    -0.744 OA
ENDBRANCH  66  70
ENDBRANCH  49  63
BRANCH  50  74
ATOM     74  C   UNL A   1      41.149  27.606  28.095  1.00  0.00     0.023 A 
ATOM     75  C   UNL A   1      40.839  26.238  28.043  1.00  0.00     0.031 A 
ATOM     76  C   UNL A   1      41.683  28.208  26.942  1.00  0.00     0.131 A 
ATOM     77  C   UNL A   1      41.092  25.510  26.870  1.00  0.00     0.055 A 
ATOM     78  C   UNL A   1      41.894  27.489  25.764  1.00  0.00     0.041 A 
ATOM     79  F   UNL A   1      41.989  29.516  26.938  1.00  0.00    -0.206 F 
ATOM     80  C   UNL A   1      41.604  26.128  25.726  1.00  0.00     0.022 A 
BRANCH  77  81
ATOM     81  S   UNL A   1      40.776  23.723  26.869  1.00  0.00     0.124 S 
ATOM     82  O   UNL A   1      39.374  23.671  26.469  1.00  0.00    -0.237 OA
ATOM     83  O   UNL A   1      41.744  23.242  25.889  1.00  0.00    -0.237 OA
ATOM     84  O   UNL A   1      41.046  23.331  28.251  1.00  0.00    -0.744 OA
ENDBRANCH  77  81
ENDBRANCH  50  74
BRANCH  62  85
ATOM     85  C   UNL A   1      44.351  27.791  34.295  1.00  0.00     0.023 A 
ATOM     86  C   UNL A   1      44.185  26.557  34.944  1.00  0.00     0.031 A 
ATOM     87  C   UNL A   1      45.657  28.289  34.134  1.00  0.00     0.131 A 
ATOM     88  C   UNL A   1      45.305  25.871  35.432  1.00  0.00     0.055 A 
ATOM     89  C   UNL A   1      46.771  27.579  34.578  1.00  0.00     0.041 A 
ATOM     90  F   UNL A   1      45.867  29.463  33.516  1.00  0.00    -0.206 F 
ATOM     91  C   UNL A   1      46.599  26.364  35.236  1.00  0.00     0.022 A 
BRANCH  88  92
ATOM     92  S   UNL A   1      45.049  24.333  36.358  1.00  0.00     0.124 S 
ATOM     93  O   UNL A   1      43.901  23.754  35.669  1.00  0.00    -0.237 OA
ATOM     94  O   UNL A   1      46.319  23.638  36.174  1.00  0.00    -0.237 OA
ATOM     95  O   UNL A   1      44.788  24.792  37.721  1.00  0.00    -0.744 OA
ENDBRANCH  88  92
ENDBRANCH  62  85
ENDBRANCH  36  37
ENDBRANCH  28  31
ENDBRANCH  26  27
ENDBRANCH  25  26
ENDBRANCH   1  25
TORSDOF 18
ENDMDL
