MODEL 1
REMARK VINA RESULT:      -9.7      0.000      0.000
REMARK SMILES CCCC(O)(CCC)[C@@]1(C)CC[C@@H](C(=O)NCCCCCCNC(=O)c2ccc(-c3c4nc(c(-c5cc(S(=O)(=O)[O-])ccc5F)c5ccc([nH]5)c(-c5cc(S(=O)(=O)[O-])ccc5F)c5nc(c(-c6cc(S(=O)(=O)[O-])ccc6F)c6ccc3[nH]6)C=C5)C=C4)cc2)C(C)(C)O1
REMARK SMILES IDX 19 1 18 2 17 3 16 4 14 5 15 6 13 8 9 9 10 10 11 11 92 12
REMARK SMILES IDX 12 13 89 14 90 15 91 16 4 17 3 18 2 19 1 20 5 21 6 23 7 24
REMARK SMILES IDX 8 25 20 26 21 27 22 28 23 29 24 30 25 32 26 33 27 34 88 35
REMARK SMILES IDX 28 36 87 37 29 38 30 39 31 40 81 41 32 42 86 43 80 44 82 45
REMARK SMILES IDX 33 46 85 47 79 48 78 49 34 51 66 52 46 53 65 54 47 55 50 56
REMARK SMILES IDX 64 57 83 58 48 59 49 60 63 62 84 63 51 64 35 65 36 66 44 67
REMARK SMILES IDX 37 68 43 69 45 70 42 71 38 72 39 73 40 74 41 75 67 76 68 77
REMARK SMILES IDX 76 78 69 79 75 80 77 81 74 82 70 83 71 84 72 85 73 86 52 87
REMARK SMILES IDX 53 88 61 89 54 90 60 91 62 92 59 93 55 94 56 95 57 96 58 97
REMARK H PARENT 16 7 5 22 23 31 82 50 50 61
REMARK Flexibility Score: inf
ROOT
ATOM      1  C   UNL A   1      38.015  22.724  26.123  1.00  0.00     0.002 C 
ENDROOT
BRANCH   1   2
ATOM      2  C   UNL A   1      37.375  21.696  25.189  1.00  0.00     0.021 C 
BRANCH   2   3
ATOM      3  C   UNL A   1      35.871  21.866  25.010  1.00  0.00     0.116 C 
BRANCH   3   4
ATOM      4  N   UNL A   1      35.249  22.767  25.953  1.00  0.00    -0.356 N 
ATOM      5  C   UNL A   1      34.130  23.518  25.807  1.00  0.00     0.226 C 
ATOM      6  O   UNL A   1      33.411  23.569  26.818  1.00  0.00    -0.275 OA
ATOM      7  H   UNL A   1      35.700  22.845  26.824  1.00  0.00     0.163 HD
BRANCH   5   8
ATOM      8  C   UNL A   1      33.714  24.362  24.583  1.00  0.00     0.110 C 
ATOM      9  C   UNL A   1      31.860  26.521  23.450  1.00  0.00     0.095 C 
ATOM     10  C   UNL A   1      31.513  26.660  21.947  1.00  0.00     0.045 C 
ATOM     11  C   UNL A   1      33.356  26.777  23.722  1.00  0.00     0.039 C 
ATOM     12  O   UNL A   1      31.556  25.132  23.716  1.00  0.00    -0.366 OA
ATOM     13  C   UNL A   1      33.923  25.881  24.838  1.00  0.00     0.019 C 
ATOM     14  C   UNL A   1      32.530  24.080  23.614  1.00  0.00     0.075 C 
ATOM     15  C   UNL A   1      31.665  22.824  23.809  1.00  0.00     0.043 C 
ATOM     16  C   UNL A   1      33.135  23.855  22.200  1.00  0.00     0.043 C 
BRANCH   9  17
ATOM     17  C   UNL A   1      30.862  27.475  24.354  1.00  0.00     0.093 C 
BRANCH  17  18
ATOM     18  C   UNL A   1      31.168  27.605  25.893  1.00  0.00     0.038 C 
BRANCH  18  19
ATOM     19  C   UNL A   1      31.877  28.796  26.539  1.00  0.00    -0.000 C 
ATOM     20  C   UNL A   1      33.108  28.513  27.338  1.00  0.00     0.004 C 
ENDBRANCH  18  19
ENDBRANCH  17  18
BRANCH  17  21
ATOM     21  O   UNL A   1      29.523  26.954  24.186  1.00  0.00    -0.387 OA
ATOM     22  H   UNL A   1      29.039  27.503  23.551  1.00  0.00     0.211 HD
ENDBRANCH  17  21
BRANCH  17  23
ATOM     23  C   UNL A   1      30.746  28.962  23.837  1.00  0.00     0.038 C 
BRANCH  23  24
ATOM     24  C   UNL A   1      29.425  29.420  23.190  1.00  0.00    -0.000 C 
ATOM     25  C   UNL A   1      29.568  30.194  21.892  1.00  0.00     0.004 C 
ENDBRANCH  23  24
ENDBRANCH  17  23
ENDBRANCH   9  17
ENDBRANCH   5   8
ENDBRANCH   3   4
ENDBRANCH   2   3
ENDBRANCH   1   2
BRANCH   1  26
ATOM     26  C   UNL A   1      39.437  22.403  26.603  1.00  0.00     0.002 C 
BRANCH  26  27
ATOM     27  C   UNL A   1      40.197  21.332  25.813  1.00  0.00     0.021 C 
BRANCH  27  28
ATOM     28  C   UNL A   1      40.765  20.184  26.644  1.00  0.00     0.116 C 
BRANCH  28  29
ATOM     29  N   UNL A   1      41.826  19.472  25.949  1.00  0.00    -0.352 N 
ATOM     30  C   UNL A   1      43.044  19.913  25.499  1.00  0.00     0.251 C 
ATOM     31  H   UNL A   1      41.639  18.521  25.774  1.00  0.00     0.163 HD
ATOM     32  O   UNL A   1      43.706  19.206  24.749  1.00  0.00    -0.269 OA
BRANCH  30  33
ATOM     33  C   UNL A   1      43.540  21.245  25.903  1.00  0.00     0.039 A 
ATOM     34  C   UNL A   1      43.758  22.211  24.917  1.00  0.00     0.014 A 
ATOM     35  C   UNL A   1      43.802  21.535  27.245  1.00  0.00     0.014 A 
ATOM     36  C   UNL A   1      44.167  23.494  25.287  1.00  0.00     0.010 A 
ATOM     37  C   UNL A   1      44.145  22.831  27.617  1.00  0.00     0.010 A 
ATOM     38  C   UNL A   1      44.323  23.825  26.643  1.00  0.00    -0.014 A 
BRANCH  38  39
ATOM     39  C   UNL A   1      44.644  25.211  27.067  1.00  0.00     0.031 A 
ATOM     40  C   UNL A   1      43.559  26.110  27.591  1.00  0.00     0.074 A 
ATOM     41  C   UNL A   1      45.897  25.679  26.902  1.00  0.00     0.049 A 
ATOM     42  N   UNL A   1      43.615  27.378  27.904  1.00  0.00    -0.248 NA
ATOM     43  C   UNL A   1      42.228  25.506  27.758  1.00  0.00     0.031 C 
ATOM     44  C   UNL A   1      47.024  24.904  26.376  1.00  0.00     0.029 A 
ATOM     45  N   UNL A   1      46.434  26.920  27.141  1.00  0.00    -0.354 N 
ATOM     46  C   UNL A   1      42.328  27.729  28.295  1.00  0.00     0.074 A 
ATOM     47  C   UNL A   1      41.503  26.551  28.126  1.00  0.00     0.031 C 
ATOM     48  C   UNL A   1      48.117  25.682  26.347  1.00  0.00     0.029 A 
ATOM     49  C   UNL A   1      47.761  27.024  26.795  1.00  0.00     0.049 A 
ATOM     50  H   UNL A   1      45.917  27.665  27.525  1.00  0.00     0.167 HD
ATOM     51  C   UNL A   1      41.883  28.921  28.767  1.00  0.00     0.034 A 
ATOM     52  C   UNL A   1      48.591  28.086  26.809  1.00  0.00     0.034 A 
ATOM     53  C   UNL A   1      42.726  30.080  28.930  1.00  0.00     0.049 A 
ATOM     54  C   UNL A   1      48.058  29.416  27.283  1.00  0.00     0.074 A 
ATOM     55  C   UNL A   1      42.396  31.316  29.456  1.00  0.00     0.029 A 
ATOM     56  N   UNL A   1      44.060  30.154  28.552  1.00  0.00    -0.354 N 
ATOM     57  N   UNL A   1      46.851  29.718  27.703  1.00  0.00    -0.248 NA
ATOM     58  C   UNL A   1      48.996  30.545  27.285  1.00  0.00     0.031 C 
ATOM     59  C   UNL A   1      43.503  32.159  29.322  1.00  0.00     0.029 A 
ATOM     60  C   UNL A   1      44.553  31.428  28.791  1.00  0.00     0.049 A 
ATOM     61  H   UNL A   1      44.581  29.411  28.170  1.00  0.00     0.167 HD
ATOM     62  C   UNL A   1      46.894  31.067  28.044  1.00  0.00     0.074 A 
ATOM     63  C   UNL A   1      48.249  31.513  27.795  1.00  0.00     0.031 C 
ATOM     64  C   UNL A   1      45.905  31.863  28.521  1.00  0.00     0.034 A 
BRANCH  51  65
ATOM     65  C   UNL A   1      40.416  29.034  29.108  1.00  0.00     0.023 A 
ATOM     66  C   UNL A   1      39.962  29.026  30.438  1.00  0.00     0.031 A 
ATOM     67  C   UNL A   1      39.455  29.137  28.087  1.00  0.00     0.131 A 
ATOM     68  C   UNL A   1      38.586  29.047  30.710  1.00  0.00     0.055 A 
ATOM     69  C   UNL A   1      38.090  29.241  28.367  1.00  0.00     0.041 A 
ATOM     70  F   UNL A   1      39.823  29.128  26.797  1.00  0.00    -0.206 F 
ATOM     71  C   UNL A   1      37.648  29.181  29.685  1.00  0.00     0.022 A 
BRANCH  68  72
ATOM     72  S   UNL A   1      38.036  28.751  32.413  1.00  0.00     0.124 S 
ATOM     73  O   UNL A   1      36.663  29.249  32.371  1.00  0.00    -0.237 OA
ATOM     74  O   UNL A   1      38.188  27.307  32.547  1.00  0.00    -0.237 OA
ATOM     75  O   UNL A   1      38.958  29.554  33.215  1.00  0.00    -0.744 OA
ENDBRANCH  68  72
ENDBRANCH  51  65
BRANCH  52  76
ATOM     76  C   UNL A   1      49.998  27.953  26.332  1.00  0.00     0.023 A 
ATOM     77  C   UNL A   1      51.064  27.869  27.240  1.00  0.00     0.031 A 
ATOM     78  C   UNL A   1      50.302  27.950  24.959  1.00  0.00     0.131 A 
ATOM     79  C   UNL A   1      52.386  27.833  26.768  1.00  0.00     0.055 A 
ATOM     80  C   UNL A   1      51.614  27.854  24.492  1.00  0.00     0.041 A 
ATOM     81  F   UNL A   1      49.321  28.028  24.045  1.00  0.00    -0.206 F 
ATOM     82  C   UNL A   1      52.667  27.809  25.399  1.00  0.00     0.022 A 
BRANCH  79  83
ATOM     83  S   UNL A   1      53.741  27.913  27.970  1.00  0.00     0.124 S 
ATOM     84  O   UNL A   1      53.471  29.183  28.635  1.00  0.00    -0.237 OA
ATOM     85  O   UNL A   1      53.512  26.711  28.765  1.00  0.00    -0.237 OA
ATOM     86  O   UNL A   1      54.939  27.887  27.134  1.00  0.00    -0.744 OA
ENDBRANCH  79  83
ENDBRANCH  52  76
BRANCH  64  87
ATOM     87  C   UNL A   1      46.264  33.294  28.838  1.00  0.00     0.023 A 
ATOM     88  C   UNL A   1      46.019  34.335  27.927  1.00  0.00     0.031 A 
ATOM     89  C   UNL A   1      46.848  33.620  30.075  1.00  0.00     0.131 A 
ATOM     90  C   UNL A   1      46.394  35.649  28.249  1.00  0.00     0.055 A 
ATOM     91  C   UNL A   1      47.162  34.936  30.415  1.00  0.00     0.041 A 
ATOM     92  F   UNL A   1      47.107  32.664  30.981  1.00  0.00    -0.206 F 
ATOM     93  C   UNL A   1      46.945  35.958  29.496  1.00  0.00     0.022 A 
BRANCH  90  94
ATOM     94  S   UNL A   1      46.219  36.941  26.990  1.00  0.00     0.124 S 
ATOM     95  O   UNL A   1      46.811  36.304  25.818  1.00  0.00    -0.237 OA
ATOM     96  O   UNL A   1      44.773  37.141  26.944  1.00  0.00    -0.237 OA
ATOM     97  O   UNL A   1      46.981  38.061  27.539  1.00  0.00    -0.744 OA
ENDBRANCH  90  94
ENDBRANCH  64  87
ENDBRANCH  38  39
ENDBRANCH  30  33
ENDBRANCH  28  29
ENDBRANCH  27  28
ENDBRANCH  26  27
ENDBRANCH   1  26
TORSDOF 22
ENDMDL
MODEL 2
REMARK VINA RESULT:      -9.7      1.893      2.146
REMARK SMILES CCCC(O)(CCC)[C@@]1(C)CC[C@@H](C(=O)NCCCCCCNC(=O)c2ccc(-c3c4nc(c(-c5cc(S(=O)(=O)[O-])ccc5F)c5ccc([nH]5)c(-c5cc(S(=O)(=O)[O-])ccc5F)c5nc(c(-c6cc(S(=O)(=O)[O-])ccc6F)c6ccc3[nH]6)C=C5)C=C4)cc2)C(C)(C)O1
REMARK SMILES IDX 19 1 18 2 17 3 16 4 14 5 15 6 13 8 9 9 10 10 11 11 92 12
REMARK SMILES IDX 12 13 89 14 90 15 91 16 4 17 3 18 2 19 1 20 5 21 6 23 7 24
REMARK SMILES IDX 8 25 20 26 21 27 22 28 23 29 24 30 25 32 26 33 27 34 88 35
REMARK SMILES IDX 28 36 87 37 29 38 30 39 31 40 81 41 32 42 86 43 80 44 82 45
REMARK SMILES IDX 33 46 85 47 79 48 78 49 34 51 66 52 46 53 65 54 47 55 50 56
REMARK SMILES IDX 64 57 83 58 48 59 49 60 63 62 84 63 51 64 35 65 36 66 44 67
REMARK SMILES IDX 37 68 43 69 45 70 42 71 38 72 39 73 40 74 41 75 67 76 68 77
REMARK SMILES IDX 76 78 69 79 75 80 77 81 74 82 70 83 71 84 72 85 73 86 52 87
REMARK SMILES IDX 53 88 61 89 54 90 60 91 62 92 59 93 55 94 56 95 57 96 58 97
REMARK H PARENT 16 7 5 22 23 31 82 50 50 61
REMARK Flexibility Score: inf
ROOT
ATOM      1  C   UNL A   1      38.255  22.596  26.130  1.00  0.00     0.002 C 
ENDROOT
BRANCH   1   2
ATOM      2  C   UNL A   1      37.589  21.622  25.157  1.00  0.00     0.021 C 
BRANCH   2   3
ATOM      3  C   UNL A   1      36.092  21.849  24.973  1.00  0.00     0.116 C 
BRANCH   3   4
ATOM      4  N   UNL A   1      35.513  22.816  25.877  1.00  0.00    -0.356 N 
ATOM      5  C   UNL A   1      34.382  23.549  25.735  1.00  0.00     0.226 C 
ATOM      6  O   UNL A   1      33.716  23.673  26.776  1.00  0.00    -0.275 OA
ATOM      7  H   UNL A   1      36.009  22.961  26.715  1.00  0.00     0.163 HD
BRANCH   5   8
ATOM      8  C   UNL A   1      33.896  24.297  24.474  1.00  0.00     0.110 C 
ATOM      9  C   UNL A   1      31.933  26.317  23.272  1.00  0.00     0.095 C 
ATOM     10  C   UNL A   1      31.530  26.346  21.777  1.00  0.00     0.045 C 
ATOM     11  C   UNL A   1      33.428  26.637  23.471  1.00  0.00     0.039 C 
ATOM     12  O   UNL A   1      31.685  24.940  23.639  1.00  0.00    -0.366 OA
ATOM     13  C   UNL A   1      34.062  25.835  24.622  1.00  0.00     0.019 C 
ATOM     14  C   UNL A   1      32.689  23.915  23.570  1.00  0.00     0.075 C 
ATOM     15  C   UNL A   1      31.874  22.648  23.878  1.00  0.00     0.043 C 
ATOM     16  C   UNL A   1      33.251  23.615  22.152  1.00  0.00     0.043 C 
BRANCH   9  17
ATOM     17  C   UNL A   1      30.935  27.298  24.148  1.00  0.00     0.093 C 
BRANCH  17  18
ATOM     18  C   UNL A   1      31.158  27.367  25.705  1.00  0.00     0.038 C 
BRANCH  18  19
ATOM     19  C   UNL A   1      31.719  28.580  26.448  1.00  0.00    -0.000 C 
ATOM     20  C   UNL A   1      33.058  28.431  27.095  1.00  0.00     0.004 C 
ENDBRANCH  18  19
ENDBRANCH  17  18
BRANCH  17  21
ATOM     21  O   UNL A   1      29.583  26.855  23.888  1.00  0.00    -0.387 OA
ATOM     22  H   UNL A   1      29.166  27.447  23.244  1.00  0.00     0.211 HD
ENDBRANCH  17  21
BRANCH  17  23
ATOM     23  C   UNL A   1      30.927  28.803  23.672  1.00  0.00     0.038 C 
BRANCH  23  24
ATOM     24  C   UNL A   1      29.593  29.432  23.229  1.00  0.00    -0.000 C 
ATOM     25  C   UNL A   1      29.603  30.086  21.859  1.00  0.00     0.004 C 
ENDBRANCH  23  24
ENDBRANCH  17  23
ENDBRANCH   9  17
ENDBRANCH   5   8
ENDBRANCH   3   4
ENDBRANCH   2   3
ENDBRANCH   1   2
BRANCH   1  26
ATOM     26  C   UNL A   1      39.593  22.139  26.727  1.00  0.00     0.002 C 
BRANCH  26  27
ATOM     27  C   UNL A   1      40.413  21.155  25.886  1.00  0.00     0.021 C 
BRANCH  27  28
ATOM     28  C   UNL A   1      41.306  20.202  26.677  1.00  0.00     0.116 C 
BRANCH  28  29
ATOM     29  N   UNL A   1      42.336  19.595  25.848  1.00  0.00    -0.352 N 
ATOM     30  C   UNL A   1      43.459  20.144  25.283  1.00  0.00     0.251 C 
ATOM     31  H   UNL A   1      42.206  18.636  25.663  1.00  0.00     0.163 HD
ATOM     32  O   UNL A   1      44.087  19.511  24.443  1.00  0.00    -0.269 OA
BRANCH  30  33
ATOM     33  C   UNL A   1      43.891  21.501  25.675  1.00  0.00     0.039 A 
ATOM     34  C   UNL A   1      43.632  22.568  24.809  1.00  0.00     0.014 A 
ATOM     35  C   UNL A   1      44.560  21.719  26.882  1.00  0.00     0.014 A 
ATOM     36  C   UNL A   1      43.978  23.865  25.190  1.00  0.00     0.010 A 
ATOM     37  C   UNL A   1      44.844  23.020  27.289  1.00  0.00     0.010 A 
ATOM     38  C   UNL A   1      44.548  24.106  26.451  1.00  0.00    -0.014 A 
BRANCH  38  39
ATOM     39  C   UNL A   1      44.817  25.487  26.925  1.00  0.00     0.031 A 
ATOM     40  C   UNL A   1      43.706  26.314  27.507  1.00  0.00     0.074 A 
ATOM     41  C   UNL A   1      46.045  26.016  26.756  1.00  0.00     0.049 A 
ATOM     42  N   UNL A   1      43.713  27.570  27.871  1.00  0.00    -0.248 NA
ATOM     43  C   UNL A   1      42.406  25.646  27.675  1.00  0.00     0.031 C 
ATOM     44  C   UNL A   1      47.194  25.313  26.177  1.00  0.00     0.029 A 
ATOM     45  N   UNL A   1      46.533  27.268  27.036  1.00  0.00    -0.354 N 
ATOM     46  C   UNL A   1      42.421  27.848  28.301  1.00  0.00     0.074 A 
ATOM     47  C   UNL A   1      41.644  26.642  28.100  1.00  0.00     0.031 C 
ATOM     48  C   UNL A   1      48.251  26.138  26.159  1.00  0.00     0.029 A 
ATOM     49  C   UNL A   1      47.847  27.444  26.669  1.00  0.00     0.049 A 
ATOM     50  H   UNL A   1      45.992  27.973  27.460  1.00  0.00     0.167 HD
ATOM     51  C   UNL A   1      41.935  28.999  28.830  1.00  0.00     0.034 A 
ATOM     52  C   UNL A   1      48.630  28.541  26.711  1.00  0.00     0.034 A 
ATOM     53  C   UNL A   1      42.730  30.186  29.024  1.00  0.00     0.049 A 
ATOM     54  C   UNL A   1      48.049  29.825  27.249  1.00  0.00     0.074 A 
ATOM     55  C   UNL A   1      42.358  31.385  29.608  1.00  0.00     0.029 A 
ATOM     56  N   UNL A   1      44.052  30.334  28.624  1.00  0.00    -0.354 N 
ATOM     57  N   UNL A   1      46.840  30.056  27.705  1.00  0.00    -0.248 NA
ATOM     58  C   UNL A   1      48.938  30.994  27.279  1.00  0.00     0.031 C 
ATOM     59  C   UNL A   1      43.424  32.281  29.487  1.00  0.00     0.029 A 
ATOM     60  C   UNL A   1      44.494  31.619  28.906  1.00  0.00     0.049 A 
ATOM     61  H   UNL A   1      44.596  29.631  28.202  1.00  0.00     0.167 HD
ATOM     62  C   UNL A   1      46.831  31.391  28.100  1.00  0.00     0.074 A 
ATOM     63  C   UNL A   1      48.161  31.907  27.843  1.00  0.00     0.031 C 
ATOM     64  C   UNL A   1      45.819  32.123  28.629  1.00  0.00     0.034 A 
BRANCH  51  65
ATOM     65  C   UNL A   1      40.472  29.033  29.204  1.00  0.00     0.023 A 
ATOM     66  C   UNL A   1      40.048  28.973  30.542  1.00  0.00     0.031 A 
ATOM     67  C   UNL A   1      39.485  29.113  28.205  1.00  0.00     0.131 A 
ATOM     68  C   UNL A   1      38.678  28.921  30.843  1.00  0.00     0.055 A 
ATOM     69  C   UNL A   1      38.123  29.145  28.516  1.00  0.00     0.041 A 
ATOM     70  F   UNL A   1      39.825  29.152  26.908  1.00  0.00    -0.206 F 
ATOM     71  C   UNL A   1      37.713  29.033  29.841  1.00  0.00     0.022 A 
BRANCH  68  72
ATOM     72  S   UNL A   1      38.180  28.559  32.549  1.00  0.00     0.124 S 
ATOM     73  O   UNL A   1      36.910  29.276  32.644  1.00  0.00    -0.237 OA
ATOM     74  O   UNL A   1      38.094  27.103  32.550  1.00  0.00    -0.237 OA
ATOM     75  O   UNL A   1      39.266  29.122  33.350  1.00  0.00    -0.744 OA
ENDBRANCH  68  72
ENDBRANCH  51  65
BRANCH  52  76
ATOM     76  C   UNL A   1      50.031  28.490  26.201  1.00  0.00     0.023 A 
ATOM     77  C   UNL A   1      50.311  28.667  24.838  1.00  0.00     0.031 A 
ATOM     78  C   UNL A   1      51.108  28.222  27.064  1.00  0.00     0.131 A 
ATOM     79  C   UNL A   1      51.627  28.527  24.369  1.00  0.00     0.055 A 
ATOM     80  C   UNL A   1      52.424  28.142  26.603  1.00  0.00     0.041 A 
ATOM     81  F   UNL A   1      50.899  28.045  28.379  1.00  0.00    -0.206 F 
ATOM     82  C   UNL A   1      52.687  28.282  25.245  1.00  0.00     0.022 A 
BRANCH  79  83
ATOM     83  S   UNL A   1      51.922  28.577  22.580  1.00  0.00     0.124 S 
ATOM     84  O   UNL A   1      51.049  27.508  22.107  1.00  0.00    -0.237 OA
ATOM     85  O   UNL A   1      51.514  29.937  22.244  1.00  0.00    -0.237 OA
ATOM     86  O   UNL A   1      53.354  28.312  22.465  1.00  0.00    -0.744 OA
ENDBRANCH  79  83
ENDBRANCH  52  76
BRANCH  64  87
ATOM     87  C   UNL A   1      46.123  33.554  28.997  1.00  0.00     0.023 A 
ATOM     88  C   UNL A   1      46.603  33.904  30.271  1.00  0.00     0.031 A 
ATOM     89  C   UNL A   1      45.942  34.581  28.053  1.00  0.00     0.131 A 
ATOM     90  C   UNL A   1      46.846  35.251  30.581  1.00  0.00     0.055 A 
ATOM     91  C   UNL A   1      46.244  35.911  28.347  1.00  0.00     0.041 A 
ATOM     92  F   UNL A   1      45.482  34.305  26.822  1.00  0.00    -0.206 F 
ATOM     93  C   UNL A   1      46.690  36.254  29.620  1.00  0.00     0.022 A 
BRANCH  90  94
ATOM     94  S   UNL A   1      47.303  35.686  32.280  1.00  0.00     0.124 S 
ATOM     95  O   UNL A   1      46.856  34.514  33.024  1.00  0.00    -0.237 OA
ATOM     96  O   UNL A   1      48.749  35.864  32.181  1.00  0.00    -0.237 OA
ATOM     97  O   UNL A   1      46.546  36.910  32.536  1.00  0.00    -0.744 OA
ENDBRANCH  90  94
ENDBRANCH  64  87
ENDBRANCH  38  39
ENDBRANCH  30  33
ENDBRANCH  28  29
ENDBRANCH  27  28
ENDBRANCH  26  27
ENDBRANCH   1  26
TORSDOF 22
ENDMDL
MODEL 3
REMARK VINA RESULT:      -9.3      1.152      7.509
REMARK SMILES CCCC(O)(CCC)[C@@]1(C)CC[C@@H](C(=O)NCCCCCCNC(=O)c2ccc(-c3c4nc(c(-c5cc(S(=O)(=O)[O-])ccc5F)c5ccc([nH]5)c(-c5cc(S(=O)(=O)[O-])ccc5F)c5nc(c(-c6cc(S(=O)(=O)[O-])ccc6F)c6ccc3[nH]6)C=C5)C=C4)cc2)C(C)(C)O1
REMARK SMILES IDX 19 1 18 2 17 3 16 4 14 5 15 6 13 8 9 9 10 10 11 11 92 12
REMARK SMILES IDX 12 13 89 14 90 15 91 16 4 17 3 18 2 19 1 20 5 21 6 23 7 24
REMARK SMILES IDX 8 25 20 26 21 27 22 28 23 29 24 30 25 32 26 33 27 34 88 35
REMARK SMILES IDX 28 36 87 37 29 38 30 39 31 40 81 41 32 42 86 43 80 44 82 45
REMARK SMILES IDX 33 46 85 47 79 48 78 49 34 51 66 52 46 53 65 54 47 55 50 56
REMARK SMILES IDX 64 57 83 58 48 59 49 60 63 62 84 63 51 64 35 65 36 66 44 67
REMARK SMILES IDX 37 68 43 69 45 70 42 71 38 72 39 73 40 74 41 75 67 76 68 77
REMARK SMILES IDX 76 78 69 79 75 80 77 81 74 82 70 83 71 84 72 85 73 86 52 87
REMARK SMILES IDX 53 88 61 89 54 90 60 91 62 92 59 93 55 94 56 95 57 96 58 97
REMARK H PARENT 16 7 5 22 23 31 82 50 50 61
REMARK Flexibility Score: inf
ROOT
ATOM      1  C   UNL A   1      39.002  21.838  26.086  1.00  0.00     0.002 C 
ENDROOT
BRANCH   1   2
ATOM      2  C   UNL A   1      38.701  23.326  26.273  1.00  0.00     0.021 C 
BRANCH   2   3
ATOM      3  C   UNL A   1      37.224  23.684  26.155  1.00  0.00     0.116 C 
BRANCH   3   4
ATOM      4  N   UNL A   1      36.341  22.555  25.974  1.00  0.00    -0.356 N 
ATOM      5  C   UNL A   1      35.550  22.248  24.918  1.00  0.00     0.226 C 
ATOM      6  O   UNL A   1      35.515  21.040  24.635  1.00  0.00    -0.275 OA
ATOM      7  H   UNL A   1      36.312  21.917  26.724  1.00  0.00     0.163 HD
BRANCH   5   8
ATOM      8  C   UNL A   1      34.645  23.204  24.109  1.00  0.00     0.110 C 
ATOM      9  C   UNL A   1      32.260  25.125  24.124  1.00  0.00     0.095 C 
ATOM     10  C   UNL A   1      31.418  25.467  22.870  1.00  0.00     0.045 C 
ATOM     11  C   UNL A   1      33.715  25.617  23.991  1.00  0.00     0.039 C 
ATOM     12  O   UNL A   1      32.243  23.679  24.131  1.00  0.00    -0.366 OA
ATOM     13  C   UNL A   1      34.731  24.661  24.643  1.00  0.00     0.019 C 
ATOM     14  C   UNL A   1      33.253  22.877  23.498  1.00  0.00     0.075 C 
ATOM     15  C   UNL A   1      32.671  21.461  23.637  1.00  0.00     0.043 C 
ATOM     16  C   UNL A   1      33.376  23.039  21.957  1.00  0.00     0.043 C 
BRANCH   9  17
ATOM     17  C   UNL A   1      31.506  25.681  25.483  1.00  0.00     0.093 C 
BRANCH  17  18
ATOM     18  C   UNL A   1      31.600  24.801  26.785  1.00  0.00     0.038 C 
BRANCH  18  19
ATOM     19  C   UNL A   1      31.288  23.306  26.846  1.00  0.00    -0.000 C 
ATOM     20  C   UNL A   1      29.852  22.908  26.970  1.00  0.00     0.004 C 
ENDBRANCH  18  19
ENDBRANCH  17  18
BRANCH  17  21
ATOM     21  O   UNL A   1      30.113  25.864  25.141  1.00  0.00    -0.387 OA
ATOM     22  H   UNL A   1      29.911  25.370  24.331  1.00  0.00     0.211 HD
ENDBRANCH  17  21
BRANCH  17  23
ATOM     23  C   UNL A   1      31.967  27.122  25.934  1.00  0.00     0.038 C 
BRANCH  23  24
ATOM     24  C   UNL A   1      31.384  28.347  25.206  1.00  0.00    -0.000 C 
ATOM     25  C   UNL A   1      32.262  28.940  24.119  1.00  0.00     0.004 C 
ENDBRANCH  23  24
ENDBRANCH  17  23
ENDBRANCH   9  17
ENDBRANCH   5   8
ENDBRANCH   3   4
ENDBRANCH   2   3
ENDBRANCH   1   2
BRANCH   1  26
ATOM     26  C   UNL A   1      40.465  21.418  26.283  1.00  0.00     0.002 C 
BRANCH  26  27
ATOM     27  C   UNL A   1      40.704  19.965  26.710  1.00  0.00     0.021 C 
BRANCH  27  28
ATOM     28  C   UNL A   1      42.154  19.604  27.022  1.00  0.00     0.116 C 
BRANCH  28  29
ATOM     29  N   UNL A   1      42.890  19.201  25.834  1.00  0.00    -0.352 N 
ATOM     30  C   UNL A   1      43.666  19.939  24.977  1.00  0.00     0.251 C 
ATOM     31  H   UNL A   1      42.820  18.244  25.610  1.00  0.00     0.163 HD
ATOM     32  O   UNL A   1      44.029  19.450  23.914  1.00  0.00    -0.269 OA
BRANCH  30  33
ATOM     33  C   UNL A   1      44.042  21.323  25.332  1.00  0.00     0.039 A 
ATOM     34  C   UNL A   1      43.711  22.358  24.452  1.00  0.00     0.014 A 
ATOM     35  C   UNL A   1      44.727  21.598  26.518  1.00  0.00     0.014 A 
ATOM     36  C   UNL A   1      44.002  23.678  24.799  1.00  0.00     0.010 A 
ATOM     37  C   UNL A   1      44.957  22.919  26.892  1.00  0.00     0.010 A 
ATOM     38  C   UNL A   1      44.589  23.972  26.040  1.00  0.00    -0.014 A 
BRANCH  38  39
ATOM     39  C   UNL A   1      44.803  25.373  26.481  1.00  0.00     0.031 A 
ATOM     40  C   UNL A   1      46.192  25.945  26.528  1.00  0.00     0.074 A 
ATOM     41  C   UNL A   1      43.751  26.098  26.911  1.00  0.00     0.049 A 
ATOM     42  N   UNL A   1      46.595  27.101  26.988  1.00  0.00    -0.248 NA
ATOM     43  C   UNL A   1      47.274  25.090  26.017  1.00  0.00     0.031 C 
ATOM     44  C   UNL A   1      42.361  25.634  26.936  1.00  0.00     0.029 A 
ATOM     45  N   UNL A   1      43.684  27.368  27.428  1.00  0.00    -0.354 N 
ATOM     46  C   UNL A   1      47.976  27.111  26.832  1.00  0.00     0.074 A 
ATOM     47  C   UNL A   1      48.345  25.821  26.286  1.00  0.00     0.031 C 
ATOM     48  C   UNL A   1      41.581  26.610  27.425  1.00  0.00     0.029 A 
ATOM     49  C   UNL A   1      42.416  27.745  27.805  1.00  0.00     0.049 A 
ATOM     50  H   UNL A   1      44.470  27.954  27.519  1.00  0.00     0.167 HD
ATOM     51  C   UNL A   1      48.851  28.111  27.104  1.00  0.00     0.034 A 
ATOM     52  C   UNL A   1      41.978  28.865  28.413  1.00  0.00     0.034 A 
ATOM     53  C   UNL A   1      48.459  29.389  27.645  1.00  0.00     0.049 A 
ATOM     54  C   UNL A   1      42.979  29.940  28.760  1.00  0.00     0.074 A 
ATOM     55  C   UNL A   1      49.251  30.495  27.900  1.00  0.00     0.029 A 
ATOM     56  N   UNL A   1      47.169  29.729  28.031  1.00  0.00    -0.354 N 
ATOM     57  N   UNL A   1      44.275  29.957  28.554  1.00  0.00    -0.248 NA
ATOM     58  C   UNL A   1      42.458  31.145  29.419  1.00  0.00     0.031 C 
ATOM     59  C   UNL A   1      48.458  31.470  28.514  1.00  0.00     0.029 A 
ATOM     60  C   UNL A   1      47.152  31.009  28.566  1.00  0.00     0.049 A 
ATOM     61  H   UNL A   1      46.380  29.147  27.940  1.00  0.00     0.167 HD
ATOM     62  C   UNL A   1      44.721  31.184  29.036  1.00  0.00     0.074 A 
ATOM     63  C   UNL A   1      43.552  31.885  29.526  1.00  0.00     0.031 C 
ATOM     64  C   UNL A   1      45.980  31.688  29.067  1.00  0.00     0.034 A 
BRANCH  51  65
ATOM     65  C   UNL A   1      50.316  27.847  26.850  1.00  0.00     0.023 A 
ATOM     66  C   UNL A   1      51.188  27.459  27.882  1.00  0.00     0.031 A 
ATOM     67  C   UNL A   1      50.852  27.997  25.559  1.00  0.00     0.131 A 
ATOM     68  C   UNL A   1      52.559  27.306  27.622  1.00  0.00     0.055 A 
ATOM     69  C   UNL A   1      52.203  27.762  25.291  1.00  0.00     0.041 A 
ATOM     70  F   UNL A   1      50.075  28.385  24.537  1.00  0.00    -0.206 F 
ATOM     71  C   UNL A   1      53.068  27.430  26.328  1.00  0.00     0.022 A 
BRANCH  68  72
ATOM     72  S   UNL A   1      53.686  27.087  29.026  1.00  0.00     0.124 S 
ATOM     73  O   UNL A   1      54.177  28.448  29.227  1.00  0.00    -0.237 OA
ATOM     74  O   UNL A   1      52.802  26.567  30.063  1.00  0.00    -0.237 OA
ATOM     75  O   UNL A   1      54.682  26.142  28.521  1.00  0.00    -0.744 OA
ENDBRANCH  68  72
ENDBRANCH  51  65
BRANCH  52  76
ATOM     76  C   UNL A   1      40.537  29.020  28.767  1.00  0.00     0.023 A 
ATOM     77  C   UNL A   1      40.105  28.923  30.098  1.00  0.00     0.031 A 
ATOM     78  C   UNL A   1      39.563  29.227  27.773  1.00  0.00     0.131 A 
ATOM     79  C   UNL A   1      38.734  28.984  30.396  1.00  0.00     0.055 A 
ATOM     80  C   UNL A   1      38.207  29.347  28.080  1.00  0.00     0.041 A 
ATOM     81  F   UNL A   1      39.920  29.329  26.482  1.00  0.00    -0.206 F 
ATOM     82  C   UNL A   1      37.784  29.212  29.398  1.00  0.00     0.022 A 
BRANCH  79  83
ATOM     83  S   UNL A   1      38.201  28.668  32.100  1.00  0.00     0.124 S 
ATOM     84  O   UNL A   1      39.131  29.496  32.860  1.00  0.00    -0.237 OA
ATOM     85  O   UNL A   1      36.814  29.121  32.073  1.00  0.00    -0.237 OA
ATOM     86  O   UNL A   1      38.381  27.226  32.250  1.00  0.00    -0.744 OA
ENDBRANCH  79  83
ENDBRANCH  52  76
BRANCH  64  87
ATOM     87  C   UNL A   1      46.151  33.080  29.622  1.00  0.00     0.023 A 
ATOM     88  C   UNL A   1      45.974  34.222  28.823  1.00  0.00     0.031 A 
ATOM     89  C   UNL A   1      46.484  33.265  30.977  1.00  0.00     0.131 A 
ATOM     90  C   UNL A   1      46.170  35.498  29.372  1.00  0.00     0.055 A 
ATOM     91  C   UNL A   1      46.617  34.538  31.533  1.00  0.00     0.041 A 
ATOM     92  F   UNL A   1      46.669  32.210  31.785  1.00  0.00    -0.206 F 
ATOM     93  C   UNL A   1      46.470  35.663  30.728  1.00  0.00     0.022 A 
BRANCH  90  94
ATOM     94  S   UNL A   1      46.098  36.941  28.277  1.00  0.00     0.124 S 
ATOM     95  O   UNL A   1      46.304  36.336  26.966  1.00  0.00    -0.237 OA
ATOM     96  O   UNL A   1      44.760  37.464  28.534  1.00  0.00    -0.237 OA
ATOM     97  O   UNL A   1      47.193  37.786  28.750  1.00  0.00    -0.744 OA
ENDBRANCH  90  94
ENDBRANCH  64  87
ENDBRANCH  38  39
ENDBRANCH  30  33
ENDBRANCH  28  29
ENDBRANCH  27  28
ENDBRANCH  26  27
ENDBRANCH   1  26
TORSDOF 22
ENDMDL
