MODEL 1
REMARK VINA RESULT:      -8.3      0.000      0.000
REMARK SMILES COc1ccc(CCNC(=O)c2cccnc2C(=O)NCCCCCCNC(=O)c2ccc(-c3c4nc(c(-c5cc(S(=O)(=O)[O-])ccc5F)c5ccc([nH]5)c(-c5cc(S(=O)(=O)[O-])ccc5F)c5nc(c(-c6cc(S(=O)(=O)[O-])ccc6F)c6ccc3[nH]6)C=C5)C=C4)cc2)cc1OC
REMARK SMILES IDX 22 1 21 2 20 3 18 4 19 5 17 7 12 8 13 9 14 10 16 11 15 12
REMARK SMILES IDX 10 13 9 14 11 16 8 17 7 18 6 19 3 20 4 21 94 22 5 23 93 24
REMARK SMILES IDX 2 25 1 26 95 27 96 28 23 29 24 30 25 31 26 32 27 33 28 34
REMARK SMILES IDX 29 36 30 37 31 38 92 39 32 40 91 41 33 42 34 43 35 44 85 45
REMARK SMILES IDX 36 46 90 47 84 48 86 49 37 50 89 51 83 52 82 53 38 55 70 56
REMARK SMILES IDX 50 57 69 58 51 59 54 60 68 61 87 62 52 63 53 64 67 66 88 67
REMARK SMILES IDX 55 68 39 69 40 70 48 71 41 72 47 73 49 74 46 75 42 76 43 77
REMARK SMILES IDX 44 78 45 79 71 80 72 81 80 82 73 83 79 84 81 85 78 86 74 87
REMARK SMILES IDX 75 88 76 89 77 90 56 91 57 92 65 93 58 94 64 95 66 96 63 97
REMARK SMILES IDX 59 98 60 99 61 100 62 101
REMARK H PARENT 20 6 9 15 27 35 86 54 54 65
REMARK Flexibility Score: inf
ROOT
ATOM      1  C   UNL A   1      38.163  31.134  36.083  1.00  0.00     0.021 C 
ENDROOT
BRANCH   1   2
ATOM      2  C   UNL A   1      38.140  31.520  34.611  1.00  0.00     0.116 C 
BRANCH   2   3
ATOM      3  N   UNL A   1      37.396  30.658  33.735  1.00  0.00    -0.351 N 
ATOM      4  C   UNL A   1      37.265  30.668  32.361  1.00  0.00     0.270 C 
ATOM      5  O   UNL A   1      36.633  29.711  31.895  1.00  0.00    -0.267 OA
ATOM      6  H   UNL A   1      36.896  29.943  34.190  1.00  0.00     0.163 HD
BRANCH   4   7
ATOM      7  C   UNL A   1      37.733  31.757  31.404  1.00  0.00     0.140 A 
ATOM      8  C   UNL A   1      38.788  31.750  30.490  1.00  0.00     0.071 A 
ATOM      9  C   UNL A   1      38.900  32.822  29.582  1.00  0.00     0.018 A 
ATOM     10  C   UNL A   1      38.022  33.896  29.639  1.00  0.00     0.021 A 
ATOM     11  N   UNL A   1      36.885  32.841  31.468  1.00  0.00    -0.250 NA
ATOM     12  C   UNL A   1      37.039  33.863  30.601  1.00  0.00     0.112 A 
BRANCH   8  13
ATOM     13  C   UNL A   1      39.711  30.638  30.257  1.00  0.00     0.253 C 
ATOM     14  N   UNL A   1      39.565  29.811  29.160  1.00  0.00    -0.352 N 
ATOM     15  H   UNL A   1      40.267  29.126  29.070  1.00  0.00     0.163 HD
ATOM     16  O   UNL A   1      40.614  30.444  31.072  1.00  0.00    -0.269 OA
BRANCH  14  17
ATOM     17  C   UNL A   1      38.543  29.777  28.106  1.00  0.00     0.121 C 
BRANCH  17  18
ATOM     18  C   UNL A   1      37.170  29.206  28.510  1.00  0.00     0.057 C 
BRANCH  18  19
ATOM     19  C   UNL A   1      35.944  29.967  28.054  1.00  0.00    -0.042 A 
ATOM     20  C   UNL A   1      33.566  31.367  27.420  1.00  0.00     0.160 A 
ATOM     21  C   UNL A   1      34.720  32.036  27.835  1.00  0.00     0.051 A 
ATOM     22  C   UNL A   1      33.609  29.986  27.243  1.00  0.00     0.160 A 
ATOM     23  C   UNL A   1      35.894  31.353  28.149  1.00  0.00     0.008 A 
ATOM     24  C   UNL A   1      34.795  29.300  27.584  1.00  0.00     0.054 A 
BRANCH  20  25
ATOM     25  O   UNL A   1      32.482  32.130  27.087  1.00  0.00    -0.493 OA
ATOM     26  C   UNL A   1      32.533  33.452  27.629  1.00  0.00     0.278 C 
ENDBRANCH  20  25
BRANCH  22  27
ATOM     27  O   UNL A   1      32.617  29.168  26.771  1.00  0.00    -0.493 OA
ATOM     28  C   UNL A   1      32.457  29.044  25.361  1.00  0.00     0.278 C 
ENDBRANCH  22  27
ENDBRANCH  18  19
ENDBRANCH  17  18
ENDBRANCH  14  17
ENDBRANCH   8  13
ENDBRANCH   4   7
ENDBRANCH   2   3
ENDBRANCH   1   2
BRANCH   1  29
ATOM     29  C   UNL A   1      37.781  32.196  37.115  1.00  0.00     0.002 C 
BRANCH  29  30
ATOM     30  C   UNL A   1      38.645  32.346  38.372  1.00  0.00     0.002 C 
BRANCH  30  31
ATOM     31  C   UNL A   1      38.299  33.456  39.370  1.00  0.00     0.021 C 
BRANCH  31  32
ATOM     32  C   UNL A   1      39.461  34.181  40.048  1.00  0.00     0.116 C 
BRANCH  32  33
ATOM     33  N   UNL A   1      39.540  35.601  39.751  1.00  0.00    -0.352 N 
ATOM     34  C   UNL A   1      40.018  36.259  38.633  1.00  0.00     0.251 C 
ATOM     35  H   UNL A   1      39.197  36.190  40.461  1.00  0.00     0.163 HD
ATOM     36  O   UNL A   1      40.054  37.485  38.635  1.00  0.00    -0.269 OA
BRANCH  34  37
ATOM     37  C   UNL A   1      40.497  35.513  37.439  1.00  0.00     0.039 A 
ATOM     38  C   UNL A   1      41.827  35.088  37.359  1.00  0.00     0.014 A 
ATOM     39  C   UNL A   1      39.652  35.264  36.364  1.00  0.00     0.014 A 
ATOM     40  C   UNL A   1      42.269  34.343  36.250  1.00  0.00     0.010 A 
ATOM     41  C   UNL A   1      40.064  34.447  35.307  1.00  0.00     0.010 A 
ATOM     42  C   UNL A   1      41.378  33.977  35.229  1.00  0.00    -0.014 A 
BRANCH  42  43
ATOM     43  C   UNL A   1      41.768  33.095  34.086  1.00  0.00     0.031 A 
ATOM     44  C   UNL A   1      42.005  31.617  34.292  1.00  0.00     0.074 A 
ATOM     45  C   UNL A   1      42.020  33.640  32.877  1.00  0.00     0.049 A 
ATOM     46  N   UNL A   1      42.441  30.718  33.444  1.00  0.00    -0.248 NA
ATOM     47  C   UNL A   1      41.743  31.085  35.639  1.00  0.00     0.031 C 
ATOM     48  C   UNL A   1      41.904  35.063  32.554  1.00  0.00     0.029 A 
ATOM     49  N   UNL A   1      42.448  33.070  31.701  1.00  0.00    -0.354 N 
ATOM     50  C   UNL A   1      42.498  29.518  34.146  1.00  0.00     0.074 A 
ATOM     51  C   UNL A   1      42.124  29.822  35.512  1.00  0.00     0.031 C 
ATOM     52  C   UNL A   1      42.240  35.252  31.268  1.00  0.00     0.029 A 
ATOM     53  C   UNL A   1      42.633  33.975  30.680  1.00  0.00     0.049 A 
ATOM     54  H   UNL A   1      42.606  32.104  31.599  1.00  0.00     0.167 HD
ATOM     55  C   UNL A   1      42.800  28.274  33.694  1.00  0.00     0.034 A 
ATOM     56  C   UNL A   1      43.083  33.804  29.420  1.00  0.00     0.034 A 
ATOM     57  C   UNL A   1      43.172  27.976  32.330  1.00  0.00     0.049 A 
ATOM     58  C   UNL A   1      43.444  32.415  28.946  1.00  0.00     0.074 A 
ATOM     59  C   UNL A   1      43.453  26.743  31.762  1.00  0.00     0.029 A 
ATOM     60  N   UNL A   1      43.320  28.917  31.320  1.00  0.00    -0.354 N 
ATOM     61  N   UNL A   1      43.424  31.284  29.611  1.00  0.00    -0.248 NA
ATOM     62  C   UNL A   1      43.868  32.277  27.545  1.00  0.00     0.031 C 
ATOM     63  C   UNL A   1      43.831  26.945  30.431  1.00  0.00     0.029 A 
ATOM     64  C   UNL A   1      43.705  28.293  30.143  1.00  0.00     0.049 A 
ATOM     65  H   UNL A   1      43.174  29.885  31.424  1.00  0.00     0.167 HD
ATOM     66  C   UNL A   1      43.782  30.298  28.693  1.00  0.00     0.074 A 
ATOM     67  C   UNL A   1      44.004  30.964  27.430  1.00  0.00     0.031 C 
ATOM     68  C   UNL A   1      43.910  28.961  28.880  1.00  0.00     0.034 A 
BRANCH  55  69
ATOM     69  C   UNL A   1      42.725  27.128  34.677  1.00  0.00     0.023 A 
ATOM     70  C   UNL A   1      43.837  26.761  35.454  1.00  0.00     0.031 A 
ATOM     71  C   UNL A   1      41.527  26.416  34.869  1.00  0.00     0.131 A 
ATOM     72  C   UNL A   1      43.750  25.676  36.339  1.00  0.00     0.055 A 
ATOM     73  C   UNL A   1      41.423  25.390  35.813  1.00  0.00     0.041 A 
ATOM     74  F   UNL A   1      40.434  26.706  34.146  1.00  0.00    -0.206 F 
ATOM     75  C   UNL A   1      42.542  25.007  36.547  1.00  0.00     0.022 A 
BRANCH  72  76
ATOM     76  S   UNL A   1      45.271  25.075  37.121  1.00  0.00     0.124 S 
ATOM     77  O   UNL A   1      45.214  23.648  36.814  1.00  0.00    -0.237 OA
ATOM     78  O   UNL A   1      46.305  25.837  36.428  1.00  0.00    -0.237 OA
ATOM     79  O   UNL A   1      45.087  25.410  38.531  1.00  0.00    -0.744 OA
ENDBRANCH  72  76
ENDBRANCH  55  69
BRANCH  56  80
ATOM     80  C   UNL A   1      43.225  34.970  28.497  1.00  0.00     0.023 A 
ATOM     81  C   UNL A   1      44.489  35.499  28.196  1.00  0.00     0.031 A 
ATOM     82  C   UNL A   1      42.098  35.625  27.969  1.00  0.00     0.131 A 
ATOM     83  C   UNL A   1      44.595  36.689  27.460  1.00  0.00     0.055 A 
ATOM     84  C   UNL A   1      42.211  36.767  27.174  1.00  0.00     0.041 A 
ATOM     85  F   UNL A   1      40.862  35.162  28.222  1.00  0.00    -0.206 F 
ATOM     86  C   UNL A   1      43.466  37.319  26.934  1.00  0.00     0.022 A 
BRANCH  83  87
ATOM     87  S   UNL A   1      46.222  37.481  27.332  1.00  0.00     0.124 S 
ATOM     88  O   UNL A   1      46.875  37.012  28.548  1.00  0.00    -0.237 OA
ATOM     89  O   UNL A   1      46.727  36.930  26.079  1.00  0.00    -0.237 OA
ATOM     90  O   UNL A   1      45.903  38.907  27.303  1.00  0.00    -0.744 OA
ENDBRANCH  83  87
ENDBRANCH  56  80
BRANCH  68  91
ATOM     91  C   UNL A   1      44.229  28.116  27.669  1.00  0.00     0.023 A 
ATOM     92  C   UNL A   1      45.536  27.991  27.165  1.00  0.00     0.031 A 
ATOM     93  C   UNL A   1      43.198  27.420  27.009  1.00  0.00     0.131 A 
ATOM     94  C   UNL A   1      45.769  27.233  26.007  1.00  0.00     0.055 A 
ATOM     95  C   UNL A   1      43.447  26.618  25.895  1.00  0.00     0.041 A 
ATOM     96  F   UNL A   1      41.931  27.503  27.444  1.00  0.00    -0.206 F 
ATOM     97  C   UNL A   1      44.737  26.531  25.381  1.00  0.00     0.022 A 
BRANCH  94  98
ATOM     98  S   UNL A   1      47.431  27.240  25.279  1.00  0.00     0.124 S 
ATOM     99  O   UNL A   1      47.151  26.951  23.876  1.00  0.00    -0.237 OA
ATOM    100  O   UNL A   1      47.893  28.594  25.569  1.00  0.00    -0.237 OA
ATOM    101  O   UNL A   1      48.129  26.181  26.004  1.00  0.00    -0.744 OA
ENDBRANCH  94  98
ENDBRANCH  68  91
ENDBRANCH  42  43
ENDBRANCH  34  37
ENDBRANCH  32  33
ENDBRANCH  31  32
ENDBRANCH  30  31
ENDBRANCH  29  30
ENDBRANCH   1  29
TORSDOF 22
ENDMDL
MODEL 2
REMARK VINA RESULT:      -8.1      2.111      3.326
REMARK SMILES COc1ccc(CCNC(=O)c2cccnc2C(=O)NCCCCCCNC(=O)c2ccc(-c3c4nc(c(-c5cc(S(=O)(=O)[O-])ccc5F)c5ccc([nH]5)c(-c5cc(S(=O)(=O)[O-])ccc5F)c5nc(c(-c6cc(S(=O)(=O)[O-])ccc6F)c6ccc3[nH]6)C=C5)C=C4)cc2)cc1OC
REMARK SMILES IDX 22 1 21 2 20 3 18 4 19 5 17 7 12 8 13 9 14 10 16 11 15 12
REMARK SMILES IDX 10 13 9 14 11 16 8 17 7 18 6 19 3 20 4 21 94 22 5 23 93 24
REMARK SMILES IDX 2 25 1 26 95 27 96 28 23 29 24 30 25 31 26 32 27 33 28 34
REMARK SMILES IDX 29 36 30 37 31 38 92 39 32 40 91 41 33 42 34 43 35 44 85 45
REMARK SMILES IDX 36 46 90 47 84 48 86 49 37 50 89 51 83 52 82 53 38 55 70 56
REMARK SMILES IDX 50 57 69 58 51 59 54 60 68 61 87 62 52 63 53 64 67 66 88 67
REMARK SMILES IDX 55 68 39 69 40 70 48 71 41 72 47 73 49 74 46 75 42 76 43 77
REMARK SMILES IDX 44 78 45 79 71 80 72 81 80 82 73 83 79 84 81 85 78 86 74 87
REMARK SMILES IDX 75 88 76 89 77 90 56 91 57 92 65 93 58 94 64 95 66 96 63 97
REMARK SMILES IDX 59 98 60 99 61 100 62 101
REMARK H PARENT 20 6 9 15 27 35 86 54 54 65
REMARK Flexibility Score: inf
ROOT
ATOM      1  C   UNL A   1      37.785  32.043  35.901  1.00  0.00     0.021 C 
ENDROOT
BRANCH   1   2
ATOM      2  C   UNL A   1      37.350  32.530  34.526  1.00  0.00     0.116 C 
BRANCH   2   3
ATOM      3  N   UNL A   1      36.657  31.582  33.700  1.00  0.00    -0.351 N 
ATOM      4  C   UNL A   1      37.039  30.961  32.528  1.00  0.00     0.270 C 
ATOM      5  O   UNL A   1      36.249  30.100  32.118  1.00  0.00    -0.267 OA
ATOM      6  H   UNL A   1      35.761  31.333  34.023  1.00  0.00     0.163 HD
BRANCH   4   7
ATOM      7  C   UNL A   1      38.257  31.287  31.674  1.00  0.00     0.140 A 
ATOM      8  C   UNL A   1      39.436  30.564  31.485  1.00  0.00     0.071 A 
ATOM      9  C   UNL A   1      40.338  30.993  30.492  1.00  0.00     0.018 A 
ATOM     10  C   UNL A   1      40.095  32.149  29.762  1.00  0.00     0.021 A 
ATOM     11  N   UNL A   1      38.040  32.447  30.963  1.00  0.00    -0.250 NA
ATOM     12  C   UNL A   1      38.939  32.843  30.038  1.00  0.00     0.112 A 
BRANCH   8  13
ATOM     13  C   UNL A   1      39.761  29.279  32.107  1.00  0.00     0.253 C 
ATOM     14  N   UNL A   1      40.132  28.191  31.340  1.00  0.00    -0.352 N 
ATOM     15  H   UNL A   1      40.377  27.392  31.860  1.00  0.00     0.163 HD
ATOM     16  O   UNL A   1      39.678  29.183  33.332  1.00  0.00    -0.269 OA
BRANCH  14  17
ATOM     17  C   UNL A   1      40.224  28.023  29.884  1.00  0.00     0.121 C 
BRANCH  17  18
ATOM     18  C   UNL A   1      39.264  26.993  29.258  1.00  0.00     0.057 C 
BRANCH  18  19
ATOM     19  C   UNL A   1      39.885  25.825  28.525  1.00  0.00    -0.042 A 
ATOM     20  C   UNL A   1      41.085  23.784  26.972  1.00  0.00     0.160 A 
ATOM     21  C   UNL A   1      41.829  24.551  27.872  1.00  0.00     0.051 A 
ATOM     22  C   UNL A   1      39.708  23.978  26.891  1.00  0.00     0.160 A 
ATOM     23  C   UNL A   1      41.244  25.558  28.640  1.00  0.00     0.008 A 
ATOM     24  C   UNL A   1      39.128  25.013  27.655  1.00  0.00     0.054 A 
BRANCH  20  25
ATOM     25  O   UNL A   1      41.740  22.788  26.304  1.00  0.00    -0.493 OA
ATOM     26  C   UNL A   1      42.916  23.239  25.627  1.00  0.00     0.278 C 
ENDBRANCH  20  25
BRANCH  22  27
ATOM     27  O   UNL A   1      38.804  23.279  26.137  1.00  0.00    -0.493 OA
ATOM     28  C   UNL A   1      37.446  23.712  26.135  1.00  0.00     0.278 C 
ENDBRANCH  22  27
ENDBRANCH  18  19
ENDBRANCH  17  18
ENDBRANCH  14  17
ENDBRANCH   8  13
ENDBRANCH   4   7
ENDBRANCH   2   3
ENDBRANCH   1   2
BRANCH   1  29
ATOM     29  C   UNL A   1      37.616  32.990  37.091  1.00  0.00     0.002 C 
BRANCH  29  30
ATOM     30  C   UNL A   1      38.406  32.708  38.374  1.00  0.00     0.002 C 
BRANCH  30  31
ATOM     31  C   UNL A   1      38.497  33.810  39.434  1.00  0.00     0.021 C 
BRANCH  31  32
ATOM     32  C   UNL A   1      39.888  34.180  39.948  1.00  0.00     0.116 C 
BRANCH  32  33
ATOM     33  N   UNL A   1      40.237  35.581  39.785  1.00  0.00    -0.352 N 
ATOM     34  C   UNL A   1      40.878  36.232  38.749  1.00  0.00     0.251 C 
ATOM     35  H   UNL A   1      39.972  36.161  40.535  1.00  0.00     0.163 HD
ATOM     36  O   UNL A   1      41.136  37.426  38.864  1.00  0.00    -0.269 OA
BRANCH  34  37
ATOM     37  C   UNL A   1      41.272  35.513  37.506  1.00  0.00     0.039 A 
ATOM     38  C   UNL A   1      42.603  35.140  37.299  1.00  0.00     0.014 A 
ATOM     39  C   UNL A   1      40.340  35.241  36.512  1.00  0.00     0.014 A 
ATOM     40  C   UNL A   1      42.968  34.421  36.146  1.00  0.00     0.010 A 
ATOM     41  C   UNL A   1      40.681  34.449  35.412  1.00  0.00     0.010 A 
ATOM     42  C   UNL A   1      42.000  34.030  35.207  1.00  0.00    -0.014 A 
BRANCH  42  43
ATOM     43  C   UNL A   1      42.314  33.172  34.023  1.00  0.00     0.031 A 
ATOM     44  C   UNL A   1      42.546  31.687  34.180  1.00  0.00     0.074 A 
ATOM     45  C   UNL A   1      42.502  33.744  32.815  1.00  0.00     0.049 A 
ATOM     46  N   UNL A   1      42.923  30.805  33.287  1.00  0.00    -0.248 NA
ATOM     47  C   UNL A   1      42.355  31.124  35.527  1.00  0.00     0.031 C 
ATOM     48  C   UNL A   1      42.384  35.175  32.533  1.00  0.00     0.029 A 
ATOM     49  N   UNL A   1      42.856  33.198  31.603  1.00  0.00    -0.354 N 
ATOM     50  C   UNL A   1      43.007  29.587  33.956  1.00  0.00     0.074 A 
ATOM     51  C   UNL A   1      42.715  29.861  35.348  1.00  0.00     0.031 C 
ATOM     52  C   UNL A   1      42.647  35.392  31.235  1.00  0.00     0.029 A 
ATOM     53  C   UNL A   1      42.992  34.126  30.595  1.00  0.00     0.049 A 
ATOM     54  H   UNL A   1      42.997  32.233  31.469  1.00  0.00     0.167 HD
ATOM     55  C   UNL A   1      43.269  28.352  33.458  1.00  0.00     0.034 A 
ATOM     56  C   UNL A   1      43.367  33.981  29.307  1.00  0.00     0.034 A 
ATOM     57  C   UNL A   1      43.559  28.084  32.068  1.00  0.00     0.049 A 
ATOM     58  C   UNL A   1      43.685  32.601  28.780  1.00  0.00     0.074 A 
ATOM     59  C   UNL A   1      43.793  26.863  31.456  1.00  0.00     0.029 A 
ATOM     60  N   UNL A   1      43.659  29.048  31.074  1.00  0.00    -0.354 N 
ATOM     61  N   UNL A   1      43.691  31.454  29.419  1.00  0.00    -0.248 NA
ATOM     62  C   UNL A   1      44.027  32.493  27.355  1.00  0.00     0.031 C 
ATOM     63  C   UNL A   1      44.097  27.093  30.111  1.00  0.00     0.029 A 
ATOM     64  C   UNL A   1      43.969  28.449  29.862  1.00  0.00     0.049 A 
ATOM     65  H   UNL A   1      43.530  30.014  31.210  1.00  0.00     0.167 HD
ATOM     66  C   UNL A   1      43.985  30.488  28.458  1.00  0.00     0.074 A 
ATOM     67  C   UNL A   1      44.141  31.182  27.201  1.00  0.00     0.031 C 
ATOM     68  C   UNL A   1      44.109  29.145  28.606  1.00  0.00     0.034 A 
BRANCH  55  69
ATOM     69  C   UNL A   1      43.237  27.184  34.416  1.00  0.00     0.023 A 
ATOM     70  C   UNL A   1      44.407  26.730  35.051  1.00  0.00     0.031 A 
ATOM     71  C   UNL A   1      42.029  26.535  34.729  1.00  0.00     0.131 A 
ATOM     72  C   UNL A   1      44.356  25.626  35.914  1.00  0.00     0.055 A 
ATOM     73  C   UNL A   1      41.971  25.490  35.655  1.00  0.00     0.041 A 
ATOM     74  F   UNL A   1      40.880  26.909  34.145  1.00  0.00    -0.206 F 
ATOM     75  C   UNL A   1      43.142  25.021  36.245  1.00  0.00     0.022 A 
BRANCH  72  76
ATOM     76  S   UNL A   1      45.918  24.916  36.500  1.00  0.00     0.124 S 
ATOM     77  O   UNL A   1      45.498  23.574  36.898  1.00  0.00    -0.237 OA
ATOM     78  O   UNL A   1      46.766  24.996  35.316  1.00  0.00    -0.237 OA
ATOM     79  O   UNL A   1      46.301  25.793  37.603  1.00  0.00    -0.744 OA
ENDBRANCH  72  76
ENDBRANCH  55  69
BRANCH  56  80
ATOM     80  C   UNL A   1      43.468  35.168  28.406  1.00  0.00     0.023 A 
ATOM     81  C   UNL A   1      44.717  35.730  28.095  1.00  0.00     0.031 A 
ATOM     82  C   UNL A   1      42.319  35.808  27.909  1.00  0.00     0.131 A 
ATOM     83  C   UNL A   1      44.785  36.937  27.381  1.00  0.00     0.055 A 
ATOM     84  C   UNL A   1      42.395  36.968  27.135  1.00  0.00     0.041 A 
ATOM     85  F   UNL A   1      41.098  35.314  28.172  1.00  0.00    -0.206 F 
ATOM     86  C   UNL A   1      43.634  37.552  26.886  1.00  0.00     0.022 A 
BRANCH  83  87
ATOM     87  S   UNL A   1      46.392  37.766  27.242  1.00  0.00     0.124 S 
ATOM     88  O   UNL A   1      47.211  36.722  26.637  1.00  0.00    -0.237 OA
ATOM     89  O   UNL A   1      46.071  38.905  26.389  1.00  0.00    -0.237 OA
ATOM     90  O   UNL A   1      46.723  38.097  28.627  1.00  0.00    -0.744 OA
ENDBRANCH  83  87
ENDBRANCH  56  80
BRANCH  68  91
ATOM     91  C   UNL A   1      44.349  28.327  27.359  1.00  0.00     0.023 A 
ATOM     92  C   UNL A   1      45.642  28.049  26.881  1.00  0.00     0.031 A 
ATOM     93  C   UNL A   1      43.255  27.814  26.636  1.00  0.00     0.131 A 
ATOM     94  C   UNL A   1      45.808  27.325  25.690  1.00  0.00     0.055 A 
ATOM     95  C   UNL A   1      43.428  27.043  25.487  1.00  0.00     0.041 A 
ATOM     96  F   UNL A   1      41.998  28.049  27.043  1.00  0.00    -0.206 F 
ATOM     97  C   UNL A   1      44.710  26.805  25.001  1.00  0.00     0.022 A 
BRANCH  94  98
ATOM     98  S   UNL A   1      47.477  27.140  25.006  1.00  0.00     0.124 S 
ATOM     99  O   UNL A   1      47.930  25.904  25.635  1.00  0.00    -0.237 OA
ATOM    100  O   UNL A   1      47.220  27.067  23.571  1.00  0.00    -0.237 OA
ATOM    101  O   UNL A   1      48.167  28.351  25.448  1.00  0.00    -0.744 OA
ENDBRANCH  94  98
ENDBRANCH  68  91
ENDBRANCH  42  43
ENDBRANCH  34  37
ENDBRANCH  32  33
ENDBRANCH  31  32
ENDBRANCH  30  31
ENDBRANCH  29  30
ENDBRANCH   1  29
TORSDOF 22
ENDMDL
MODEL 3
REMARK VINA RESULT:      -7.7      2.876      4.519
REMARK SMILES COc1ccc(CCNC(=O)c2cccnc2C(=O)NCCCCCCNC(=O)c2ccc(-c3c4nc(c(-c5cc(S(=O)(=O)[O-])ccc5F)c5ccc([nH]5)c(-c5cc(S(=O)(=O)[O-])ccc5F)c5nc(c(-c6cc(S(=O)(=O)[O-])ccc6F)c6ccc3[nH]6)C=C5)C=C4)cc2)cc1OC
REMARK SMILES IDX 22 1 21 2 20 3 18 4 19 5 17 7 12 8 13 9 14 10 16 11 15 12
REMARK SMILES IDX 10 13 9 14 11 16 8 17 7 18 6 19 3 20 4 21 94 22 5 23 93 24
REMARK SMILES IDX 2 25 1 26 95 27 96 28 23 29 24 30 25 31 26 32 27 33 28 34
REMARK SMILES IDX 29 36 30 37 31 38 92 39 32 40 91 41 33 42 34 43 35 44 85 45
REMARK SMILES IDX 36 46 90 47 84 48 86 49 37 50 89 51 83 52 82 53 38 55 70 56
REMARK SMILES IDX 50 57 69 58 51 59 54 60 68 61 87 62 52 63 53 64 67 66 88 67
REMARK SMILES IDX 55 68 39 69 40 70 48 71 41 72 47 73 49 74 46 75 42 76 43 77
REMARK SMILES IDX 44 78 45 79 71 80 72 81 80 82 73 83 79 84 81 85 78 86 74 87
REMARK SMILES IDX 75 88 76 89 77 90 56 91 57 92 65 93 58 94 64 95 66 96 63 97
REMARK SMILES IDX 59 98 60 99 61 100 62 101
REMARK H PARENT 20 6 9 15 27 35 86 54 54 65
REMARK Flexibility Score: inf
ROOT
ATOM      1  C   UNL A   1      38.272  33.813  30.519  1.00  0.00     0.021 C 
ENDROOT
BRANCH   1   2
ATOM      2  C   UNL A   1      36.889  34.317  30.131  1.00  0.00     0.116 C 
BRANCH   2   3
ATOM      3  N   UNL A   1      35.779  33.764  30.857  1.00  0.00    -0.351 N 
ATOM      4  C   UNL A   1      35.323  32.466  30.952  1.00  0.00     0.270 C 
ATOM      5  O   UNL A   1      34.398  32.300  31.757  1.00  0.00    -0.267 OA
ATOM      6  H   UNL A   1      35.258  34.421  31.372  1.00  0.00     0.163 HD
BRANCH   4   7
ATOM      7  C   UNL A   1      35.776  31.272  30.120  1.00  0.00     0.140 A 
ATOM      8  C   UNL A   1      35.608  31.016  28.758  1.00  0.00     0.071 A 
ATOM      9  C   UNL A   1      36.287  29.920  28.190  1.00  0.00     0.018 A 
ATOM     10  C   UNL A   1      37.053  29.072  28.978  1.00  0.00     0.021 A 
ATOM     11  N   UNL A   1      36.516  30.407  30.897  1.00  0.00    -0.250 NA
ATOM     12  C   UNL A   1      37.131  29.352  30.323  1.00  0.00     0.112 A 
BRANCH   8  13
ATOM     13  C   UNL A   1      34.922  31.886  27.803  1.00  0.00     0.253 C 
ATOM     14  N   UNL A   1      33.748  31.487  27.192  1.00  0.00    -0.352 N 
ATOM     15  H   UNL A   1      33.342  32.165  26.606  1.00  0.00     0.163 HD
ATOM     16  O   UNL A   1      35.424  32.980  27.539  1.00  0.00    -0.269 OA
BRANCH  14  17
ATOM     17  C   UNL A   1      33.002  30.223  27.268  1.00  0.00     0.121 C 
BRANCH  17  18
ATOM     18  C   UNL A   1      32.026  29.941  26.110  1.00  0.00     0.057 C 
BRANCH  18  19
ATOM     19  C   UNL A   1      31.589  28.507  25.908  1.00  0.00    -0.042 A 
ATOM     20  C   UNL A   1      30.996  25.773  25.473  1.00  0.00     0.160 A 
ATOM     21  C   UNL A   1      31.323  26.257  26.742  1.00  0.00     0.051 A 
ATOM     22  C   UNL A   1      30.886  26.669  24.412  1.00  0.00     0.160 A 
ATOM     23  C   UNL A   1      31.617  27.602  26.963  1.00  0.00     0.008 A 
ATOM     24  C   UNL A   1      31.206  28.024  24.640  1.00  0.00     0.054 A 
BRANCH  20  25
ATOM     25  O   UNL A   1      30.675  24.449  25.370  1.00  0.00    -0.493 OA
ATOM     26  C   UNL A   1      30.878  23.720  26.583  1.00  0.00     0.278 C 
ENDBRANCH  20  25
BRANCH  22  27
ATOM     27  O   UNL A   1      30.502  26.404  23.125  1.00  0.00    -0.493 OA
ATOM     28  C   UNL A   1      31.073  27.179  22.075  1.00  0.00     0.278 C 
ENDBRANCH  22  27
ENDBRANCH  18  19
ENDBRANCH  17  18
ENDBRANCH  14  17
ENDBRANCH   8  13
ENDBRANCH   4   7
ENDBRANCH   2   3
ENDBRANCH   1   2
BRANCH   1  29
ATOM     29  C   UNL A   1      39.080  34.627  31.531  1.00  0.00     0.002 C 
BRANCH  29  30
ATOM     30  C   UNL A   1      39.167  34.127  32.977  1.00  0.00     0.002 C 
BRANCH  30  31
ATOM     31  C   UNL A   1      38.087  34.569  33.970  1.00  0.00     0.021 C 
BRANCH  31  32
ATOM     32  C   UNL A   1      36.934  33.601  34.234  1.00  0.00     0.116 C 
BRANCH  32  33
ATOM     33  N   UNL A   1      37.023  32.891  35.499  1.00  0.00    -0.352 N 
ATOM     34  C   UNL A   1      37.856  31.862  35.894  1.00  0.00     0.251 C 
ATOM     35  H   UNL A   1      36.385  33.192  36.185  1.00  0.00     0.163 HD
ATOM     36  O   UNL A   1      37.698  31.360  37.003  1.00  0.00    -0.269 OA
BRANCH  34  37
ATOM     37  C   UNL A   1      38.930  31.346  35.002  1.00  0.00     0.039 A 
ATOM     38  C   UNL A   1      38.603  30.606  33.862  1.00  0.00     0.014 A 
ATOM     39  C   UNL A   1      40.270  31.547  35.306  1.00  0.00     0.014 A 
ATOM     40  C   UNL A   1      39.615  30.156  32.993  1.00  0.00     0.010 A 
ATOM     41  C   UNL A   1      41.270  31.181  34.399  1.00  0.00     0.010 A 
ATOM     42  C   UNL A   1      40.961  30.476  33.232  1.00  0.00    -0.014 A 
BRANCH  42  43
ATOM     43  C   UNL A   1      42.063  30.119  32.285  1.00  0.00     0.031 A 
ATOM     44  C   UNL A   1      42.853  28.843  32.460  1.00  0.00     0.074 A 
ATOM     45  C   UNL A   1      42.432  30.997  31.329  1.00  0.00     0.049 A 
ATOM     46  N   UNL A   1      43.901  28.416  31.799  1.00  0.00    -0.248 NA
ATOM     47  C   UNL A   1      42.423  27.939  33.539  1.00  0.00     0.031 C 
ATOM     48  C   UNL A   1      41.806  32.299  31.093  1.00  0.00     0.029 A 
ATOM     49  N   UNL A   1      43.436  30.940  30.391  1.00  0.00    -0.354 N 
ATOM     50  C   UNL A   1      44.252  27.197  32.372  1.00  0.00     0.074 A 
ATOM     51  C   UNL A   1      43.347  26.991  33.485  1.00  0.00     0.031 C 
ATOM     52  C   UNL A   1      42.430  32.910  30.074  1.00  0.00     0.029 A 
ATOM     53  C   UNL A   1      43.526  32.067  29.605  1.00  0.00     0.049 A 
ATOM     54  H   UNL A   1      44.034  30.165  30.291  1.00  0.00     0.167 HD
ATOM     55  C   UNL A   1      45.211  26.316  31.991  1.00  0.00     0.034 A 
ATOM     56  C   UNL A   1      44.397  32.395  28.628  1.00  0.00     0.034 A 
ATOM     57  C   UNL A   1      46.110  26.526  30.880  1.00  0.00     0.049 A 
ATOM     58  C   UNL A   1      45.478  31.412  28.241  1.00  0.00     0.074 A 
ATOM     59  C   UNL A   1      47.085  25.675  30.386  1.00  0.00     0.029 A 
ATOM     60  N   UNL A   1      46.149  27.669  30.091  1.00  0.00    -0.354 N 
ATOM     61  N   UNL A   1      45.746  30.234  28.755  1.00  0.00    -0.248 NA
ATOM     62  C   UNL A   1      46.361  31.794  27.130  1.00  0.00     0.031 C 
ATOM     63  C   UNL A   1      47.754  26.324  29.344  1.00  0.00     0.029 A 
ATOM     64  C   UNL A   1      47.142  27.548  29.131  1.00  0.00     0.049 A 
ATOM     65  H   UNL A   1      45.558  28.449  30.199  1.00  0.00     0.167 HD
ATOM     66  C   UNL A   1      46.792  29.718  27.992  1.00  0.00     0.074 A 
ATOM     67  C   UNL A   1      47.100  30.705  26.983  1.00  0.00     0.031 C 
ATOM     68  C   UNL A   1      47.436  28.530  28.115  1.00  0.00     0.034 A 
BRANCH  55  69
ATOM     69  C   UNL A   1      45.333  25.026  32.770  1.00  0.00     0.023 A 
ATOM     70  C   UNL A   1      46.193  24.922  33.877  1.00  0.00     0.031 A 
ATOM     71  C   UNL A   1      44.562  23.899  32.432  1.00  0.00     0.131 A 
ATOM     72  C   UNL A   1      46.310  23.706  34.566  1.00  0.00     0.055 A 
ATOM     73  C   UNL A   1      44.620  22.716  33.174  1.00  0.00     0.041 A 
ATOM     74  F   UNL A   1      43.734  23.928  31.375  1.00  0.00    -0.206 F 
ATOM     75  C   UNL A   1      45.507  22.611  34.242  1.00  0.00     0.022 A 
BRANCH  72  76
ATOM     76  S   UNL A   1      47.616  23.541  35.812  1.00  0.00     0.124 S 
ATOM     77  O   UNL A   1      47.216  22.313  36.494  1.00  0.00    -0.237 OA
ATOM     78  O   UNL A   1      48.822  23.455  34.996  1.00  0.00    -0.237 OA
ATOM     79  O   UNL A   1      47.485  24.759  36.609  1.00  0.00    -0.744 OA
ENDBRANCH  72  76
ENDBRANCH  55  69
BRANCH  56  80
ATOM     80  C   UNL A   1      44.301  33.714  27.933  1.00  0.00     0.023 A 
ATOM     81  C   UNL A   1      44.615  34.906  28.605  1.00  0.00     0.031 A 
ATOM     82  C   UNL A   1      43.816  33.812  26.617  1.00  0.00     0.131 A 
ATOM     83  C   UNL A   1      44.365  36.143  27.993  1.00  0.00     0.055 A 
ATOM     84  C   UNL A   1      43.640  35.044  25.984  1.00  0.00     0.041 A 
ATOM     85  F   UNL A   1      43.501  32.705  25.924  1.00  0.00    -0.206 F 
ATOM     86  C   UNL A   1      43.894  36.221  26.682  1.00  0.00     0.022 A 
BRANCH  83  87
ATOM     87  S   UNL A   1      44.525  37.648  28.994  1.00  0.00     0.124 S 
ATOM     88  O   UNL A   1      45.972  37.759  29.129  1.00  0.00    -0.237 OA
ATOM     89  O   UNL A   1      43.880  38.644  28.145  1.00  0.00    -0.237 OA
ATOM     90  O   UNL A   1      43.805  37.314  30.222  1.00  0.00    -0.744 OA
ENDBRANCH  83  87
ENDBRANCH  56  80
BRANCH  68  91
ATOM     91  C   UNL A   1      48.484  28.196  27.080  1.00  0.00     0.023 A 
ATOM     92  C   UNL A   1      48.150  27.856  25.757  1.00  0.00     0.031 A 
ATOM     93  C   UNL A   1      49.847  28.223  27.430  1.00  0.00     0.131 A 
ATOM     94  C   UNL A   1      49.161  27.506  24.848  1.00  0.00     0.055 A 
ATOM     95  C   UNL A   1      50.851  27.934  26.505  1.00  0.00     0.041 A 
ATOM     96  F   UNL A   1      50.226  28.537  28.679  1.00  0.00    -0.206 F 
ATOM     97  C   UNL A   1      50.509  27.561  25.209  1.00  0.00     0.022 A 
BRANCH  94  98
ATOM     98  S   UNL A   1      48.687  26.898  23.206  1.00  0.00     0.124 S 
ATOM     99  O   UNL A   1      47.704  27.891  22.785  1.00  0.00    -0.237 OA
ATOM    100  O   UNL A   1      49.957  26.916  22.488  1.00  0.00    -0.237 OA
ATOM    101  O   UNL A   1      48.148  25.567  23.475  1.00  0.00    -0.744 OA
ENDBRANCH  94  98
ENDBRANCH  68  91
ENDBRANCH  42  43
ENDBRANCH  34  37
ENDBRANCH  32  33
ENDBRANCH  31  32
ENDBRANCH  30  31
ENDBRANCH  29  30
ENDBRANCH   1  29
TORSDOF 22
ENDMDL
