MODEL 1
REMARK VINA RESULT:      -9.7      0.000      0.000
REMARK SMILES C[C@@H](C(=O)NCCCCCCNC(=O)c1ccc(-c2c3nc(c(-c4cc(S(=O)(=O)[O-])ccc4F)c4ccc([nH]4)c(-c4cc(S(=O)(=O)[O-])ccc4F)c4nc(c(-c5cc(S(=O)(=O)[O-])ccc5F)c5ccc2[nH]5)C=C4)C=C3)cc1)c1ccc(-c2cccc(OC(=O)Nc3ccccc3)c2)c(F)c1
REMARK SMILES IDX 7 1 6 2 5 3 3 4 4 5 2 7 1 8 78 9 79 10 100 11 80 12 98 13
REMARK SMILES IDX 81 14 99 15 82 16 83 17 97 18 84 19 86 20 85 21 87 22 88 23
REMARK SMILES IDX 89 24 90 25 91 27 92 28 96 29 93 30 95 31 94 32 8 33 9 34
REMARK SMILES IDX 10 35 11 36 12 37 13 38 14 40 15 41 16 42 77 43 17 44 76 45
REMARK SMILES IDX 18 46 19 47 20 48 70 49 21 50 75 51 69 52 71 53 22 54 74 55
REMARK SMILES IDX 68 56 67 57 23 59 55 60 35 61 54 62 36 63 39 64 53 65 72 66
REMARK SMILES IDX 37 67 38 68 52 70 73 71 40 72 24 73 25 74 33 75 26 76 32 77
REMARK SMILES IDX 34 78 31 79 27 80 28 81 29 82 30 83 56 84 57 85 65 86 58 87
REMARK SMILES IDX 64 88 66 89 63 90 59 91 60 92 61 93 62 94 41 95 42 96 50 97
REMARK SMILES IDX 43 98 49 99 51 100 48 101 44 102 45 103 46 104 47 105
REMARK H PARENT 5 6 90 26 12 39 71 58 39 69
REMARK Flexibility Score: inf
ROOT
ATOM      1  C   UNL A   1      37.168  32.401  35.195  1.00  0.00     0.021 C 
ENDROOT
BRANCH   1   2
ATOM      2  C   UNL A   1      36.840  32.321  33.701  1.00  0.00     0.116 C 
BRANCH   2   3
ATOM      3  N   UNL A   1      36.870  30.943  33.257  1.00  0.00    -0.356 N 
ATOM      4  C   UNL A   1      36.846  30.433  31.993  1.00  0.00     0.227 C 
ATOM      5  O   UNL A   1      36.647  29.221  31.886  1.00  0.00    -0.274 OA
ATOM      6  H   UNL A   1      36.917  30.273  33.977  1.00  0.00     0.163 HD
BRANCH   4   7
ATOM      7  C   UNL A   1      37.112  31.351  30.782  1.00  0.00     0.105 C 
ATOM      8  C   UNL A   1      35.801  31.800  30.125  1.00  0.00     0.023 C 
BRANCH   7   9
ATOM      9  C   UNL A   1      38.075  30.683  29.799  1.00  0.00    -0.033 A 
ATOM     10  C   UNL A   1      37.686  30.279  28.513  1.00  0.00     0.005 A 
ATOM     11  C   UNL A   1      39.384  30.392  30.214  1.00  0.00     0.044 A 
ATOM     12  C   UNL A   1      38.572  29.596  27.675  1.00  0.00     0.012 A 
ATOM     13  C   UNL A   1      40.257  29.696  29.376  1.00  0.00     0.131 A 
ATOM     14  C   UNL A   1      39.869  29.277  28.098  1.00  0.00     0.018 A 
ATOM     15  F   UNL A   1      41.487  29.415  29.836  1.00  0.00    -0.206 F 
BRANCH  14  16
ATOM     16  C   UNL A   1      40.736  28.455  27.246  1.00  0.00    -0.012 A 
ATOM     17  C   UNL A   1      41.625  29.040  26.328  1.00  0.00     0.009 A 
ATOM     18  C   UNL A   1      40.629  27.054  27.278  1.00  0.00     0.056 A 
ATOM     19  C   UNL A   1      42.379  28.250  25.458  1.00  0.00     0.004 A 
ATOM     20  C   UNL A   1      41.363  26.272  26.392  1.00  0.00     0.133 A 
ATOM     21  C   UNL A   1      42.245  26.864  25.487  1.00  0.00     0.047 A 
BRANCH  20  22
ATOM     22  O   UNL A   1      41.266  24.862  26.301  1.00  0.00    -0.410 OA
BRANCH  22  23
ATOM     23  C   UNL A   1      41.336  23.960  27.359  1.00  0.00     0.417 C 
ATOM     24  O   UNL A   1      42.196  23.945  28.236  1.00  0.00    -0.224 OA
ATOM     25  N   UNL A   1      40.277  23.092  27.447  1.00  0.00    -0.291 N 
ATOM     26  H   UNL A   1      40.268  22.537  28.259  1.00  0.00     0.173 HD
BRANCH  25  27
ATOM     27  C   UNL A   1      39.204  22.864  26.573  1.00  0.00     0.044 A 
ATOM     28  C   UNL A   1      38.324  23.933  26.360  1.00  0.00     0.026 A 
ATOM     29  C   UNL A   1      38.953  21.646  25.940  1.00  0.00     0.026 A 
ATOM     30  C   UNL A   1      37.241  23.800  25.489  1.00  0.00     0.002 A 
ATOM     31  C   UNL A   1      37.859  21.509  25.080  1.00  0.00     0.002 A 
ATOM     32  C   UNL A   1      37.010  22.587  24.846  1.00  0.00     0.000 A 
ENDBRANCH  25  27
ENDBRANCH  22  23
ENDBRANCH  20  22
ENDBRANCH  14  16
ENDBRANCH   7   9
ENDBRANCH   4   7
ENDBRANCH   2   3
ENDBRANCH   1   2
BRANCH   1  33
ATOM     33  C   UNL A   1      38.225  31.389  35.657  1.00  0.00     0.002 C 
BRANCH  33  34
ATOM     34  C   UNL A   1      39.284  31.948  36.612  1.00  0.00     0.002 C 
BRANCH  34  35
ATOM     35  C   UNL A   1      38.788  33.046  37.556  1.00  0.00     0.021 C 
BRANCH  35  36
ATOM     36  C   UNL A   1      39.847  34.070  37.951  1.00  0.00     0.116 C 
BRANCH  36  37
ATOM     37  N   UNL A   1      39.607  35.365  37.336  1.00  0.00    -0.352 N 
ATOM     38  C   UNL A   1      40.027  35.831  36.114  1.00  0.00     0.251 C 
ATOM     39  H   UNL A   1      39.068  35.995  37.868  1.00  0.00     0.163 HD
ATOM     40  O   UNL A   1      39.911  37.021  35.838  1.00  0.00    -0.269 OA
BRANCH  38  41
ATOM     41  C   UNL A   1      40.642  34.895  35.148  1.00  0.00     0.039 A 
ATOM     42  C   UNL A   1      41.971  34.504  35.331  1.00  0.00     0.014 A 
ATOM     43  C   UNL A   1      39.904  34.399  34.068  1.00  0.00     0.014 A 
ATOM     44  C   UNL A   1      42.543  33.569  34.465  1.00  0.00     0.010 A 
ATOM     45  C   UNL A   1      40.455  33.420  33.247  1.00  0.00     0.010 A 
ATOM     46  C   UNL A   1      41.779  32.995  33.436  1.00  0.00    -0.014 A 
BRANCH  46  47
ATOM     47  C   UNL A   1      42.345  31.955  32.537  1.00  0.00     0.031 A 
ATOM     48  C   UNL A   1      42.490  30.541  33.026  1.00  0.00     0.074 A 
ATOM     49  C   UNL A   1      42.812  32.303  31.322  1.00  0.00     0.049 A 
ATOM     50  N   UNL A   1      43.066  29.519  32.450  1.00  0.00    -0.248 NA
ATOM     51  C   UNL A   1      41.945  30.254  34.361  1.00  0.00     0.031 C 
ATOM     52  C   UNL A   1      42.772  33.654  30.757  1.00  0.00     0.029 A 
ATOM     53  N   UNL A   1      43.433  31.556  30.353  1.00  0.00    -0.354 N 
ATOM     54  C   UNL A   1      42.973  28.469  33.359  1.00  0.00     0.074 A 
ATOM     55  C   UNL A   1      42.339  29.003  34.547  1.00  0.00     0.031 C 
ATOM     56  C   UNL A   1      43.345  33.639  29.543  1.00  0.00     0.029 A 
ATOM     57  C   UNL A   1      43.828  32.291  29.259  1.00  0.00     0.049 A 
ATOM     58  H   UNL A   1      43.582  30.586  30.432  1.00  0.00     0.167 HD
ATOM     59  C   UNL A   1      43.363  27.178  33.209  1.00  0.00     0.034 A 
ATOM     60  C   UNL A   1      44.522  31.927  28.163  1.00  0.00     0.034 A 
ATOM     61  C   UNL A   1      43.981  26.664  32.010  1.00  0.00     0.049 A 
ATOM     62  C   UNL A   1      44.951  30.491  28.013  1.00  0.00     0.074 A 
ATOM     63  C   UNL A   1      44.346  25.362  31.717  1.00  0.00     0.029 A 
ATOM     64  N   UNL A   1      44.340  27.432  30.909  1.00  0.00    -0.354 N 
ATOM     65  N   UNL A   1      44.798  29.494  28.853  1.00  0.00    -0.248 NA
ATOM     66  C   UNL A   1      45.633  30.129  26.764  1.00  0.00     0.031 C 
ATOM     67  C   UNL A   1      44.983  25.353  30.471  1.00  0.00     0.029 A 
ATOM     68  C   UNL A   1      44.951  26.637  29.950  1.00  0.00     0.049 A 
ATOM     69  H   UNL A   1      44.182  28.400  30.821  1.00  0.00     0.167 HD
ATOM     70  C   UNL A   1      45.345  28.380  28.224  1.00  0.00     0.074 A 
ATOM     71  C   UNL A   1      45.821  28.827  26.930  1.00  0.00     0.031 C 
ATOM     72  C   UNL A   1      45.437  27.101  28.671  1.00  0.00     0.034 A 
BRANCH  59  73
ATOM     73  C   UNL A   1      43.156  26.252  34.385  1.00  0.00     0.023 A 
ATOM     74  C   UNL A   1      44.240  25.680  35.075  1.00  0.00     0.031 A 
ATOM     75  C   UNL A   1      41.858  25.893  34.791  1.00  0.00     0.131 A 
ATOM     76  C   UNL A   1      44.011  24.709  36.061  1.00  0.00     0.055 A 
ATOM     77  C   UNL A   1      41.636  24.994  35.837  1.00  0.00     0.041 A 
ATOM     78  F   UNL A   1      40.783  26.391  34.161  1.00  0.00    -0.206 F 
ATOM     79  C   UNL A   1      42.715  24.379  36.465  1.00  0.00     0.022 A 
BRANCH  76  80
ATOM     80  S   UNL A   1      45.426  23.757  36.680  1.00  0.00     0.124 S 
ATOM     81  O   UNL A   1      46.519  24.299  35.877  1.00  0.00    -0.237 OA
ATOM     82  O   UNL A   1      45.441  24.102  38.097  1.00  0.00    -0.237 OA
ATOM     83  O   UNL A   1      45.067  22.373  36.377  1.00  0.00    -0.744 OA
ENDBRANCH  76  80
ENDBRANCH  59  73
BRANCH  60  84
ATOM     84  C   UNL A   1      44.877  32.945  27.135  1.00  0.00     0.023 A 
ATOM     85  C   UNL A   1      45.877  33.900  27.370  1.00  0.00     0.031 A 
ATOM     86  C   UNL A   1      44.209  32.977  25.897  1.00  0.00     0.131 A 
ATOM     87  C   UNL A   1      46.160  34.869  26.394  1.00  0.00     0.055 A 
ATOM     88  C   UNL A   1      44.524  33.915  24.913  1.00  0.00     0.041 A 
ATOM     89  F   UNL A   1      43.252  32.078  25.619  1.00  0.00    -0.206 F 
ATOM     90  C   UNL A   1      45.499  34.875  25.163  1.00  0.00     0.022 A 
BRANCH  87  91
ATOM     91  S   UNL A   1      47.374  36.161  26.778  1.00  0.00     0.124 S 
ATOM     92  O   UNL A   1      47.721  36.648  25.448  1.00  0.00    -0.237 OA
ATOM     93  O   UNL A   1      46.595  37.072  27.611  1.00  0.00    -0.237 OA
ATOM     94  O   UNL A   1      48.433  35.436  27.476  1.00  0.00    -0.744 OA
ENDBRANCH  87  91
ENDBRANCH  60  84
BRANCH  72  95
ATOM     95  C   UNL A   1      46.045  26.089  27.733  1.00  0.00     0.023 A 
ATOM     96  C   UNL A   1      45.252  25.272  26.908  1.00  0.00     0.031 A 
ATOM     97  C   UNL A   1      47.443  25.944  27.661  1.00  0.00     0.131 A 
ATOM     98  C   UNL A   1      45.860  24.318  26.078  1.00  0.00     0.055 A 
ATOM     99  C   UNL A   1      48.044  25.032  26.795  1.00  0.00     0.041 A 
ATOM    100  F   UNL A   1      48.246  26.698  28.429  1.00  0.00    -0.206 F 
ATOM    101  C   UNL A   1      47.252  24.204  26.004  1.00  0.00     0.022 A 
BRANCH  98 102
ATOM    102  S   UNL A   1      44.807  23.174  25.144  1.00  0.00     0.124 S 
ATOM    103  O   UNL A   1      44.307  22.294  26.196  1.00  0.00    -0.237 OA
ATOM    104  O   UNL A   1      43.825  24.072  24.544  1.00  0.00    -0.237 OA
ATOM    105  O   UNL A   1      45.731  22.549  24.200  1.00  0.00    -0.744 OA
ENDBRANCH  98 102
ENDBRANCH  72  95
ENDBRANCH  46  47
ENDBRANCH  38  41
ENDBRANCH  36  37
ENDBRANCH  35  36
ENDBRANCH  34  35
ENDBRANCH  33  34
ENDBRANCH   1  33
TORSDOF 21
ENDMDL
MODEL 2
REMARK VINA RESULT:      -8.6      3.652     10.235
REMARK SMILES C[C@@H](C(=O)NCCCCCCNC(=O)c1ccc(-c2c3nc(c(-c4cc(S(=O)(=O)[O-])ccc4F)c4ccc([nH]4)c(-c4cc(S(=O)(=O)[O-])ccc4F)c4nc(c(-c5cc(S(=O)(=O)[O-])ccc5F)c5ccc2[nH]5)C=C4)C=C3)cc1)c1ccc(-c2cccc(OC(=O)Nc3ccccc3)c2)c(F)c1
REMARK SMILES IDX 7 1 6 2 5 3 3 4 4 5 2 7 1 8 78 9 79 10 100 11 80 12 98 13
REMARK SMILES IDX 81 14 99 15 82 16 83 17 97 18 84 19 86 20 85 21 87 22 88 23
REMARK SMILES IDX 89 24 90 25 91 27 92 28 96 29 93 30 95 31 94 32 8 33 9 34
REMARK SMILES IDX 10 35 11 36 12 37 13 38 14 40 15 41 16 42 77 43 17 44 76 45
REMARK SMILES IDX 18 46 19 47 20 48 70 49 21 50 75 51 69 52 71 53 22 54 74 55
REMARK SMILES IDX 68 56 67 57 23 59 55 60 35 61 54 62 36 63 39 64 53 65 72 66
REMARK SMILES IDX 37 67 38 68 52 70 73 71 40 72 24 73 25 74 33 75 26 76 32 77
REMARK SMILES IDX 34 78 31 79 27 80 28 81 29 82 30 83 56 84 57 85 65 86 58 87
REMARK SMILES IDX 64 88 66 89 63 90 59 91 60 92 61 93 62 94 41 95 42 96 50 97
REMARK SMILES IDX 43 98 49 99 51 100 48 101 44 102 45 103 46 104 47 105
REMARK H PARENT 5 6 90 26 12 39 71 58 39 69
REMARK Flexibility Score: inf
ROOT
ATOM      1  C   UNL A   1      44.846  31.173  37.235  1.00  0.00     0.021 C 
ENDROOT
BRANCH   1   2
ATOM      2  C   UNL A   1      44.309  31.488  38.634  1.00  0.00     0.116 C 
BRANCH   2   3
ATOM      3  N   UNL A   1      42.862  31.533  38.614  1.00  0.00    -0.356 N 
ATOM      4  C   UNL A   1      42.024  32.589  38.406  1.00  0.00     0.227 C 
ATOM      5  O   UNL A   1      40.833  32.413  38.670  1.00  0.00    -0.274 OA
ATOM      6  H   UNL A   1      42.415  30.670  38.774  1.00  0.00     0.163 HD
BRANCH   4   7
ATOM      7  C   UNL A   1      42.570  33.907  37.819  1.00  0.00     0.105 C 
ATOM      8  C   UNL A   1      42.089  35.118  38.627  1.00  0.00     0.023 C 
BRANCH   7   9
ATOM      9  C   UNL A   1      42.239  34.012  36.329  1.00  0.00    -0.033 A 
ATOM     10  C   UNL A   1      42.568  33.006  35.408  1.00  0.00     0.005 A 
ATOM     11  C   UNL A   1      41.648  35.188  35.841  1.00  0.00     0.044 A 
ATOM     12  C   UNL A   1      42.324  33.176  34.042  1.00  0.00     0.012 A 
ATOM     13  C   UNL A   1      41.422  35.354  34.474  1.00  0.00     0.131 A 
ATOM     14  C   UNL A   1      41.763  34.361  33.547  1.00  0.00     0.018 A 
ATOM     15  F   UNL A   1      40.884  36.512  34.056  1.00  0.00    -0.206 F 
BRANCH  14  16
ATOM     16  C   UNL A   1      41.631  34.560  32.100  1.00  0.00    -0.012 A 
ATOM     17  C   UNL A   1      40.398  34.387  31.448  1.00  0.00     0.009 A 
ATOM     18  C   UNL A   1      42.766  34.851  31.324  1.00  0.00     0.056 A 
ATOM     19  C   UNL A   1      40.301  34.489  30.058  1.00  0.00     0.004 A 
ATOM     20  C   UNL A   1      42.670  34.927  29.938  1.00  0.00     0.133 A 
ATOM     21  C   UNL A   1      41.439  34.755  29.302  1.00  0.00     0.047 A 
BRANCH  20  22
ATOM     22  O   UNL A   1      43.769  35.142  29.071  1.00  0.00    -0.410 OA
BRANCH  22  23
ATOM     23  C   UNL A   1      44.156  34.327  28.011  1.00  0.00     0.417 C 
ATOM     24  O   UNL A   1      44.168  34.647  26.825  1.00  0.00    -0.224 OA
ATOM     25  N   UNL A   1      44.654  33.102  28.377  1.00  0.00    -0.291 N 
ATOM     26  H   UNL A   1      45.036  32.577  27.637  1.00  0.00     0.173 HD
BRANCH  25  27
ATOM     27  C   UNL A   1      44.713  32.474  29.629  1.00  0.00     0.044 A 
ATOM     28  C   UNL A   1      45.817  32.774  30.436  1.00  0.00     0.026 A 
ATOM     29  C   UNL A   1      43.763  31.562  30.094  1.00  0.00     0.026 A 
ATOM     30  C   UNL A   1      45.944  32.209  31.707  1.00  0.00     0.002 A 
ATOM     31  C   UNL A   1      43.899  30.985  31.360  1.00  0.00     0.002 A 
ATOM     32  C   UNL A   1      44.982  31.315  32.171  1.00  0.00     0.000 A 
ENDBRANCH  25  27
ENDBRANCH  22  23
ENDBRANCH  20  22
ENDBRANCH  14  16
ENDBRANCH   7   9
ENDBRANCH   4   7
ENDBRANCH   2   3
ENDBRANCH   1   2
BRANCH   1  33
ATOM     33  C   UNL A   1      46.068  30.244  37.229  1.00  0.00     0.002 C 
BRANCH  33  34
ATOM     34  C   UNL A   1      46.985  30.371  38.449  1.00  0.00     0.002 C 
BRANCH  34  35
ATOM     35  C   UNL A   1      47.390  29.044  39.094  1.00  0.00     0.021 C 
BRANCH  35  36
ATOM     36  C   UNL A   1      46.708  27.816  38.500  1.00  0.00     0.116 C 
BRANCH  36  37
ATOM     37  N   UNL A   1      47.644  26.966  37.784  1.00  0.00    -0.352 N 
ATOM     38  C   UNL A   1      47.501  26.366  36.557  1.00  0.00     0.251 C 
ATOM     39  H   UNL A   1      48.501  26.798  38.241  1.00  0.00     0.163 HD
ATOM     40  O   UNL A   1      48.306  25.514  36.193  1.00  0.00    -0.269 OA
BRANCH  38  41
ATOM     41  C   UNL A   1      46.358  26.735  35.693  1.00  0.00     0.039 A 
ATOM     42  C   UNL A   1      45.184  25.980  35.758  1.00  0.00     0.014 A 
ATOM     43  C   UNL A   1      46.445  27.829  34.827  1.00  0.00     0.014 A 
ATOM     44  C   UNL A   1      44.075  26.358  34.998  1.00  0.00     0.010 A 
ATOM     45  C   UNL A   1      45.320  28.242  34.121  1.00  0.00     0.010 A 
ATOM     46  C   UNL A   1      44.124  27.511  34.198  1.00  0.00    -0.014 A 
BRANCH  46  47
ATOM     47  C   UNL A   1      42.940  27.969  33.424  1.00  0.00     0.031 A 
ATOM     48  C   UNL A   1      42.842  27.665  31.954  1.00  0.00     0.074 A 
ATOM     49  C   UNL A   1      42.007  28.736  34.021  1.00  0.00     0.049 A 
ATOM     50  N   UNL A   1      41.961  28.075  31.080  1.00  0.00    -0.248 NA
ATOM     51  C   UNL A   1      43.902  26.816  31.393  1.00  0.00     0.031 C 
ATOM     52  C   UNL A   1      42.020  29.140  35.429  1.00  0.00     0.029 A 
ATOM     53  N   UNL A   1      40.880  29.333  33.515  1.00  0.00    -0.354 N 
ATOM     54  C   UNL A   1      42.371  27.551  29.857  1.00  0.00     0.074 A 
ATOM     55  C   UNL A   1      43.612  26.848  30.101  1.00  0.00     0.031 C 
ATOM     56  C   UNL A   1      40.954  29.918  35.672  1.00  0.00     0.029 A 
ATOM     57  C   UNL A   1      40.203  30.102  34.433  1.00  0.00     0.049 A 
ATOM     58  H   UNL A   1      40.582  29.220  32.583  1.00  0.00     0.167 HD
ATOM     59  C   UNL A   1      41.757  27.635  28.649  1.00  0.00     0.034 A 
ATOM     60  C   UNL A   1      39.117  30.887  34.290  1.00  0.00     0.034 A 
ATOM     61  C   UNL A   1      40.511  28.331  28.432  1.00  0.00     0.049 A 
ATOM     62  C   UNL A   1      38.451  30.971  32.942  1.00  0.00     0.074 A 
ATOM     63  C   UNL A   1      39.761  28.415  27.273  1.00  0.00     0.029 A 
ATOM     64  N   UNL A   1      39.838  29.075  29.394  1.00  0.00    -0.354 N 
ATOM     65  N   UNL A   1      38.812  30.418  31.808  1.00  0.00    -0.248 NA
ATOM     66  C   UNL A   1      37.225  31.775  32.858  1.00  0.00     0.031 C 
ATOM     67  C   UNL A   1      38.673  29.263  27.513  1.00  0.00     0.029 A 
ATOM     68  C   UNL A   1      38.701  29.649  28.844  1.00  0.00     0.049 A 
ATOM     69  H   UNL A   1      40.127  29.179  30.329  1.00  0.00     0.167 HD
ATOM     70  C   UNL A   1      37.844  30.787  30.880  1.00  0.00     0.074 A 
ATOM     71  C   UNL A   1      36.878  31.602  31.590  1.00  0.00     0.031 C 
ATOM     72  C   UNL A   1      37.756  30.474  29.561  1.00  0.00     0.034 A 
BRANCH  59  73
ATOM     73  C   UNL A   1      42.449  26.982  27.476  1.00  0.00     0.023 A 
ATOM     74  C   UNL A   1      42.212  25.640  27.130  1.00  0.00     0.031 A 
ATOM     75  C   UNL A   1      43.401  27.693  26.722  1.00  0.00     0.131 A 
ATOM     76  C   UNL A   1      42.983  25.023  26.134  1.00  0.00     0.055 A 
ATOM     77  C   UNL A   1      44.100  27.099  25.669  1.00  0.00     0.041 A 
ATOM     78  F   UNL A   1      43.686  28.972  27.013  1.00  0.00    -0.206 F 
ATOM     79  C   UNL A   1      43.909  25.750  25.383  1.00  0.00     0.022 A 
BRANCH  76  80
ATOM     80  S   UNL A   1      42.883  23.220  25.956  1.00  0.00     0.124 S 
ATOM     81  O   UNL A   1      43.265  23.042  24.557  1.00  0.00    -0.237 OA
ATOM     82  O   UNL A   1      43.846  22.753  26.946  1.00  0.00    -0.237 OA
ATOM     83  O   UNL A   1      41.485  22.923  26.255  1.00  0.00    -0.744 OA
ENDBRANCH  76  80
ENDBRANCH  59  73
BRANCH  60  84
ATOM     84  C   UNL A   1      38.610  31.674  35.448  1.00  0.00     0.023 A 
ATOM     85  C   UNL A   1      38.095  31.041  36.590  1.00  0.00     0.031 A 
ATOM     86  C   UNL A   1      38.629  33.080  35.423  1.00  0.00     0.131 A 
ATOM     87  C   UNL A   1      37.589  31.814  37.647  1.00  0.00     0.055 A 
ATOM     88  C   UNL A   1      38.165  33.844  36.496  1.00  0.00     0.041 A 
ATOM     89  F   UNL A   1      39.121  33.733  34.359  1.00  0.00    -0.206 F 
ATOM     90  C   UNL A   1      37.632  33.209  37.613  1.00  0.00     0.022 A 
BRANCH  87  91
ATOM     91  S   UNL A   1      36.822  30.964  39.055  1.00  0.00     0.124 S 
ATOM     92  O   UNL A   1      37.849  31.101  40.081  1.00  0.00    -0.237 OA
ATOM     93  O   UNL A   1      35.607  31.746  39.255  1.00  0.00    -0.237 OA
ATOM     94  O   UNL A   1      36.611  29.606  38.558  1.00  0.00    -0.744 OA
ENDBRANCH  87  91
ENDBRANCH  60  84
BRANCH  72  95
ATOM     95  C   UNL A   1      36.551  30.987  28.813  1.00  0.00     0.023 A 
ATOM     96  C   UNL A   1      35.583  30.118  28.281  1.00  0.00     0.031 A 
ATOM     97  C   UNL A   1      36.368  32.371  28.637  1.00  0.00     0.131 A 
ATOM     98  C   UNL A   1      34.498  30.639  27.560  1.00  0.00     0.055 A 
ATOM     99  C   UNL A   1      35.259  32.886  27.965  1.00  0.00     0.041 A 
ATOM    100  F   UNL A   1      37.264  33.245  29.123  1.00  0.00    -0.206 F 
ATOM    101  C   UNL A   1      34.321  32.018  27.413  1.00  0.00     0.022 A 
BRANCH  98 102
ATOM    102  S   UNL A   1      33.351  29.488  26.753  1.00  0.00     0.124 S 
ATOM    103  O   UNL A   1      32.573  30.383  25.901  1.00  0.00    -0.237 OA
ATOM    104  O   UNL A   1      34.258  28.577  26.062  1.00  0.00    -0.237 OA
ATOM    105  O   UNL A   1      32.614  28.898  27.869  1.00  0.00    -0.744 OA
ENDBRANCH  98 102
ENDBRANCH  72  95
ENDBRANCH  46  47
ENDBRANCH  38  41
ENDBRANCH  36  37
ENDBRANCH  35  36
ENDBRANCH  34  35
ENDBRANCH  33  34
ENDBRANCH   1  33
TORSDOF 21
ENDMDL
MODEL 3
REMARK VINA RESULT:      -8.6      2.864      4.417
REMARK SMILES C[C@@H](C(=O)NCCCCCCNC(=O)c1ccc(-c2c3nc(c(-c4cc(S(=O)(=O)[O-])ccc4F)c4ccc([nH]4)c(-c4cc(S(=O)(=O)[O-])ccc4F)c4nc(c(-c5cc(S(=O)(=O)[O-])ccc5F)c5ccc2[nH]5)C=C4)C=C3)cc1)c1ccc(-c2cccc(OC(=O)Nc3ccccc3)c2)c(F)c1
REMARK SMILES IDX 7 1 6 2 5 3 3 4 4 5 2 7 1 8 78 9 79 10 100 11 80 12 98 13
REMARK SMILES IDX 81 14 99 15 82 16 83 17 97 18 84 19 86 20 85 21 87 22 88 23
REMARK SMILES IDX 89 24 90 25 91 27 92 28 96 29 93 30 95 31 94 32 8 33 9 34
REMARK SMILES IDX 10 35 11 36 12 37 13 38 14 40 15 41 16 42 77 43 17 44 76 45
REMARK SMILES IDX 18 46 19 47 20 48 70 49 21 50 75 51 69 52 71 53 22 54 74 55
REMARK SMILES IDX 68 56 67 57 23 59 55 60 35 61 54 62 36 63 39 64 53 65 72 66
REMARK SMILES IDX 37 67 38 68 52 70 73 71 40 72 24 73 25 74 33 75 26 76 32 77
REMARK SMILES IDX 34 78 31 79 27 80 28 81 29 82 30 83 56 84 57 85 65 86 58 87
REMARK SMILES IDX 64 88 66 89 63 90 59 91 60 92 61 93 62 94 41 95 42 96 50 97
REMARK SMILES IDX 43 98 49 99 51 100 48 101 44 102 45 103 46 104 47 105
REMARK H PARENT 5 6 90 26 12 39 71 58 39 69
REMARK Flexibility Score: inf
ROOT
ATOM      1  C   UNL A   1      35.278  33.346  28.882  1.00  0.00     0.021 C 
ENDROOT
BRANCH   1   2
ATOM      2  C   UNL A   1      36.517  32.992  28.055  1.00  0.00     0.116 C 
BRANCH   2   3
ATOM      3  N   UNL A   1      37.646  32.744  28.927  1.00  0.00    -0.356 N 
ATOM      4  C   UNL A   1      38.081  31.576  29.480  1.00  0.00     0.227 C 
ATOM      5  O   UNL A   1      38.927  31.666  30.372  1.00  0.00    -0.274 OA
ATOM      6  H   UNL A   1      38.180  33.539  29.154  1.00  0.00     0.163 HD
BRANCH   4   7
ATOM      7  C   UNL A   1      37.556  30.226  28.952  1.00  0.00     0.105 C 
ATOM      8  C   UNL A   1      36.356  29.735  29.770  1.00  0.00     0.023 C 
BRANCH   7   9
ATOM      9  C   UNL A   1      38.687  29.199  28.875  1.00  0.00    -0.033 A 
ATOM     10  C   UNL A   1      38.690  28.017  29.631  1.00  0.00     0.005 A 
ATOM     11  C   UNL A   1      39.808  29.473  28.075  1.00  0.00     0.044 A 
ATOM     12  C   UNL A   1      39.782  27.144  29.597  1.00  0.00     0.012 A 
ATOM     13  C   UNL A   1      40.899  28.603  28.059  1.00  0.00     0.131 A 
ATOM     14  C   UNL A   1      40.914  27.430  28.824  1.00  0.00     0.018 A 
ATOM     15  F   UNL A   1      41.959  28.930  27.302  1.00  0.00    -0.206 F 
BRANCH  14  16
ATOM     16  C   UNL A   1      42.093  26.560  28.901  1.00  0.00    -0.012 A 
ATOM     17  C   UNL A   1      43.184  26.878  29.728  1.00  0.00     0.009 A 
ATOM     18  C   UNL A   1      42.182  25.425  28.077  1.00  0.00     0.056 A 
ATOM     19  C   UNL A   1      44.338  26.091  29.726  1.00  0.00     0.004 A 
ATOM     20  C   UNL A   1      43.343  24.659  28.058  1.00  0.00     0.133 A 
ATOM     21  C   UNL A   1      44.420  24.983  28.886  1.00  0.00     0.047 A 
BRANCH  20  22
ATOM     22  O   UNL A   1      43.553  23.544  27.210  1.00  0.00    -0.410 OA
BRANCH  22  23
ATOM     23  C   UNL A   1      43.131  23.421  25.889  1.00  0.00     0.417 C 
ATOM     24  O   UNL A   1      42.311  22.609  25.469  1.00  0.00    -0.224 OA
ATOM     25  N   UNL A   1      43.623  24.376  25.036  1.00  0.00    -0.291 N 
ATOM     26  H   UNL A   1      43.232  24.359  24.133  1.00  0.00     0.173 HD
BRANCH  25  27
ATOM     27  C   UNL A   1      44.589  25.373  25.234  1.00  0.00     0.044 A 
ATOM     28  C   UNL A   1      44.120  26.680  25.414  1.00  0.00     0.026 A 
ATOM     29  C   UNL A   1      45.966  25.142  25.234  1.00  0.00     0.026 A 
ATOM     30  C   UNL A   1      45.012  27.731  25.640  1.00  0.00     0.002 A 
ATOM     31  C   UNL A   1      46.859  26.197  25.444  1.00  0.00     0.002 A 
ATOM     32  C   UNL A   1      46.383  27.488  25.658  1.00  0.00     0.000 A 
ENDBRANCH  25  27
ENDBRANCH  22  23
ENDBRANCH  20  22
ENDBRANCH  14  16
ENDBRANCH   7   9
ENDBRANCH   4   7
ENDBRANCH   2   3
ENDBRANCH   1   2
BRANCH   1  33
ATOM     33  C   UNL A   1      35.586  34.139  30.160  1.00  0.00     0.002 C 
BRANCH  33  34
ATOM     34  C   UNL A   1      35.171  33.453  31.465  1.00  0.00     0.002 C 
BRANCH  34  35
ATOM     35  C   UNL A   1      36.313  33.195  32.450  1.00  0.00     0.021 C 
BRANCH  35  36
ATOM     36  C   UNL A   1      36.564  31.722  32.758  1.00  0.00     0.116 C 
BRANCH  36  37
ATOM     37  N   UNL A   1      36.788  31.493  34.176  1.00  0.00    -0.352 N 
ATOM     38  C   UNL A   1      37.874  30.928  34.798  1.00  0.00     0.251 C 
ATOM     39  H   UNL A   1      36.062  31.785  34.774  1.00  0.00     0.163 HD
ATOM     40  O   UNL A   1      37.812  30.623  35.985  1.00  0.00    -0.269 OA
BRANCH  38  41
ATOM     41  C   UNL A   1      39.106  30.667  34.021  1.00  0.00     0.039 A 
ATOM     42  C   UNL A   1      40.182  31.551  34.135  1.00  0.00     0.014 A 
ATOM     43  C   UNL A   1      39.199  29.547  33.189  1.00  0.00     0.014 A 
ATOM     44  C   UNL A   1      41.375  31.280  33.460  1.00  0.00     0.010 A 
ATOM     45  C   UNL A   1      40.408  29.245  32.570  1.00  0.00     0.010 A 
ATOM     46  C   UNL A   1      41.508  30.108  32.698  1.00  0.00    -0.014 A 
BRANCH  46  47
ATOM     47  C   UNL A   1      42.784  29.766  32.017  1.00  0.00     0.031 A 
ATOM     48  C   UNL A   1      43.700  28.734  32.617  1.00  0.00     0.074 A 
ATOM     49  C   UNL A   1      43.160  30.448  30.918  1.00  0.00     0.049 A 
ATOM     50  N   UNL A   1      44.904  28.381  32.251  1.00  0.00    -0.248 NA
ATOM     51  C   UNL A   1      43.202  28.037  33.811  1.00  0.00     0.031 C 
ATOM     52  C   UNL A   1      42.379  31.507  30.273  1.00  0.00     0.029 A 
ATOM     53  N   UNL A   1      44.303  30.372  30.163  1.00  0.00    -0.354 N 
ATOM     54  C   UNL A   1      45.320  27.434  33.182  1.00  0.00     0.074 A 
ATOM     55  C   UNL A   1      44.258  27.319  34.160  1.00  0.00     0.031 C 
ATOM     56  C   UNL A   1      43.067  31.981  29.222  1.00  0.00     0.029 A 
ATOM     57  C   UNL A   1      44.351  31.291  29.141  1.00  0.00     0.049 A 
ATOM     58  H   UNL A   1      45.021  29.721  30.336  1.00  0.00     0.167 HD
ATOM     59  C   UNL A   1      46.471  26.715  33.206  1.00  0.00     0.034 A 
ATOM     60  C   UNL A   1      45.327  31.566  28.253  1.00  0.00     0.034 A 
ATOM     61  C   UNL A   1      47.510  26.836  32.211  1.00  0.00     0.049 A 
ATOM     62  C   UNL A   1      46.600  30.761  28.296  1.00  0.00     0.074 A 
ATOM     63  C   UNL A   1      48.680  26.107  32.091  1.00  0.00     0.029 A 
ATOM     64  N   UNL A   1      47.511  27.759  31.171  1.00  0.00    -0.354 N 
ATOM     65  N   UNL A   1      46.953  29.823  29.143  1.00  0.00    -0.248 NA
ATOM     66  C   UNL A   1      47.599  31.044  27.258  1.00  0.00     0.031 C 
ATOM     67  C   UNL A   1      49.417  26.630  31.023  1.00  0.00     0.029 A 
ATOM     68  C   UNL A   1      48.676  27.638  30.427  1.00  0.00     0.049 A 
ATOM     69  H   UNL A   1      46.789  28.403  30.989  1.00  0.00     0.167 HD
ATOM     70  C   UNL A   1      48.207  29.386  28.724  1.00  0.00     0.074 A 
ATOM     71  C   UNL A   1      48.542  30.158  27.544  1.00  0.00     0.031 C 
ATOM     72  C   UNL A   1      49.005  28.427  29.262  1.00  0.00     0.034 A 
BRANCH  59  73
ATOM     73  C   UNL A   1      46.667  25.763  34.363  1.00  0.00     0.023 A 
ATOM     74  C   UNL A   1      46.273  24.416  34.287  1.00  0.00     0.031 A 
ATOM     75  C   UNL A   1      47.207  26.220  35.579  1.00  0.00     0.131 A 
ATOM     76  C   UNL A   1      46.329  23.602  35.428  1.00  0.00     0.055 A 
ATOM     77  C   UNL A   1      47.347  25.378  36.685  1.00  0.00     0.041 A 
ATOM     78  F   UNL A   1      47.586  27.500  35.721  1.00  0.00    -0.206 F 
ATOM     79  C   UNL A   1      46.887  24.066  36.621  1.00  0.00     0.022 A 
BRANCH  76  80
ATOM     80  S   UNL A   1      45.502  21.988  35.379  1.00  0.00     0.124 S 
ATOM     81  O   UNL A   1      46.270  21.295  34.346  1.00  0.00    -0.237 OA
ATOM     82  O   UNL A   1      45.679  21.502  36.742  1.00  0.00    -0.237 OA
ATOM     83  O   UNL A   1      44.128  22.318  35.007  1.00  0.00    -0.744 OA
ENDBRANCH  76  80
ENDBRANCH  59  73
BRANCH  60  84
ATOM     84  C   UNL A   1      45.149  32.668  27.268  1.00  0.00     0.023 A 
ATOM     85  C   UNL A   1      45.813  33.895  27.419  1.00  0.00     0.031 A 
ATOM     86  C   UNL A   1      44.301  32.507  26.157  1.00  0.00     0.131 A 
ATOM     87  C   UNL A   1      45.592  34.926  26.492  1.00  0.00     0.055 A 
ATOM     88  C   UNL A   1      44.119  33.521  25.214  1.00  0.00     0.041 A 
ATOM     89  F   UNL A   1      43.651  31.349  25.961  1.00  0.00    -0.206 F 
ATOM     90  C   UNL A   1      44.760  34.743  25.385  1.00  0.00     0.022 A 
BRANCH  87  91
ATOM     91  S   UNL A   1      46.372  36.538  26.783  1.00  0.00     0.124 S 
ATOM     92  O   UNL A   1      45.234  37.443  26.671  1.00  0.00    -0.237 OA
ATOM     93  O   UNL A   1      46.928  36.369  28.122  1.00  0.00    -0.237 OA
ATOM     94  O   UNL A   1      47.359  36.638  25.710  1.00  0.00    -0.744 OA
ENDBRANCH  87  91
ENDBRANCH  60  84
BRANCH  72  95
ATOM     95  C   UNL A   1      50.302  28.138  28.551  1.00  0.00     0.023 A 
ATOM     96  C   UNL A   1      50.354  27.326  27.405  1.00  0.00     0.031 A 
ATOM     97  C   UNL A   1      51.506  28.689  29.028  1.00  0.00     0.131 A 
ATOM     98  C   UNL A   1      51.590  27.053  26.798  1.00  0.00     0.055 A 
ATOM     99  C   UNL A   1      52.724  28.458  28.390  1.00  0.00     0.041 A 
ATOM    100  F   UNL A   1      51.512  29.470  30.120  1.00  0.00    -0.206 F 
ATOM    101  C   UNL A   1      52.773  27.627  27.274  1.00  0.00     0.022 A 
BRANCH  98 102
ATOM    102  S   UNL A   1      51.645  25.878  25.417  1.00  0.00     0.124 S 
ATOM    103  O   UNL A   1      50.251  25.856  24.982  1.00  0.00    -0.237 OA
ATOM    104  O   UNL A   1      52.588  26.514  24.503  1.00  0.00    -0.237 OA
ATOM    105  O   UNL A   1      52.121  24.642  26.035  1.00  0.00    -0.744 OA
ENDBRANCH  98 102
ENDBRANCH  72  95
ENDBRANCH  46  47
ENDBRANCH  38  41
ENDBRANCH  36  37
ENDBRANCH  35  36
ENDBRANCH  34  35
ENDBRANCH  33  34
ENDBRANCH   1  33
TORSDOF 21
ENDMDL
