MODEL 1
REMARK VINA RESULT:     -10.9      0.000      0.000
REMARK SMILES COc1ccccc1C[N@@H+](C)[C@@H](C)c1ccc(C(=O)NCCCCCCNC(=O)c2ccc(-c3c4nc(c(-c5cc(S(=O)(=O)[O-])ccc5F)c5ccc([nH]5)c(-c5cc(S(=O)(=O)[O-])ccc5F)c5nc(c(-c6cc(S(=O)(=O)[O-])ccc6F)c6ccc3[nH]6)C=C5)C=C4)cc2)o1
REMARK SMILES IDX 22 1 21 2 20 3 18 4 19 5 17 7 14 8 15 9 93 10 16 11 12 12
REMARK SMILES IDX 13 13 10 14 11 15 9 17 8 18 3 19 4 20 5 21 7 22 6 23 2 24
REMARK SMILES IDX 1 25 23 26 24 27 25 28 26 29 27 30 28 31 29 33 30 34 31 35
REMARK SMILES IDX 92 36 32 37 91 38 33 39 34 40 35 41 85 42 36 43 90 44 84 45
REMARK SMILES IDX 86 46 37 47 89 48 83 49 82 50 38 52 70 53 50 54 69 55 51 56
REMARK SMILES IDX 54 57 68 58 87 59 52 60 53 61 67 63 88 64 55 65 39 66 40 67
REMARK SMILES IDX 48 68 41 69 47 70 49 71 46 72 42 73 43 74 44 75 45 76 71 77
REMARK SMILES IDX 72 78 80 79 73 80 79 81 81 82 78 83 74 84 75 85 76 86 77 87
REMARK SMILES IDX 56 88 57 89 65 90 58 91 64 92 66 93 63 94 59 95 60 96 61 97
REMARK SMILES IDX 62 98
REMARK H PARENT 20 6 10 16 27 32 86 51 54 62
REMARK Flexibility Score: inf
ROOT
ATOM      1  C   UNL A   1      31.769  29.821  25.465  1.00  0.00     0.021 C 
ENDROOT
BRANCH   1   2
ATOM      2  C   UNL A   1      32.496  29.298  24.227  1.00  0.00     0.116 C 
BRANCH   2   3
ATOM      3  N   UNL A   1      31.739  29.512  23.015  1.00  0.00    -0.349 N 
ATOM      4  C   UNL A   1      30.557  28.971  22.561  1.00  0.00     0.287 C 
ATOM      5  O   UNL A   1      30.089  29.536  21.565  1.00  0.00    -0.266 OA
ATOM      6  H   UNL A   1      32.143  30.167  22.401  1.00  0.00     0.163 HD
BRANCH   4   7
ATOM      7  C   UNL A   1      29.933  27.816  23.190  1.00  0.00     0.191 A 
ATOM      8  C   UNL A   1      30.027  26.015  24.497  1.00  0.00     0.161 A 
ATOM      9  C   UNL A   1      28.699  26.209  24.191  1.00  0.00     0.053 A 
ATOM     10  O   UNL A   1      30.784  26.926  23.815  1.00  0.00    -0.450 OA
ATOM     11  C   UNL A   1      28.636  27.378  23.399  1.00  0.00     0.057 A 
BRANCH   8  12
ATOM     12  C   UNL A   1      30.735  25.035  25.399  1.00  0.00     0.248 C 
ATOM     13  C   UNL A   1      31.722  25.776  26.325  1.00  0.00     0.084 C 
BRANCH  12  14
ATOM     14  N   UNL A   1      31.322  23.866  24.685  1.00  0.00    -0.325 N 
ATOM     15  C   UNL A   1      30.711  23.712  23.360  1.00  0.00     0.333 C 
ATOM     16  H   UNL A   1      32.315  24.087  24.617  1.00  0.00     0.348 HD
BRANCH  14  17
ATOM     17  C   UNL A   1      31.240  22.577  25.401  1.00  0.00     0.303 C 
BRANCH  17  18
ATOM     18  C   UNL A   1      32.401  21.627  25.206  1.00  0.00     0.048 A 
ATOM     19  C   UNL A   1      33.736  22.039  25.309  1.00  0.00     0.127 A 
ATOM     20  C   UNL A   1      34.787  21.156  25.039  1.00  0.00     0.047 A 
ATOM     21  C   UNL A   1      34.517  19.825  24.724  1.00  0.00     0.004 A 
ATOM     22  C   UNL A   1      32.150  20.278  24.900  1.00  0.00     0.013 A 
ATOM     23  C   UNL A   1      33.199  19.384  24.667  1.00  0.00     0.001 A 
BRANCH  19  24
ATOM     24  O   UNL A   1      34.062  23.343  25.580  1.00  0.00    -0.496 OA
ATOM     25  C   UNL A   1      35.345  23.414  26.203  1.00  0.00     0.278 C 
ENDBRANCH  19  24
ENDBRANCH  17  18
ENDBRANCH  14  17
ENDBRANCH  12  14
ENDBRANCH   8  12
ENDBRANCH   4   7
ENDBRANCH   2   3
ENDBRANCH   1   2
BRANCH   1  26
ATOM     26  C   UNL A   1      32.451  29.453  26.791  1.00  0.00     0.002 C 
BRANCH  26  27
ATOM     27  C   UNL A   1      33.184  30.605  27.491  1.00  0.00     0.002 C 
BRANCH  27  28
ATOM     28  C   UNL A   1      32.481  31.964  27.418  1.00  0.00     0.021 C 
BRANCH  28  29
ATOM     29  C   UNL A   1      33.423  33.143  27.210  1.00  0.00     0.116 C 
BRANCH  29  30
ATOM     30  N   UNL A   1      32.939  34.334  27.887  1.00  0.00    -0.352 N 
ATOM     31  C   UNL A   1      33.260  34.810  29.135  1.00  0.00     0.251 C 
ATOM     32  H   UNL A   1      32.292  34.876  27.381  1.00  0.00     0.163 HD
ATOM     33  O   UNL A   1      32.572  35.684  29.651  1.00  0.00    -0.269 OA
BRANCH  31  34
ATOM     34  C   UNL A   1      34.427  34.250  29.849  1.00  0.00     0.039 A 
ATOM     35  C   UNL A   1      34.219  33.381  30.923  1.00  0.00     0.014 A 
ATOM     36  C   UNL A   1      35.726  34.590  29.459  1.00  0.00     0.014 A 
ATOM     37  C   UNL A   1      35.317  32.812  31.571  1.00  0.00     0.010 A 
ATOM     38  C   UNL A   1      36.814  33.961  30.055  1.00  0.00     0.010 A 
ATOM     39  C   UNL A   1      36.623  33.074  31.125  1.00  0.00    -0.014 A 
BRANCH  39  40
ATOM     40  C   UNL A   1      37.808  32.460  31.779  1.00  0.00     0.031 A 
ATOM     41  C   UNL A   1      38.527  31.325  31.100  1.00  0.00     0.074 A 
ATOM     42  C   UNL A   1      38.192  32.873  33.002  1.00  0.00     0.049 A 
ATOM     43  N   UNL A   1      39.503  30.577  31.546  1.00  0.00    -0.248 NA
ATOM     44  C   UNL A   1      38.058  30.964  29.754  1.00  0.00     0.031 C 
ATOM     45  C   UNL A   1      37.559  33.948  33.769  1.00  0.00     0.029 A 
ATOM     46  N   UNL A   1      39.201  32.432  33.822  1.00  0.00    -0.354 N 
ATOM     47  C   UNL A   1      39.754  29.647  30.542  1.00  0.00     0.074 A 
ATOM     48  C   UNL A   1      38.781  29.885  29.497  1.00  0.00     0.031 C 
ATOM     49  C   UNL A   1      38.209  34.097  34.935  1.00  0.00     0.029 A 
ATOM     50  C   UNL A   1      39.266  33.095  35.025  1.00  0.00     0.049 A 
ATOM     51  H   UNL A   1      39.820  31.709  33.571  1.00  0.00     0.167 HD
ATOM     52  C   UNL A   1      40.723  28.699  30.487  1.00  0.00     0.034 A 
ATOM     53  C   UNL A   1      40.075  32.906  36.087  1.00  0.00     0.034 A 
ATOM     54  C   UNL A   1      41.691  28.484  31.535  1.00  0.00     0.049 A 
ATOM     55  C   UNL A   1      41.117  31.817  36.022  1.00  0.00     0.074 A 
ATOM     56  C   UNL A   1      42.741  27.584  31.568  1.00  0.00     0.029 A 
ATOM     57  N   UNL A   1      41.723  29.173  32.742  1.00  0.00    -0.354 N 
ATOM     58  N   UNL A   1      41.366  30.967  35.052  1.00  0.00    -0.248 NA
ATOM     59  C   UNL A   1      41.993  31.667  37.192  1.00  0.00     0.031 C 
ATOM     60  C   UNL A   1      43.358  27.675  32.819  1.00  0.00     0.029 A 
ATOM     61  C   UNL A   1      42.753  28.694  33.536  1.00  0.00     0.049 A 
ATOM     62  H   UNL A   1      41.104  29.896  32.996  1.00  0.00     0.167 HD
ATOM     63  C   UNL A   1      42.455  30.210  35.481  1.00  0.00     0.074 A 
ATOM     64  C   UNL A   1      42.816  30.710  36.791  1.00  0.00     0.031 C 
ATOM     65  C   UNL A   1      43.101  29.200  34.844  1.00  0.00     0.034 A 
BRANCH  52  66
ATOM     66  C   UNL A   1      40.756  27.810  29.264  1.00  0.00     0.023 A 
ATOM     67  C   UNL A   1      41.694  28.005  28.234  1.00  0.00     0.031 A 
ATOM     68  C   UNL A   1      39.814  26.778  29.106  1.00  0.00     0.131 A 
ATOM     69  C   UNL A   1      41.614  27.241  27.059  1.00  0.00     0.055 A 
ATOM     70  C   UNL A   1      39.799  25.960  27.975  1.00  0.00     0.041 A 
ATOM     71  F   UNL A   1      38.879  26.556  30.043  1.00  0.00    -0.206 F 
ATOM     72  C   UNL A   1      40.691  26.202  26.934  1.00  0.00     0.022 A 
BRANCH  69  73
ATOM     73  S   UNL A   1      42.621  27.741  25.636  1.00  0.00     0.124 S 
ATOM     74  O   UNL A   1      41.879  28.899  25.142  1.00  0.00    -0.237 OA
ATOM     75  O   UNL A   1      43.914  28.023  26.247  1.00  0.00    -0.237 OA
ATOM     76  O   UNL A   1      42.585  26.569  24.763  1.00  0.00    -0.744 OA
ENDBRANCH  69  73
ENDBRANCH  52  66
BRANCH  53  77
ATOM     77  C   UNL A   1      39.933  33.753  37.307  1.00  0.00     0.023 A 
ATOM     78  C   UNL A   1      39.178  33.316  38.407  1.00  0.00     0.031 A 
ATOM     79  C   UNL A   1      40.515  35.031  37.375  1.00  0.00     0.131 A 
ATOM     80  C   UNL A   1      38.982  34.166  39.505  1.00  0.00     0.055 A 
ATOM     81  C   UNL A   1      40.367  35.851  38.496  1.00  0.00     0.041 A 
ATOM     82  F   UNL A   1      41.250  35.500  36.354  1.00  0.00    -0.206 F 
ATOM     83  C   UNL A   1      39.584  35.425  39.564  1.00  0.00     0.022 A 
BRANCH  80  84
ATOM     84  S   UNL A   1      37.849  33.640  40.820  1.00  0.00     0.124 S 
ATOM     85  O   UNL A   1      36.901  32.815  40.080  1.00  0.00    -0.237 OA
ATOM     86  O   UNL A   1      38.746  32.930  41.726  1.00  0.00    -0.237 OA
ATOM     87  O   UNL A   1      37.316  34.899  41.334  1.00  0.00    -0.744 OA
ENDBRANCH  80  84
ENDBRANCH  53  77
BRANCH  65  88
ATOM     88  C   UNL A   1      44.308  28.610  35.536  1.00  0.00     0.023 A 
ATOM     89  C   UNL A   1      44.195  27.586  36.492  1.00  0.00     0.031 A 
ATOM     90  C   UNL A   1      45.596  29.085  35.225  1.00  0.00     0.131 A 
ATOM     91  C   UNL A   1      45.344  27.108  37.142  1.00  0.00     0.055 A 
ATOM     92  C   UNL A   1      46.740  28.560  35.827  1.00  0.00     0.041 A 
ATOM     93  F   UNL A   1      45.764  30.064  34.322  1.00  0.00    -0.206 F 
ATOM     94  C   UNL A   1      46.616  27.575  36.802  1.00  0.00     0.022 A 
BRANCH  91  95
ATOM     95  S   UNL A   1      45.146  25.934  38.509  1.00  0.00     0.124 S 
ATOM     96  O   UNL A   1      44.218  26.642  39.386  1.00  0.00    -0.237 OA
ATOM     97  O   UNL A   1      44.611  24.756  37.834  1.00  0.00    -0.237 OA
ATOM     98  O   UNL A   1      46.502  25.784  39.033  1.00  0.00    -0.744 OA
ENDBRANCH  91  95
ENDBRANCH  65  88
ENDBRANCH  39  40
ENDBRANCH  31  34
ENDBRANCH  29  30
ENDBRANCH  28  29
ENDBRANCH  27  28
ENDBRANCH  26  27
ENDBRANCH   1  26
TORSDOF 21
ENDMDL
MODEL 2
REMARK VINA RESULT:     -10.8      6.234     12.046
REMARK SMILES COc1ccccc1C[N@@H+](C)[C@@H](C)c1ccc(C(=O)NCCCCCCNC(=O)c2ccc(-c3c4nc(c(-c5cc(S(=O)(=O)[O-])ccc5F)c5ccc([nH]5)c(-c5cc(S(=O)(=O)[O-])ccc5F)c5nc(c(-c6cc(S(=O)(=O)[O-])ccc6F)c6ccc3[nH]6)C=C5)C=C4)cc2)o1
REMARK SMILES IDX 22 1 21 2 20 3 18 4 19 5 17 7 14 8 15 9 93 10 16 11 12 12
REMARK SMILES IDX 13 13 10 14 11 15 9 17 8 18 3 19 4 20 5 21 7 22 6 23 2 24
REMARK SMILES IDX 1 25 23 26 24 27 25 28 26 29 27 30 28 31 29 33 30 34 31 35
REMARK SMILES IDX 92 36 32 37 91 38 33 39 34 40 35 41 85 42 36 43 90 44 84 45
REMARK SMILES IDX 86 46 37 47 89 48 83 49 82 50 38 52 70 53 50 54 69 55 51 56
REMARK SMILES IDX 54 57 68 58 87 59 52 60 53 61 67 63 88 64 55 65 39 66 40 67
REMARK SMILES IDX 48 68 41 69 47 70 49 71 46 72 42 73 43 74 44 75 45 76 71 77
REMARK SMILES IDX 72 78 80 79 73 80 79 81 81 82 78 83 74 84 75 85 76 86 77 87
REMARK SMILES IDX 56 88 57 89 65 90 58 91 64 92 66 93 63 94 59 95 60 96 61 97
REMARK SMILES IDX 62 98
REMARK H PARENT 20 6 10 16 27 32 86 51 54 62
REMARK Flexibility Score: inf
ROOT
ATOM      1  C   UNL A   1      39.436  23.823  27.095  1.00  0.00     0.021 C 
ENDROOT
BRANCH   1   2
ATOM      2  C   UNL A   1      38.113  23.513  26.395  1.00  0.00     0.116 C 
BRANCH   2   3
ATOM      3  N   UNL A   1      37.983  22.115  26.061  1.00  0.00    -0.349 N 
ATOM      4  C   UNL A   1      37.246  21.463  25.097  1.00  0.00     0.287 C 
ATOM      5  O   UNL A   1      37.531  20.267  24.961  1.00  0.00    -0.266 OA
ATOM      6  H   UNL A   1      38.521  21.515  26.628  1.00  0.00     0.163 HD
BRANCH   4   7
ATOM      7  C   UNL A   1      36.205  22.128  24.326  1.00  0.00     0.191 A 
ATOM      8  C   UNL A   1      34.084  22.736  24.026  1.00  0.00     0.161 A 
ATOM      9  C   UNL A   1      34.818  23.378  23.054  1.00  0.00     0.053 A 
ATOM     10  O   UNL A   1      34.905  21.904  24.734  1.00  0.00    -0.450 OA
ATOM     11  C   UNL A   1      36.169  23.027  23.274  1.00  0.00     0.057 A 
BRANCH   8  12
ATOM     12  C   UNL A   1      32.628  22.796  24.413  1.00  0.00     0.248 C 
ATOM     13  C   UNL A   1      31.735  22.698  23.160  1.00  0.00     0.084 C 
BRANCH  12  14
ATOM     14  N   UNL A   1      32.287  23.926  25.324  1.00  0.00    -0.325 N 
ATOM     15  C   UNL A   1      31.473  23.453  26.449  1.00  0.00     0.333 C 
ATOM     16  H   UNL A   1      33.191  24.277  25.637  1.00  0.00     0.348 HD
BRANCH  14  17
ATOM     17  C   UNL A   1      31.603  25.070  24.689  1.00  0.00     0.303 C 
BRANCH  17  18
ATOM     18  C   UNL A   1      32.485  26.218  24.251  1.00  0.00     0.048 A 
ATOM     19  C   UNL A   1      33.107  27.081  25.164  1.00  0.00     0.127 A 
ATOM     20  C   UNL A   1      33.847  28.184  24.724  1.00  0.00     0.047 A 
ATOM     21  C   UNL A   1      34.031  28.404  23.361  1.00  0.00     0.004 A 
ATOM     22  C   UNL A   1      32.694  26.449  22.879  1.00  0.00     0.013 A 
ATOM     23  C   UNL A   1      33.465  27.529  22.440  1.00  0.00     0.001 A 
BRANCH  19  24
ATOM     24  O   UNL A   1      32.933  26.936  26.516  1.00  0.00    -0.496 OA
ATOM     25  C   UNL A   1      32.186  28.033  27.040  1.00  0.00     0.278 C 
ENDBRANCH  19  24
ENDBRANCH  17  18
ENDBRANCH  14  17
ENDBRANCH  12  14
ENDBRANCH   8  12
ENDBRANCH   4   7
ENDBRANCH   2   3
ENDBRANCH   1   2
BRANCH   1  26
ATOM     26  C   UNL A   1      40.543  22.796  26.817  1.00  0.00     0.002 C 
BRANCH  26  27
ATOM     27  C   UNL A   1      40.837  21.824  27.967  1.00  0.00     0.002 C 
BRANCH  27  28
ATOM     28  C   UNL A   1      41.155  20.388  27.541  1.00  0.00     0.021 C 
BRANCH  28  29
ATOM     29  C   UNL A   1      40.996  20.130  26.048  1.00  0.00     0.116 C 
BRANCH  29  30
ATOM     30  N   UNL A   1      42.171  19.479  25.493  1.00  0.00    -0.352 N 
ATOM     31  C   UNL A   1      43.381  20.029  25.145  1.00  0.00     0.251 C 
ATOM     32  H   UNL A   1      42.089  18.509  25.348  1.00  0.00     0.163 HD
ATOM     33  O   UNL A   1      44.168  19.388  24.458  1.00  0.00    -0.269 OA
BRANCH  31  34
ATOM     34  C   UNL A   1      43.714  21.398  25.594  1.00  0.00     0.039 A 
ATOM     35  C   UNL A   1      44.269  21.585  26.862  1.00  0.00     0.014 A 
ATOM     36  C   UNL A   1      43.472  22.495  24.761  1.00  0.00     0.014 A 
ATOM     37  C   UNL A   1      44.630  22.870  27.273  1.00  0.00     0.010 A 
ATOM     38  C   UNL A   1      43.904  23.760  25.142  1.00  0.00     0.010 A 
ATOM     39  C   UNL A   1      44.477  23.964  26.406  1.00  0.00    -0.014 A 
BRANCH  39  40
ATOM     40  C   UNL A   1      44.878  25.338  26.807  1.00  0.00     0.031 A 
ATOM     41  C   UNL A   1      43.853  26.270  27.396  1.00  0.00     0.074 A 
ATOM     42  C   UNL A   1      46.135  25.766  26.581  1.00  0.00     0.049 A 
ATOM     43  N   UNL A   1      43.963  27.537  27.703  1.00  0.00    -0.248 NA
ATOM     44  C   UNL A   1      42.516  25.706  27.637  1.00  0.00     0.031 C 
ATOM     45  C   UNL A   1      47.210  24.962  25.995  1.00  0.00     0.029 A 
ATOM     46  N   UNL A   1      46.721  26.987  26.806  1.00  0.00    -0.354 N 
ATOM     47  C   UNL A   1      42.707  27.925  28.158  1.00  0.00     0.074 A 
ATOM     48  C   UNL A   1      41.837  26.776  28.020  1.00  0.00     0.031 C 
ATOM     49  C   UNL A   1      48.327  25.704  25.929  1.00  0.00     0.029 A 
ATOM     50  C   UNL A   1      48.038  27.050  26.414  1.00  0.00     0.049 A 
ATOM     51  H   UNL A   1      46.243  27.747  27.211  1.00  0.00     0.167 HD
ATOM     52  C   UNL A   1      42.321  29.122  28.667  1.00  0.00     0.034 A 
ATOM     53  C   UNL A   1      48.908  28.079  26.428  1.00  0.00     0.034 A 
ATOM     54  C   UNL A   1      43.206  30.253  28.806  1.00  0.00     0.049 A 
ATOM     55  C   UNL A   1      48.446  29.415  26.957  1.00  0.00     0.074 A 
ATOM     56  C   UNL A   1      42.937  31.498  29.346  1.00  0.00     0.029 A 
ATOM     57  N   UNL A   1      44.534  30.281  28.393  1.00  0.00    -0.354 N 
ATOM     58  N   UNL A   1      47.264  29.759  27.416  1.00  0.00    -0.248 NA
ATOM     59  C   UNL A   1      49.437  30.499  26.978  1.00  0.00     0.031 C 
ATOM     60  C   UNL A   1      44.072  32.299  29.191  1.00  0.00     0.029 A 
ATOM     61  C   UNL A   1      45.082  31.530  28.637  1.00  0.00     0.049 A 
ATOM     62  H   UNL A   1      45.014  29.523  27.986  1.00  0.00     0.167 HD
ATOM     63  C   UNL A   1      47.385  31.087  27.818  1.00  0.00     0.074 A 
ATOM     64  C   UNL A   1      48.755  31.477  27.554  1.00  0.00     0.031 C 
ATOM     65  C   UNL A   1      46.451  31.907  28.365  1.00  0.00     0.034 A 
BRANCH  52  66
ATOM     66  C   UNL A   1      40.874  29.268  29.079  1.00  0.00     0.023 A 
ATOM     67  C   UNL A   1      40.488  29.273  30.431  1.00  0.00     0.031 A 
ATOM     68  C   UNL A   1      39.862  29.365  28.108  1.00  0.00     0.131 A 
ATOM     69  C   UNL A   1      39.127  29.285  30.772  1.00  0.00     0.055 A 
ATOM     70  C   UNL A   1      38.514  29.470  28.456  1.00  0.00     0.041 A 
ATOM     71  F   UNL A   1      40.163  29.342  26.800  1.00  0.00    -0.206 F 
ATOM     72  C   UNL A   1      38.137  29.411  29.795  1.00  0.00     0.022 A 
BRANCH  69  73
ATOM     73  S   UNL A   1      38.666  28.960  32.496  1.00  0.00     0.124 S 
ATOM     74  O   UNL A   1      39.514  27.813  32.817  1.00  0.00    -0.237 OA
ATOM     75  O   UNL A   1      39.010  30.214  33.156  1.00  0.00    -0.237 OA
ATOM     76  O   UNL A   1      37.236  28.666  32.419  1.00  0.00    -0.744 OA
ENDBRANCH  69  73
ENDBRANCH  52  66
BRANCH  53  77
ATOM     77  C   UNL A   1      50.299  27.902  25.918  1.00  0.00     0.023 A 
ATOM     78  C   UNL A   1      50.566  27.876  24.540  1.00  0.00     0.031 A 
ATOM     79  C   UNL A   1      51.377  27.713  26.801  1.00  0.00     0.131 A 
ATOM     80  C   UNL A   1      51.867  27.616  24.084  1.00  0.00     0.055 A 
ATOM     81  C   UNL A   1      52.681  27.515  26.343  1.00  0.00     0.041 A 
ATOM     82  F   UNL A   1      51.180  27.732  28.129  1.00  0.00    -0.206 F 
ATOM     83  C   UNL A   1      52.929  27.450  24.976  1.00  0.00     0.022 A 
BRANCH  80  84
ATOM     84  S   UNL A   1      52.136  27.404  22.303  1.00  0.00     0.124 S 
ATOM     85  O   UNL A   1      50.797  27.057  21.841  1.00  0.00    -0.237 OA
ATOM     86  O   UNL A   1      52.628  28.721  21.912  1.00  0.00    -0.237 OA
ATOM     87  O   UNL A   1      53.122  26.327  22.233  1.00  0.00    -0.744 OA
ENDBRANCH  80  84
ENDBRANCH  53  77
BRANCH  65  88
ATOM     88  C   UNL A   1      46.900  33.292  28.771  1.00  0.00     0.023 A 
ATOM     89  C   UNL A   1      46.914  34.367  27.866  1.00  0.00     0.031 A 
ATOM     90  C   UNL A   1      47.318  33.533  30.092  1.00  0.00     0.131 A 
ATOM     91  C   UNL A   1      47.390  35.621  28.280  1.00  0.00     0.055 A 
ATOM     92  C   UNL A   1      47.726  34.799  30.515  1.00  0.00     0.041 A 
ATOM     93  F   UNL A   1      47.328  32.543  30.998  1.00  0.00    -0.206 F 
ATOM     94  C   UNL A   1      47.777  35.848  29.603  1.00  0.00     0.022 A 
BRANCH  91  95
ATOM     95  S   UNL A   1      47.584  36.931  27.042  1.00  0.00     0.124 S 
ATOM     96  O   UNL A   1      46.723  36.459  25.962  1.00  0.00    -0.237 OA
ATOM     97  O   UNL A   1      47.116  38.112  27.759  1.00  0.00    -0.237 OA
ATOM     98  O   UNL A   1      49.016  36.915  26.746  1.00  0.00    -0.744 OA
ENDBRANCH  91  95
ENDBRANCH  65  88
ENDBRANCH  39  40
ENDBRANCH  31  34
ENDBRANCH  29  30
ENDBRANCH  28  29
ENDBRANCH  27  28
ENDBRANCH  26  27
ENDBRANCH   1  26
TORSDOF 21
ENDMDL
MODEL 3
REMARK VINA RESULT:     -10.7      1.912      2.739
REMARK SMILES COc1ccccc1C[N@@H+](C)[C@@H](C)c1ccc(C(=O)NCCCCCCNC(=O)c2ccc(-c3c4nc(c(-c5cc(S(=O)(=O)[O-])ccc5F)c5ccc([nH]5)c(-c5cc(S(=O)(=O)[O-])ccc5F)c5nc(c(-c6cc(S(=O)(=O)[O-])ccc6F)c6ccc3[nH]6)C=C5)C=C4)cc2)o1
REMARK SMILES IDX 22 1 21 2 20 3 18 4 19 5 17 7 14 8 15 9 93 10 16 11 12 12
REMARK SMILES IDX 13 13 10 14 11 15 9 17 8 18 3 19 4 20 5 21 7 22 6 23 2 24
REMARK SMILES IDX 1 25 23 26 24 27 25 28 26 29 27 30 28 31 29 33 30 34 31 35
REMARK SMILES IDX 92 36 32 37 91 38 33 39 34 40 35 41 85 42 36 43 90 44 84 45
REMARK SMILES IDX 86 46 37 47 89 48 83 49 82 50 38 52 70 53 50 54 69 55 51 56
REMARK SMILES IDX 54 57 68 58 87 59 52 60 53 61 67 63 88 64 55 65 39 66 40 67
REMARK SMILES IDX 48 68 41 69 47 70 49 71 46 72 42 73 43 74 44 75 45 76 71 77
REMARK SMILES IDX 72 78 80 79 73 80 79 81 81 82 78 83 74 84 75 85 76 86 77 87
REMARK SMILES IDX 56 88 57 89 65 90 58 91 64 92 66 93 63 94 59 95 60 96 61 97
REMARK SMILES IDX 62 98
REMARK H PARENT 20 6 10 16 27 32 86 51 54 62
REMARK Flexibility Score: inf
ROOT
ATOM      1  C   UNL A   1      31.105  29.393  23.038  1.00  0.00     0.021 C 
ENDROOT
BRANCH   1   2
ATOM      2  C   UNL A   1      31.135  27.865  23.091  1.00  0.00     0.116 C 
BRANCH   2   3
ATOM      3  N   UNL A   1      32.121  27.304  22.198  1.00  0.00    -0.349 N 
ATOM      4  C   UNL A   1      33.034  26.284  22.358  1.00  0.00     0.287 C 
ATOM      5  O   UNL A   1      33.588  25.930  21.311  1.00  0.00    -0.266 OA
ATOM      6  H   UNL A   1      32.145  27.727  21.310  1.00  0.00     0.163 HD
BRANCH   4   7
ATOM      7  C   UNL A   1      33.332  25.700  23.658  1.00  0.00     0.191 A 
ATOM      8  C   UNL A   1      33.219  24.022  25.118  1.00  0.00     0.161 A 
ATOM      9  C   UNL A   1      34.077  24.954  25.656  1.00  0.00     0.053 A 
ATOM     10  O   UNL A   1      32.692  24.514  23.957  1.00  0.00    -0.450 OA
ATOM     11  C   UNL A   1      34.183  25.997  24.709  1.00  0.00     0.057 A 
BRANCH   8  12
ATOM     12  C   UNL A   1      32.795  22.645  25.563  1.00  0.00     0.248 C 
ATOM     13  C   UNL A   1      31.934  22.734  26.839  1.00  0.00     0.084 C 
BRANCH  12  14
ATOM     14  N   UNL A   1      33.913  21.662  25.644  1.00  0.00    -0.325 N 
ATOM     15  C   UNL A   1      34.690  21.662  24.400  1.00  0.00     0.333 C 
ATOM     16  H   UNL A   1      34.471  21.982  26.435  1.00  0.00     0.348 HD
BRANCH  14  17
ATOM     17  C   UNL A   1      33.517  20.274  25.959  1.00  0.00     0.303 C 
BRANCH  17  18
ATOM     18  C   UNL A   1      33.512  19.301  24.801  1.00  0.00     0.048 A 
ATOM     19  C   UNL A   1      32.634  19.425  23.716  1.00  0.00     0.127 A 
ATOM     20  C   UNL A   1      32.597  18.461  22.703  1.00  0.00     0.047 A 
ATOM     21  C   UNL A   1      33.486  17.388  22.727  1.00  0.00     0.004 A 
ATOM     22  C   UNL A   1      34.411  18.219  24.799  1.00  0.00     0.013 A 
ATOM     23  C   UNL A   1      34.401  17.275  23.768  1.00  0.00     0.001 A 
BRANCH  19  24
ATOM     24  O   UNL A   1      31.713  20.439  23.656  1.00  0.00    -0.496 OA
ATOM     25  C   UNL A   1      31.844  21.156  22.428  1.00  0.00     0.278 C 
ENDBRANCH  19  24
ENDBRANCH  17  18
ENDBRANCH  14  17
ENDBRANCH  12  14
ENDBRANCH   8  12
ENDBRANCH   4   7
ENDBRANCH   2   3
ENDBRANCH   1   2
BRANCH   1  26
ATOM     26  C   UNL A   1      30.493  30.049  24.283  1.00  0.00     0.002 C 
BRANCH  26  27
ATOM     27  C   UNL A   1      31.434  30.167  25.490  1.00  0.00     0.002 C 
BRANCH  27  28
ATOM     28  C   UNL A   1      31.324  31.477  26.275  1.00  0.00     0.021 C 
BRANCH  28  29
ATOM     29  C   UNL A   1      32.660  32.039  26.742  1.00  0.00     0.116 C 
BRANCH  29  30
ATOM     30  N   UNL A   1      32.533  33.420  27.175  1.00  0.00    -0.352 N 
ATOM     31  C   UNL A   1      33.200  34.075  28.182  1.00  0.00     0.251 C 
ATOM     32  H   UNL A   1      31.880  33.962  26.678  1.00  0.00     0.163 HD
ATOM     33  O   UNL A   1      32.791  35.160  28.580  1.00  0.00    -0.269 OA
BRANCH  31  34
ATOM     34  C   UNL A   1      34.398  33.454  28.786  1.00  0.00     0.039 A 
ATOM     35  C   UNL A   1      35.664  33.933  28.441  1.00  0.00     0.014 A 
ATOM     36  C   UNL A   1      34.267  32.394  29.690  1.00  0.00     0.014 A 
ATOM     37  C   UNL A   1      36.797  33.382  29.043  1.00  0.00     0.010 A 
ATOM     38  C   UNL A   1      35.391  31.902  30.345  1.00  0.00     0.010 A 
ATOM     39  C   UNL A   1      36.669  32.383  30.021  1.00  0.00    -0.014 A 
BRANCH  39  40
ATOM     40  C   UNL A   1      37.855  31.798  30.699  1.00  0.00     0.031 A 
ATOM     41  C   UNL A   1      38.678  30.755  29.990  1.00  0.00     0.074 A 
ATOM     42  C   UNL A   1      38.151  32.151  31.964  1.00  0.00     0.049 A 
ATOM     43  N   UNL A   1      39.676  30.039  30.439  1.00  0.00    -0.248 NA
ATOM     44  C   UNL A   1      38.302  30.458  28.599  1.00  0.00     0.031 C 
ATOM     45  C   UNL A   1      37.413  33.132  32.763  1.00  0.00     0.029 A 
ATOM     46  N   UNL A   1      39.143  31.717  32.809  1.00  0.00    -0.354 N 
ATOM     47  C   UNL A   1      40.036  29.195  29.394  1.00  0.00     0.074 A 
ATOM     48  C   UNL A   1      39.103  29.443  28.315  1.00  0.00     0.031 C 
ATOM     49  C   UNL A   1      37.993  33.242  33.969  1.00  0.00     0.029 A 
ATOM     50  C   UNL A   1      39.105  32.301  34.053  1.00  0.00     0.049 A 
ATOM     51  H   UNL A   1      39.818  31.050  32.547  1.00  0.00     0.167 HD
ATOM     52  C   UNL A   1      41.064  28.312  29.331  1.00  0.00     0.034 A 
ATOM     53  C   UNL A   1      39.869  32.090  35.144  1.00  0.00     0.034 A 
ATOM     54  C   UNL A   1      41.989  28.086  30.415  1.00  0.00     0.049 A 
ATOM     55  C   UNL A   1      40.981  31.072  35.067  1.00  0.00     0.074 A 
ATOM     56  C   UNL A   1      43.090  27.250  30.448  1.00  0.00     0.029 A 
ATOM     57  N   UNL A   1      41.917  28.693  31.663  1.00  0.00    -0.354 N 
ATOM     58  N   UNL A   1      41.331  30.304  34.060  1.00  0.00    -0.248 NA
ATOM     59  C   UNL A   1      41.804  30.897  36.270  1.00  0.00     0.031 C 
ATOM     60  C   UNL A   1      43.637  27.293  31.734  1.00  0.00     0.029 A 
ATOM     61  C   UNL A   1      42.933  28.225  32.480  1.00  0.00     0.049 A 
ATOM     62  H   UNL A   1      41.241  29.359  31.928  1.00  0.00     0.167 HD
ATOM     63  C   UNL A   1      42.442  29.587  34.498  1.00  0.00     0.074 A 
ATOM     64  C   UNL A   1      42.705  30.019  35.855  1.00  0.00     0.031 C 
ATOM     65  C   UNL A   1      43.183  28.662  33.835  1.00  0.00     0.034 A 
BRANCH  52  66
ATOM     66  C   UNL A   1      41.215  27.510  28.058  1.00  0.00     0.023 A 
ATOM     67  C   UNL A   1      40.832  26.159  27.985  1.00  0.00     0.031 A 
ATOM     68  C   UNL A   1      41.785  28.092  26.912  1.00  0.00     0.131 A 
ATOM     69  C   UNL A   1      41.103  25.415  26.827  1.00  0.00     0.055 A 
ATOM     70  C   UNL A   1      41.967  27.370  25.731  1.00  0.00     0.041 A 
ATOM     71  F   UNL A   1      42.193  29.371  26.925  1.00  0.00    -0.206 F 
ATOM     72  C   UNL A   1      41.643  26.017  25.690  1.00  0.00     0.022 A 
BRANCH  69  73
ATOM     73  S   UNL A   1      40.897  23.614  26.892  1.00  0.00     0.124 S 
ATOM     74  O   UNL A   1      41.244  23.327  28.282  1.00  0.00    -0.237 OA
ATOM     75  O   UNL A   1      39.494  23.443  26.535  1.00  0.00    -0.237 OA
ATOM     76  O   UNL A   1      41.857  23.124  25.905  1.00  0.00    -0.744 OA
ENDBRANCH  69  73
ENDBRANCH  52  66
BRANCH  53  77
ATOM     77  C   UNL A   1      39.613  32.844  36.405  1.00  0.00     0.023 A 
ATOM     78  C   UNL A   1      38.717  32.355  37.370  1.00  0.00     0.031 A 
ATOM     79  C   UNL A   1      40.227  34.085  36.647  1.00  0.00     0.131 A 
ATOM     80  C   UNL A   1      38.422  33.124  38.505  1.00  0.00     0.055 A 
ATOM     81  C   UNL A   1      39.975  34.820  37.807  1.00  0.00     0.041 A 
ATOM     82  F   UNL A   1      41.094  34.600  35.760  1.00  0.00    -0.206 F 
ATOM     83  C   UNL A   1      39.057  34.347  38.738  1.00  0.00     0.022 A 
BRANCH  80  84
ATOM     84  S   UNL A   1      37.123  32.547  39.632  1.00  0.00     0.124 S 
ATOM     85  O   UNL A   1      37.190  33.543  40.695  1.00  0.00    -0.237 OA
ATOM     86  O   UNL A   1      35.939  32.596  38.780  1.00  0.00    -0.237 OA
ATOM     87  O   UNL A   1      37.566  31.205  40.003  1.00  0.00    -0.744 OA
ENDBRANCH  80  84
ENDBRANCH  53  77
BRANCH  65  88
ATOM     88  C   UNL A   1      44.388  28.100  34.552  1.00  0.00     0.023 A 
ATOM     89  C   UNL A   1      44.310  26.949  35.355  1.00  0.00     0.031 A 
ATOM     90  C   UNL A   1      45.638  28.734  34.424  1.00  0.00     0.131 A 
ATOM     91  C   UNL A   1      45.449  26.498  36.041  1.00  0.00     0.055 A 
ATOM     92  C   UNL A   1      46.781  28.242  35.055  1.00  0.00     0.041 A 
ATOM     93  F   UNL A   1      45.771  29.839  33.673  1.00  0.00    -0.206 F 
ATOM     94  C   UNL A   1      46.687  27.126  35.880  1.00  0.00     0.022 A 
BRANCH  91  95
ATOM     95  S   UNL A   1      45.271  25.134  37.222  1.00  0.00     0.124 S 
ATOM     96  O   UNL A   1      44.350  24.244  36.521  1.00  0.00    -0.237 OA
ATOM     97  O   UNL A   1      46.643  24.653  37.354  1.00  0.00    -0.237 OA
ATOM     98  O   UNL A   1      44.724  25.780  38.413  1.00  0.00    -0.744 OA
ENDBRANCH  91  95
ENDBRANCH  65  88
ENDBRANCH  39  40
ENDBRANCH  31  34
ENDBRANCH  29  30
ENDBRANCH  28  29
ENDBRANCH  27  28
ENDBRANCH  26  27
ENDBRANCH   1  26
TORSDOF 21
ENDMDL
