MODEL 1
REMARK VINA RESULT:     -11.4      0.000      0.000
REMARK SMILES C[C@H]1[C@H](C(=O)NCCCCCCNC(=O)c2ccc(-c3c4nc(c(-c5cc(S(=O)(=O)[O-])ccc5F)c5ccc([nH]5)c(-c5cc(S(=O)(=O)[O-])ccc5F)c5nc(c(-c6cc(S(=O)(=O)[O-])ccc6F)c6ccc3[nH]6)C=C5)C=C4)cc2)CC[N@@H+]1Cc1cnn(-c2ccccc2)c1
REMARK SMILES IDX 9 1 8 2 7 3 6 4 4 5 5 6 3 8 1 9 2 10 81 11 79 12 80 13 82 15
REMARK SMILES IDX 83 16 84 17 93 18 85 19 86 20 87 21 88 22 92 23 89 24 91 25
REMARK SMILES IDX 90 26 10 27 11 28 12 29 13 30 14 31 15 33 16 34 17 35 78 36
REMARK SMILES IDX 18 37 77 38 19 39 20 40 21 41 71 42 22 43 76 44 70 45 72 46
REMARK SMILES IDX 23 47 75 48 69 49 68 50 24 52 56 53 36 54 55 55 37 56 40 57
REMARK SMILES IDX 54 58 73 59 38 60 39 61 53 63 74 64 41 65 25 66 26 67 34 68
REMARK SMILES IDX 27 69 33 70 35 71 32 72 28 73 29 74 30 75 31 76 57 77 58 78
REMARK SMILES IDX 66 79 59 80 65 81 67 82 64 83 60 84 61 85 62 86 63 87 42 88
REMARK SMILES IDX 43 89 51 90 44 91 50 92 52 93 49 94 45 95 46 96 47 97 48 98
REMARK H PARENT 6 7 81 14 13 32 72 51 40 62
REMARK Flexibility Score: inf
ROOT
ATOM      1  C   UNL A   1      34.551  32.029  28.862  1.00  0.00     0.002 C 
ENDROOT
BRANCH   1   2
ATOM      2  C   UNL A   1      33.976  31.211  27.685  1.00  0.00     0.021 C 
BRANCH   2   3
ATOM      3  C   UNL A   1      34.770  29.949  27.337  1.00  0.00     0.116 C 
BRANCH   3   4
ATOM      4  N   UNL A   1      34.650  29.432  25.995  1.00  0.00    -0.356 N 
ATOM      5  C   UNL A   1      33.613  28.691  25.504  1.00  0.00     0.229 C 
ATOM      6  O   UNL A   1      33.237  28.955  24.356  1.00  0.00    -0.275 OA
ATOM      7  H   UNL A   1      35.387  29.633  25.374  1.00  0.00     0.163 HD
BRANCH   5   8
ATOM      8  C   UNL A   1      32.963  27.529  26.258  1.00  0.00     0.142 C 
ATOM      9  C   UNL A   1      31.029  27.738  27.812  1.00  0.00     0.076 C 
ATOM     10  C   UNL A   1      31.433  27.435  26.352  1.00  0.00     0.193 C 
ATOM     11  N   UNL A   1      31.077  26.040  26.001  1.00  0.00    -0.328 N 
ATOM     12  C   UNL A   1      33.429  26.135  25.850  1.00  0.00     0.081 C 
ATOM     13  C   UNL A   1      32.266  25.238  26.262  1.00  0.00     0.263 C 
ATOM     14  H   UNL A   1      30.295  25.763  26.595  1.00  0.00     0.348 HD
BRANCH  11  15
ATOM     15  C   UNL A   1      30.408  25.779  24.705  1.00  0.00     0.302 C 
BRANCH  15  16
ATOM     16  C   UNL A   1      30.269  26.921  23.721  1.00  0.00     0.045 A 
ATOM     17  C   UNL A   1      31.045  27.297  22.593  1.00  0.00     0.145 A 
ATOM     18  C   UNL A   1      29.220  27.811  23.624  1.00  0.00     0.124 A 
ATOM     19  N   UNL A   1      30.656  28.449  22.026  1.00  0.00    -0.176 NA
ATOM     20  N   UNL A   1      29.556  28.792  22.719  1.00  0.00    -0.240 N 
BRANCH  20  21
ATOM     21  C   UNL A   1      28.888  30.031  22.571  1.00  0.00     0.065 A 
ATOM     22  C   UNL A   1      29.045  31.000  23.564  1.00  0.00     0.028 A 
ATOM     23  C   UNL A   1      28.354  30.383  21.320  1.00  0.00     0.028 A 
ATOM     24  C   UNL A   1      28.728  32.333  23.281  1.00  0.00     0.002 A 
ATOM     25  C   UNL A   1      28.076  31.725  21.034  1.00  0.00     0.002 A 
ATOM     26  C   UNL A   1      28.280  32.701  22.010  1.00  0.00     0.000 A 
ENDBRANCH  20  21
ENDBRANCH  15  16
ENDBRANCH  11  15
ENDBRANCH   5   8
ENDBRANCH   3   4
ENDBRANCH   2   3
ENDBRANCH   1   2
BRANCH   1  27
ATOM     27  C   UNL A   1      34.657  33.544  28.665  1.00  0.00     0.002 C 
BRANCH  27  28
ATOM     28  C   UNL A   1      33.374  34.356  28.790  1.00  0.00     0.021 C 
BRANCH  28  29
ATOM     29  C   UNL A   1      33.587  35.795  29.215  1.00  0.00     0.116 C 
BRANCH  29  30
ATOM     30  N   UNL A   1      32.706  36.197  30.310  1.00  0.00    -0.352 N 
ATOM     31  C   UNL A   1      32.684  35.838  31.640  1.00  0.00     0.251 C 
ATOM     32  H   UNL A   1      32.004  36.838  30.052  1.00  0.00     0.163 HD
ATOM     33  O   UNL A   1      31.720  36.144  32.331  1.00  0.00    -0.269 OA
BRANCH  31  34
ATOM     34  C   UNL A   1      33.806  35.065  32.216  1.00  0.00     0.039 A 
ATOM     35  C   UNL A   1      33.630  33.723  32.560  1.00  0.00     0.014 A 
ATOM     36  C   UNL A   1      35.048  35.667  32.398  1.00  0.00     0.014 A 
ATOM     37  C   UNL A   1      34.726  32.976  33.006  1.00  0.00     0.010 A 
ATOM     38  C   UNL A   1      36.159  34.887  32.658  1.00  0.00     0.010 A 
ATOM     39  C   UNL A   1      36.012  33.541  33.009  1.00  0.00    -0.014 A 
BRANCH  39  40
ATOM     40  C   UNL A   1      37.221  32.788  33.435  1.00  0.00     0.031 A 
ATOM     41  C   UNL A   1      37.910  33.174  34.724  1.00  0.00     0.074 A 
ATOM     42  C   UNL A   1      37.747  31.843  32.633  1.00  0.00     0.049 A 
ATOM     43  N   UNL A   1      39.060  32.776  35.203  1.00  0.00    -0.248 NA
ATOM     44  C   UNL A   1      37.248  34.201  35.548  1.00  0.00     0.031 C 
ATOM     45  C   UNL A   1      37.207  31.434  31.333  1.00  0.00     0.029 A 
ATOM     46  N   UNL A   1      38.860  31.057  32.787  1.00  0.00    -0.354 N 
ATOM     47  C   UNL A   1      39.271  33.536  36.350  1.00  0.00     0.074 A 
ATOM     48  C   UNL A   1      38.188  34.488  36.431  1.00  0.00     0.031 C 
ATOM     49  C   UNL A   1      37.955  30.436  30.838  1.00  0.00     0.029 A 
ATOM     50  C   UNL A   1      39.063  30.175  31.749  1.00  0.00     0.049 A 
ATOM     51  H   UNL A   1      39.458  31.117  33.567  1.00  0.00     0.167 HD
ATOM     52  C   UNL A   1      40.250  33.418  37.280  1.00  0.00     0.034 A 
ATOM     53  C   UNL A   1      40.038  29.264  31.559  1.00  0.00     0.034 A 
ATOM     54  C   UNL A   1      41.283  32.418  37.206  1.00  0.00     0.049 A 
ATOM     55  C   UNL A   1      41.110  29.136  32.611  1.00  0.00     0.074 A 
ATOM     56  C   UNL A   1      42.285  32.141  38.116  1.00  0.00     0.029 A 
ATOM     57  N   UNL A   1      41.439  31.521  36.155  1.00  0.00    -0.354 N 
ATOM     58  N   UNL A   1      41.266  29.822  33.721  1.00  0.00    -0.248 NA
ATOM     59  C   UNL A   1      42.131  28.104  32.392  1.00  0.00     0.031 C 
ATOM     60  C   UNL A   1      43.087  31.126  37.585  1.00  0.00     0.029 A 
ATOM     61  C   UNL A   1      42.537  30.710  36.381  1.00  0.00     0.049 A 
ATOM     62  H   UNL A   1      40.853  31.470  35.365  1.00  0.00     0.167 HD
ATOM     63  C   UNL A   1      42.386  29.284  34.347  1.00  0.00     0.074 A 
ATOM     64  C   UNL A   1      42.852  28.203  33.499  1.00  0.00     0.031 C 
ATOM     65  C   UNL A   1      42.981  29.645  35.514  1.00  0.00     0.034 A 
BRANCH  52  66
ATOM     66  C   UNL A   1      40.238  34.392  38.437  1.00  0.00     0.023 A 
ATOM     67  C   UNL A   1      40.994  35.579  38.415  1.00  0.00     0.031 A 
ATOM     68  C   UNL A   1      39.503  34.110  39.603  1.00  0.00     0.131 A 
ATOM     69  C   UNL A   1      41.081  36.379  39.564  1.00  0.00     0.055 A 
ATOM     70  C   UNL A   1      39.513  34.965  40.707  1.00  0.00     0.041 A 
ATOM     71  F   UNL A   1      38.778  32.984  39.698  1.00  0.00    -0.206 F 
ATOM     72  C   UNL A   1      40.322  36.098  40.700  1.00  0.00     0.022 A 
BRANCH  69  73
ATOM     73  S   UNL A   1      42.334  37.692  39.608  1.00  0.00     0.124 S 
ATOM     74  O   UNL A   1      43.220  37.214  40.668  1.00  0.00    -0.237 OA
ATOM     75  O   UNL A   1      42.878  37.656  38.257  1.00  0.00    -0.237 OA
ATOM     76  O   UNL A   1      41.566  38.889  39.943  1.00  0.00    -0.744 OA
ENDBRANCH  69  73
ENDBRANCH  52  66
BRANCH  53  77
ATOM     77  C   UNL A   1      40.043  28.398  30.344  1.00  0.00     0.023 A 
ATOM     78  C   UNL A   1      40.824  28.733  29.224  1.00  0.00     0.031 A 
ATOM     79  C   UNL A   1      39.248  27.241  30.266  1.00  0.00     0.131 A 
ATOM     80  C   UNL A   1      40.755  27.950  28.061  1.00  0.00     0.055 A 
ATOM     81  C   UNL A   1      39.228  26.432  29.127  1.00  0.00     0.041 A 
ATOM     82  F   UNL A   1      38.486  26.869  31.307  1.00  0.00    -0.206 F 
ATOM     83  C   UNL A   1      39.974  26.794  28.010  1.00  0.00     0.022 A 
BRANCH  80  84
ATOM     84  S   UNL A   1      41.633  28.520  26.579  1.00  0.00     0.124 S 
ATOM     85  O   UNL A   1      42.131  27.264  26.029  1.00  0.00    -0.237 OA
ATOM     86  O   UNL A   1      40.567  29.171  25.827  1.00  0.00    -0.237 OA
ATOM     87  O   UNL A   1      42.655  29.417  27.114  1.00  0.00    -0.744 OA
ENDBRANCH  80  84
ENDBRANCH  53  77
BRANCH  65  88
ATOM     88  C   UNL A   1      44.172  28.831  35.953  1.00  0.00     0.023 A 
ATOM     89  C   UNL A   1      44.040  27.754  36.845  1.00  0.00     0.031 A 
ATOM     90  C   UNL A   1      45.456  29.140  35.471  1.00  0.00     0.131 A 
ATOM     91  C   UNL A   1      45.181  27.062  37.274  1.00  0.00     0.055 A 
ATOM     92  C   UNL A   1      46.578  28.403  35.847  1.00  0.00     0.041 A 
ATOM     93  F   UNL A   1      45.638  30.162  34.618  1.00  0.00    -0.206 F 
ATOM     94  C   UNL A   1      46.446  27.366  36.765  1.00  0.00     0.022 A 
BRANCH  91  95
ATOM     95  S   UNL A   1      45.000  25.826  38.588  1.00  0.00     0.124 S 
ATOM     96  O   UNL A   1      43.823  26.311  39.300  1.00  0.00    -0.237 OA
ATOM     97  O   UNL A   1      44.824  24.590  37.833  1.00  0.00    -0.237 OA
ATOM     98  O   UNL A   1      46.257  25.926  39.328  1.00  0.00    -0.744 OA
ENDBRANCH  91  95
ENDBRANCH  65  88
ENDBRANCH  39  40
ENDBRANCH  31  34
ENDBRANCH  29  30
ENDBRANCH  28  29
ENDBRANCH  27  28
ENDBRANCH   1  27
TORSDOF 19
ENDMDL
MODEL 2
REMARK VINA RESULT:     -11.1      1.914      2.188
REMARK SMILES C[C@H]1[C@H](C(=O)NCCCCCCNC(=O)c2ccc(-c3c4nc(c(-c5cc(S(=O)(=O)[O-])ccc5F)c5ccc([nH]5)c(-c5cc(S(=O)(=O)[O-])ccc5F)c5nc(c(-c6cc(S(=O)(=O)[O-])ccc6F)c6ccc3[nH]6)C=C5)C=C4)cc2)CC[N@@H+]1Cc1cnn(-c2ccccc2)c1
REMARK SMILES IDX 9 1 8 2 7 3 6 4 4 5 5 6 3 8 1 9 2 10 81 11 79 12 80 13 82 15
REMARK SMILES IDX 83 16 84 17 93 18 85 19 86 20 87 21 88 22 92 23 89 24 91 25
REMARK SMILES IDX 90 26 10 27 11 28 12 29 13 30 14 31 15 33 16 34 17 35 78 36
REMARK SMILES IDX 18 37 77 38 19 39 20 40 21 41 71 42 22 43 76 44 70 45 72 46
REMARK SMILES IDX 23 47 75 48 69 49 68 50 24 52 56 53 36 54 55 55 37 56 40 57
REMARK SMILES IDX 54 58 73 59 38 60 39 61 53 63 74 64 41 65 25 66 26 67 34 68
REMARK SMILES IDX 27 69 33 70 35 71 32 72 28 73 29 74 30 75 31 76 57 77 58 78
REMARK SMILES IDX 66 79 59 80 65 81 67 82 64 83 60 84 61 85 62 86 63 87 42 88
REMARK SMILES IDX 43 89 51 90 44 91 50 92 52 93 49 94 45 95 46 96 47 97 48 98
REMARK H PARENT 6 7 81 14 13 32 72 51 40 62
REMARK Flexibility Score: inf
ROOT
ATOM      1  C   UNL A   1      34.716  31.912  28.815  1.00  0.00     0.002 C 
ENDROOT
BRANCH   1   2
ATOM      2  C   UNL A   1      34.103  31.090  27.661  1.00  0.00     0.021 C 
BRANCH   2   3
ATOM      3  C   UNL A   1      34.885  29.827  27.291  1.00  0.00     0.116 C 
BRANCH   3   4
ATOM      4  N   UNL A   1      34.728  29.310  25.953  1.00  0.00    -0.356 N 
ATOM      5  C   UNL A   1      33.657  28.607  25.479  1.00  0.00     0.229 C 
ATOM      6  O   UNL A   1      33.276  28.881  24.334  1.00  0.00    -0.275 OA
ATOM      7  H   UNL A   1      35.463  29.481  25.321  1.00  0.00     0.163 HD
BRANCH   5   8
ATOM      8  C   UNL A   1      32.973  27.474  26.246  1.00  0.00     0.142 C 
ATOM      9  C   UNL A   1      31.055  27.758  27.808  1.00  0.00     0.076 C 
ATOM     10  C   UNL A   1      31.441  27.431  26.349  1.00  0.00     0.193 C 
ATOM     11  N   UNL A   1      31.037  26.046  26.011  1.00  0.00    -0.328 N 
ATOM     12  C   UNL A   1      33.390  26.062  25.846  1.00  0.00     0.081 C 
ATOM     13  C   UNL A   1      32.201  25.207  26.272  1.00  0.00     0.263 C 
ATOM     14  H   UNL A   1      30.250  25.799  26.611  1.00  0.00     0.348 HD
BRANCH  11  15
ATOM     15  C   UNL A   1      30.353  25.796  24.720  1.00  0.00     0.302 C 
BRANCH  15  16
ATOM     16  C   UNL A   1      30.228  26.939  23.737  1.00  0.00     0.045 A 
ATOM     17  C   UNL A   1      31.008  27.305  22.608  1.00  0.00     0.145 A 
ATOM     18  C   UNL A   1      29.190  27.843  23.640  1.00  0.00     0.124 A 
ATOM     19  N   UNL A   1      30.633  28.462  22.041  1.00  0.00    -0.176 NA
ATOM     20  N   UNL A   1      29.538  28.820  22.735  1.00  0.00    -0.240 N 
BRANCH  20  21
ATOM     21  C   UNL A   1      28.886  30.067  22.587  1.00  0.00     0.065 A 
ATOM     22  C   UNL A   1      29.023  31.019  23.599  1.00  0.00     0.028 A 
ATOM     23  C   UNL A   1      28.392  30.443  21.328  1.00  0.00     0.028 A 
ATOM     24  C   UNL A   1      28.727  32.359  23.328  1.00  0.00     0.002 A 
ATOM     25  C   UNL A   1      28.134  31.792  21.055  1.00  0.00     0.002 A 
ATOM     26  C   UNL A   1      28.318  32.751  22.051  1.00  0.00     0.000 A 
ENDBRANCH  20  21
ENDBRANCH  15  16
ENDBRANCH  11  15
ENDBRANCH   5   8
ENDBRANCH   3   4
ENDBRANCH   2   3
ENDBRANCH   1   2
BRANCH   1  27
ATOM     27  C   UNL A   1      34.865  33.419  28.588  1.00  0.00     0.002 C 
BRANCH  27  28
ATOM     28  C   UNL A   1      33.586  34.246  28.526  1.00  0.00     0.021 C 
BRANCH  28  29
ATOM     29  C   UNL A   1      33.725  35.650  29.079  1.00  0.00     0.116 C 
BRANCH  29  30
ATOM     30  N   UNL A   1      32.797  35.920  30.175  1.00  0.00    -0.352 N 
ATOM     31  C   UNL A   1      32.785  35.492  31.485  1.00  0.00     0.251 C 
ATOM     32  H   UNL A   1      32.047  36.512  29.936  1.00  0.00     0.163 HD
ATOM     33  O   UNL A   1      31.789  35.681  32.171  1.00  0.00    -0.269 OA
BRANCH  31  34
ATOM     34  C   UNL A   1      33.961  34.788  32.043  1.00  0.00     0.039 A 
ATOM     35  C   UNL A   1      33.927  33.404  32.229  1.00  0.00     0.014 A 
ATOM     36  C   UNL A   1      35.113  35.500  32.367  1.00  0.00     0.014 A 
ATOM     37  C   UNL A   1      35.079  32.737  32.659  1.00  0.00     0.010 A 
ATOM     38  C   UNL A   1      36.293  34.823  32.610  1.00  0.00     0.010 A 
ATOM     39  C   UNL A   1      36.288  33.437  32.803  1.00  0.00    -0.014 A 
BRANCH  39  40
ATOM     40  C   UNL A   1      37.555  32.780  33.221  1.00  0.00     0.031 A 
ATOM     41  C   UNL A   1      38.103  33.052  34.602  1.00  0.00     0.074 A 
ATOM     42  C   UNL A   1      38.249  32.031  32.342  1.00  0.00     0.049 A 
ATOM     43  N   UNL A   1      39.261  32.728  35.115  1.00  0.00    -0.248 NA
ATOM     44  C   UNL A   1      37.262  33.861  35.502  1.00  0.00     0.031 C 
ATOM     45  C   UNL A   1      37.852  31.756  30.959  1.00  0.00     0.029 A 
ATOM     46  N   UNL A   1      39.442  31.369  32.478  1.00  0.00    -0.354 N 
ATOM     47  C   UNL A   1      39.298  33.332  36.370  1.00  0.00     0.074 A 
ATOM     48  C   UNL A   1      38.098  34.126  36.490  1.00  0.00     0.031 C 
ATOM     49  C   UNL A   1      38.754  30.937  30.395  1.00  0.00     0.029 A 
ATOM     50  C   UNL A   1      39.825  30.680  31.350  1.00  0.00     0.049 A 
ATOM     51  H   UNL A   1      39.975  31.386  33.306  1.00  0.00     0.167 HD
ATOM     52  C   UNL A   1      40.221  33.196  37.352  1.00  0.00     0.034 A 
ATOM     53  C   UNL A   1      40.920  29.929  31.117  1.00  0.00     0.034 A 
ATOM     54  C   UNL A   1      41.378  32.348  37.227  1.00  0.00     0.049 A 
ATOM     55  C   UNL A   1      41.929  29.777  32.227  1.00  0.00     0.074 A 
ATOM     56  C   UNL A   1      42.346  32.063  38.170  1.00  0.00     0.029 A 
ATOM     57  N   UNL A   1      41.716  31.640  36.079  1.00  0.00    -0.354 N 
ATOM     58  N   UNL A   1      41.923  30.307  33.429  1.00  0.00    -0.248 NA
ATOM     59  C   UNL A   1      43.087  28.917  31.954  1.00  0.00     0.031 C 
ATOM     60  C   UNL A   1      43.306  31.239  37.572  1.00  0.00     0.029 A 
ATOM     61  C   UNL A   1      42.894  30.941  36.282  1.00  0.00     0.049 A 
ATOM     62  H   UNL A   1      41.194  31.636  35.244  1.00  0.00     0.167 HD
ATOM     63  C   UNL A   1      43.061  29.820  34.065  1.00  0.00     0.074 A 
ATOM     64  C   UNL A   1      43.716  28.938  33.119  1.00  0.00     0.031 C 
ATOM     65  C   UNL A   1      43.527  30.075  35.316  1.00  0.00     0.034 A 
BRANCH  52  66
ATOM     66  C   UNL A   1      40.008  33.982  38.627  1.00  0.00     0.023 A 
ATOM     67  C   UNL A   1      39.210  33.490  39.676  1.00  0.00     0.031 A 
ATOM     68  C   UNL A   1      40.565  35.265  38.778  1.00  0.00     0.131 A 
ATOM     69  C   UNL A   1      38.909  34.309  40.774  1.00  0.00     0.055 A 
ATOM     70  C   UNL A   1      40.345  36.036  39.922  1.00  0.00     0.041 A 
ATOM     71  F   UNL A   1      41.318  35.803  37.806  1.00  0.00    -0.206 F 
ATOM     72  C   UNL A   1      39.495  35.567  40.920  1.00  0.00     0.022 A 
BRANCH  69  73
ATOM     73  S   UNL A   1      37.605  33.774  41.919  1.00  0.00     0.124 S 
ATOM     74  O   UNL A   1      37.368  34.997  42.683  1.00  0.00    -0.237 OA
ATOM     75  O   UNL A   1      36.537  33.369  41.013  1.00  0.00    -0.237 OA
ATOM     76  O   UNL A   1      38.232  32.690  42.671  1.00  0.00    -0.744 OA
ENDBRANCH  69  73
ENDBRANCH  52  66
BRANCH  53  77
ATOM     77  C   UNL A   1      41.115  29.257  29.799  1.00  0.00     0.023 A 
ATOM     78  C   UNL A   1      40.557  27.992  29.546  1.00  0.00     0.031 A 
ATOM     79  C   UNL A   1      41.885  29.850  28.783  1.00  0.00     0.131 A 
ATOM     80  C   UNL A   1      40.818  27.341  28.329  1.00  0.00     0.055 A 
ATOM     81  C   UNL A   1      42.092  29.223  27.552  1.00  0.00     0.041 A 
ATOM     82  F   UNL A   1      42.438  31.060  28.967  1.00  0.00    -0.206 F 
ATOM     83  C   UNL A   1      41.569  27.955  27.325  1.00  0.00     0.022 A 
BRANCH  80  84
ATOM     84  S   UNL A   1      40.235  25.636  28.116  1.00  0.00     0.124 S 
ATOM     85  O   UNL A   1      39.881  25.619  26.701  1.00  0.00    -0.237 OA
ATOM     86  O   UNL A   1      41.414  24.864  28.492  1.00  0.00    -0.237 OA
ATOM     87  O   UNL A   1      39.109  25.544  29.043  1.00  0.00    -0.744 OA
ENDBRANCH  80  84
ENDBRANCH  53  77
BRANCH  65  88
ATOM     88  C   UNL A   1      44.782  29.353  35.736  1.00  0.00     0.023 A 
ATOM     89  C   UNL A   1      44.736  28.101  36.371  1.00  0.00     0.031 A 
ATOM     90  C   UNL A   1      46.043  29.929  35.497  1.00  0.00     0.131 A 
ATOM     91  C   UNL A   1      45.923  27.493  36.800  1.00  0.00     0.055 A 
ATOM     92  C   UNL A   1      47.224  29.286  35.862  1.00  0.00     0.041 A 
ATOM     93  F   UNL A   1      46.144  31.126  34.895  1.00  0.00    -0.206 F 
ATOM     94  C   UNL A   1      47.168  28.066  36.530  1.00  0.00     0.022 A 
BRANCH  91  95
ATOM     95  S   UNL A   1      45.811  25.989  37.806  1.00  0.00     0.124 S 
ATOM     96  O   UNL A   1      45.763  26.533  39.159  1.00  0.00    -0.237 OA
ATOM     97  O   UNL A   1      44.578  25.379  37.321  1.00  0.00    -0.237 OA
ATOM     98  O   UNL A   1      47.035  25.262  37.473  1.00  0.00    -0.744 OA
ENDBRANCH  91  95
ENDBRANCH  65  88
ENDBRANCH  39  40
ENDBRANCH  31  34
ENDBRANCH  29  30
ENDBRANCH  28  29
ENDBRANCH  27  28
ENDBRANCH   1  27
TORSDOF 19
ENDMDL
MODEL 3
REMARK VINA RESULT:     -11.1      2.229      7.862
REMARK SMILES C[C@H]1[C@H](C(=O)NCCCCCCNC(=O)c2ccc(-c3c4nc(c(-c5cc(S(=O)(=O)[O-])ccc5F)c5ccc([nH]5)c(-c5cc(S(=O)(=O)[O-])ccc5F)c5nc(c(-c6cc(S(=O)(=O)[O-])ccc6F)c6ccc3[nH]6)C=C5)C=C4)cc2)CC[N@@H+]1Cc1cnn(-c2ccccc2)c1
REMARK SMILES IDX 9 1 8 2 7 3 6 4 4 5 5 6 3 8 1 9 2 10 81 11 79 12 80 13 82 15
REMARK SMILES IDX 83 16 84 17 93 18 85 19 86 20 87 21 88 22 92 23 89 24 91 25
REMARK SMILES IDX 90 26 10 27 11 28 12 29 13 30 14 31 15 33 16 34 17 35 78 36
REMARK SMILES IDX 18 37 77 38 19 39 20 40 21 41 71 42 22 43 76 44 70 45 72 46
REMARK SMILES IDX 23 47 75 48 69 49 68 50 24 52 56 53 36 54 55 55 37 56 40 57
REMARK SMILES IDX 54 58 73 59 38 60 39 61 53 63 74 64 41 65 25 66 26 67 34 68
REMARK SMILES IDX 27 69 33 70 35 71 32 72 28 73 29 74 30 75 31 76 57 77 58 78
REMARK SMILES IDX 66 79 59 80 65 81 67 82 64 83 60 84 61 85 62 86 63 87 42 88
REMARK SMILES IDX 43 89 51 90 44 91 50 92 52 93 49 94 45 95 46 96 47 97 48 98
REMARK H PARENT 6 7 81 14 13 32 72 51 40 62
REMARK Flexibility Score: inf
ROOT
ATOM      1  C   UNL A   1      31.658  28.981  27.326  1.00  0.00     0.002 C 
ENDROOT
BRANCH   1   2
ATOM      2  C   UNL A   1      32.283  27.608  26.995  1.00  0.00     0.021 C 
BRANCH   2   3
ATOM      3  C   UNL A   1      31.406  26.701  26.128  1.00  0.00     0.116 C 
BRANCH   3   4
ATOM      4  N   UNL A   1      30.897  25.490  26.727  1.00  0.00    -0.356 N 
ATOM      5  C   UNL A   1      31.436  24.241  26.609  1.00  0.00     0.229 C 
ATOM      6  O   UNL A   1      31.450  23.544  27.630  1.00  0.00    -0.275 OA
ATOM      7  H   UNL A   1      30.083  25.574  27.274  1.00  0.00     0.163 HD
BRANCH   5   8
ATOM      8  C   UNL A   1      31.941  23.651  25.290  1.00  0.00     0.142 C 
ATOM      9  C   UNL A   1      30.660  23.622  23.155  1.00  0.00     0.076 C 
ATOM     10  C   UNL A   1      31.711  24.406  23.973  1.00  0.00     0.193 C 
ATOM     11  N   UNL A   1      33.011  24.414  23.262  1.00  0.00    -0.328 N 
ATOM     12  C   UNL A   1      33.410  23.242  25.270  1.00  0.00     0.081 C 
ATOM     13  C   UNL A   1      33.770  23.285  23.789  1.00  0.00     0.263 C 
ATOM     14  H   UNL A   1      32.818  24.310  22.266  1.00  0.00     0.348 HD
BRANCH  11  15
ATOM     15  C   UNL A   1      33.760  25.688  23.160  1.00  0.00     0.302 C 
BRANCH  15  16
ATOM     16  C   UNL A   1      32.979  26.974  23.002  1.00  0.00     0.045 A 
ATOM     17  C   UNL A   1      33.300  28.320  23.319  1.00  0.00     0.145 A 
ATOM     18  C   UNL A   1      31.773  27.140  22.352  1.00  0.00     0.124 A 
ATOM     19  N   UNL A   1      32.289  29.180  23.122  1.00  0.00    -0.176 NA
ATOM     20  N   UNL A   1      31.321  28.420  22.580  1.00  0.00    -0.240 N 
BRANCH  20  21
ATOM     21  C   UNL A   1      30.002  28.875  22.346  1.00  0.00     0.065 A 
ATOM     22  C   UNL A   1      28.951  28.265  23.034  1.00  0.00     0.028 A 
ATOM     23  C   UNL A   1      29.800  30.101  21.693  1.00  0.00     0.028 A 
ATOM     24  C   UNL A   1      27.717  28.917  23.123  1.00  0.00     0.002 A 
ATOM     25  C   UNL A   1      28.572  30.764  21.819  1.00  0.00     0.002 A 
ATOM     26  C   UNL A   1      27.538  30.179  22.549  1.00  0.00     0.000 A 
ENDBRANCH  20  21
ENDBRANCH  15  16
ENDBRANCH  11  15
ENDBRANCH   5   8
ENDBRANCH   3   4
ENDBRANCH   2   3
ENDBRANCH   1   2
BRANCH   1  27
ATOM     27  C   UNL A   1      32.169  30.184  26.527  1.00  0.00     0.002 C 
BRANCH  27  28
ATOM     28  C   UNL A   1      31.795  31.570  27.037  1.00  0.00     0.021 C 
BRANCH  28  29
ATOM     29  C   UNL A   1      32.878  32.615  26.852  1.00  0.00     0.116 C 
BRANCH  29  30
ATOM     30  N   UNL A   1      32.595  33.856  27.568  1.00  0.00    -0.352 N 
ATOM     31  C   UNL A   1      33.150  34.399  28.707  1.00  0.00     0.251 C 
ATOM     32  H   UNL A   1      31.880  34.403  27.166  1.00  0.00     0.163 HD
ATOM     33  O   UNL A   1      32.609  35.356  29.243  1.00  0.00    -0.269 OA
BRANCH  31  34
ATOM     34  C   UNL A   1      34.376  33.806  29.286  1.00  0.00     0.039 A 
ATOM     35  C   UNL A   1      35.627  34.351  28.988  1.00  0.00     0.014 A 
ATOM     36  C   UNL A   1      34.285  32.715  30.145  1.00  0.00     0.014 A 
ATOM     37  C   UNL A   1      36.767  33.847  29.622  1.00  0.00     0.010 A 
ATOM     38  C   UNL A   1      35.379  32.345  30.905  1.00  0.00     0.010 A 
ATOM     39  C   UNL A   1      36.645  32.873  30.627  1.00  0.00    -0.014 A 
BRANCH  39  40
ATOM     40  C   UNL A   1      37.814  32.325  31.364  1.00  0.00     0.031 A 
ATOM     41  C   UNL A   1      38.613  31.202  30.743  1.00  0.00     0.074 A 
ATOM     42  C   UNL A   1      38.093  32.759  32.608  1.00  0.00     0.049 A 
ATOM     43  N   UNL A   1      39.556  30.464  31.269  1.00  0.00    -0.248 NA
ATOM     44  C   UNL A   1      38.251  30.811  29.370  1.00  0.00     0.031 C 
ATOM     45  C   UNL A   1      37.348  33.790  33.336  1.00  0.00     0.029 A 
ATOM     46  N   UNL A   1      39.075  32.382  33.488  1.00  0.00    -0.354 N 
ATOM     47  C   UNL A   1      39.859  29.503  30.308  1.00  0.00     0.074 A 
ATOM     48  C   UNL A   1      38.927  29.686  29.220  1.00  0.00     0.031 C 
ATOM     49  C   UNL A   1      37.934  34.002  34.525  1.00  0.00     0.029 A 
ATOM     50  C   UNL A   1      39.055  33.083  34.673  1.00  0.00     0.049 A 
ATOM     51  H   UNL A   1      39.733  31.677  33.290  1.00  0.00     0.167 HD
ATOM     52  C   UNL A   1      40.855  28.584  30.309  1.00  0.00     0.034 A 
ATOM     53  C   UNL A   1      39.853  32.986  35.755  1.00  0.00     0.034 A 
ATOM     54  C   UNL A   1      41.809  28.465  31.382  1.00  0.00     0.049 A 
ATOM     55  C   UNL A   1      40.966  31.969  35.732  1.00  0.00     0.074 A 
ATOM     56  C   UNL A   1      42.908  27.632  31.472  1.00  0.00     0.029 A 
ATOM     57  N   UNL A   1      41.776  29.213  32.553  1.00  0.00    -0.354 N 
ATOM     58  N   UNL A   1      41.277  31.104  34.793  1.00  0.00    -0.248 NA
ATOM     59  C   UNL A   1      41.841  31.921  36.909  1.00  0.00     0.031 C 
ATOM     60  C   UNL A   1      43.498  27.827  32.725  1.00  0.00     0.029 A 
ATOM     61  C   UNL A   1      42.818  28.841  33.384  1.00  0.00     0.049 A 
ATOM     62  H   UNL A   1      41.109  29.907  32.761  1.00  0.00     0.167 HD
ATOM     63  C   UNL A   1      42.404  30.431  35.255  1.00  0.00     0.074 A 
ATOM     64  C   UNL A   1      42.727  31.005  36.546  1.00  0.00     0.031 C 
ATOM     65  C   UNL A   1      43.111  29.428  34.670  1.00  0.00     0.034 A 
BRANCH  52  66
ATOM     66  C   UNL A   1      40.949  27.652  29.122  1.00  0.00     0.023 A 
ATOM     67  C   UNL A   1      41.890  27.852  28.095  1.00  0.00     0.031 A 
ATOM     68  C   UNL A   1      40.053  26.577  28.983  1.00  0.00     0.131 A 
ATOM     69  C   UNL A   1      41.847  27.062  26.937  1.00  0.00     0.055 A 
ATOM     70  C   UNL A   1      40.082  25.730  27.874  1.00  0.00     0.041 A 
ATOM     71  F   UNL A   1      39.116  26.343  29.916  1.00  0.00    -0.206 F 
ATOM     72  C   UNL A   1      40.969  25.982  26.831  1.00  0.00     0.022 A 
BRANCH  69  73
ATOM     73  S   UNL A   1      42.834  27.576  25.503  1.00  0.00     0.124 S 
ATOM     74  O   UNL A   1      42.158  28.813  25.112  1.00  0.00    -0.237 OA
ATOM     75  O   UNL A   1      44.166  27.730  26.075  1.00  0.00    -0.237 OA
ATOM     76  O   UNL A   1      42.679  26.468  24.564  1.00  0.00    -0.744 OA
ENDBRANCH  69  73
ENDBRANCH  52  66
BRANCH  53  77
ATOM     77  C   UNL A   1      39.644  33.874  36.935  1.00  0.00     0.023 A 
ATOM     78  C   UNL A   1      39.063  33.379  38.115  1.00  0.00     0.031 A 
ATOM     79  C   UNL A   1      39.992  35.236  36.898  1.00  0.00     0.131 A 
ATOM     80  C   UNL A   1      38.801  34.247  39.187  1.00  0.00     0.055 A 
ATOM     81  C   UNL A   1      39.783  36.083  37.989  1.00  0.00     0.041 A 
ATOM     82  F   UNL A   1      40.556  35.763  35.799  1.00  0.00    -0.206 F 
ATOM     83  C   UNL A   1      39.171  35.592  39.137  1.00  0.00     0.022 A 
BRANCH  80  84
ATOM     84  S   UNL A   1      37.882  33.609  40.616  1.00  0.00     0.124 S 
ATOM     85  O   UNL A   1      38.786  32.578  41.112  1.00  0.00    -0.237 OA
ATOM     86  O   UNL A   1      37.750  34.800  41.447  1.00  0.00    -0.237 OA
ATOM     87  O   UNL A   1      36.638  33.119  40.027  1.00  0.00    -0.744 OA
ENDBRANCH  80  84
ENDBRANCH  53  77
BRANCH  65  88
ATOM     88  C   UNL A   1      44.324  28.927  35.411  1.00  0.00     0.023 A 
ATOM     89  C   UNL A   1      44.239  27.878  36.342  1.00  0.00     0.031 A 
ATOM     90  C   UNL A   1      45.584  29.510  35.182  1.00  0.00     0.131 A 
ATOM     91  C   UNL A   1      45.380  27.484  37.053  1.00  0.00     0.055 A 
ATOM     92  C   UNL A   1      46.728  29.065  35.841  1.00  0.00     0.041 A 
ATOM     93  F   UNL A   1      45.721  30.517  34.304  1.00  0.00    -0.206 F 
ATOM     94  C   UNL A   1      46.628  28.055  36.794  1.00  0.00     0.022 A 
BRANCH  91  95
ATOM     95  S   UNL A   1      45.189  26.282  38.398  1.00  0.00     0.124 S 
ATOM     96  O   UNL A   1      43.855  25.749  38.141  1.00  0.00    -0.237 OA
ATOM     97  O   UNL A   1      46.299  25.366  38.158  1.00  0.00    -0.237 OA
ATOM     98  O   UNL A   1      45.309  27.098  39.605  1.00  0.00    -0.744 OA
ENDBRANCH  91  95
ENDBRANCH  65  88
ENDBRANCH  39  40
ENDBRANCH  31  34
ENDBRANCH  29  30
ENDBRANCH  28  29
ENDBRANCH  27  28
ENDBRANCH   1  27
TORSDOF 19
ENDMDL
