MODEL 1
REMARK VINA RESULT:     -10.2      0.000      0.000
REMARK SMILES CCCC[C@@H](C)[NH2+]Cc1ccc(C(=O)NCCCCCCNC(=O)c2ccc(-c3c4nc(c(-c5cc(S(=O)(=O)[O-])ccc5F)c5ccc([nH]5)c(-c5cc(S(=O)(=O)[O-])ccc5F)c5nc(c(-c6cc(S(=O)(=O)[O-])ccc6F)c6ccc3[nH]6)C=C5)C=C4)cc2)cn1
REMARK SMILES IDX 17 1 16 2 15 3 13 4 14 5 12 7 9 8 10 9 89 10 11 11 88 12
REMARK SMILES IDX 8 13 7 14 5 17 6 18 4 19 3 20 2 21 1 22 18 23 19 24 20 25
REMARK SMILES IDX 21 26 22 27 23 28 24 30 25 31 26 32 87 33 27 34 86 35 28 36
REMARK SMILES IDX 29 37 30 38 80 39 31 40 85 41 79 42 81 43 32 44 84 45 78 46
REMARK SMILES IDX 77 47 33 49 65 50 45 51 64 52 46 53 49 54 63 55 82 56 47 57
REMARK SMILES IDX 48 58 62 60 83 61 50 62 34 63 35 64 43 65 36 66 42 67 44 68
REMARK SMILES IDX 41 69 37 70 38 71 39 72 40 73 66 74 67 75 75 76 68 77 74 78
REMARK SMILES IDX 76 79 73 80 69 81 70 82 71 83 72 84 51 85 52 86 60 87 53 88
REMARK SMILES IDX 59 89 61 90 58 91 54 92 55 93 56 94 57 95
REMARK H PARENT 15 6 7 15 7 16 22 29 81 48 49 59
REMARK Flexibility Score: inf
ROOT
ATOM      1  C   UNL A   1      30.500  27.729  24.397  1.00  0.00     0.021 C 
ENDROOT
BRANCH   1   2
ATOM      2  C   UNL A   1      31.586  28.124  23.396  1.00  0.00     0.116 C 
BRANCH   2   3
ATOM      3  N   UNL A   1      31.483  27.412  22.135  1.00  0.00    -0.352 N 
ATOM      4  C   UNL A   1      32.021  26.236  21.677  1.00  0.00     0.252 C 
ATOM      5  O   UNL A   1      31.778  25.922  20.510  1.00  0.00    -0.269 OA
ATOM      6  H   UNL A   1      30.909  27.864  21.475  1.00  0.00     0.163 HD
BRANCH   4   7
ATOM      7  C   UNL A   1      32.927  25.368  22.468  1.00  0.00     0.058 A 
ATOM      8  C   UNL A   1      34.863  23.703  23.522  1.00  0.00     0.094 A 
ATOM      9  C   UNL A   1      34.462  24.820  24.251  1.00  0.00     0.030 A 
ATOM     10  N   UNL A   1      34.231  23.316  22.383  1.00  0.00    -0.255 NA
ATOM     11  C   UNL A   1      33.465  25.647  23.722  1.00  0.00     0.017 A 
ATOM     12  C   UNL A   1      33.288  24.154  21.887  1.00  0.00     0.125 A 
BRANCH   8  13
ATOM     13  C   UNL A   1      36.164  22.992  23.843  1.00  0.00     0.318 C 
BRANCH  13  14
ATOM     14  N   UNL A   1      35.955  21.727  24.577  1.00  0.00    -0.339 N 
ATOM     15  H   UNL A   1      36.222  20.958  23.962  1.00  0.00     0.346 HD
ATOM     16  H   UNL A   1      36.524  21.793  25.421  1.00  0.00     0.346 HD
BRANCH  14  17
ATOM     17  C   UNL A   1      34.572  21.484  25.035  1.00  0.00     0.179 C 
ATOM     18  C   UNL A   1      34.382  21.650  26.550  1.00  0.00     0.075 C 
BRANCH  17  19
ATOM     19  C   UNL A   1      34.210  20.043  24.609  1.00  0.00     0.065 C 
BRANCH  19  20
ATOM     20  C   UNL A   1      32.770  19.595  24.913  1.00  0.00     0.006 C 
BRANCH  20  21
ATOM     21  C   UNL A   1      32.461  18.128  24.611  1.00  0.00    -0.003 C 
ATOM     22  C   UNL A   1      33.390  17.532  23.567  1.00  0.00     0.004 C 
ENDBRANCH  20  21
ENDBRANCH  19  20
ENDBRANCH  17  19
ENDBRANCH  14  17
ENDBRANCH  13  14
ENDBRANCH   8  13
ENDBRANCH   4   7
ENDBRANCH   2   3
ENDBRANCH   1   2
BRANCH   1  23
ATOM     23  C   UNL A   1      30.987  27.047  25.680  1.00  0.00     0.002 C 
BRANCH  23  24
ATOM     24  C   UNL A   1      31.660  27.962  26.708  1.00  0.00     0.002 C 
BRANCH  24  25
ATOM     25  C   UNL A   1      33.177  27.811  26.840  1.00  0.00     0.021 C 
BRANCH  25  26
ATOM     26  C   UNL A   1      33.999  28.761  25.973  1.00  0.00     0.116 C 
BRANCH  26  27
ATOM     27  N   UNL A   1      33.812  30.148  26.362  1.00  0.00    -0.352 N 
ATOM     28  C   UNL A   1      34.471  30.881  27.319  1.00  0.00     0.251 C 
ATOM     29  H   UNL A   1      33.112  30.633  25.867  1.00  0.00     0.163 HD
ATOM     30  O   UNL A   1      34.017  31.963  27.674  1.00  0.00    -0.269 OA
BRANCH  28  31
ATOM     31  C   UNL A   1      35.715  30.356  27.925  1.00  0.00     0.039 A 
ATOM     32  C   UNL A   1      35.641  29.673  29.142  1.00  0.00     0.014 A 
ATOM     33  C   UNL A   1      36.953  30.554  27.306  1.00  0.00     0.014 A 
ATOM     34  C   UNL A   1      36.803  29.144  29.711  1.00  0.00     0.010 A 
ATOM     35  C   UNL A   1      38.097  29.962  27.835  1.00  0.00     0.010 A 
ATOM     36  C   UNL A   1      38.036  29.259  29.047  1.00  0.00    -0.014 A 
BRANCH  36  37
ATOM     37  C   UNL A   1      39.276  28.668  29.615  1.00  0.00     0.031 A 
ATOM     38  C   UNL A   1      39.888  29.257  30.857  1.00  0.00     0.074 A 
ATOM     39  C   UNL A   1      39.881  27.643  28.981  1.00  0.00     0.049 A 
ATOM     40  N   UNL A   1      41.008  28.946  31.458  1.00  0.00    -0.248 NA
ATOM     41  C   UNL A   1      39.155  30.365  31.489  1.00  0.00     0.031 C 
ATOM     42  C   UNL A   1      39.399  27.006  27.754  1.00  0.00     0.029 A 
ATOM     43  N   UNL A   1      41.035  26.960  29.276  1.00  0.00    -0.354 N 
ATOM     44  C   UNL A   1      41.120  29.826  32.530  1.00  0.00     0.074 A 
ATOM     45  C   UNL A   1      39.988  30.724  32.453  1.00  0.00     0.031 C 
ATOM     46  C   UNL A   1      40.236  26.013  27.415  1.00  0.00     0.029 A 
ATOM     47  C   UNL A   1      41.341  25.973  28.367  1.00  0.00     0.049 A 
ATOM     48  H   UNL A   1      41.592  27.160  30.063  1.00  0.00     0.167 HD
ATOM     49  C   UNL A   1      42.066  29.865  33.501  1.00  0.00     0.034 A 
ATOM     50  C   UNL A   1      42.399  25.141  28.300  1.00  0.00     0.034 A 
ATOM     51  C   UNL A   1      43.185  28.954  33.565  1.00  0.00     0.049 A 
ATOM     52  C   UNL A   1      43.463  25.231  29.367  1.00  0.00     0.074 A 
ATOM     53  C   UNL A   1      44.176  28.871  34.528  1.00  0.00     0.029 A 
ATOM     54  N   UNL A   1      43.467  27.973  32.621  1.00  0.00    -0.354 N 
ATOM     55  N   UNL A   1      43.531  26.039  30.400  1.00  0.00    -0.248 NA
ATOM     56  C   UNL A   1      44.584  24.289  29.265  1.00  0.00     0.031 C 
ATOM     57  C   UNL A   1      45.096  27.896  34.128  1.00  0.00     0.029 A 
ATOM     58  C   UNL A   1      44.636  27.308  32.961  1.00  0.00     0.049 A 
ATOM     59  H   UNL A   1      42.918  27.779  31.827  1.00  0.00     0.167 HD
ATOM     60  C   UNL A   1      44.688  25.679  31.087  1.00  0.00     0.074 A 
ATOM     61  C   UNL A   1      45.273  24.572  30.359  1.00  0.00     0.031 C 
ATOM     62  C   UNL A   1      45.216  26.212  32.219  1.00  0.00     0.034 A 
BRANCH  49  63
ATOM     63  C   UNL A   1      41.944  30.946  34.550  1.00  0.00     0.023 A 
ATOM     64  C   UNL A   1      42.503  32.223  34.364  1.00  0.00     0.031 A 
ATOM     65  C   UNL A   1      41.286  30.690  35.766  1.00  0.00     0.131 A 
ATOM     66  C   UNL A   1      42.468  33.163  35.405  1.00  0.00     0.055 A 
ATOM     67  C   UNL A   1      41.175  31.661  36.764  1.00  0.00     0.041 A 
ATOM     68  F   UNL A   1      40.750  29.485  36.014  1.00  0.00    -0.206 F 
ATOM     69  C   UNL A   1      41.784  32.901  36.594  1.00  0.00     0.022 A 
BRANCH  66  70
ATOM     70  S   UNL A   1      43.466  34.669  35.244  1.00  0.00     0.124 S 
ATOM     71  O   UNL A   1      42.562  35.681  35.787  1.00  0.00    -0.237 OA
ATOM     72  O   UNL A   1      44.638  34.359  36.054  1.00  0.00    -0.237 OA
ATOM     73  O   UNL A   1      43.707  34.768  33.806  1.00  0.00    -0.744 OA
ENDBRANCH  66  70
ENDBRANCH  49  63
BRANCH  50  74
ATOM     74  C   UNL A   1      42.523  24.162  27.182  1.00  0.00     0.023 A 
ATOM     75  C   UNL A   1      41.891  22.910  27.244  1.00  0.00     0.031 A 
ATOM     76  C   UNL A   1      43.310  24.446  26.051  1.00  0.00     0.131 A 
ATOM     77  C   UNL A   1      42.098  21.970  26.222  1.00  0.00     0.055 A 
ATOM     78  C   UNL A   1      43.466  23.530  25.010  1.00  0.00     0.041 A 
ATOM     79  F   UNL A   1      43.934  25.629  25.938  1.00  0.00    -0.206 F 
ATOM     80  C   UNL A   1      42.868  22.277  25.098  1.00  0.00     0.022 A 
BRANCH  77  81
ATOM     81  S   UNL A   1      41.418  20.300  26.428  1.00  0.00     0.124 S 
ATOM     82  O   UNL A   1      42.123  19.564  25.385  1.00  0.00    -0.237 OA
ATOM     83  O   UNL A   1      41.794  19.987  27.802  1.00  0.00    -0.237 OA
ATOM     84  O   UNL A   1      39.986  20.487  26.201  1.00  0.00    -0.744 OA
ENDBRANCH  77  81
ENDBRANCH  50  74
BRANCH  62  85
ATOM     85  C   UNL A   1      46.469  25.567  32.763  1.00  0.00     0.023 A 
ATOM     86  C   UNL A   1      47.737  25.831  32.217  1.00  0.00     0.031 A 
ATOM     87  C   UNL A   1      46.388  24.664  33.839  1.00  0.00     0.131 A 
ATOM     88  C   UNL A   1      48.864  25.156  32.709  1.00  0.00     0.055 A 
ATOM     89  C   UNL A   1      47.522  24.048  34.369  1.00  0.00     0.041 A 
ATOM     90  F   UNL A   1      45.203  24.370  34.397  1.00  0.00    -0.206 F 
ATOM     91  C   UNL A   1      48.768  24.281  33.794  1.00  0.00     0.022 A 
BRANCH  88  92
ATOM     92  S   UNL A   1      50.447  25.361  31.846  1.00  0.00     0.124 S 
ATOM     93  O   UNL A   1      50.039  26.050  30.626  1.00  0.00    -0.237 OA
ATOM     94  O   UNL A   1      51.221  26.152  32.797  1.00  0.00    -0.237 OA
ATOM     95  O   UNL A   1      50.915  23.988  31.657  1.00  0.00    -0.744 OA
ENDBRANCH  88  92
ENDBRANCH  62  85
ENDBRANCH  36  37
ENDBRANCH  28  31
ENDBRANCH  26  27
ENDBRANCH  25  26
ENDBRANCH  24  25
ENDBRANCH  23  24
ENDBRANCH   1  23
TORSDOF 22
ENDMDL
MODEL 2
REMARK VINA RESULT:     -10.1      1.989      2.438
REMARK SMILES CCCC[C@@H](C)[NH2+]Cc1ccc(C(=O)NCCCCCCNC(=O)c2ccc(-c3c4nc(c(-c5cc(S(=O)(=O)[O-])ccc5F)c5ccc([nH]5)c(-c5cc(S(=O)(=O)[O-])ccc5F)c5nc(c(-c6cc(S(=O)(=O)[O-])ccc6F)c6ccc3[nH]6)C=C5)C=C4)cc2)cn1
REMARK SMILES IDX 17 1 16 2 15 3 13 4 14 5 12 7 9 8 10 9 89 10 11 11 88 12
REMARK SMILES IDX 8 13 7 14 5 17 6 18 4 19 3 20 2 21 1 22 18 23 19 24 20 25
REMARK SMILES IDX 21 26 22 27 23 28 24 30 25 31 26 32 87 33 27 34 86 35 28 36
REMARK SMILES IDX 29 37 30 38 80 39 31 40 85 41 79 42 81 43 32 44 84 45 78 46
REMARK SMILES IDX 77 47 33 49 65 50 45 51 64 52 46 53 49 54 63 55 82 56 47 57
REMARK SMILES IDX 48 58 62 60 83 61 50 62 34 63 35 64 43 65 36 66 42 67 44 68
REMARK SMILES IDX 41 69 37 70 38 71 39 72 40 73 66 74 67 75 75 76 68 77 74 78
REMARK SMILES IDX 76 79 73 80 69 81 70 82 71 83 72 84 51 85 52 86 60 87 53 88
REMARK SMILES IDX 59 89 61 90 58 91 54 92 55 93 56 94 57 95
REMARK H PARENT 15 6 7 15 7 16 22 29 81 48 49 59
REMARK Flexibility Score: inf
ROOT
ATOM      1  C   UNL A   1      33.987  27.250  24.533  1.00  0.00     0.021 C 
ENDROOT
BRANCH   1   2
ATOM      2  C   UNL A   1      33.004  27.870  23.540  1.00  0.00     0.116 C 
BRANCH   2   3
ATOM      3  N   UNL A   1      33.096  27.290  22.213  1.00  0.00    -0.352 N 
ATOM      4  C   UNL A   1      32.912  26.019  21.730  1.00  0.00     0.252 C 
ATOM      5  O   UNL A   1      33.123  25.835  20.530  1.00  0.00    -0.269 OA
ATOM      6  H   UNL A   1      33.340  27.942  21.516  1.00  0.00     0.163 HD
BRANCH   4   7
ATOM      7  C   UNL A   1      32.552  24.851  22.571  1.00  0.00     0.058 A 
ATOM      8  C   UNL A   1      32.267  22.807  24.407  1.00  0.00     0.094 A 
ATOM      9  C   UNL A   1      31.136  23.505  23.993  1.00  0.00     0.030 A 
ATOM     10  N   UNL A   1      33.483  22.989  23.829  1.00  0.00    -0.255 NA
ATOM     11  C   UNL A   1      31.283  24.525  23.045  1.00  0.00     0.017 A 
ATOM     12  C   UNL A   1      33.594  24.002  22.935  1.00  0.00     0.125 A 
BRANCH   8  13
ATOM     13  C   UNL A   1      32.243  21.969  25.671  1.00  0.00     0.318 C 
BRANCH  13  14
ATOM     14  N   UNL A   1      31.900  20.555  25.411  1.00  0.00    -0.339 N 
ATOM     15  H   UNL A   1      31.880  20.066  26.306  1.00  0.00     0.346 HD
ATOM     16  H   UNL A   1      31.001  20.567  24.930  1.00  0.00     0.346 HD
BRANCH  14  17
ATOM     17  C   UNL A   1      32.831  19.834  24.519  1.00  0.00     0.179 C 
ATOM     18  C   UNL A   1      32.201  19.391  23.191  1.00  0.00     0.075 C 
BRANCH  17  19
ATOM     19  C   UNL A   1      33.334  18.602  25.307  1.00  0.00     0.065 C 
BRANCH  19  20
ATOM     20  C   UNL A   1      32.603  17.280  25.019  1.00  0.00     0.006 C 
BRANCH  20  21
ATOM     21  C   UNL A   1      33.461  16.177  24.395  1.00  0.00    -0.003 C 
ATOM     22  C   UNL A   1      34.834  16.063  25.038  1.00  0.00     0.004 C 
ENDBRANCH  20  21
ENDBRANCH  19  20
ENDBRANCH  17  19
ENDBRANCH  14  17
ENDBRANCH  13  14
ENDBRANCH   8  13
ENDBRANCH   4   7
ENDBRANCH   2   3
ENDBRANCH   1   2
BRANCH   1  23
ATOM     23  C   UNL A   1      33.375  26.684  25.818  1.00  0.00     0.002 C 
BRANCH  23  24
ATOM     24  C   UNL A   1      31.991  27.224  26.194  1.00  0.00     0.002 C 
BRANCH  24  25
ATOM     25  C   UNL A   1      31.981  28.401  27.172  1.00  0.00     0.021 C 
BRANCH  25  26
ATOM     26  C   UNL A   1      33.359  28.943  27.544  1.00  0.00     0.116 C 
BRANCH  26  27
ATOM     27  N   UNL A   1      33.412  30.393  27.460  1.00  0.00    -0.352 N 
ATOM     28  C   UNL A   1      34.339  31.262  27.981  1.00  0.00     0.251 C 
ATOM     29  H   UNL A   1      32.678  30.812  26.955  1.00  0.00     0.163 HD
ATOM     30  O   UNL A   1      34.094  32.463  28.015  1.00  0.00    -0.269 OA
BRANCH  28  31
ATOM     31  C   UNL A   1      35.621  30.745  28.510  1.00  0.00     0.039 A 
ATOM     32  C   UNL A   1      35.607  29.918  29.637  1.00  0.00     0.014 A 
ATOM     33  C   UNL A   1      36.836  31.090  27.910  1.00  0.00     0.014 A 
ATOM     34  C   UNL A   1      36.806  29.397  30.129  1.00  0.00     0.010 A 
ATOM     35  C   UNL A   1      38.021  30.511  28.356  1.00  0.00     0.010 A 
ATOM     36  C   UNL A   1      38.020  29.665  29.475  1.00  0.00    -0.014 A 
BRANCH  36  37
ATOM     37  C   UNL A   1      39.302  29.087  29.958  1.00  0.00     0.031 A 
ATOM     38  C   UNL A   1      40.008  29.706  31.133  1.00  0.00     0.074 A 
ATOM     39  C   UNL A   1      39.856  28.047  29.304  1.00  0.00     0.049 A 
ATOM     40  N   UNL A   1      41.172  29.409  31.652  1.00  0.00    -0.248 NA
ATOM     41  C   UNL A   1      39.326  30.830  31.793  1.00  0.00     0.031 C 
ATOM     42  C   UNL A   1      39.280  27.381  28.134  1.00  0.00     0.029 A 
ATOM     43  N   UNL A   1      41.030  27.371  29.524  1.00  0.00    -0.354 N 
ATOM     44  C   UNL A   1      41.367  30.315  32.690  1.00  0.00     0.074 A 
ATOM     45  C   UNL A   1      40.231  31.212  32.680  1.00  0.00     0.031 C 
ATOM     46  C   UNL A   1      40.089  26.379  27.756  1.00  0.00     0.029 A 
ATOM     47  C   UNL A   1      41.265  26.361  28.619  1.00  0.00     0.049 A 
ATOM     48  H   UNL A   1      41.647  27.589  30.259  1.00  0.00     0.167 HD
ATOM     49  C   UNL A   1      42.386  30.377  33.583  1.00  0.00     0.034 A 
ATOM     50  C   UNL A   1      42.316  25.527  28.489  1.00  0.00     0.034 A 
ATOM     51  C   UNL A   1      43.507  29.467  33.581  1.00  0.00     0.049 A 
ATOM     52  C   UNL A   1      43.460  25.642  29.468  1.00  0.00     0.074 A 
ATOM     53  C   UNL A   1      44.571  29.407  34.465  1.00  0.00     0.029 A 
ATOM     54  N   UNL A   1      43.716  28.464  32.643  1.00  0.00    -0.354 N 
ATOM     55  N   UNL A   1      43.608  26.476  30.471  1.00  0.00    -0.248 NA
ATOM     56  C   UNL A   1      44.570  24.697  29.300  1.00  0.00     0.031 C 
ATOM     57  C   UNL A   1      45.458  28.423  34.018  1.00  0.00     0.029 A 
ATOM     58  C   UNL A   1      44.909  27.806  32.906  1.00  0.00     0.049 A 
ATOM     59  H   UNL A   1      43.107  28.251  31.899  1.00  0.00     0.167 HD
ATOM     60  C   UNL A   1      44.816  26.132  31.075  1.00  0.00     0.074 A 
ATOM     61  C   UNL A   1      45.343  25.006  30.330  1.00  0.00     0.031 C 
ATOM     62  C   UNL A   1      45.430  26.691  32.148  1.00  0.00     0.034 A 
BRANCH  49  63
ATOM     63  C   UNL A   1      42.345  31.484  34.612  1.00  0.00     0.023 A 
ATOM     64  C   UNL A   1      41.396  31.494  35.649  1.00  0.00     0.031 A 
ATOM     65  C   UNL A   1      43.246  32.561  34.538  1.00  0.00     0.131 A 
ATOM     66  C   UNL A   1      41.314  32.594  36.516  1.00  0.00     0.055 A 
ATOM     67  C   UNL A   1      43.218  33.611  35.460  1.00  0.00     0.041 A 
ATOM     68  F   UNL A   1      44.161  32.622  33.558  1.00  0.00    -0.206 F 
ATOM     69  C   UNL A   1      42.237  33.640  36.445  1.00  0.00     0.022 A 
BRANCH  66  70
ATOM     70  S   UNL A   1      39.888  32.714  37.630  1.00  0.00     0.124 S 
ATOM     71  O   UNL A   1      40.524  32.574  38.938  1.00  0.00    -0.237 OA
ATOM     72  O   UNL A   1      39.353  34.033  37.317  1.00  0.00    -0.237 OA
ATOM     73  O   UNL A   1      39.047  31.587  37.232  1.00  0.00    -0.744 OA
ENDBRANCH  66  70
ENDBRANCH  49  63
BRANCH  50  74
ATOM     74  C   UNL A   1      42.353  24.520  27.389  1.00  0.00     0.023 A 
ATOM     75  C   UNL A   1      41.595  23.341  27.462  1.00  0.00     0.031 A 
ATOM     76  C   UNL A   1      43.181  24.702  26.266  1.00  0.00     0.131 A 
ATOM     77  C   UNL A   1      41.717  22.367  26.459  1.00  0.00     0.055 A 
ATOM     78  C   UNL A   1      43.254  23.757  25.243  1.00  0.00     0.041 A 
ATOM     79  F   UNL A   1      43.925  25.812  26.143  1.00  0.00    -0.206 F 
ATOM     80  C   UNL A   1      42.530  22.573  25.342  1.00  0.00     0.022 A 
BRANCH  77  81
ATOM     81  S   UNL A   1      40.866  20.780  26.682  1.00  0.00     0.124 S 
ATOM     82  O   UNL A   1      40.877  20.641  28.134  1.00  0.00    -0.237 OA
ATOM     83  O   UNL A   1      39.568  21.045  26.071  1.00  0.00    -0.237 OA
ATOM     84  O   UNL A   1      41.714  19.835  25.958  1.00  0.00    -0.744 OA
ENDBRANCH  77  81
ENDBRANCH  50  74
BRANCH  62  85
ATOM     85  C   UNL A   1      46.722  26.059  32.608  1.00  0.00     0.023 A 
ATOM     86  C   UNL A   1      46.743  25.011  33.545  1.00  0.00     0.031 A 
ATOM     87  C   UNL A   1      47.953  26.521  32.106  1.00  0.00     0.131 A 
ATOM     88  C   UNL A   1      47.970  24.501  33.996  1.00  0.00     0.055 A 
ATOM     89  C   UNL A   1      49.167  25.962  32.507  1.00  0.00     0.041 A 
ATOM     90  F   UNL A   1      47.994  27.521  31.213  1.00  0.00    -0.206 F 
ATOM     91  C   UNL A   1      49.181  24.956  33.468  1.00  0.00     0.022 A 
BRANCH  88  92
ATOM     92  S   UNL A   1      47.967  23.301  35.356  1.00  0.00     0.124 S 
ATOM     93  O   UNL A   1      48.398  22.080  34.683  1.00  0.00    -0.237 OA
ATOM     94  O   UNL A   1      48.923  23.885  36.290  1.00  0.00    -0.237 OA
ATOM     95  O   UNL A   1      46.577  23.301  35.811  1.00  0.00    -0.744 OA
ENDBRANCH  88  92
ENDBRANCH  62  85
ENDBRANCH  36  37
ENDBRANCH  28  31
ENDBRANCH  26  27
ENDBRANCH  25  26
ENDBRANCH  24  25
ENDBRANCH  23  24
ENDBRANCH   1  23
TORSDOF 22
ENDMDL
MODEL 3
REMARK VINA RESULT:     -10.1      4.060      9.060
REMARK SMILES CCCC[C@@H](C)[NH2+]Cc1ccc(C(=O)NCCCCCCNC(=O)c2ccc(-c3c4nc(c(-c5cc(S(=O)(=O)[O-])ccc5F)c5ccc([nH]5)c(-c5cc(S(=O)(=O)[O-])ccc5F)c5nc(c(-c6cc(S(=O)(=O)[O-])ccc6F)c6ccc3[nH]6)C=C5)C=C4)cc2)cn1
REMARK SMILES IDX 17 1 16 2 15 3 13 4 14 5 12 7 9 8 10 9 89 10 11 11 88 12
REMARK SMILES IDX 8 13 7 14 5 17 6 18 4 19 3 20 2 21 1 22 18 23 19 24 20 25
REMARK SMILES IDX 21 26 22 27 23 28 24 30 25 31 26 32 87 33 27 34 86 35 28 36
REMARK SMILES IDX 29 37 30 38 80 39 31 40 85 41 79 42 81 43 32 44 84 45 78 46
REMARK SMILES IDX 77 47 33 49 65 50 45 51 64 52 46 53 49 54 63 55 82 56 47 57
REMARK SMILES IDX 48 58 62 60 83 61 50 62 34 63 35 64 43 65 36 66 42 67 44 68
REMARK SMILES IDX 41 69 37 70 38 71 39 72 40 73 66 74 67 75 75 76 68 77 74 78
REMARK SMILES IDX 76 79 73 80 69 81 70 82 71 83 72 84 51 85 52 86 60 87 53 88
REMARK SMILES IDX 59 89 61 90 58 91 54 92 55 93 56 94 57 95
REMARK H PARENT 15 6 7 15 7 16 22 29 81 48 49 59
REMARK Flexibility Score: inf
ROOT
ATOM      1  C   UNL A   1      33.669  26.658  25.337  1.00  0.00     0.021 C 
ENDROOT
BRANCH   1   2
ATOM      2  C   UNL A   1      32.569  27.073  26.313  1.00  0.00     0.116 C 
BRANCH   2   3
ATOM      3  N   UNL A   1      31.237  26.969  25.745  1.00  0.00    -0.352 N 
ATOM      4  C   UNL A   1      30.455  25.902  25.378  1.00  0.00     0.252 C 
ATOM      5  O   UNL A   1      29.363  26.154  24.863  1.00  0.00    -0.269 OA
ATOM      6  H   UNL A   1      30.807  27.841  25.592  1.00  0.00     0.163 HD
BRANCH   4   7
ATOM      7  C   UNL A   1      30.870  24.483  25.494  1.00  0.00     0.058 A 
ATOM      8  C   UNL A   1      31.992  21.961  25.387  1.00  0.00     0.094 A 
ATOM      9  C   UNL A   1      31.638  22.491  26.625  1.00  0.00     0.030 A 
ATOM     10  N   UNL A   1      31.667  22.572  24.218  1.00  0.00    -0.255 NA
ATOM     11  C   UNL A   1      31.049  23.760  26.671  1.00  0.00     0.017 A 
ATOM     12  C   UNL A   1      31.121  23.810  24.301  1.00  0.00     0.125 A 
BRANCH   8  13
ATOM     13  C   UNL A   1      32.950  20.789  25.289  1.00  0.00     0.318 C 
BRANCH  13  14
ATOM     14  N   UNL A   1      32.315  19.579  24.728  1.00  0.00    -0.339 N 
ATOM     15  H   UNL A   1      32.478  18.809  25.375  1.00  0.00     0.346 HD
ATOM     16  H   UNL A   1      31.329  19.809  24.605  1.00  0.00     0.346 HD
BRANCH  14  17
ATOM     17  C   UNL A   1      32.806  19.167  23.397  1.00  0.00     0.179 C 
ATOM     18  C   UNL A   1      32.111  19.883  22.230  1.00  0.00     0.075 C 
BRANCH  17  19
ATOM     19  C   UNL A   1      32.582  17.641  23.295  1.00  0.00     0.065 C 
BRANCH  19  20
ATOM     20  C   UNL A   1      33.840  16.768  23.446  1.00  0.00     0.006 C 
BRANCH  20  21
ATOM     21  C   UNL A   1      34.690  17.051  24.686  1.00  0.00    -0.003 C 
ATOM     22  C   UNL A   1      35.349  15.801  25.247  1.00  0.00     0.004 C 
ENDBRANCH  20  21
ENDBRANCH  19  20
ENDBRANCH  17  19
ENDBRANCH  14  17
ENDBRANCH  13  14
ENDBRANCH   8  13
ENDBRANCH   4   7
ENDBRANCH   2   3
ENDBRANCH   1   2
BRANCH   1  23
ATOM     23  C   UNL A   1      34.335  25.306  25.612  1.00  0.00     0.002 C 
BRANCH  23  24
ATOM     24  C   UNL A   1      34.766  24.510  24.376  1.00  0.00     0.002 C 
BRANCH  24  25
ATOM     25  C   UNL A   1      36.031  23.663  24.540  1.00  0.00     0.021 C 
BRANCH  25  26
ATOM     26  C   UNL A   1      36.573  23.580  25.964  1.00  0.00     0.116 C 
BRANCH  26  27
ATOM     27  N   UNL A   1      37.622  22.582  26.088  1.00  0.00    -0.352 N 
ATOM     28  C   UNL A   1      38.957  22.751  26.360  1.00  0.00     0.251 C 
ATOM     29  H   UNL A   1      37.332  21.649  25.960  1.00  0.00     0.163 HD
ATOM     30  O   UNL A   1      39.735  21.819  26.188  1.00  0.00    -0.269 OA
BRANCH  28  31
ATOM     31  C   UNL A   1      39.453  24.059  26.844  1.00  0.00     0.039 A 
ATOM     32  C   UNL A   1      40.036  24.944  25.933  1.00  0.00     0.014 A 
ATOM     33  C   UNL A   1      39.361  24.404  28.196  1.00  0.00     0.014 A 
ATOM     34  C   UNL A   1      40.479  26.194  26.369  1.00  0.00     0.010 A 
ATOM     35  C   UNL A   1      39.735  25.679  28.614  1.00  0.00     0.010 A 
ATOM     36  C   UNL A   1      40.305  26.585  27.708  1.00  0.00    -0.014 A 
BRANCH  36  37
ATOM     37  C   UNL A   1      40.733  27.926  28.183  1.00  0.00     0.031 A 
ATOM     38  C   UNL A   1      42.194  28.287  28.197  1.00  0.00     0.074 A 
ATOM     39  C   UNL A   1      39.815  28.794  28.655  1.00  0.00     0.049 A 
ATOM     40  N   UNL A   1      42.777  29.366  28.653  1.00  0.00    -0.248 NA
ATOM     41  C   UNL A   1      43.124  27.286  27.654  1.00  0.00     0.031 C 
ATOM     42  C   UNL A   1      38.374  28.546  28.719  1.00  0.00     0.029 A 
ATOM     43  N   UNL A   1      39.957  30.055  29.178  1.00  0.00    -0.354 N 
ATOM     44  C   UNL A   1      44.141  29.169  28.462  1.00  0.00     0.074 A 
ATOM     45  C   UNL A   1      44.298  27.839  27.912  1.00  0.00     0.031 C 
ATOM     46  C   UNL A   1      37.763  29.628  29.227  1.00  0.00     0.029 A 
ATOM     47  C   UNL A   1      38.769  30.627  29.574  1.00  0.00     0.049 A 
ATOM     48  H   UNL A   1      40.827  30.508  29.263  1.00  0.00     0.167 HD
ATOM     49  C   UNL A   1      45.165  30.026  28.701  1.00  0.00     0.034 A 
ATOM     50  C   UNL A   1      38.521  31.812  30.164  1.00  0.00     0.034 A 
ATOM     51  C   UNL A   1      44.987  31.353  29.243  1.00  0.00     0.049 A 
ATOM     52  C   UNL A   1      39.680  32.733  30.460  1.00  0.00     0.074 A 
ATOM     53  C   UNL A   1      45.946  32.322  29.481  1.00  0.00     0.029 A 
ATOM     54  N   UNL A   1      43.771  31.893  29.641  1.00  0.00    -0.354 N 
ATOM     55  N   UNL A   1      40.960  32.550  30.233  1.00  0.00    -0.248 NA
ATOM     56  C   UNL A   1      39.357  34.023  31.083  1.00  0.00     0.031 C 
ATOM     57  C   UNL A   1      45.322  33.415  30.093  1.00  0.00     0.029 A 
ATOM     58  C   UNL A   1      43.961  33.167  30.157  1.00  0.00     0.049 A 
ATOM     59  H   UNL A   1      42.900  31.438  29.569  1.00  0.00     0.167 HD
ATOM     60  C   UNL A   1      41.591  33.717  30.655  1.00  0.00     0.074 A 
ATOM     61  C   UNL A   1      40.548  34.601  31.135  1.00  0.00     0.031 C 
ATOM     62  C   UNL A   1      42.911  34.033  30.644  1.00  0.00     0.034 A 
BRANCH  49  63
ATOM     63  C   UNL A   1      46.565  29.539  28.404  1.00  0.00     0.023 A 
ATOM     64  C   UNL A   1      47.312  28.816  29.351  1.00  0.00     0.031 A 
ATOM     65  C   UNL A   1      47.175  29.827  27.171  1.00  0.00     0.131 A 
ATOM     66  C   UNL A   1      48.648  28.480  29.084  1.00  0.00     0.055 A 
ATOM     67  C   UNL A   1      48.475  29.410  26.875  1.00  0.00     0.041 A 
ATOM     68  F   UNL A   1      46.523  30.532  26.233  1.00  0.00    -0.206 F 
ATOM     69  C   UNL A   1      49.226  28.748  27.842  1.00  0.00     0.022 A 
BRANCH  66  70
ATOM     70  S   UNL A   1      49.665  27.833  30.439  1.00  0.00     0.124 S 
ATOM     71  O   UNL A   1      50.092  29.065  31.100  1.00  0.00    -0.237 OA
ATOM     72  O   UNL A   1      48.718  27.008  31.178  1.00  0.00    -0.237 OA
ATOM     73  O   UNL A   1      50.728  27.104  29.752  1.00  0.00    -0.744 OA
ENDBRANCH  66  70
ENDBRANCH  49  63
BRANCH  50  74
ATOM     74  C   UNL A   1      37.128  32.199  30.531  1.00  0.00     0.023 A 
ATOM     75  C   UNL A   1      36.252  32.737  29.576  1.00  0.00     0.031 A 
ATOM     76  C   UNL A   1      36.665  32.076  31.854  1.00  0.00     0.131 A 
ATOM     77  C   UNL A   1      34.977  33.179  29.966  1.00  0.00     0.055 A 
ATOM     78  C   UNL A   1      35.377  32.462  32.225  1.00  0.00     0.041 A 
ATOM     79  F   UNL A   1      37.460  31.564  32.808  1.00  0.00    -0.206 F 
ATOM     80  C   UNL A   1      34.528  33.031  31.280  1.00  0.00     0.022 A 
BRANCH  77  81
ATOM     81  S   UNL A   1      33.945  34.037  28.745  1.00  0.00     0.124 S 
ATOM     82  O   UNL A   1      32.865  34.550  29.581  1.00  0.00    -0.237 OA
ATOM     83  O   UNL A   1      34.871  35.029  28.211  1.00  0.00    -0.237 OA
ATOM     84  O   UNL A   1      33.566  32.975  27.816  1.00  0.00    -0.744 OA
ENDBRANCH  77  81
ENDBRANCH  50  74
BRANCH  62  85
ATOM     85  C   UNL A   1      43.293  35.413  31.124  1.00  0.00     0.023 A 
ATOM     86  C   UNL A   1      43.496  36.480  30.230  1.00  0.00     0.031 A 
ATOM     87  C   UNL A   1      43.466  35.661  32.498  1.00  0.00     0.131 A 
ATOM     88  C   UNL A   1      43.917  37.727  30.715  1.00  0.00     0.055 A 
ATOM     89  C   UNL A   1      43.818  36.923  32.980  1.00  0.00     0.041 A 
ATOM     90  F   UNL A   1      43.289  34.680  33.397  1.00  0.00    -0.206 F 
ATOM     91  C   UNL A   1      44.060  37.961  32.085  1.00  0.00     0.022 A 
BRANCH  88  92
ATOM     92  S   UNL A   1      44.373  39.016  29.523  1.00  0.00     0.124 S 
ATOM     93  O   UNL A   1      45.823  39.075  29.683  1.00  0.00    -0.237 OA
ATOM     94  O   UNL A   1      43.894  38.459  28.262  1.00  0.00    -0.237 OA
ATOM     95  O   UNL A   1      43.648  40.194  29.996  1.00  0.00    -0.744 OA
ENDBRANCH  88  92
ENDBRANCH  62  85
ENDBRANCH  36  37
ENDBRANCH  28  31
ENDBRANCH  26  27
ENDBRANCH  25  26
ENDBRANCH  24  25
ENDBRANCH  23  24
ENDBRANCH   1  23
TORSDOF 22
ENDMDL
