MODEL 1
REMARK VINA RESULT:     -12.1      0.000      0.000
REMARK SMILES Cc1cc(OCC(C)(C)C(=O)NCCCCCCNC(=O)c2ccc(-c3c4nc(c(-c5cc(S(=O)(=O)[O-])ccc5F)c5ccc([nH]5)c(-c5cc(S(=O)(=O)[O-])ccc5F)c5nc(c(-c6cc(S(=O)(=O)[O-])ccc6F)c6ccc3[nH]6)C=C5)C=C4)cc2)cc(C(C)C)c1
REMARK SMILES IDX 15 1 14 2 13 3 12 4 10 5 11 6 7 8 8 9 9 10 6 11 5 12 4 13
REMARK SMILES IDX 1 14 2 15 3 16 90 17 86 18 85 19 87 20 88 21 89 22 16 23
REMARK SMILES IDX 17 24 18 25 19 26 20 27 21 29 22 30 23 31 84 32 24 33 83 34
REMARK SMILES IDX 25 35 26 36 27 37 77 38 28 39 82 40 76 41 78 42 29 43 81 44
REMARK SMILES IDX 75 45 74 46 30 48 62 49 42 50 61 51 43 52 46 53 60 54 79 55
REMARK SMILES IDX 44 56 45 57 59 59 80 60 47 61 31 62 32 63 40 64 33 65 39 66
REMARK SMILES IDX 41 67 38 68 34 69 35 70 36 71 37 72 63 73 64 74 72 75 65 76
REMARK SMILES IDX 71 77 73 78 70 79 66 80 67 81 68 82 69 83 48 84 49 85 57 86
REMARK SMILES IDX 50 87 56 88 58 89 55 90 51 91 52 92 53 93 54 94
REMARK H PARENT 12 7 19 28 78 47 46 58
REMARK Flexibility Score: inf
ROOT
ATOM      1  C   UNL A   1      32.863  29.970  25.648  1.00  0.00     0.002 C 
ENDROOT
BRANCH   1   2
ATOM      2  C   UNL A   1      33.218  28.485  25.677  1.00  0.00     0.021 C 
BRANCH   2   3
ATOM      3  C   UNL A   1      32.090  27.506  25.379  1.00  0.00     0.116 C 
BRANCH   3   4
ATOM      4  N   UNL A   1      32.469  26.105  25.384  1.00  0.00    -0.356 N 
ATOM      5  C   UNL A   1      32.782  25.256  24.355  1.00  0.00     0.229 C 
ATOM      6  O   UNL A   1      33.173  24.127  24.667  1.00  0.00    -0.274 OA
ATOM      7  H   UNL A   1      32.510  25.695  26.279  1.00  0.00     0.163 HD
BRANCH   5   8
ATOM      8  C   UNL A   1      32.569  25.650  22.875  1.00  0.00     0.077 C 
ATOM      9  C   UNL A   1      32.816  24.478  21.923  1.00  0.00     0.025 C 
ATOM     10  C   UNL A   1      33.537  26.804  22.533  1.00  0.00     0.025 C 
BRANCH   8  11
ATOM     11  C   UNL A   1      31.125  26.240  22.660  1.00  0.00     0.245 C 
BRANCH  11  12
ATOM     12  O   UNL A   1      31.002  27.515  22.022  1.00  0.00    -0.492 OA
BRANCH  12  13
ATOM     13  C   UNL A   1      30.059  28.424  22.400  1.00  0.00     0.119 A 
ATOM     14  C   UNL A   1      26.531  28.035  23.751  1.00  0.00     0.044 C 
ATOM     15  C   UNL A   1      27.766  28.655  23.172  1.00  0.00    -0.047 A 
ATOM     16  C   UNL A   1      28.894  27.866  22.926  1.00  0.00     0.049 A 
ATOM     17  C   UNL A   1      27.801  30.009  22.823  1.00  0.00     0.007 A 
ATOM     18  C   UNL A   1      28.975  30.595  22.323  1.00  0.00    -0.042 A 
ATOM     19  C   UNL A   1      30.129  29.803  22.228  1.00  0.00     0.050 A 
BRANCH  18  20
ATOM     20  C   UNL A   1      28.913  31.998  21.735  1.00  0.00     0.013 C 
ATOM     21  C   UNL A   1      27.991  32.141  20.523  1.00  0.00     0.012 C 
ATOM     22  C   UNL A   1      28.497  32.997  22.827  1.00  0.00     0.012 C 
ENDBRANCH  18  20
ENDBRANCH  12  13
ENDBRANCH  11  12
ENDBRANCH   8  11
ENDBRANCH   5   8
ENDBRANCH   3   4
ENDBRANCH   2   3
ENDBRANCH   1   2
BRANCH   1  23
ATOM     23  C   UNL A   1      32.458  30.628  26.975  1.00  0.00     0.002 C 
BRANCH  23  24
ATOM     24  C   UNL A   1      33.447  31.613  27.601  1.00  0.00     0.021 C 
BRANCH  24  25
ATOM     25  C   UNL A   1      34.779  31.017  28.043  1.00  0.00     0.116 C 
BRANCH  25  26
ATOM     26  N   UNL A   1      35.332  31.579  29.267  1.00  0.00    -0.352 N 
ATOM     27  C   UNL A   1      36.315  31.054  30.093  1.00  0.00     0.251 C 
ATOM     28  H   UNL A   1      34.960  32.448  29.544  1.00  0.00     0.163 HD
ATOM     29  O   UNL A   1      36.631  31.596  31.139  1.00  0.00    -0.269 OA
BRANCH  27  30
ATOM     30  C   UNL A   1      37.092  29.881  29.613  1.00  0.00     0.039 A 
ATOM     31  C   UNL A   1      37.377  28.883  30.552  1.00  0.00     0.014 A 
ATOM     32  C   UNL A   1      37.726  29.881  28.373  1.00  0.00     0.014 A 
ATOM     33  C   UNL A   1      38.472  28.046  30.348  1.00  0.00     0.010 A 
ATOM     34  C   UNL A   1      38.866  29.114  28.208  1.00  0.00     0.010 A 
ATOM     35  C   UNL A   1      39.276  28.249  29.226  1.00  0.00    -0.014 A 
BRANCH  35  36
ATOM     36  C   UNL A   1      40.638  27.732  29.136  1.00  0.00     0.031 A 
ATOM     37  C   UNL A   1      40.912  26.369  28.646  1.00  0.00     0.074 A 
ATOM     38  C   UNL A   1      41.673  28.519  29.508  1.00  0.00     0.049 A 
ATOM     39  N   UNL A   1      41.900  25.643  29.051  1.00  0.00    -0.248 NA
ATOM     40  C   UNL A   1      40.062  25.700  27.669  1.00  0.00     0.031 C 
ATOM     41  C   UNL A   1      43.098  28.260  29.326  1.00  0.00     0.029 A 
ATOM     42  N   UNL A   1      41.626  29.622  30.354  1.00  0.00    -0.354 N 
ATOM     43  C   UNL A   1      41.987  24.560  28.211  1.00  0.00     0.074 A 
ATOM     44  C   UNL A   1      40.783  24.603  27.410  1.00  0.00     0.031 C 
ATOM     45  C   UNL A   1      43.786  28.994  30.214  1.00  0.00     0.029 A 
ATOM     46  C   UNL A   1      42.825  29.651  31.083  1.00  0.00     0.049 A 
ATOM     47  H   UNL A   1      40.887  30.267  30.428  1.00  0.00     0.167 HD
ATOM     48  C   UNL A   1      43.126  23.815  28.167  1.00  0.00     0.034 A 
ATOM     49  C   UNL A   1      42.813  29.582  32.445  1.00  0.00     0.034 A 
ATOM     50  C   UNL A   1      44.142  24.306  29.091  1.00  0.00     0.049 A 
ATOM     51  C   UNL A   1      43.508  28.355  32.994  1.00  0.00     0.074 A 
ATOM     52  C   UNL A   1      45.253  25.116  28.918  1.00  0.00     0.029 A 
ATOM     53  N   UNL A   1      43.928  24.223  30.462  1.00  0.00    -0.354 N 
ATOM     54  N   UNL A   1      43.863  27.327  32.273  1.00  0.00    -0.248 NA
ATOM     55  C   UNL A   1      43.831  28.178  34.408  1.00  0.00     0.031 C 
ATOM     56  C   UNL A   1      45.657  25.585  30.194  1.00  0.00     0.029 A 
ATOM     57  C   UNL A   1      44.818  25.031  31.145  1.00  0.00     0.049 A 
ATOM     58  H   UNL A   1      43.237  23.664  30.888  1.00  0.00     0.167 HD
ATOM     59  C   UNL A   1      44.393  26.354  33.083  1.00  0.00     0.074 A 
ATOM     60  C   UNL A   1      44.389  26.955  34.406  1.00  0.00     0.031 C 
ATOM     61  C   UNL A   1      44.768  25.131  32.597  1.00  0.00     0.034 A 
BRANCH  48  62
ATOM     62  C   UNL A   1      43.405  22.847  27.046  1.00  0.00     0.023 A 
ATOM     63  C   UNL A   1      42.864  21.547  27.089  1.00  0.00     0.031 A 
ATOM     64  C   UNL A   1      44.227  23.135  25.942  1.00  0.00     0.131 A 
ATOM     65  C   UNL A   1      43.222  20.576  26.138  1.00  0.00     0.055 A 
ATOM     66  C   UNL A   1      44.629  22.155  25.023  1.00  0.00     0.041 A 
ATOM     67  F   UNL A   1      44.659  24.384  25.704  1.00  0.00    -0.206 F 
ATOM     68  C   UNL A   1      44.136  20.861  25.128  1.00  0.00     0.022 A 
BRANCH  65  69
ATOM     69  S   UNL A   1      42.469  18.927  26.239  1.00  0.00     0.124 S 
ATOM     70  O   UNL A   1      43.298  18.150  25.323  1.00  0.00    -0.237 OA
ATOM     71  O   UNL A   1      42.605  18.612  27.657  1.00  0.00    -0.237 OA
ATOM     72  O   UNL A   1      41.097  19.153  25.787  1.00  0.00    -0.744 OA
ENDBRANCH  65  69
ENDBRANCH  48  62
BRANCH  49  73
ATOM     73  C   UNL A   1      41.630  30.260  33.054  1.00  0.00     0.023 A 
ATOM     74  C   UNL A   1      41.643  31.672  33.089  1.00  0.00     0.031 A 
ATOM     75  C   UNL A   1      40.400  29.612  33.219  1.00  0.00     0.131 A 
ATOM     76  C   UNL A   1      40.441  32.392  33.118  1.00  0.00     0.055 A 
ATOM     77  C   UNL A   1      39.205  30.338  33.313  1.00  0.00     0.041 A 
ATOM     78  F   UNL A   1      40.318  28.275  33.164  1.00  0.00    -0.206 F 
ATOM     79  C   UNL A   1      39.217  31.730  33.215  1.00  0.00     0.022 A 
BRANCH  76  80
ATOM     80  S   UNL A   1      40.468  34.174  32.757  1.00  0.00     0.124 S 
ATOM     81  O   UNL A   1      39.244  34.636  33.399  1.00  0.00    -0.237 OA
ATOM     82  O   UNL A   1      41.715  34.616  33.379  1.00  0.00    -0.237 OA
ATOM     83  O   UNL A   1      40.476  34.220  31.296  1.00  0.00    -0.744 OA
ENDBRANCH  76  80
ENDBRANCH  49  73
BRANCH  61  84
ATOM     84  C   UNL A   1      45.194  23.942  33.433  1.00  0.00     0.023 A 
ATOM     85  C   UNL A   1      46.493  23.773  33.933  1.00  0.00     0.031 A 
ATOM     86  C   UNL A   1      44.257  22.951  33.819  1.00  0.00     0.131 A 
ATOM     87  C   UNL A   1      46.844  22.635  34.683  1.00  0.00     0.055 A 
ATOM     88  C   UNL A   1      44.587  21.867  34.637  1.00  0.00     0.041 A 
ATOM     89  F   UNL A   1      42.976  22.996  33.420  1.00  0.00    -0.206 F 
ATOM     90  C   UNL A   1      45.894  21.691  35.059  1.00  0.00     0.022 A 
BRANCH  87  91
ATOM     91  S   UNL A   1      48.592  22.379  35.085  1.00  0.00     0.124 S 
ATOM     92  O   UNL A   1      48.719  23.108  36.344  1.00  0.00    -0.237 OA
ATOM     93  O   UNL A   1      48.681  20.926  35.183  1.00  0.00    -0.237 OA
ATOM     94  O   UNL A   1      49.299  22.972  33.951  1.00  0.00    -0.744 OA
ENDBRANCH  87  91
ENDBRANCH  61  84
ENDBRANCH  35  36
ENDBRANCH  27  30
ENDBRANCH  25  26
ENDBRANCH  24  25
ENDBRANCH  23  24
ENDBRANCH   1  23
TORSDOF 20
ENDMDL
MODEL 2
REMARK VINA RESULT:     -12.1      2.547      4.694
REMARK SMILES Cc1cc(OCC(C)(C)C(=O)NCCCCCCNC(=O)c2ccc(-c3c4nc(c(-c5cc(S(=O)(=O)[O-])ccc5F)c5ccc([nH]5)c(-c5cc(S(=O)(=O)[O-])ccc5F)c5nc(c(-c6cc(S(=O)(=O)[O-])ccc6F)c6ccc3[nH]6)C=C5)C=C4)cc2)cc(C(C)C)c1
REMARK SMILES IDX 15 1 14 2 13 3 12 4 10 5 11 6 7 8 8 9 9 10 6 11 5 12 4 13
REMARK SMILES IDX 1 14 2 15 3 16 90 17 86 18 85 19 87 20 88 21 89 22 16 23
REMARK SMILES IDX 17 24 18 25 19 26 20 27 21 29 22 30 23 31 84 32 24 33 83 34
REMARK SMILES IDX 25 35 26 36 27 37 77 38 28 39 82 40 76 41 78 42 29 43 81 44
REMARK SMILES IDX 75 45 74 46 30 48 62 49 42 50 61 51 43 52 46 53 60 54 79 55
REMARK SMILES IDX 44 56 45 57 59 59 80 60 47 61 31 62 32 63 40 64 33 65 39 66
REMARK SMILES IDX 41 67 38 68 34 69 35 70 36 71 37 72 63 73 64 74 72 75 65 76
REMARK SMILES IDX 71 77 73 78 70 79 66 80 67 81 68 82 69 83 48 84 49 85 57 86
REMARK SMILES IDX 50 87 56 88 58 89 55 90 51 91 52 92 53 93 54 94
REMARK H PARENT 12 7 19 28 78 47 46 58
REMARK Flexibility Score: inf
ROOT
ATOM      1  C   UNL A   1      31.906  29.277  24.779  1.00  0.00     0.002 C 
ENDROOT
BRANCH   1   2
ATOM      2  C   UNL A   1      30.741  29.155  23.800  1.00  0.00     0.021 C 
BRANCH   2   3
ATOM      3  C   UNL A   1      30.701  27.901  22.938  1.00  0.00     0.116 C 
BRANCH   3   4
ATOM      4  N   UNL A   1      31.896  27.654  22.150  1.00  0.00    -0.356 N 
ATOM      5  C   UNL A   1      32.740  26.576  22.114  1.00  0.00     0.229 C 
ATOM      6  O   UNL A   1      33.631  26.598  21.260  1.00  0.00    -0.274 OA
ATOM      7  H   UNL A   1      32.141  28.386  21.537  1.00  0.00     0.163 HD
BRANCH   5   8
ATOM      8  C   UNL A   1      32.648  25.428  23.146  1.00  0.00     0.077 C 
ATOM      9  C   UNL A   1      31.200  25.027  23.439  1.00  0.00     0.025 C 
ATOM     10  C   UNL A   1      33.327  25.893  24.454  1.00  0.00     0.025 C 
BRANCH   8  11
ATOM     11  C   UNL A   1      33.479  24.181  22.665  1.00  0.00     0.245 C 
BRANCH  11  12
ATOM     12  O   UNL A   1      32.829  22.906  22.627  1.00  0.00    -0.492 OA
BRANCH  12  13
ATOM     13  C   UNL A   1      33.156  21.903  23.490  1.00  0.00     0.119 A 
ATOM     14  C   UNL A   1      36.157  21.354  25.751  1.00  0.00     0.044 C 
ATOM     15  C   UNL A   1      34.900  21.096  24.977  1.00  0.00    -0.047 A 
ATOM     16  C   UNL A   1      34.333  22.116  24.207  1.00  0.00     0.049 A 
ATOM     17  C   UNL A   1      34.301  19.832  24.970  1.00  0.00     0.007 A 
ATOM     18  C   UNL A   1      33.098  19.608  24.281  1.00  0.00    -0.042 A 
ATOM     19  C   UNL A   1      32.483  20.694  23.640  1.00  0.00     0.050 A 
BRANCH  18  20
ATOM     20  C   UNL A   1      32.603  18.181  24.096  1.00  0.00     0.013 C 
ATOM     21  C   UNL A   1      33.433  17.339  23.126  1.00  0.00     0.012 C 
ATOM     22  C   UNL A   1      32.528  17.480  25.462  1.00  0.00     0.012 C 
ENDBRANCH  18  20
ENDBRANCH  12  13
ENDBRANCH  11  12
ENDBRANCH   8  11
ENDBRANCH   5   8
ENDBRANCH   3   4
ENDBRANCH   2   3
ENDBRANCH   1   2
BRANCH   1  23
ATOM     23  C   UNL A   1      31.639  28.919  26.248  1.00  0.00     0.002 C 
BRANCH  23  24
ATOM     24  C   UNL A   1      32.779  29.137  27.243  1.00  0.00     0.021 C 
BRANCH  24  25
ATOM     25  C   UNL A   1      33.790  30.213  26.863  1.00  0.00     0.116 C 
BRANCH  25  26
ATOM     26  N   UNL A   1      34.101  31.169  27.916  1.00  0.00    -0.352 N 
ATOM     27  C   UNL A   1      35.161  31.154  28.812  1.00  0.00     0.251 C 
ATOM     28  H   UNL A   1      33.478  31.927  28.002  1.00  0.00     0.163 HD
ATOM     29  O   UNL A   1      35.258  31.982  29.702  1.00  0.00    -0.269 OA
BRANCH  27  30
ATOM     30  C   UNL A   1      36.267  30.189  28.584  1.00  0.00     0.039 A 
ATOM     31  C   UNL A   1      36.515  29.259  29.600  1.00  0.00     0.014 A 
ATOM     32  C   UNL A   1      37.179  30.353  27.544  1.00  0.00     0.014 A 
ATOM     33  C   UNL A   1      37.780  28.685  29.708  1.00  0.00     0.010 A 
ATOM     34  C   UNL A   1      38.461  29.857  27.697  1.00  0.00     0.010 A 
ATOM     35  C   UNL A   1      38.778  29.082  28.817  1.00  0.00    -0.014 A 
BRANCH  35  36
ATOM     36  C   UNL A   1      40.197  28.877  29.090  1.00  0.00     0.031 A 
ATOM     37  C   UNL A   1      40.926  27.718  28.541  1.00  0.00     0.074 A 
ATOM     38  C   UNL A   1      40.860  29.768  29.861  1.00  0.00     0.049 A 
ATOM     39  N   UNL A   1      41.915  27.141  29.138  1.00  0.00    -0.248 NA
ATOM     40  C   UNL A   1      40.570  27.096  27.272  1.00  0.00     0.031 C 
ATOM     41  C   UNL A   1      42.299  29.841  30.099  1.00  0.00     0.029 A 
ATOM     42  N   UNL A   1      40.311  30.653  30.782  1.00  0.00    -0.354 N 
ATOM     43  C   UNL A   1      42.495  26.283  28.237  1.00  0.00     0.074 A 
ATOM     44  C   UNL A   1      41.584  26.238  27.114  1.00  0.00     0.031 C 
ATOM     45  C   UNL A   1      42.513  30.510  31.242  1.00  0.00     0.029 A 
ATOM     46  C   UNL A   1      41.219  30.779  31.845  1.00  0.00     0.049 A 
ATOM     47  H   UNL A   1      39.443  31.108  30.704  1.00  0.00     0.167 HD
ATOM     48  C   UNL A   1      43.752  25.804  28.455  1.00  0.00     0.034 A 
ATOM     49  C   UNL A   1      40.853  30.445  33.116  1.00  0.00     0.034 A 
ATOM     50  C   UNL A   1      44.321  26.300  29.703  1.00  0.00     0.049 A 
ATOM     51  C   UNL A   1      41.655  29.300  33.694  1.00  0.00     0.074 A 
ATOM     52  C   UNL A   1      45.198  27.335  29.988  1.00  0.00     0.029 A 
ATOM     53  N   UNL A   1      43.768  25.910  30.918  1.00  0.00    -0.354 N 
ATOM     54  N   UNL A   1      42.439  28.524  32.996  1.00  0.00    -0.248 NA
ATOM     55  C   UNL A   1      41.614  28.919  35.104  1.00  0.00     0.031 C 
ATOM     56  C   UNL A   1      45.108  27.618  31.375  1.00  0.00     0.029 A 
ATOM     57  C   UNL A   1      44.207  26.732  31.940  1.00  0.00     0.049 A 
ATOM     58  H   UNL A   1      43.150  25.152  31.034  1.00  0.00     0.167 HD
ATOM     59  C   UNL A   1      42.953  27.539  33.801  1.00  0.00     0.074 A 
ATOM     60  C   UNL A   1      42.438  27.858  35.122  1.00  0.00     0.031 C 
ATOM     61  C   UNL A   1      43.739  26.535  33.305  1.00  0.00     0.034 A 
BRANCH  48  62
ATOM     62  C   UNL A   1      44.559  25.150  27.364  1.00  0.00     0.023 A 
ATOM     63  C   UNL A   1      44.067  23.995  26.723  1.00  0.00     0.031 A 
ATOM     64  C   UNL A   1      45.828  25.591  26.949  1.00  0.00     0.131 A 
ATOM     65  C   UNL A   1      44.856  23.278  25.806  1.00  0.00     0.055 A 
ATOM     66  C   UNL A   1      46.638  24.849  26.077  1.00  0.00     0.041 A 
ATOM     67  F   UNL A   1      46.324  26.768  27.362  1.00  0.00    -0.206 F 
ATOM     68  C   UNL A   1      46.157  23.675  25.512  1.00  0.00     0.022 A 
BRANCH  65  69
ATOM     69  S   UNL A   1      44.152  21.813  25.000  1.00  0.00     0.124 S 
ATOM     70  O   UNL A   1      45.097  20.766  25.376  1.00  0.00    -0.237 OA
ATOM     71  O   UNL A   1      42.827  21.733  25.605  1.00  0.00    -0.237 OA
ATOM     72  O   UNL A   1      44.160  22.169  23.582  1.00  0.00    -0.744 OA
ENDBRANCH  65  69
ENDBRANCH  48  62
BRANCH  49  73
ATOM     73  C   UNL A   1      39.418  30.740  33.408  1.00  0.00     0.023 A 
ATOM     74  C   UNL A   1      39.058  32.096  33.565  1.00  0.00     0.031 A 
ATOM     75  C   UNL A   1      38.398  29.816  33.150  1.00  0.00     0.131 A 
ATOM     76  C   UNL A   1      37.747  32.517  33.303  1.00  0.00     0.055 A 
ATOM     77  C   UNL A   1      37.076  30.234  32.952  1.00  0.00     0.041 A 
ATOM     78  F   UNL A   1      38.681  28.520  32.960  1.00  0.00    -0.206 F 
ATOM     79  C   UNL A   1      36.753  31.592  32.980  1.00  0.00     0.022 A 
BRANCH  76  80
ATOM     80  S   UNL A   1      37.408  34.294  33.118  1.00  0.00     0.124 S 
ATOM     81  O   UNL A   1      38.198  34.871  34.199  1.00  0.00    -0.237 OA
ATOM     82  O   UNL A   1      37.882  34.579  31.765  1.00  0.00    -0.237 OA
ATOM     83  O   UNL A   1      35.957  34.377  33.278  1.00  0.00    -0.744 OA
ENDBRANCH  76  80
ENDBRANCH  49  73
BRANCH  61  84
ATOM     84  C   UNL A   1      44.205  25.316  34.075  1.00  0.00     0.023 A 
ATOM     85  C   UNL A   1      45.554  24.982  34.253  1.00  0.00     0.031 A 
ATOM     86  C   UNL A   1      43.274  24.471  34.730  1.00  0.00     0.131 A 
ATOM     87  C   UNL A   1      45.933  23.823  34.955  1.00  0.00     0.055 A 
ATOM     88  C   UNL A   1      43.656  23.369  35.500  1.00  0.00     0.041 A 
ATOM     89  F   UNL A   1      41.951  24.682  34.652  1.00  0.00    -0.206 F 
ATOM     90  C   UNL A   1      44.994  23.025  35.602  1.00  0.00     0.022 A 
BRANCH  87  91
ATOM     91  S   UNL A   1      47.678  23.338  34.934  1.00  0.00     0.124 S 
ATOM     92  O   UNL A   1      47.590  21.917  34.609  1.00  0.00    -0.237 OA
ATOM     93  O   UNL A   1      48.228  24.193  33.887  1.00  0.00    -0.237 OA
ATOM     94  O   UNL A   1      48.137  23.638  36.289  1.00  0.00    -0.744 OA
ENDBRANCH  87  91
ENDBRANCH  61  84
ENDBRANCH  35  36
ENDBRANCH  27  30
ENDBRANCH  25  26
ENDBRANCH  24  25
ENDBRANCH  23  24
ENDBRANCH   1  23
TORSDOF 20
ENDMDL
MODEL 3
REMARK VINA RESULT:     -12.0      1.632      3.840
REMARK SMILES Cc1cc(OCC(C)(C)C(=O)NCCCCCCNC(=O)c2ccc(-c3c4nc(c(-c5cc(S(=O)(=O)[O-])ccc5F)c5ccc([nH]5)c(-c5cc(S(=O)(=O)[O-])ccc5F)c5nc(c(-c6cc(S(=O)(=O)[O-])ccc6F)c6ccc3[nH]6)C=C5)C=C4)cc2)cc(C(C)C)c1
REMARK SMILES IDX 15 1 14 2 13 3 12 4 10 5 11 6 7 8 8 9 9 10 6 11 5 12 4 13
REMARK SMILES IDX 1 14 2 15 3 16 90 17 86 18 85 19 87 20 88 21 89 22 16 23
REMARK SMILES IDX 17 24 18 25 19 26 20 27 21 29 22 30 23 31 84 32 24 33 83 34
REMARK SMILES IDX 25 35 26 36 27 37 77 38 28 39 82 40 76 41 78 42 29 43 81 44
REMARK SMILES IDX 75 45 74 46 30 48 62 49 42 50 61 51 43 52 46 53 60 54 79 55
REMARK SMILES IDX 44 56 45 57 59 59 80 60 47 61 31 62 32 63 40 64 33 65 39 66
REMARK SMILES IDX 41 67 38 68 34 69 35 70 36 71 37 72 63 73 64 74 72 75 65 76
REMARK SMILES IDX 71 77 73 78 70 79 66 80 67 81 68 82 69 83 48 84 49 85 57 86
REMARK SMILES IDX 50 87 56 88 58 89 55 90 51 91 52 92 53 93 54 94
REMARK H PARENT 12 7 19 28 78 47 46 58
REMARK Flexibility Score: inf
ROOT
ATOM      1  C   UNL A   1      33.054  29.388  25.172  1.00  0.00     0.002 C 
ENDROOT
BRANCH   1   2
ATOM      2  C   UNL A   1      33.689  28.010  25.347  1.00  0.00     0.021 C 
BRANCH   2   3
ATOM      3  C   UNL A   1      33.514  27.026  24.199  1.00  0.00     0.116 C 
BRANCH   3   4
ATOM      4  N   UNL A   1      32.540  27.415  23.195  1.00  0.00    -0.356 N 
ATOM      5  C   UNL A   1      31.226  27.060  23.034  1.00  0.00     0.229 C 
ATOM      6  O   UNL A   1      30.603  27.634  22.136  1.00  0.00    -0.274 OA
ATOM      7  H   UNL A   1      32.881  28.040  22.514  1.00  0.00     0.163 HD
BRANCH   5   8
ATOM      8  C   UNL A   1      30.574  25.932  23.867  1.00  0.00     0.077 C 
ATOM      9  C   UNL A   1      29.052  25.902  23.709  1.00  0.00     0.025 C 
ATOM     10  C   UNL A   1      30.933  26.153  25.353  1.00  0.00     0.025 C 
BRANCH   8  11
ATOM     11  C   UNL A   1      31.195  24.535  23.491  1.00  0.00     0.245 C 
BRANCH  11  12
ATOM     12  O   UNL A   1      31.469  23.609  24.548  1.00  0.00    -0.492 OA
BRANCH  12  13
ATOM     13  C   UNL A   1      32.453  22.672  24.450  1.00  0.00     0.119 A 
ATOM     14  C   UNL A   1      32.569  18.982  25.344  1.00  0.00     0.044 C 
ATOM     15  C   UNL A   1      33.011  20.362  24.961  1.00  0.00    -0.047 A 
ATOM     16  C   UNL A   1      32.067  21.383  24.819  1.00  0.00     0.049 A 
ATOM     17  C   UNL A   1      34.365  20.666  24.788  1.00  0.00     0.007 A 
ATOM     18  C   UNL A   1      34.770  21.948  24.384  1.00  0.00    -0.042 A 
ATOM     19  C   UNL A   1      33.783  22.906  24.110  1.00  0.00     0.050 A 
BRANCH  18  20
ATOM     20  C   UNL A   1      36.248  22.311  24.435  1.00  0.00     0.013 C 
ATOM     21  C   UNL A   1      37.188  21.124  24.653  1.00  0.00     0.012 C 
ATOM     22  C   UNL A   1      36.641  23.057  23.150  1.00  0.00     0.012 C 
ENDBRANCH  18  20
ENDBRANCH  12  13
ENDBRANCH  11  12
ENDBRANCH   8  11
ENDBRANCH   5   8
ENDBRANCH   3   4
ENDBRANCH   2   3
ENDBRANCH   1   2
BRANCH   1  23
ATOM     23  C   UNL A   1      32.342  30.000  26.387  1.00  0.00     0.002 C 
BRANCH  23  24
ATOM     24  C   UNL A   1      33.152  30.948  27.272  1.00  0.00     0.021 C 
BRANCH  24  25
ATOM     25  C   UNL A   1      34.370  30.334  27.953  1.00  0.00     0.116 C 
BRANCH  25  26
ATOM     26  N   UNL A   1      35.097  31.227  28.844  1.00  0.00    -0.352 N 
ATOM     27  C   UNL A   1      36.287  30.995  29.519  1.00  0.00     0.251 C 
ATOM     28  H   UNL A   1      34.691  32.114  28.984  1.00  0.00     0.163 HD
ATOM     29  O   UNL A   1      36.748  31.808  30.302  1.00  0.00    -0.269 OA
BRANCH  27  30
ATOM     30  C   UNL A   1      37.078  29.787  29.165  1.00  0.00     0.039 A 
ATOM     31  C   UNL A   1      37.380  28.902  30.207  1.00  0.00     0.014 A 
ATOM     32  C   UNL A   1      37.708  29.662  27.930  1.00  0.00     0.014 A 
ATOM     33  C   UNL A   1      38.487  28.063  30.090  1.00  0.00     0.010 A 
ATOM     34  C   UNL A   1      38.858  28.897  27.844  1.00  0.00     0.010 A 
ATOM     35  C   UNL A   1      39.284  28.154  28.948  1.00  0.00    -0.014 A 
BRANCH  35  36
ATOM     36  C   UNL A   1      40.653  27.649  28.908  1.00  0.00     0.031 A 
ATOM     37  C   UNL A   1      40.954  26.279  28.454  1.00  0.00     0.074 A 
ATOM     38  C   UNL A   1      41.669  28.454  29.294  1.00  0.00     0.049 A 
ATOM     39  N   UNL A   1      41.937  25.572  28.902  1.00  0.00    -0.248 NA
ATOM     40  C   UNL A   1      40.140  25.582  27.466  1.00  0.00     0.031 C 
ATOM     41  C   UNL A   1      43.101  28.206  29.159  1.00  0.00     0.029 A 
ATOM     42  N   UNL A   1      41.587  29.573  30.116  1.00  0.00    -0.354 N 
ATOM     43  C   UNL A   1      42.059  24.473  28.087  1.00  0.00     0.074 A 
ATOM     44  C   UNL A   1      40.878  24.488  27.251  1.00  0.00     0.031 C 
ATOM     45  C   UNL A   1      43.756  28.964  30.051  1.00  0.00     0.029 A 
ATOM     46  C   UNL A   1      42.764  29.628  30.878  1.00  0.00     0.049 A 
ATOM     47  H   UNL A   1      40.839  30.211  30.155  1.00  0.00     0.167 HD
ATOM     48  C   UNL A   1      43.206  23.738  28.091  1.00  0.00     0.034 A 
ATOM     49  C   UNL A   1      42.712  29.587  32.241  1.00  0.00     0.034 A 
ATOM     50  C   UNL A   1      44.190  24.259  29.034  1.00  0.00     0.049 A 
ATOM     51  C   UNL A   1      43.403  28.378  32.834  1.00  0.00     0.074 A 
ATOM     52  C   UNL A   1      45.298  25.076  28.877  1.00  0.00     0.029 A 
ATOM     53  N   UNL A   1      43.936  24.200  30.400  1.00  0.00    -0.354 N 
ATOM     54  N   UNL A   1      43.789  27.339  32.145  1.00  0.00    -0.248 NA
ATOM     55  C   UNL A   1      43.686  28.233  34.260  1.00  0.00     0.031 C 
ATOM     56  C   UNL A   1      45.660  25.575  30.155  1.00  0.00     0.029 A 
ATOM     57  C   UNL A   1      44.798  25.031  31.091  1.00  0.00     0.049 A 
ATOM     58  H   UNL A   1      43.239  23.643  30.816  1.00  0.00     0.167 HD
ATOM     59  C   UNL A   1      44.304  26.389  32.990  1.00  0.00     0.074 A 
ATOM     60  C   UNL A   1      44.256  27.016  34.299  1.00  0.00     0.031 C 
ATOM     61  C   UNL A   1      44.705  25.160  32.540  1.00  0.00     0.034 A 
BRANCH  48  62
ATOM     62  C   UNL A   1      43.527  22.752  26.999  1.00  0.00     0.023 A 
ATOM     63  C   UNL A   1      42.943  21.470  27.016  1.00  0.00     0.031 A 
ATOM     64  C   UNL A   1      44.429  23.003  25.949  1.00  0.00     0.131 A 
ATOM     65  C   UNL A   1      43.331  20.479  26.097  1.00  0.00     0.055 A 
ATOM     66  C   UNL A   1      44.858  22.001  25.067  1.00  0.00     0.041 A 
ATOM     67  F   UNL A   1      44.916  24.235  25.730  1.00  0.00    -0.206 F 
ATOM     68  C   UNL A   1      44.318  20.724  25.148  1.00  0.00     0.022 A 
BRANCH  65  69
ATOM     69  S   UNL A   1      42.520  18.856  26.161  1.00  0.00     0.124 S 
ATOM     70  O   UNL A   1      42.663  18.491  27.567  1.00  0.00    -0.237 OA
ATOM     71  O   UNL A   1      41.168  19.168  25.710  1.00  0.00    -0.237 OA
ATOM     72  O   UNL A   1      43.308  18.047  25.232  1.00  0.00    -0.744 OA
ENDBRANCH  65  69
ENDBRANCH  48  62
BRANCH  49  73
ATOM     73  C   UNL A   1      41.506  30.265  32.801  1.00  0.00     0.023 A 
ATOM     74  C   UNL A   1      41.474  31.676  32.745  1.00  0.00     0.031 A 
ATOM     75  C   UNL A   1      40.296  29.590  33.004  1.00  0.00     0.131 A 
ATOM     76  C   UNL A   1      40.250  32.358  32.725  1.00  0.00     0.055 A 
ATOM     77  C   UNL A   1      39.079  30.282  33.047  1.00  0.00     0.041 A 
ATOM     78  F   UNL A   1      40.256  28.250  33.035  1.00  0.00    -0.206 F 
ATOM     79  C   UNL A   1      39.047  31.665  32.860  1.00  0.00     0.022 A 
BRANCH  76  80
ATOM     80  S   UNL A   1      40.223  34.113  32.249  1.00  0.00     0.124 S 
ATOM     81  O   UNL A   1      40.189  34.036  30.794  1.00  0.00    -0.237 OA
ATOM     82  O   UNL A   1      39.003  34.606  32.886  1.00  0.00    -0.237 OA
ATOM     83  O   UNL A   1      41.458  34.637  32.829  1.00  0.00    -0.744 OA
ENDBRANCH  76  80
ENDBRANCH  49  73
BRANCH  61  84
ATOM     84  C   UNL A   1      45.118  23.992  33.411  1.00  0.00     0.023 A 
ATOM     85  C   UNL A   1      46.413  23.829  33.924  1.00  0.00     0.031 A 
ATOM     86  C   UNL A   1      44.172  23.019  33.819  1.00  0.00     0.131 A 
ATOM     87  C   UNL A   1      46.751  22.710  34.708  1.00  0.00     0.055 A 
ATOM     88  C   UNL A   1      44.489  21.956  34.670  1.00  0.00     0.041 A 
ATOM     89  F   UNL A   1      42.894  23.061  33.411  1.00  0.00    -0.206 F 
ATOM     90  C   UNL A   1      45.793  21.783  35.105  1.00  0.00     0.022 A 
BRANCH  87  91
ATOM     91  S   UNL A   1      48.495  22.454  35.128  1.00  0.00     0.124 S 
ATOM     92  O   UNL A   1      48.564  23.016  36.474  1.00  0.00    -0.237 OA
ATOM     93  O   UNL A   1      48.628  21.004  35.040  1.00  0.00    -0.237 OA
ATOM     94  O   UNL A   1      49.213  23.209  34.103  1.00  0.00    -0.744 OA
ENDBRANCH  87  91
ENDBRANCH  61  84
ENDBRANCH  35  36
ENDBRANCH  27  30
ENDBRANCH  25  26
ENDBRANCH  24  25
ENDBRANCH  23  24
ENDBRANCH   1  23
TORSDOF 20
ENDMDL
