MODEL 1
REMARK VINA RESULT:     -10.8      0.000      0.000
REMARK SMILES O=C(CCn1cc(Cl)c([N+](=O)[O-])n1)NCCCCCCNC(=O)c1ccc(-c2c3nc(c(-c4cc(S(=O)(=O)[O-])ccc4F)c4ccc([nH]4)c(-c4cc(S(=O)(=O)[O-])ccc4F)c4nc(c(-c5cc(S(=O)(=O)[O-])ccc5F)c5ccc2[nH]5)C=C4)C=C3)cc1
REMARK SMILES IDX 17 1 16 2 15 3 14 4 1 5 2 6 3 8 4 9 5 10 6 11 13 12 7 13
REMARK SMILES IDX 9 14 8 15 10 16 11 17 12 18 18 19 19 20 20 21 21 22 22 23
REMARK SMILES IDX 23 25 24 26 25 27 86 28 26 29 85 30 27 31 28 32 29 33 79 34
REMARK SMILES IDX 30 35 84 36 78 37 80 38 31 39 83 40 77 41 76 42 32 44 64 45
REMARK SMILES IDX 44 46 63 47 45 48 48 49 62 50 81 51 46 52 47 53 61 55 82 56
REMARK SMILES IDX 49 57 33 58 34 59 42 60 35 61 41 62 43 63 40 64 36 65 37 66
REMARK SMILES IDX 38 67 39 68 65 69 66 70 74 71 67 72 73 73 75 74 72 75 68 76
REMARK SMILES IDX 69 77 70 78 71 79 50 80 51 81 59 82 52 83 58 84 60 85 57 86
REMARK SMILES IDX 53 87 54 88 55 89 56 90
REMARK H PARENT 14 7 21 24 80 43 48 54
REMARK Flexibility Score: inf
ROOT
ATOM      1  C   UNL A   1      41.882  20.877  26.782  1.00  0.00     0.002 C 
ENDROOT
BRANCH   1   2
ATOM      2  C   UNL A   1      41.895  19.372  27.095  1.00  0.00     0.021 C 
BRANCH   2   3
ATOM      3  C   UNL A   1      42.890  18.540  26.280  1.00  0.00     0.116 C 
BRANCH   3   4
ATOM      4  N   UNL A   1      43.839  19.397  25.599  1.00  0.00    -0.356 N 
ATOM      5  O   UNL A   1      45.535  17.874  25.381  1.00  0.00    -0.275 OA
ATOM      6  C   UNL A   1      45.109  19.018  25.252  1.00  0.00     0.221 C 
ATOM      7  H   UNL A   1      43.554  20.312  25.371  1.00  0.00     0.163 HD
BRANCH   6   8
ATOM      8  C   UNL A   1      46.015  20.141  24.782  1.00  0.00     0.125 C 
BRANCH   8   9
ATOM      9  C   UNL A   1      45.287  21.347  24.204  1.00  0.00     0.179 C 
BRANCH   9  10
ATOM     10  N   UNL A   1      45.486  22.616  24.889  1.00  0.00    -0.178 N 
ATOM     11  C   UNL A   1      44.936  23.834  24.599  1.00  0.00     0.161 A 
ATOM     12  N   UNL A   1      46.324  22.657  25.944  1.00  0.00     0.061 NA
ATOM     13  C   UNL A   1      45.488  24.734  25.484  1.00  0.00     0.160 A 
ATOM     14  C   UNL A   1      46.314  23.954  26.315  1.00  0.00     0.408 A 
ATOM     15  Cl  UNL A   1      45.196  26.400  25.533  1.00  0.00    -0.073 Cl
BRANCH  14  16
ATOM     16  N   UNL A   1      47.134  24.350  27.439  1.00  0.00    -0.020 N 
ATOM     17  O   UNL A   1      48.358  24.380  27.256  1.00  0.00    -0.358 OA
ATOM     18  O   UNL A   1      46.563  24.642  28.500  1.00  0.00    -0.358 OA
ENDBRANCH  14  16
ENDBRANCH   9  10
ENDBRANCH   8   9
ENDBRANCH   6   8
ENDBRANCH   3   4
ENDBRANCH   2   3
ENDBRANCH   1   2
BRANCH   1  19
ATOM     19  C   UNL A   1      41.167  21.779  27.801  1.00  0.00     0.002 C 
BRANCH  19  20
ATOM     20  C   UNL A   1      41.990  22.947  28.360  1.00  0.00     0.021 C 
BRANCH  20  21
ATOM     21  C   UNL A   1      41.953  24.204  27.501  1.00  0.00     0.116 C 
BRANCH  21  22
ATOM     22  N   UNL A   1      40.841  24.216  26.552  1.00  0.00    -0.352 N 
ATOM     23  C   UNL A   1      39.617  24.838  26.707  1.00  0.00     0.251 C 
ATOM     24  H   UNL A   1      40.980  23.728  25.708  1.00  0.00     0.163 HD
ATOM     25  O   UNL A   1      38.635  24.451  26.070  1.00  0.00    -0.269 OA
BRANCH  23  26
ATOM     26  C   UNL A   1      39.508  25.975  27.640  1.00  0.00     0.039 A 
ATOM     27  C   UNL A   1      39.040  25.816  28.948  1.00  0.00     0.014 A 
ATOM     28  C   UNL A   1      39.908  27.229  27.178  1.00  0.00     0.014 A 
ATOM     29  C   UNL A   1      39.059  26.915  29.807  1.00  0.00     0.010 A 
ATOM     30  C   UNL A   1      40.053  28.272  28.058  1.00  0.00     0.010 A 
ATOM     31  C   UNL A   1      39.588  28.138  29.361  1.00  0.00    -0.014 A 
BRANCH  31  32
ATOM     32  C   UNL A   1      39.830  29.248  30.284  1.00  0.00     0.031 A 
ATOM     33  C   UNL A   1      38.619  30.076  30.537  1.00  0.00     0.074 A 
ATOM     34  C   UNL A   1      40.952  29.358  31.032  1.00  0.00     0.049 A 
ATOM     35  N   UNL A   1      38.400  31.290  30.157  1.00  0.00    -0.248 NA
ATOM     36  C   UNL A   1      37.432  29.422  31.117  1.00  0.00     0.031 C 
ATOM     37  C   UNL A   1      42.088  28.431  31.089  1.00  0.00     0.029 A 
ATOM     38  N   UNL A   1      41.275  30.269  31.993  1.00  0.00    -0.354 N 
ATOM     39  C   UNL A   1      37.163  31.641  30.691  1.00  0.00     0.074 A 
ATOM     40  C   UNL A   1      36.528  30.401  31.040  1.00  0.00     0.031 C 
ATOM     41  C   UNL A   1      42.844  28.697  32.179  1.00  0.00     0.029 A 
ATOM     42  C   UNL A   1      42.350  29.908  32.810  1.00  0.00     0.049 A 
ATOM     43  H   UNL A   1      40.789  31.119  32.102  1.00  0.00     0.167 HD
ATOM     44  C   UNL A   1      36.903  32.929  31.055  1.00  0.00     0.034 A 
ATOM     45  C   UNL A   1      42.800  30.542  33.931  1.00  0.00     0.034 A 
ATOM     46  C   UNL A   1      37.885  33.824  30.477  1.00  0.00     0.049 A 
ATOM     47  C   UNL A   1      42.298  31.936  33.852  1.00  0.00     0.074 A 
ATOM     48  C   UNL A   1      38.290  34.116  29.189  1.00  0.00     0.029 A 
ATOM     49  N   UNL A   1      38.902  34.270  31.295  1.00  0.00    -0.354 N 
ATOM     50  N   UNL A   1      42.678  32.776  32.929  1.00  0.00    -0.248 NA
ATOM     51  C   UNL A   1      41.013  32.233  34.465  1.00  0.00     0.031 C 
ATOM     52  C   UNL A   1      39.709  34.242  29.272  1.00  0.00     0.029 A 
ATOM     53  C   UNL A   1      40.086  34.132  30.613  1.00  0.00     0.049 A 
ATOM     54  H   UNL A   1      38.798  34.625  32.207  1.00  0.00     0.167 HD
ATOM     55  C   UNL A   1      41.514  33.414  32.527  1.00  0.00     0.074 A 
ATOM     56  C   UNL A   1      40.541  33.114  33.578  1.00  0.00     0.031 C 
ATOM     57  C   UNL A   1      41.367  33.874  31.248  1.00  0.00     0.034 A 
BRANCH  44  58
ATOM     58  C   UNL A   1      36.045  33.347  32.238  1.00  0.00     0.023 A 
ATOM     59  C   UNL A   1      35.003  34.259  31.971  1.00  0.00     0.031 A 
ATOM     60  C   UNL A   1      36.347  33.156  33.604  1.00  0.00     0.131 A 
ATOM     61  C   UNL A   1      34.425  35.025  32.999  1.00  0.00     0.055 A 
ATOM     62  C   UNL A   1      35.721  33.873  34.631  1.00  0.00     0.041 A 
ATOM     63  F   UNL A   1      37.311  32.338  34.034  1.00  0.00    -0.206 F 
ATOM     64  C   UNL A   1      34.782  34.842  34.329  1.00  0.00     0.022 A 
BRANCH  61  65
ATOM     65  S   UNL A   1      33.340  36.397  32.534  1.00  0.00     0.124 S 
ATOM     66  O   UNL A   1      33.782  36.665  31.171  1.00  0.00    -0.237 OA
ATOM     67  O   UNL A   1      32.018  35.795  32.680  1.00  0.00    -0.237 OA
ATOM     68  O   UNL A   1      33.666  37.430  33.513  1.00  0.00    -0.744 OA
ENDBRANCH  61  65
ENDBRANCH  44  58
BRANCH  45  69
ATOM     69  C   UNL A   1      43.339  29.933  35.188  1.00  0.00     0.023 A 
ATOM     70  C   UNL A   1      42.941  28.669  35.687  1.00  0.00     0.031 A 
ATOM     71  C   UNL A   1      44.480  30.512  35.789  1.00  0.00     0.131 A 
ATOM     72  C   UNL A   1      43.671  28.048  36.736  1.00  0.00     0.055 A 
ATOM     73  C   UNL A   1      45.197  29.893  36.816  1.00  0.00     0.041 A 
ATOM     74  F   UNL A   1      44.990  31.668  35.336  1.00  0.00    -0.206 F 
ATOM     75  C   UNL A   1      44.801  28.653  37.289  1.00  0.00     0.022 A 
BRANCH  72  76
ATOM     76  S   UNL A   1      43.210  26.392  37.362  1.00  0.00     0.124 S 
ATOM     77  O   UNL A   1      41.760  26.492  37.475  1.00  0.00    -0.237 OA
ATOM     78  O   UNL A   1      43.724  25.508  36.321  1.00  0.00    -0.237 OA
ATOM     79  O   UNL A   1      43.917  26.300  38.642  1.00  0.00    -0.744 OA
ENDBRANCH  72  76
ENDBRANCH  45  69
BRANCH  57  80
ATOM     80  C   UNL A   1      42.599  33.954  30.363  1.00  0.00     0.023 A 
ATOM     81  C   UNL A   1      43.004  32.974  29.424  1.00  0.00     0.031 A 
ATOM     82  C   UNL A   1      43.334  35.152  30.408  1.00  0.00     0.131 A 
ATOM     83  C   UNL A   1      44.112  33.217  28.586  1.00  0.00     0.055 A 
ATOM     84  C   UNL A   1      44.411  35.399  29.559  1.00  0.00     0.041 A 
ATOM     85  F   UNL A   1      42.988  36.130  31.261  1.00  0.00    -0.206 F 
ATOM     86  C   UNL A   1      44.809  34.429  28.648  1.00  0.00     0.022 A 
BRANCH  83  87
ATOM     87  S   UNL A   1      44.695  31.951  27.409  1.00  0.00     0.124 S 
ATOM     88  O   UNL A   1      43.738  30.864  27.573  1.00  0.00    -0.237 OA
ATOM     89  O   UNL A   1      44.646  32.658  26.131  1.00  0.00    -0.237 OA
ATOM     90  O   UNL A   1      46.048  31.645  27.879  1.00  0.00    -0.744 OA
ENDBRANCH  83  87
ENDBRANCH  57  80
ENDBRANCH  31  32
ENDBRANCH  23  26
ENDBRANCH  21  22
ENDBRANCH  20  21
ENDBRANCH  19  20
ENDBRANCH   1  19
TORSDOF 19
ENDMDL
MODEL 2
REMARK VINA RESULT:     -10.7      1.336      2.839
REMARK SMILES O=C(CCn1cc(Cl)c([N+](=O)[O-])n1)NCCCCCCNC(=O)c1ccc(-c2c3nc(c(-c4cc(S(=O)(=O)[O-])ccc4F)c4ccc([nH]4)c(-c4cc(S(=O)(=O)[O-])ccc4F)c4nc(c(-c5cc(S(=O)(=O)[O-])ccc5F)c5ccc2[nH]5)C=C4)C=C3)cc1
REMARK SMILES IDX 17 1 16 2 15 3 14 4 1 5 2 6 3 8 4 9 5 10 6 11 13 12 7 13
REMARK SMILES IDX 9 14 8 15 10 16 11 17 12 18 18 19 19 20 20 21 21 22 22 23
REMARK SMILES IDX 23 25 24 26 25 27 86 28 26 29 85 30 27 31 28 32 29 33 79 34
REMARK SMILES IDX 30 35 84 36 78 37 80 38 31 39 83 40 77 41 76 42 32 44 64 45
REMARK SMILES IDX 44 46 63 47 45 48 48 49 62 50 81 51 46 52 47 53 61 55 82 56
REMARK SMILES IDX 49 57 33 58 34 59 42 60 35 61 41 62 43 63 40 64 36 65 37 66
REMARK SMILES IDX 38 67 39 68 65 69 66 70 74 71 67 72 73 73 75 74 72 75 68 76
REMARK SMILES IDX 69 77 70 78 71 79 50 80 51 81 59 82 52 83 58 84 60 85 57 86
REMARK SMILES IDX 53 87 54 88 55 89 56 90
REMARK H PARENT 14 7 21 24 80 43 48 54
REMARK Flexibility Score: inf
ROOT
ATOM      1  C   UNL A   1      44.369  26.227  28.724  1.00  0.00     0.002 C 
ENDROOT
BRANCH   1   2
ATOM      2  C   UNL A   1      44.360  27.548  27.937  1.00  0.00     0.021 C 
BRANCH   2   3
ATOM      3  C   UNL A   1      45.195  27.553  26.653  1.00  0.00     0.116 C 
BRANCH   3   4
ATOM      4  N   UNL A   1      45.726  26.232  26.380  1.00  0.00    -0.356 N 
ATOM      5  O   UNL A   1      46.537  26.650  24.280  1.00  0.00    -0.275 OA
ATOM      6  C   UNL A   1      46.304  25.865  25.194  1.00  0.00     0.221 C 
ATOM      7  H   UNL A   1      45.665  25.555  27.092  1.00  0.00     0.163 HD
BRANCH   6   8
ATOM      8  C   UNL A   1      46.556  24.378  25.030  1.00  0.00     0.125 C 
BRANCH   8   9
ATOM      9  C   UNL A   1      46.095  23.520  26.201  1.00  0.00     0.179 C 
BRANCH   9  10
ATOM     10  N   UNL A   1      45.379  22.297  25.868  1.00  0.00    -0.178 N 
ATOM     11  C   UNL A   1      44.046  22.027  26.015  1.00  0.00     0.161 A 
ATOM     12  N   UNL A   1      46.072  21.259  25.361  1.00  0.00     0.061 NA
ATOM     13  C   UNL A   1      43.869  20.716  25.631  1.00  0.00     0.160 A 
ATOM     14  C   UNL A   1      45.142  20.295  25.204  1.00  0.00     0.408 A 
ATOM     15  Cl  UNL A   1      42.416  19.849  25.666  1.00  0.00    -0.073 Cl
BRANCH  14  16
ATOM     16  N   UNL A   1      45.565  19.016  24.675  1.00  0.00    -0.020 N 
ATOM     17  O   UNL A   1      44.877  18.530  23.768  1.00  0.00    -0.358 OA
ATOM     18  O   UNL A   1      46.586  18.500  25.152  1.00  0.00    -0.358 OA
ENDBRANCH  14  16
ENDBRANCH   9  10
ENDBRANCH   8   9
ENDBRANCH   6   8
ENDBRANCH   3   4
ENDBRANCH   2   3
ENDBRANCH   1   2
BRANCH   1  19
ATOM     19  C   UNL A   1      42.996  25.633  29.077  1.00  0.00     0.002 C 
BRANCH  19  20
ATOM     20  C   UNL A   1      42.444  24.588  28.101  1.00  0.00     0.021 C 
BRANCH  20  21
ATOM     21  C   UNL A   1      42.258  25.098  26.678  1.00  0.00     0.116 C 
BRANCH  21  22
ATOM     22  N   UNL A   1      40.950  24.764  26.116  1.00  0.00    -0.352 N 
ATOM     23  C   UNL A   1      39.711  25.046  26.657  1.00  0.00     0.251 C 
ATOM     24  H   UNL A   1      40.954  24.285  25.255  1.00  0.00     0.163 HD
ATOM     25  O   UNL A   1      38.725  24.379  26.339  1.00  0.00    -0.269 OA
BRANCH  23  26
ATOM     26  C   UNL A   1      39.588  26.162  27.613  1.00  0.00     0.039 A 
ATOM     27  C   UNL A   1      39.197  25.959  28.940  1.00  0.00     0.014 A 
ATOM     28  C   UNL A   1      39.893  27.443  27.152  1.00  0.00     0.014 A 
ATOM     29  C   UNL A   1      39.199  27.045  29.816  1.00  0.00     0.010 A 
ATOM     30  C   UNL A   1      40.025  28.480  28.041  1.00  0.00     0.010 A 
ATOM     31  C   UNL A   1      39.636  28.302  29.364  1.00  0.00    -0.014 A 
BRANCH  31  32
ATOM     32  C   UNL A   1      39.863  29.411  30.292  1.00  0.00     0.031 A 
ATOM     33  C   UNL A   1      38.647  30.238  30.529  1.00  0.00     0.074 A 
ATOM     34  C   UNL A   1      40.975  29.522  31.056  1.00  0.00     0.049 A 
ATOM     35  N   UNL A   1      38.432  31.451  30.147  1.00  0.00    -0.248 NA
ATOM     36  C   UNL A   1      37.453  29.581  31.091  1.00  0.00     0.031 C 
ATOM     37  C   UNL A   1      42.110  28.595  31.128  1.00  0.00     0.029 A 
ATOM     38  N   UNL A   1      41.283  30.432  32.023  1.00  0.00    -0.354 N 
ATOM     39  C   UNL A   1      37.188  31.800  30.664  1.00  0.00     0.074 A 
ATOM     40  C   UNL A   1      36.549  30.559  31.002  1.00  0.00     0.031 C 
ATOM     41  C   UNL A   1      42.851  28.860  32.229  1.00  0.00     0.029 A 
ATOM     42  C   UNL A   1      42.346  30.070  32.855  1.00  0.00     0.049 A 
ATOM     43  H   UNL A   1      40.794  31.281  32.126  1.00  0.00     0.167 HD
ATOM     44  C   UNL A   1      36.920  33.087  31.026  1.00  0.00     0.034 A 
ATOM     45  C   UNL A   1      42.779  30.704  33.984  1.00  0.00     0.034 A 
ATOM     46  C   UNL A   1      37.910  33.984  30.464  1.00  0.00     0.049 A 
ATOM     47  C   UNL A   1      42.277  32.097  33.899  1.00  0.00     0.074 A 
ATOM     48  C   UNL A   1      38.333  34.278  29.182  1.00  0.00     0.029 A 
ATOM     49  N   UNL A   1      38.914  34.430  31.297  1.00  0.00    -0.354 N 
ATOM     50  N   UNL A   1      42.669  32.939  32.983  1.00  0.00    -0.248 NA
ATOM     51  C   UNL A   1      40.983  32.391  34.494  1.00  0.00     0.031 C 
ATOM     52  C   UNL A   1      39.750  34.407  29.285  1.00  0.00     0.029 A 
ATOM     53  C   UNL A   1      40.108  34.295  30.632  1.00  0.00     0.049 A 
ATOM     54  H   UNL A   1      38.797  34.784  32.208  1.00  0.00     0.167 HD
ATOM     55  C   UNL A   1      41.510  33.576  32.566  1.00  0.00     0.074 A 
ATOM     56  C   UNL A   1      40.521  33.273  33.602  1.00  0.00     0.031 C 
ATOM     57  C   UNL A   1      41.380  34.037  31.285  1.00  0.00     0.034 A 
BRANCH  44  58
ATOM     58  C   UNL A   1      36.045  33.502  32.197  1.00  0.00     0.023 A 
ATOM     59  C   UNL A   1      35.041  34.455  31.928  1.00  0.00     0.031 A 
ATOM     60  C   UNL A   1      36.304  33.266  33.565  1.00  0.00     0.131 A 
ATOM     61  C   UNL A   1      34.460  35.212  32.961  1.00  0.00     0.055 A 
ATOM     62  C   UNL A   1      35.675  33.976  34.595  1.00  0.00     0.041 A 
ATOM     63  F   UNL A   1      37.230  32.407  33.998  1.00  0.00    -0.206 F 
ATOM     64  C   UNL A   1      34.776  34.983  34.294  1.00  0.00     0.022 A 
BRANCH  61  65
ATOM     65  S   UNL A   1      33.432  36.630  32.505  1.00  0.00     0.124 S 
ATOM     66  O   UNL A   1      34.046  37.695  33.290  1.00  0.00    -0.237 OA
ATOM     67  O   UNL A   1      33.633  36.693  31.061  1.00  0.00    -0.237 OA
ATOM     68  O   UNL A   1      32.095  36.228  32.931  1.00  0.00    -0.744 OA
ENDBRANCH  61  65
ENDBRANCH  44  58
BRANCH  45  69
ATOM     69  C   UNL A   1      43.301  30.093  35.247  1.00  0.00     0.023 A 
ATOM     70  C   UNL A   1      43.129  28.731  35.596  1.00  0.00     0.031 A 
ATOM     71  C   UNL A   1      44.224  30.827  36.026  1.00  0.00     0.131 A 
ATOM     72  C   UNL A   1      43.861  28.168  36.676  1.00  0.00     0.055 A 
ATOM     73  C   UNL A   1      44.946  30.266  37.083  1.00  0.00     0.041 A 
ATOM     74  F   UNL A   1      44.523  32.101  35.727  1.00  0.00    -0.206 F 
ATOM     75  C   UNL A   1      44.773  28.930  37.408  1.00  0.00     0.022 A 
BRANCH  72  76
ATOM     76  S   UNL A   1      43.698  26.400  37.113  1.00  0.00     0.124 S 
ATOM     77  O   UNL A   1      42.513  26.395  37.963  1.00  0.00    -0.237 OA
ATOM     78  O   UNL A   1      43.566  25.764  35.807  1.00  0.00    -0.237 OA
ATOM     79  O   UNL A   1      44.950  26.102  37.812  1.00  0.00    -0.744 OA
ENDBRANCH  72  76
ENDBRANCH  45  69
BRANCH  57  80
ATOM     80  C   UNL A   1      42.625  34.120  30.418  1.00  0.00     0.023 A 
ATOM     81  C   UNL A   1      43.054  33.135  29.496  1.00  0.00     0.031 A 
ATOM     82  C   UNL A   1      43.347  35.326  30.461  1.00  0.00     0.131 A 
ATOM     83  C   UNL A   1      44.173  33.379  28.673  1.00  0.00     0.055 A 
ATOM     84  C   UNL A   1      44.435  35.575  29.626  1.00  0.00     0.041 A 
ATOM     85  F   UNL A   1      42.978  36.310  31.298  1.00  0.00    -0.206 F 
ATOM     86  C   UNL A   1      44.856  34.599  28.732  1.00  0.00     0.022 A 
BRANCH  83  87
ATOM     87  S   UNL A   1      44.786  32.107  27.518  1.00  0.00     0.124 S 
ATOM     88  O   UNL A   1      43.877  30.986  27.729  1.00  0.00    -0.237 OA
ATOM     89  O   UNL A   1      44.685  32.777  26.224  1.00  0.00    -0.237 OA
ATOM     90  O   UNL A   1      46.159  31.869  27.971  1.00  0.00    -0.744 OA
ENDBRANCH  83  87
ENDBRANCH  57  80
ENDBRANCH  31  32
ENDBRANCH  23  26
ENDBRANCH  21  22
ENDBRANCH  20  21
ENDBRANCH  19  20
ENDBRANCH   1  19
TORSDOF 19
ENDMDL
MODEL 3
REMARK VINA RESULT:     -10.5      5.122      8.295
REMARK SMILES O=C(CCn1cc(Cl)c([N+](=O)[O-])n1)NCCCCCCNC(=O)c1ccc(-c2c3nc(c(-c4cc(S(=O)(=O)[O-])ccc4F)c4ccc([nH]4)c(-c4cc(S(=O)(=O)[O-])ccc4F)c4nc(c(-c5cc(S(=O)(=O)[O-])ccc5F)c5ccc2[nH]5)C=C4)C=C3)cc1
REMARK SMILES IDX 17 1 16 2 15 3 14 4 1 5 2 6 3 8 4 9 5 10 6 11 13 12 7 13
REMARK SMILES IDX 9 14 8 15 10 16 11 17 12 18 18 19 19 20 20 21 21 22 22 23
REMARK SMILES IDX 23 25 24 26 25 27 86 28 26 29 85 30 27 31 28 32 29 33 79 34
REMARK SMILES IDX 30 35 84 36 78 37 80 38 31 39 83 40 77 41 76 42 32 44 64 45
REMARK SMILES IDX 44 46 63 47 45 48 48 49 62 50 81 51 46 52 47 53 61 55 82 56
REMARK SMILES IDX 49 57 33 58 34 59 42 60 35 61 41 62 43 63 40 64 36 65 37 66
REMARK SMILES IDX 38 67 39 68 65 69 66 70 74 71 67 72 73 73 75 74 72 75 68 76
REMARK SMILES IDX 69 77 70 78 71 79 50 80 51 81 59 82 52 83 58 84 60 85 57 86
REMARK SMILES IDX 53 87 54 88 55 89 56 90
REMARK H PARENT 14 7 21 24 80 43 48 54
REMARK Flexibility Score: inf
ROOT
ATOM      1  C   UNL A   1      35.202  20.543  25.013  1.00  0.00     0.002 C 
ENDROOT
BRANCH   1   2
ATOM      2  C   UNL A   1      34.095  21.607  24.938  1.00  0.00     0.021 C 
BRANCH   2   3
ATOM      3  C   UNL A   1      34.359  22.888  25.735  1.00  0.00     0.116 C 
BRANCH   3   4
ATOM      4  N   UNL A   1      33.189  23.744  25.734  1.00  0.00    -0.356 N 
ATOM      5  O   UNL A   1      32.168  22.877  27.591  1.00  0.00    -0.275 OA
ATOM      6  C   UNL A   1      32.156  23.636  26.627  1.00  0.00     0.221 C 
ATOM      7  H   UNL A   1      33.133  24.447  25.047  1.00  0.00     0.163 HD
BRANCH   6   8
ATOM      8  C   UNL A   1      30.923  24.456  26.292  1.00  0.00     0.125 C 
BRANCH   8   9
ATOM      9  C   UNL A   1      30.688  24.674  24.804  1.00  0.00     0.179 C 
BRANCH   9  10
ATOM     10  N   UNL A   1      30.856  26.034  24.311  1.00  0.00    -0.178 N 
ATOM     11  C   UNL A   1      29.966  26.800  23.611  1.00  0.00     0.161 A 
ATOM     12  N   UNL A   1      32.028  26.662  24.534  1.00  0.00     0.061 NA
ATOM     13  C   UNL A   1      30.614  27.978  23.312  1.00  0.00     0.160 A 
ATOM     14  C   UNL A   1      31.872  27.858  23.931  1.00  0.00     0.408 A 
ATOM     15  Cl  UNL A   1      29.988  29.265  22.408  1.00  0.00    -0.073 Cl
BRANCH  14  16
ATOM     16  N   UNL A   1      32.974  28.794  23.975  1.00  0.00    -0.020 N 
ATOM     17  O   UNL A   1      33.537  29.047  22.903  1.00  0.00    -0.358 OA
ATOM     18  O   UNL A   1      33.274  29.287  25.073  1.00  0.00    -0.358 OA
ENDBRANCH  14  16
ENDBRANCH   9  10
ENDBRANCH   8   9
ENDBRANCH   6   8
ENDBRANCH   3   4
ENDBRANCH   2   3
ENDBRANCH   1   2
BRANCH   1  19
ATOM     19  C   UNL A   1      36.629  21.020  24.702  1.00  0.00     0.002 C 
BRANCH  19  20
ATOM     20  C   UNL A   1      37.735  19.965  24.830  1.00  0.00     0.021 C 
BRANCH  20  21
ATOM     21  C   UNL A   1      38.896  20.382  25.722  1.00  0.00     0.116 C 
BRANCH  21  22
ATOM     22  N   UNL A   1      39.933  19.357  25.830  1.00  0.00    -0.352 N 
ATOM     23  C   UNL A   1      41.292  19.555  25.981  1.00  0.00     0.251 C 
ATOM     24  H   UNL A   1      39.628  18.422  25.791  1.00  0.00     0.163 HD
ATOM     25  O   UNL A   1      42.091  18.679  25.647  1.00  0.00    -0.269 OA
BRANCH  23  26
ATOM     26  C   UNL A   1      41.767  20.827  26.557  1.00  0.00     0.039 A 
ATOM     27  C   UNL A   1      42.183  21.892  25.752  1.00  0.00     0.014 A 
ATOM     28  C   UNL A   1      41.772  20.944  27.946  1.00  0.00     0.014 A 
ATOM     29  C   UNL A   1      42.524  23.101  26.360  1.00  0.00     0.010 A 
ATOM     30  C   UNL A   1      41.976  22.169  28.532  1.00  0.00     0.010 A 
ATOM     31  C   UNL A   1      42.398  23.239  27.753  1.00  0.00    -0.014 A 
BRANCH  31  32
ATOM     32  C   UNL A   1      42.532  24.542  28.406  1.00  0.00     0.031 A 
ATOM     33  C   UNL A   1      41.394  25.461  28.124  1.00  0.00     0.074 A 
ATOM     34  C   UNL A   1      43.447  24.797  29.371  1.00  0.00     0.049 A 
ATOM     35  N   UNL A   1      41.409  26.539  27.415  1.00  0.00    -0.248 NA
ATOM     36  C   UNL A   1      40.038  25.037  28.516  1.00  0.00     0.031 C 
ATOM     37  C   UNL A   1      44.425  23.868  29.947  1.00  0.00     0.029 A 
ATOM     38  N   UNL A   1      43.627  25.914  30.129  1.00  0.00    -0.354 N 
ATOM     39  C   UNL A   1      40.127  27.073  27.505  1.00  0.00     0.074 A 
ATOM     40  C   UNL A   1      39.293  26.000  27.968  1.00  0.00     0.031 C 
ATOM     41  C   UNL A   1      44.922  24.379  31.097  1.00  0.00     0.029 A 
ATOM     42  C   UNL A   1      44.427  25.735  31.261  1.00  0.00     0.049 A 
ATOM     43  H   UNL A   1      43.226  26.783  29.896  1.00  0.00     0.167 HD
ATOM     44  C   UNL A   1      39.930  28.422  27.462  1.00  0.00     0.034 A 
ATOM     45  C   UNL A   1      44.662  26.623  32.271  1.00  0.00     0.034 A 
ATOM     46  C   UNL A   1      41.115  29.088  26.960  1.00  0.00     0.049 A 
ATOM     47  C   UNL A   1      44.351  27.967  31.725  1.00  0.00     0.074 A 
ATOM     48  C   UNL A   1      41.848  29.010  25.791  1.00  0.00     0.029 A 
ATOM     49  N   UNL A   1      41.949  29.689  27.880  1.00  0.00    -0.354 N 
ATOM     50  N   UNL A   1      45.032  28.515  30.757  1.00  0.00    -0.248 NA
ATOM     51  C   UNL A   1      42.997  28.472  31.890  1.00  0.00     0.031 C 
ATOM     52  C   UNL A   1      43.210  29.091  26.208  1.00  0.00     0.029 A 
ATOM     53  C   UNL A   1      43.239  29.323  27.586  1.00  0.00     0.049 A 
ATOM     54  H   UNL A   1      41.668  30.277  28.618  1.00  0.00     0.167 HD
ATOM     55  C   UNL A   1      44.077  29.075  29.922  1.00  0.00     0.074 A 
ATOM     56  C   UNL A   1      42.852  29.106  30.723  1.00  0.00     0.031 C 
ATOM     57  C   UNL A   1      44.293  29.185  28.577  1.00  0.00     0.034 A 
BRANCH  44  58
ATOM     58  C   UNL A   1      38.865  29.176  28.240  1.00  0.00     0.023 A 
ATOM     59  C   UNL A   1      38.964  29.138  29.646  1.00  0.00     0.031 A 
ATOM     60  C   UNL A   1      37.638  29.659  27.734  1.00  0.00     0.131 A 
ATOM     61  C   UNL A   1      37.856  29.423  30.463  1.00  0.00     0.055 A 
ATOM     62  C   UNL A   1      36.557  30.006  28.554  1.00  0.00     0.041 A 
ATOM     63  F   UNL A   1      37.369  29.750  26.429  1.00  0.00    -0.206 F 
ATOM     64  C   UNL A   1      36.649  29.852  29.925  1.00  0.00     0.022 A 
BRANCH  61  65
ATOM     65  S   UNL A   1      37.972  29.033  32.227  1.00  0.00     0.124 S 
ATOM     66  O   UNL A   1      36.659  29.452  32.701  1.00  0.00    -0.237 OA
ATOM     67  O   UNL A   1      38.222  27.596  32.199  1.00  0.00    -0.237 OA
ATOM     68  O   UNL A   1      39.093  29.852  32.679  1.00  0.00    -0.744 OA
ENDBRANCH  61  65
ENDBRANCH  44  58
BRANCH  45  69
ATOM     69  C   UNL A   1      44.812  26.345  33.734  1.00  0.00     0.023 A 
ATOM     70  C   UNL A   1      43.777  26.528  34.684  1.00  0.00     0.031 A 
ATOM     71  C   UNL A   1      45.948  25.630  34.177  1.00  0.00     0.131 A 
ATOM     72  C   UNL A   1      43.909  26.010  36.000  1.00  0.00     0.055 A 
ATOM     73  C   UNL A   1      46.068  25.116  35.471  1.00  0.00     0.041 A 
ATOM     74  F   UNL A   1      46.948  25.328  33.335  1.00  0.00    -0.206 F 
ATOM     75  C   UNL A   1      45.045  25.297  36.387  1.00  0.00     0.022 A 
BRANCH  72  76
ATOM     76  S   UNL A   1      42.566  26.186  37.228  1.00  0.00     0.124 S 
ATOM     77  O   UNL A   1      43.299  26.270  38.485  1.00  0.00    -0.237 OA
ATOM     78  O   UNL A   1      41.891  27.401  36.785  1.00  0.00    -0.237 OA
ATOM     79  O   UNL A   1      41.783  24.960  37.060  1.00  0.00    -0.744 OA
ENDBRANCH  72  76
ENDBRANCH  45  69
BRANCH  57  80
ATOM     80  C   UNL A   1      45.703  28.974  28.052  1.00  0.00     0.023 A 
ATOM     81  C   UNL A   1      46.248  27.737  27.630  1.00  0.00     0.031 A 
ATOM     82  C   UNL A   1      46.491  30.125  27.872  1.00  0.00     0.131 A 
ATOM     83  C   UNL A   1      47.539  27.692  27.063  1.00  0.00     0.055 A 
ATOM     84  C   UNL A   1      47.754  30.079  27.286  1.00  0.00     0.041 A 
ATOM     85  F   UNL A   1      46.023  31.332  28.231  1.00  0.00    -0.206 F 
ATOM     86  C   UNL A   1      48.286  28.861  26.884  1.00  0.00     0.022 A 
BRANCH  83  87
ATOM     87  S   UNL A   1      48.292  26.107  26.565  1.00  0.00     0.124 S 
ATOM     88  O   UNL A   1      49.675  26.230  27.009  1.00  0.00    -0.237 OA
ATOM     89  O   UNL A   1      47.476  25.128  27.281  1.00  0.00    -0.237 OA
ATOM     90  O   UNL A   1      48.119  26.090  25.111  1.00  0.00    -0.744 OA
ENDBRANCH  83  87
ENDBRANCH  57  80
ENDBRANCH  31  32
ENDBRANCH  23  26
ENDBRANCH  21  22
ENDBRANCH  20  21
ENDBRANCH  19  20
ENDBRANCH   1  19
TORSDOF 19
ENDMDL
