MODEL 1
REMARK VINA RESULT:     -12.5      0.000      0.000
REMARK SMILES Cc1nn([C@H]2CCS(=O)(=O)C2)c(C)c1/C=C(\CC(=O)NCCCCCCNC(=O)c1ccc(-c2c3nc(c(-c4cc(S(=O)(=O)[O-])ccc4F)c4ccc([nH]4)c(-c4cc(S(=O)(=O)[O-])ccc4F)c4nc(c(-c5cc(S(=O)(=O)[O-])ccc5F)c5ccc2[nH]5)C=C4)C=C3)cc1)c1nc2ccccc2s1
REMARK SMILES IDX 23 1 22 2 21 3 20 4 18 5 19 6 17 8 16 9 15 10 14 11 1 12
REMARK SMILES IDX 2 13 3 14 4 15 12 16 13 17 5 18 6 19 11 20 7 21 8 22 9 23
REMARK SMILES IDX 10 24 93 25 94 26 101 27 95 28 100 29 96 30 99 31 97 32
REMARK SMILES IDX 98 33 24 34 25 35 26 36 27 37 28 38 29 40 30 41 31 42 92 43
REMARK SMILES IDX 32 44 91 45 33 46 34 47 35 48 85 49 36 50 90 51 84 52 86 53
REMARK SMILES IDX 37 54 89 55 83 56 82 57 38 59 70 60 50 61 69 62 51 63 54 64
REMARK SMILES IDX 68 65 87 66 52 67 53 68 67 70 88 71 55 72 39 73 40 74 48 75
REMARK SMILES IDX 41 76 47 77 49 78 46 79 42 80 43 81 44 82 45 83 71 84 72 85
REMARK SMILES IDX 80 86 73 87 79 88 81 89 78 90 74 91 75 92 76 93 77 94 56 95
REMARK SMILES IDX 57 96 65 97 58 98 64 99 66 100 63 101 59 102 60 103 61 104
REMARK SMILES IDX 62 105
REMARK H PARENT 20 7 27 39 86 58 54 69
REMARK Flexibility Score: inf
ROOT
ATOM      1  C   UNL A   1      38.205  23.516  25.973  1.00  0.00     0.002 C 
ENDROOT
BRANCH   1   2
ATOM      2  C   UNL A   1      36.745  23.793  25.605  1.00  0.00     0.021 C 
BRANCH   2   3
ATOM      3  C   UNL A   1      36.170  22.753  24.651  1.00  0.00     0.116 C 
BRANCH   3   4
ATOM      4  N   UNL A   1      35.559  23.405  23.513  1.00  0.00    -0.356 N 
ATOM      5  C   UNL A   1      34.374  24.083  23.473  1.00  0.00     0.224 C 
ATOM      6  O   UNL A   1      33.886  24.363  22.377  1.00  0.00    -0.275 OA
ATOM      7  H   UNL A   1      36.058  23.354  22.666  1.00  0.00     0.163 HD
BRANCH   5   8
ATOM      8  C   UNL A   1      33.834  24.673  24.766  1.00  0.00     0.138 C 
BRANCH   8   9
ATOM      9  C   UNL A   1      32.377  24.457  25.143  1.00  0.00    -0.002 C 
ATOM     10  C   UNL A   1      31.852  23.258  25.508  1.00  0.00     0.019 C 
BRANCH  10  11
ATOM     11  C   UNL A   1      32.509  21.977  25.500  1.00  0.00     0.019 A 
ATOM     12  C   UNL A   1      34.029  22.176  27.629  1.00  0.00     0.069 C 
ATOM     13  C   UNL A   1      33.389  21.465  26.491  1.00  0.00     0.067 A 
ATOM     14  N   UNL A   1      33.630  20.162  26.296  1.00  0.00    -0.177 NA
ATOM     15  N   UNL A   1      32.947  19.859  25.175  1.00  0.00    -0.265 N 
ATOM     16  C   UNL A   1      32.511  20.992  24.521  1.00  0.00     0.043 A 
ATOM     17  C   UNL A   1      32.160  21.044  23.077  1.00  0.00     0.067 C 
BRANCH  15  18
ATOM     18  C   UNL A   1      32.830  18.453  24.808  1.00  0.00     0.123 C 
ATOM     19  C   UNL A   1      33.653  18.091  23.545  1.00  0.00     0.044 C 
ATOM     20  C   UNL A   1      33.329  17.463  25.858  1.00  0.00     0.164 C 
ATOM     21  C   UNL A   1      33.574  16.579  23.366  1.00  0.00     0.139 C 
ATOM     22  S   UNL A   1      33.426  15.911  25.009  1.00  0.00     0.152 S 
ATOM     23  O   UNL A   1      32.149  15.253  25.126  1.00  0.00    -0.229 OA
ATOM     24  O   UNL A   1      34.672  15.258  25.376  1.00  0.00    -0.229 OA
ENDBRANCH  15  18
ENDBRANCH  10  11
BRANCH   9  25
ATOM     25  C   UNL A   1      31.525  25.614  25.139  1.00  0.00     0.121 A 
ATOM     26  N   UNL A   1      30.426  25.704  24.420  1.00  0.00    -0.236 NA
ATOM     27  S   UNL A   1      32.056  27.113  25.813  1.00  0.00    -0.114 S 
ATOM     28  C   UNL A   1      30.190  27.025  24.088  1.00  0.00     0.082 A 
ATOM     29  C   UNL A   1      31.022  27.951  24.718  1.00  0.00     0.055 A 
ATOM     30  C   UNL A   1      29.266  27.481  23.128  1.00  0.00     0.030 A 
ATOM     31  C   UNL A   1      30.979  29.319  24.409  1.00  0.00     0.021 A 
ATOM     32  C   UNL A   1      29.261  28.831  22.765  1.00  0.00     0.002 A 
ATOM     33  C   UNL A   1      30.113  29.735  23.393  1.00  0.00     0.002 A 
ENDBRANCH   9  25
ENDBRANCH   8   9
ENDBRANCH   5   8
ENDBRANCH   3   4
ENDBRANCH   2   3
ENDBRANCH   1   2
BRANCH   1  34
ATOM     34  C   UNL A   1      38.613  22.035  25.962  1.00  0.00     0.002 C 
BRANCH  34  35
ATOM     35  C   UNL A   1      39.857  21.672  26.787  1.00  0.00     0.021 C 
BRANCH  35  36
ATOM     36  C   UNL A   1      40.642  22.880  27.273  1.00  0.00     0.116 C 
BRANCH  36  37
ATOM     37  N   UNL A   1      41.905  23.041  26.551  1.00  0.00    -0.352 N 
ATOM     38  C   UNL A   1      42.615  24.203  26.301  1.00  0.00     0.251 C 
ATOM     39  H   UNL A   1      42.304  22.214  26.197  1.00  0.00     0.163 HD
ATOM     40  O   UNL A   1      43.430  24.254  25.394  1.00  0.00    -0.269 OA
BRANCH  38  41
ATOM     41  C   UNL A   1      42.357  25.370  27.165  1.00  0.00     0.039 A 
ATOM     42  C   UNL A   1      42.923  25.503  28.433  1.00  0.00     0.014 A 
ATOM     43  C   UNL A   1      41.561  26.375  26.631  1.00  0.00     0.014 A 
ATOM     44  C   UNL A   1      42.745  26.702  29.122  1.00  0.00     0.010 A 
ATOM     45  C   UNL A   1      41.558  27.612  27.213  1.00  0.00     0.010 A 
ATOM     46  C   UNL A   1      42.071  27.760  28.495  1.00  0.00    -0.014 A 
BRANCH  46  47
ATOM     47  C   UNL A   1      41.924  29.068  29.126  1.00  0.00     0.031 A 
ATOM     48  C   UNL A   1      42.957  30.074  28.758  1.00  0.00     0.074 A 
ATOM     49  C   UNL A   1      40.786  29.426  29.762  1.00  0.00     0.049 A 
ATOM     50  N   UNL A   1      43.858  30.612  29.511  1.00  0.00    -0.248 NA
ATOM     51  C   UNL A   1      43.087  30.435  27.337  1.00  0.00     0.031 C 
ATOM     52  C   UNL A   1      39.533  28.662  29.883  1.00  0.00     0.029 A 
ATOM     53  N   UNL A   1      40.457  30.615  30.328  1.00  0.00    -0.354 N 
ATOM     54  C   UNL A   1      44.518  31.550  28.718  1.00  0.00     0.074 A 
ATOM     55  C   UNL A   1      44.148  31.244  27.363  1.00  0.00     0.031 C 
ATOM     56  C   UNL A   1      38.528  29.486  30.249  1.00  0.00     0.029 A 
ATOM     57  C   UNL A   1      39.100  30.772  30.594  1.00  0.00     0.049 A 
ATOM     58  H   UNL A   1      41.123  31.310  30.534  1.00  0.00     0.167 HD
ATOM     59  C   UNL A   1      45.124  32.643  29.265  1.00  0.00     0.034 A 
ATOM     60  C   UNL A   1      38.476  31.886  31.055  1.00  0.00     0.034 A 
ATOM     61  C   UNL A   1      45.272  32.480  30.696  1.00  0.00     0.049 A 
ATOM     62  C   UNL A   1      39.526  32.710  31.700  1.00  0.00     0.074 A 
ATOM     63  C   UNL A   1      45.947  31.596  31.514  1.00  0.00     0.029 A 
ATOM     64  N   UNL A   1      44.330  33.083  31.496  1.00  0.00    -0.354 N 
ATOM     65  N   UNL A   1      40.216  32.316  32.738  1.00  0.00    -0.248 NA
ATOM     66  C   UNL A   1      40.136  33.776  30.924  1.00  0.00     0.031 C 
ATOM     67  C   UNL A   1      45.064  31.367  32.613  1.00  0.00     0.029 A 
ATOM     68  C   UNL A   1      43.935  32.176  32.449  1.00  0.00     0.049 A 
ATOM     69  H   UNL A   1      43.997  34.005  31.402  1.00  0.00     0.167 HD
ATOM     70  C   UNL A   1      41.507  32.765  32.505  1.00  0.00     0.074 A 
ATOM     71  C   UNL A   1      41.369  33.756  31.441  1.00  0.00     0.031 C 
ATOM     72  C   UNL A   1      42.592  32.094  32.999  1.00  0.00     0.034 A 
BRANCH  59  73
ATOM     73  C   UNL A   1      45.266  34.002  28.604  1.00  0.00     0.023 A 
ATOM     74  C   UNL A   1      44.184  34.902  28.730  1.00  0.00     0.031 A 
ATOM     75  C   UNL A   1      46.246  34.366  27.654  1.00  0.00     0.131 A 
ATOM     76  C   UNL A   1      44.066  36.024  27.888  1.00  0.00     0.055 A 
ATOM     77  C   UNL A   1      46.157  35.518  26.865  1.00  0.00     0.041 A 
ATOM     78  F   UNL A   1      47.298  33.593  27.363  1.00  0.00    -0.206 F 
ATOM     79  C   UNL A   1      45.049  36.339  26.956  1.00  0.00     0.022 A 
BRANCH  76  80
ATOM     80  S   UNL A   1      42.519  36.967  27.912  1.00  0.00     0.124 S 
ATOM     81  O   UNL A   1      41.659  36.108  28.718  1.00  0.00    -0.237 OA
ATOM     82  O   UNL A   1      42.941  38.220  28.528  1.00  0.00    -0.237 OA
ATOM     83  O   UNL A   1      42.159  37.059  26.498  1.00  0.00    -0.744 OA
ENDBRANCH  76  80
ENDBRANCH  59  73
BRANCH  60  84
ATOM     84  C   UNL A   1      37.160  32.410  30.600  1.00  0.00     0.023 A 
ATOM     85  C   UNL A   1      36.235  33.019  31.471  1.00  0.00     0.031 A 
ATOM     86  C   UNL A   1      36.902  32.526  29.214  1.00  0.00     0.131 A 
ATOM     87  C   UNL A   1      35.116  33.710  30.948  1.00  0.00     0.055 A 
ATOM     88  C   UNL A   1      35.794  33.208  28.704  1.00  0.00     0.041 A 
ATOM     89  F   UNL A   1      37.769  32.050  28.306  1.00  0.00    -0.206 F 
ATOM     90  C   UNL A   1      34.901  33.813  29.572  1.00  0.00     0.022 A 
BRANCH  87  91
ATOM     91  S   UNL A   1      33.957  34.563  32.067  1.00  0.00     0.124 S 
ATOM     92  O   UNL A   1      32.910  35.003  31.150  1.00  0.00    -0.237 OA
ATOM     93  O   UNL A   1      33.596  33.507  33.006  1.00  0.00    -0.237 OA
ATOM     94  O   UNL A   1      34.763  35.642  32.638  1.00  0.00    -0.744 OA
ENDBRANCH  87  91
ENDBRANCH  60  84
BRANCH  72  95
ATOM     95  C   UNL A   1      42.363  31.052  34.082  1.00  0.00     0.023 A 
ATOM     96  C   UNL A   1      42.032  29.695  33.861  1.00  0.00     0.031 A 
ATOM     97  C   UNL A   1      42.628  31.449  35.405  1.00  0.00     0.131 A 
ATOM     98  C   UNL A   1      41.979  28.796  34.949  1.00  0.00     0.055 A 
ATOM     99  C   UNL A   1      42.595  30.555  36.472  1.00  0.00     0.041 A 
ATOM    100  F   UNL A   1      42.970  32.720  35.676  1.00  0.00    -0.206 F 
ATOM    101  C   UNL A   1      42.268  29.224  36.249  1.00  0.00     0.022 A 
BRANCH  98 102
ATOM    102  S   UNL A   1      41.527  27.044  34.701  1.00  0.00     0.124 S 
ATOM    103  O   UNL A   1      41.209  26.582  36.046  1.00  0.00    -0.237 OA
ATOM    104  O   UNL A   1      40.405  27.134  33.770  1.00  0.00    -0.237 OA
ATOM    105  O   UNL A   1      42.742  26.457  34.129  1.00  0.00    -0.744 OA
ENDBRANCH  98 102
ENDBRANCH  72  95
ENDBRANCH  46  47
ENDBRANCH  38  41
ENDBRANCH  36  37
ENDBRANCH  35  36
ENDBRANCH  34  35
ENDBRANCH   1  34
TORSDOF 20
ENDMDL
MODEL 2
REMARK VINA RESULT:     -12.2      2.450      8.449
REMARK SMILES Cc1nn([C@H]2CCS(=O)(=O)C2)c(C)c1/C=C(\CC(=O)NCCCCCCNC(=O)c1ccc(-c2c3nc(c(-c4cc(S(=O)(=O)[O-])ccc4F)c4ccc([nH]4)c(-c4cc(S(=O)(=O)[O-])ccc4F)c4nc(c(-c5cc(S(=O)(=O)[O-])ccc5F)c5ccc2[nH]5)C=C4)C=C3)cc1)c1nc2ccccc2s1
REMARK SMILES IDX 23 1 22 2 21 3 20 4 18 5 19 6 17 8 16 9 15 10 14 11 1 12
REMARK SMILES IDX 2 13 3 14 4 15 12 16 13 17 5 18 6 19 11 20 7 21 8 22 9 23
REMARK SMILES IDX 10 24 93 25 94 26 101 27 95 28 100 29 96 30 99 31 97 32
REMARK SMILES IDX 98 33 24 34 25 35 26 36 27 37 28 38 29 40 30 41 31 42 92 43
REMARK SMILES IDX 32 44 91 45 33 46 34 47 35 48 85 49 36 50 90 51 84 52 86 53
REMARK SMILES IDX 37 54 89 55 83 56 82 57 38 59 70 60 50 61 69 62 51 63 54 64
REMARK SMILES IDX 68 65 87 66 52 67 53 68 67 70 88 71 55 72 39 73 40 74 48 75
REMARK SMILES IDX 41 76 47 77 49 78 46 79 42 80 43 81 44 82 45 83 71 84 72 85
REMARK SMILES IDX 80 86 73 87 79 88 81 89 78 90 74 91 75 92 76 93 77 94 56 95
REMARK SMILES IDX 57 96 65 97 58 98 64 99 66 100 63 101 59 102 60 103 61 104
REMARK SMILES IDX 62 105
REMARK H PARENT 20 7 27 39 86 58 54 69
REMARK Flexibility Score: inf
ROOT
ATOM      1  C   UNL A   1      37.831  23.747  26.458  1.00  0.00     0.002 C 
ENDROOT
BRANCH   1   2
ATOM      2  C   UNL A   1      36.333  23.712  26.141  1.00  0.00     0.021 C 
BRANCH   2   3
ATOM      3  C   UNL A   1      35.939  22.514  25.286  1.00  0.00     0.116 C 
BRANCH   3   4
ATOM      4  N   UNL A   1      35.805  22.913  23.902  1.00  0.00    -0.356 N 
ATOM      5  C   UNL A   1      34.656  23.179  23.214  1.00  0.00     0.224 C 
ATOM      6  O   UNL A   1      34.703  23.265  21.986  1.00  0.00    -0.275 OA
ATOM      7  H   UNL A   1      36.644  23.003  23.395  1.00  0.00     0.163 HD
BRANCH   5   8
ATOM      8  C   UNL A   1      33.423  23.596  23.999  1.00  0.00     0.138 C 
BRANCH   8   9
ATOM      9  C   UNL A   1      32.058  23.059  23.602  1.00  0.00    -0.002 C 
ATOM     10  C   UNL A   1      31.034  23.831  23.151  1.00  0.00     0.019 C 
BRANCH  10  11
ATOM     11  C   UNL A   1      30.993  25.268  23.071  1.00  0.00     0.019 A 
ATOM     12  C   UNL A   1      32.448  25.696  20.930  1.00  0.00     0.069 C 
ATOM     13  C   UNL A   1      31.530  26.079  22.036  1.00  0.00     0.067 A 
ATOM     14  N   UNL A   1      31.112  27.346  22.148  1.00  0.00    -0.177 NA
ATOM     15  N   UNL A   1      30.353  27.351  23.262  1.00  0.00    -0.265 N 
ATOM     16  C   UNL A   1      30.509  26.190  23.990  1.00  0.00     0.043 A 
ATOM     17  C   UNL A   1      30.208  26.063  25.441  1.00  0.00     0.067 C 
BRANCH  15  18
ATOM     18  C   UNL A   1      29.569  28.546  23.547  1.00  0.00     0.123 C 
ATOM     19  C   UNL A   1      30.450  29.780  23.869  1.00  0.00     0.044 C 
ATOM     20  C   UNL A   1      28.680  29.028  22.403  1.00  0.00     0.164 C 
ATOM     21  C   UNL A   1      29.524  30.985  23.988  1.00  0.00     0.139 C 
ATOM     22  S   UNL A   1      28.170  30.657  22.880  1.00  0.00     0.152 S 
ATOM     23  O   UNL A   1      26.959  30.541  23.653  1.00  0.00    -0.229 OA
ATOM     24  O   UNL A   1      28.272  31.533  21.724  1.00  0.00    -0.229 OA
ENDBRANCH  15  18
ENDBRANCH  10  11
BRANCH   9  25
ATOM     25  C   UNL A   1      31.867  21.637  23.685  1.00  0.00     0.121 A 
ATOM     26  N   UNL A   1      31.970  20.954  24.805  1.00  0.00    -0.236 NA
ATOM     27  S   UNL A   1      31.825  20.660  22.261  1.00  0.00    -0.114 S 
ATOM     28  C   UNL A   1      32.388  19.665  24.531  1.00  0.00     0.082 A 
ATOM     29  C   UNL A   1      32.422  19.329  23.177  1.00  0.00     0.055 A 
ATOM     30  C   UNL A   1      32.851  18.730  25.477  1.00  0.00     0.030 A 
ATOM     31  C   UNL A   1      32.921  18.096  22.730  1.00  0.00     0.021 A 
ATOM     32  C   UNL A   1      33.411  17.526  25.039  1.00  0.00     0.002 A 
ATOM     33  C   UNL A   1      33.452  17.220  23.681  1.00  0.00     0.002 A 
ENDBRANCH   9  25
ENDBRANCH   8   9
ENDBRANCH   5   8
ENDBRANCH   3   4
ENDBRANCH   2   3
ENDBRANCH   1   2
BRANCH   1  34
ATOM     34  C   UNL A   1      38.606  22.470  26.098  1.00  0.00     0.002 C 
BRANCH  34  35
ATOM     35  C   UNL A   1      40.069  22.415  26.562  1.00  0.00     0.021 C 
BRANCH  35  36
ATOM     36  C   UNL A   1      40.601  23.748  27.065  1.00  0.00     0.116 C 
BRANCH  36  37
ATOM     37  N   UNL A   1      41.408  24.435  26.055  1.00  0.00    -0.352 N 
ATOM     38  C   UNL A   1      41.565  25.795  25.853  1.00  0.00     0.251 C 
ATOM     39  H   UNL A   1      41.907  23.852  25.438  1.00  0.00     0.163 HD
ATOM     40  O   UNL A   1      41.951  26.226  24.778  1.00  0.00    -0.269 OA
BRANCH  38  41
ATOM     41  C   UNL A   1      41.254  26.701  26.973  1.00  0.00     0.039 A 
ATOM     42  C   UNL A   1      41.357  26.304  28.307  1.00  0.00     0.014 A 
ATOM     43  C   UNL A   1      40.906  28.004  26.642  1.00  0.00     0.014 A 
ATOM     44  C   UNL A   1      41.187  27.264  29.305  1.00  0.00     0.010 A 
ATOM     45  C   UNL A   1      40.940  28.975  27.603  1.00  0.00     0.010 A 
ATOM     46  C   UNL A   1      40.993  28.605  28.941  1.00  0.00    -0.014 A 
BRANCH  46  47
ATOM     47  C   UNL A   1      40.892  29.671  29.933  1.00  0.00     0.031 A 
ATOM     48  C   UNL A   1      39.542  30.275  30.086  1.00  0.00     0.074 A 
ATOM     49  C   UNL A   1      41.872  29.893  30.838  1.00  0.00     0.049 A 
ATOM     50  N   UNL A   1      39.163  31.479  29.809  1.00  0.00    -0.248 NA
ATOM     51  C   UNL A   1      38.435  29.388  30.480  1.00  0.00     0.031 C 
ATOM     52  C   UNL A   1      43.111  29.125  31.044  1.00  0.00     0.029 A 
ATOM     53  N   UNL A   1      41.904  30.779  31.866  1.00  0.00    -0.354 N 
ATOM     54  C   UNL A   1      37.831  31.570  30.210  1.00  0.00     0.074 A 
ATOM     55  C   UNL A   1      37.391  30.217  30.410  1.00  0.00     0.031 C 
ATOM     56  C   UNL A   1      43.631  29.413  32.256  1.00  0.00     0.029 A 
ATOM     57  C   UNL A   1      42.892  30.527  32.813  1.00  0.00     0.049 A 
ATOM     58  H   UNL A   1      41.281  31.537  31.937  1.00  0.00     0.167 HD
ATOM     59  C   UNL A   1      37.278  32.764  30.571  1.00  0.00     0.034 A 
ATOM     60  C   UNL A   1      43.090  31.179  33.988  1.00  0.00     0.034 A 
ATOM     61  C   UNL A   1      38.119  33.863  30.148  1.00  0.00     0.049 A 
ATOM     62  C   UNL A   1      42.422  32.495  33.847  1.00  0.00     0.074 A 
ATOM     63  C   UNL A   1      38.560  34.344  28.931  1.00  0.00     0.029 A 
ATOM     64  N   UNL A   1      38.959  34.409  31.091  1.00  0.00    -0.354 N 
ATOM     65  N   UNL A   1      42.769  33.389  32.960  1.00  0.00    -0.248 NA
ATOM     66  C   UNL A   1      41.076  32.641  34.375  1.00  0.00     0.031 C 
ATOM     67  C   UNL A   1      39.911  34.745  29.165  1.00  0.00     0.029 A 
ATOM     68  C   UNL A   1      40.198  34.562  30.520  1.00  0.00     0.049 A 
ATOM     69  H   UNL A   1      38.713  34.648  32.014  1.00  0.00     0.167 HD
ATOM     70  C   UNL A   1      41.576  33.932  32.508  1.00  0.00     0.074 A 
ATOM     71  C   UNL A   1      40.583  33.522  33.499  1.00  0.00     0.031 C 
ATOM     72  C   UNL A   1      41.456  34.423  31.238  1.00  0.00     0.034 A 
BRANCH  59  73
ATOM     73  C   UNL A   1      36.181  32.957  31.603  1.00  0.00     0.023 A 
ATOM     74  C   UNL A   1      35.052  33.712  31.218  1.00  0.00     0.031 A 
ATOM     75  C   UNL A   1      36.287  32.691  32.987  1.00  0.00     0.131 A 
ATOM     76  C   UNL A   1      34.161  34.234  32.176  1.00  0.00     0.055 A 
ATOM     77  C   UNL A   1      35.363  33.157  33.928  1.00  0.00     0.041 A 
ATOM     78  F   UNL A   1      37.329  32.050  33.525  1.00  0.00    -0.206 F 
ATOM     79  C   UNL A   1      34.309  33.959  33.531  1.00  0.00     0.022 A 
BRANCH  76  80
ATOM     80  S   UNL A   1      32.906  35.425  31.635  1.00  0.00     0.124 S 
ATOM     81  O   UNL A   1      31.841  35.194  32.605  1.00  0.00    -0.237 OA
ATOM     82  O   UNL A   1      33.623  36.689  31.751  1.00  0.00    -0.237 OA
ATOM     83  O   UNL A   1      32.607  35.001  30.269  1.00  0.00    -0.744 OA
ENDBRANCH  76  80
ENDBRANCH  59  73
BRANCH  60  84
ATOM     84  C   UNL A   1      43.452  30.556  35.290  1.00  0.00     0.023 A 
ATOM     85  C   UNL A   1      43.196  29.204  35.589  1.00  0.00     0.031 A 
ATOM     86  C   UNL A   1      44.291  31.259  36.185  1.00  0.00     0.131 A 
ATOM     87  C   UNL A   1      43.772  28.609  36.737  1.00  0.00     0.055 A 
ATOM     88  C   UNL A   1      44.856  30.667  37.317  1.00  0.00     0.041 A 
ATOM     89  F   UNL A   1      44.659  32.527  35.939  1.00  0.00    -0.206 F 
ATOM     90  C   UNL A   1      44.607  29.333  37.592  1.00  0.00     0.022 A 
BRANCH  87  91
ATOM     91  S   UNL A   1      43.505  26.840  37.089  1.00  0.00     0.124 S 
ATOM     92  O   UNL A   1      42.178  26.610  36.530  1.00  0.00    -0.237 OA
ATOM     93  O   UNL A   1      44.622  26.212  36.392  1.00  0.00    -0.237 OA
ATOM     94  O   UNL A   1      43.577  26.768  38.549  1.00  0.00    -0.744 OA
ENDBRANCH  87  91
ENDBRANCH  60  84
BRANCH  72  95
ATOM     95  C   UNL A   1      42.724  34.679  30.441  1.00  0.00     0.023 A 
ATOM     96  C   UNL A   1      43.581  35.795  30.594  1.00  0.00     0.031 A 
ATOM     97  C   UNL A   1      43.140  33.656  29.570  1.00  0.00     0.131 A 
ATOM     98  C   UNL A   1      44.802  35.848  29.886  1.00  0.00     0.055 A 
ATOM     99  C   UNL A   1      44.355  33.702  28.891  1.00  0.00     0.041 A 
ATOM    100  F   UNL A   1      42.381  32.559  29.401  1.00  0.00    -0.206 F 
ATOM    101  C   UNL A   1      45.191  34.801  29.044  1.00  0.00     0.022 A 
BRANCH  98 102
ATOM    102  S   UNL A   1      45.916  37.286  30.040  1.00  0.00     0.124 S 
ATOM    103  O   UNL A   1      45.255  38.123  31.033  1.00  0.00    -0.237 OA
ATOM    104  O   UNL A   1      47.175  36.671  30.454  1.00  0.00    -0.237 OA
ATOM    105  O   UNL A   1      45.934  37.849  28.687  1.00  0.00    -0.744 OA
ENDBRANCH  98 102
ENDBRANCH  72  95
ENDBRANCH  46  47
ENDBRANCH  38  41
ENDBRANCH  36  37
ENDBRANCH  35  36
ENDBRANCH  34  35
ENDBRANCH   1  34
TORSDOF 20
ENDMDL
MODEL 3
REMARK VINA RESULT:     -12.1      5.655      9.794
REMARK SMILES Cc1nn([C@H]2CCS(=O)(=O)C2)c(C)c1/C=C(\CC(=O)NCCCCCCNC(=O)c1ccc(-c2c3nc(c(-c4cc(S(=O)(=O)[O-])ccc4F)c4ccc([nH]4)c(-c4cc(S(=O)(=O)[O-])ccc4F)c4nc(c(-c5cc(S(=O)(=O)[O-])ccc5F)c5ccc2[nH]5)C=C4)C=C3)cc1)c1nc2ccccc2s1
REMARK SMILES IDX 23 1 22 2 21 3 20 4 18 5 19 6 17 8 16 9 15 10 14 11 1 12
REMARK SMILES IDX 2 13 3 14 4 15 12 16 13 17 5 18 6 19 11 20 7 21 8 22 9 23
REMARK SMILES IDX 10 24 93 25 94 26 101 27 95 28 100 29 96 30 99 31 97 32
REMARK SMILES IDX 98 33 24 34 25 35 26 36 27 37 28 38 29 40 30 41 31 42 92 43
REMARK SMILES IDX 32 44 91 45 33 46 34 47 35 48 85 49 36 50 90 51 84 52 86 53
REMARK SMILES IDX 37 54 89 55 83 56 82 57 38 59 70 60 50 61 69 62 51 63 54 64
REMARK SMILES IDX 68 65 87 66 52 67 53 68 67 70 88 71 55 72 39 73 40 74 48 75
REMARK SMILES IDX 41 76 47 77 49 78 46 79 42 80 43 81 44 82 45 83 71 84 72 85
REMARK SMILES IDX 80 86 73 87 79 88 81 89 78 90 74 91 75 92 76 93 77 94 56 95
REMARK SMILES IDX 57 96 65 97 58 98 64 99 66 100 63 101 59 102 60 103 61 104
REMARK SMILES IDX 62 105
REMARK H PARENT 20 7 27 39 86 58 54 69
REMARK Flexibility Score: inf
ROOT
ATOM      1  C   UNL A   1      44.744  32.026  26.359  1.00  0.00     0.002 C 
ENDROOT
BRANCH   1   2
ATOM      2  C   UNL A   1      44.144  31.143  27.457  1.00  0.00     0.021 C 
BRANCH   2   3
ATOM      3  C   UNL A   1      44.837  29.791  27.571  1.00  0.00     0.116 C 
BRANCH   3   4
ATOM      4  N   UNL A   1      44.571  28.995  26.393  1.00  0.00    -0.356 N 
ATOM      5  C   UNL A   1      44.161  27.694  26.337  1.00  0.00     0.224 C 
ATOM      6  O   UNL A   1      44.219  27.096  25.261  1.00  0.00    -0.275 OA
ATOM      7  H   UNL A   1      44.702  29.445  25.528  1.00  0.00     0.163 HD
BRANCH   5   8
ATOM      8  C   UNL A   1      43.429  27.114  27.537  1.00  0.00     0.138 C 
BRANCH   8   9
ATOM      9  C   UNL A   1      44.217  26.438  28.647  1.00  0.00    -0.002 C 
ATOM     10  C   UNL A   1      44.776  25.203  28.546  1.00  0.00     0.019 C 
BRANCH  10  11
ATOM     11  C   UNL A   1      44.646  24.271  27.455  1.00  0.00     0.019 A 
ATOM     12  C   UNL A   1      46.895  24.679  26.170  1.00  0.00     0.069 C 
ATOM     13  C   UNL A   1      45.624  23.970  26.470  1.00  0.00     0.067 A 
ATOM     14  N   UNL A   1      45.273  22.895  25.754  1.00  0.00    -0.177 NA
ATOM     15  N   UNL A   1      44.070  22.542  26.248  1.00  0.00    -0.265 N 
ATOM     16  C   UNL A   1      43.544  23.522  27.062  1.00  0.00     0.043 A 
ATOM     17  C   UNL A   1      42.097  23.667  27.374  1.00  0.00     0.067 C 
BRANCH  15  18
ATOM     18  C   UNL A   1      43.506  21.267  25.820  1.00  0.00     0.123 C 
ATOM     19  C   UNL A   1      44.533  20.373  25.079  1.00  0.00     0.044 C 
ATOM     20  C   UNL A   1      42.997  20.371  26.947  1.00  0.00     0.164 C 
ATOM     21  C   UNL A   1      43.870  19.024  24.831  1.00  0.00     0.139 C 
ATOM     22  S   UNL A   1      42.743  18.789  26.188  1.00  0.00     0.152 S 
ATOM     23  O   UNL A   1      41.398  18.749  25.670  1.00  0.00    -0.229 OA
ATOM     24  O   UNL A   1      43.265  17.761  27.073  1.00  0.00    -0.229 OA
ENDBRANCH  15  18
ENDBRANCH  10  11
BRANCH   9  25
ATOM     25  C   UNL A   1      44.398  27.181  29.863  1.00  0.00     0.121 A 
ATOM     26  N   UNL A   1      43.704  28.257  30.168  1.00  0.00    -0.236 NA
ATOM     27  S   UNL A   1      45.779  26.920  30.869  1.00  0.00    -0.114 S 
ATOM     28  C   UNL A   1      44.462  29.093  30.967  1.00  0.00     0.082 A 
ATOM     29  C   UNL A   1      45.668  28.551  31.414  1.00  0.00     0.055 A 
ATOM     30  C   UNL A   1      44.160  30.433  31.277  1.00  0.00     0.030 A 
ATOM     31  C   UNL A   1      46.596  29.307  32.145  1.00  0.00     0.021 A 
ATOM     32  C   UNL A   1      45.106  31.214  31.948  1.00  0.00     0.002 A 
ATOM     33  C   UNL A   1      46.311  30.658  32.369  1.00  0.00     0.002 A 
ENDBRANCH   9  25
ENDBRANCH   8   9
ENDBRANCH   5   8
ENDBRANCH   3   4
ENDBRANCH   2   3
ENDBRANCH   1   2
BRANCH   1  34
ATOM     34  C   UNL A   1      46.172  32.526  26.629  1.00  0.00     0.002 C 
BRANCH  34  35
ATOM     35  C   UNL A   1      46.511  33.922  26.086  1.00  0.00     0.021 C 
BRANCH  35  36
ATOM     36  C   UNL A   1      45.290  34.787  25.818  1.00  0.00     0.116 C 
BRANCH  36  37
ATOM     37  N   UNL A   1      45.386  36.094  26.470  1.00  0.00    -0.352 N 
ATOM     38  C   UNL A   1      44.531  36.661  27.399  1.00  0.00     0.251 C 
ATOM     39  H   UNL A   1      46.163  36.643  26.215  1.00  0.00     0.163 HD
ATOM     40  O   UNL A   1      44.515  37.868  27.577  1.00  0.00    -0.269 OA
BRANCH  38  41
ATOM     41  C   UNL A   1      43.648  35.763  28.164  1.00  0.00     0.039 A 
ATOM     42  C   UNL A   1      44.142  34.758  28.998  1.00  0.00     0.014 A 
ATOM     43  C   UNL A   1      42.283  35.999  28.065  1.00  0.00     0.014 A 
ATOM     44  C   UNL A   1      43.244  34.050  29.796  1.00  0.00     0.010 A 
ATOM     45  C   UNL A   1      41.436  35.451  28.987  1.00  0.00     0.010 A 
ATOM     46  C   UNL A   1      41.889  34.416  29.795  1.00  0.00    -0.014 A 
BRANCH  46  47
ATOM     47  C   UNL A   1      40.912  33.774  30.669  1.00  0.00     0.031 A 
ATOM     48  C   UNL A   1      41.308  33.666  32.098  1.00  0.00     0.074 A 
ATOM     49  C   UNL A   1      39.638  33.555  30.270  1.00  0.00     0.049 A 
ATOM     50  N   UNL A   1      41.553  32.601  32.787  1.00  0.00    -0.248 NA
ATOM     51  C   UNL A   1      41.592  34.914  32.827  1.00  0.00     0.031 C 
ATOM     52  C   UNL A   1      39.001  33.951  29.003  1.00  0.00     0.029 A 
ATOM     53  N   UNL A   1      38.595  33.048  30.975  1.00  0.00    -0.354 N 
ATOM     54  C   UNL A   1      41.795  33.029  34.092  1.00  0.00     0.074 A 
ATOM     55  C   UNL A   1      42.012  34.447  34.004  1.00  0.00     0.031 C 
ATOM     56  C   UNL A   1      37.658  33.899  29.131  1.00  0.00     0.029 A 
ATOM     57  C   UNL A   1      37.348  33.270  30.398  1.00  0.00     0.049 A 
ATOM     58  H   UNL A   1      38.710  32.563  31.823  1.00  0.00     0.167 HD
ATOM     59  C   UNL A   1      41.561  32.214  35.161  1.00  0.00     0.034 A 
ATOM     60  C   UNL A   1      36.134  32.970  30.926  1.00  0.00     0.034 A 
ATOM     61  C   UNL A   1      41.393  30.843  34.730  1.00  0.00     0.049 A 
ATOM     62  C   UNL A   1      36.375  31.929  31.953  1.00  0.00     0.074 A 
ATOM     63  C   UNL A   1      42.193  29.913  34.095  1.00  0.00     0.029 A 
ATOM     64  N   UNL A   1      40.104  30.383  34.590  1.00  0.00    -0.354 N 
ATOM     65  N   UNL A   1      36.869  30.750  31.683  1.00  0.00    -0.248 NA
ATOM     66  C   UNL A   1      36.504  32.348  33.338  1.00  0.00     0.031 C 
ATOM     67  C   UNL A   1      41.315  29.223  33.205  1.00  0.00     0.029 A 
ATOM     68  C   UNL A   1      40.019  29.710  33.396  1.00  0.00     0.049 A 
ATOM     69  H   UNL A   1      39.372  30.513  35.234  1.00  0.00     0.167 HD
ATOM     70  C   UNL A   1      37.734  30.472  32.731  1.00  0.00     0.074 A 
ATOM     71  C   UNL A   1      37.374  31.431  33.773  1.00  0.00     0.031 C 
ATOM     72  C   UNL A   1      38.835  29.682  32.552  1.00  0.00     0.034 A 
BRANCH  59  73
ATOM     73  C   UNL A   1      41.127  32.668  36.543  1.00  0.00     0.023 A 
ATOM     74  C   UNL A   1      39.830  32.306  36.969  1.00  0.00     0.031 A 
ATOM     75  C   UNL A   1      41.775  33.637  37.341  1.00  0.00     0.131 A 
ATOM     76  C   UNL A   1      39.212  32.950  38.057  1.00  0.00     0.055 A 
ATOM     77  C   UNL A   1      41.181  34.228  38.462  1.00  0.00     0.041 A 
ATOM     78  F   UNL A   1      42.977  34.141  37.040  1.00  0.00    -0.206 F 
ATOM     79  C   UNL A   1      39.881  33.909  38.809  1.00  0.00     0.022 A 
BRANCH  76  80
ATOM     80  S   UNL A   1      37.453  32.638  38.366  1.00  0.00     0.124 S 
ATOM     81  O   UNL A   1      37.215  33.436  39.563  1.00  0.00    -0.237 OA
ATOM     82  O   UNL A   1      36.842  33.123  37.133  1.00  0.00    -0.237 OA
ATOM     83  O   UNL A   1      37.398  31.190  38.560  1.00  0.00    -0.744 OA
ENDBRANCH  76  80
ENDBRANCH  59  73
BRANCH  60  84
ATOM     84  C   UNL A   1      34.913  33.819  30.862  1.00  0.00     0.023 A 
ATOM     85  C   UNL A   1      34.584  34.764  31.855  1.00  0.00     0.031 A 
ATOM     86  C   UNL A   1      34.163  33.868  29.664  1.00  0.00     0.131 A 
ATOM     87  C   UNL A   1      33.551  35.704  31.626  1.00  0.00     0.055 A 
ATOM     88  C   UNL A   1      33.144  34.797  29.444  1.00  0.00     0.041 A 
ATOM     89  F   UNL A   1      34.458  33.063  28.630  1.00  0.00    -0.206 F 
ATOM     90  C   UNL A   1      32.841  35.728  30.423  1.00  0.00     0.022 A 
BRANCH  87  91
ATOM     91  S   UNL A   1      33.171  36.976  32.875  1.00  0.00     0.124 S 
ATOM     92  O   UNL A   1      33.445  38.212  32.151  1.00  0.00    -0.237 OA
ATOM     93  O   UNL A   1      31.772  36.701  33.184  1.00  0.00    -0.237 OA
ATOM     94  O   UNL A   1      34.106  36.680  33.961  1.00  0.00    -0.744 OA
ENDBRANCH  87  91
ENDBRANCH  60  84
BRANCH  72  95
ATOM     95  C   UNL A   1      38.920  28.840  31.289  1.00  0.00     0.023 A 
ATOM     96  C   UNL A   1      39.394  29.286  30.033  1.00  0.00     0.031 A 
ATOM     97  C   UNL A   1      38.621  27.472  31.422  1.00  0.00     0.131 A 
ATOM     98  C   UNL A   1      39.550  28.368  28.972  1.00  0.00     0.055 A 
ATOM     99  C   UNL A   1      38.797  26.566  30.378  1.00  0.00     0.041 A 
ATOM    100  F   UNL A   1      38.190  26.982  32.597  1.00  0.00    -0.206 F 
ATOM    101  C   UNL A   1      39.260  27.011  29.147  1.00  0.00     0.022 A 
BRANCH  98 102
ATOM    102  S   UNL A   1      40.131  28.918  27.330  1.00  0.00     0.124 S 
ATOM    103  O   UNL A   1      41.377  29.614  27.627  1.00  0.00    -0.237 OA
ATOM    104  O   UNL A   1      40.258  27.659  26.600  1.00  0.00    -0.237 OA
ATOM    105  O   UNL A   1      39.048  29.784  26.858  1.00  0.00    -0.744 OA
ENDBRANCH  98 102
ENDBRANCH  72  95
ENDBRANCH  46  47
ENDBRANCH  38  41
ENDBRANCH  36  37
ENDBRANCH  35  36
ENDBRANCH  34  35
ENDBRANCH   1  34
TORSDOF 20
ENDMDL
