MODEL 1
REMARK VINA RESULT:     -12.7      0.000      0.000
REMARK SMILES Cc1ccc(Nc2c(C)cccc2Cl)c(CC(=O)NCCCCCCNC(=O)c2ccc(-c3c4nc(c(-c5cc(S(=O)(=O)[O-])ccc5F)c5ccc([nH]5)c(-c5cc(S(=O)(=O)[O-])ccc5F)c5nc(c(-c6cc(S(=O)(=O)[O-])ccc6F)c6ccc3[nH]6)C=C5)C=C4)cc2)c1
REMARK SMILES IDX 22 1 21 2 20 3 19 4 17 5 18 6 16 8 15 9 1 10 2 11 3 12 92 13
REMARK SMILES IDX 4 14 5 15 6 16 7 18 8 19 13 20 9 21 10 22 12 23 14 24 11 25
REMARK SMILES IDX 23 26 24 27 25 28 26 29 27 30 28 32 29 33 30 34 91 35 31 36
REMARK SMILES IDX 90 37 32 38 33 39 34 40 84 41 35 42 89 43 83 44 85 45 36 46
REMARK SMILES IDX 88 47 82 48 81 49 37 51 69 52 49 53 68 54 50 55 53 56 67 57
REMARK SMILES IDX 86 58 51 59 52 60 66 62 87 63 54 64 38 65 39 66 47 67 40 68
REMARK SMILES IDX 46 69 48 70 45 71 41 72 42 73 43 74 44 75 70 76 71 77 79 78
REMARK SMILES IDX 72 79 78 80 80 81 77 82 73 83 74 84 75 85 76 86 55 87 56 88
REMARK SMILES IDX 64 89 57 90 63 91 65 92 62 93 58 94 59 95 60 96 61 97
REMARK H PARENT 19 7 6 17 26 31 85 50 53 61
REMARK Flexibility Score: inf
ROOT
ATOM      1  C   UNL A   1      31.966  28.635  27.036  1.00  0.00     0.002 C 
ENDROOT
BRANCH   1   2
ATOM      2  C   UNL A   1      32.224  27.455  26.086  1.00  0.00     0.021 C 
BRANCH   2   3
ATOM      3  C   UNL A   1      31.073  26.457  25.953  1.00  0.00     0.116 C 
BRANCH   3   4
ATOM      4  N   UNL A   1      31.219  25.320  26.839  1.00  0.00    -0.356 N 
ATOM      5  C   UNL A   1      31.814  24.117  26.607  1.00  0.00     0.224 C 
ATOM      6  O   UNL A   1      31.768  23.253  27.486  1.00  0.00    -0.275 OA
ATOM      7  H   UNL A   1      30.834  25.434  27.738  1.00  0.00     0.163 HD
BRANCH   5   8
ATOM      8  C   UNL A   1      32.526  23.838  25.295  1.00  0.00     0.137 C 
BRANCH   8   9
ATOM      9  C   UNL A   1      33.825  23.074  25.439  1.00  0.00    -0.015 A 
ATOM     10  C   UNL A   1      37.485  24.001  26.076  1.00  0.00     0.044 C 
ATOM     11  C   UNL A   1      36.245  23.203  25.809  1.00  0.00    -0.051 A 
ATOM     12  C   UNL A   1      36.328  21.826  25.620  1.00  0.00     0.005 A 
ATOM     13  C   UNL A   1      34.992  23.814  25.735  1.00  0.00     0.009 A 
ATOM     14  C   UNL A   1      35.175  21.077  25.373  1.00  0.00     0.026 A 
ATOM     15  C   UNL A   1      33.907  21.674  25.282  1.00  0.00     0.042 A 
BRANCH  15  16
ATOM     16  N   UNL A   1      32.743  20.890  25.109  1.00  0.00    -0.354 N 
ATOM     17  H   UNL A   1      31.979  21.127  25.684  1.00  0.00     0.167 HD
BRANCH  16  18
ATOM     18  C   UNL A   1      32.527  19.807  24.220  1.00  0.00     0.060 A 
ATOM     19  C   UNL A   1      32.670  18.463  24.629  1.00  0.00    -0.026 A 
ATOM     20  C   UNL A   1      32.249  20.072  22.860  1.00  0.00     0.064 A 
ATOM     21  C   UNL A   1      32.910  18.069  26.061  1.00  0.00     0.046 C 
ATOM     22  C   UNL A   1      32.593  17.437  23.669  1.00  0.00     0.005 A 
ATOM     23  C   UNL A   1      32.158  19.041  21.924  1.00  0.00     0.023 A 
ATOM     24  Cl  UNL A   1      32.030  21.697  22.300  1.00  0.00    -0.082 Cl
ATOM     25  C   UNL A   1      32.343  17.723  22.327  1.00  0.00     0.002 A 
ENDBRANCH  16  18
ENDBRANCH  15  16
ENDBRANCH   8   9
ENDBRANCH   5   8
ENDBRANCH   3   4
ENDBRANCH   2   3
ENDBRANCH   1   2
BRANCH   1  26
ATOM     26  C   UNL A   1      32.070  30.045  26.433  1.00  0.00     0.002 C 
BRANCH  26  27
ATOM     27  C   UNL A   1      32.883  31.064  27.234  1.00  0.00     0.021 C 
BRANCH  27  28
ATOM     28  C   UNL A   1      34.256  30.561  27.673  1.00  0.00     0.116 C 
BRANCH  28  29
ATOM     29  N   UNL A   1      34.990  31.518  28.496  1.00  0.00    -0.352 N 
ATOM     30  C   UNL A   1      36.185  31.355  29.177  1.00  0.00     0.251 C 
ATOM     31  H   UNL A   1      34.575  32.407  28.578  1.00  0.00     0.163 HD
ATOM     32  O   UNL A   1      36.631  32.235  29.893  1.00  0.00    -0.269 OA
BRANCH  30  33
ATOM     33  C   UNL A   1      36.978  30.125  28.937  1.00  0.00     0.039 A 
ATOM     34  C   UNL A   1      37.071  29.204  29.987  1.00  0.00     0.014 A 
ATOM     35  C   UNL A   1      37.779  29.995  27.808  1.00  0.00     0.014 A 
ATOM     36  C   UNL A   1      38.128  28.299  30.009  1.00  0.00     0.010 A 
ATOM     37  C   UNL A   1      38.879  29.162  27.869  1.00  0.00     0.010 A 
ATOM     38  C   UNL A   1      39.093  28.370  29.004  1.00  0.00    -0.014 A 
BRANCH  38  39
ATOM     39  C   UNL A   1      40.433  27.810  29.141  1.00  0.00     0.031 A 
ATOM     40  C   UNL A   1      40.724  26.413  28.761  1.00  0.00     0.074 A 
ATOM     41  C   UNL A   1      41.445  28.625  29.513  1.00  0.00     0.049 A 
ATOM     42  N   UNL A   1      41.819  25.800  29.056  1.00  0.00    -0.248 NA
ATOM     43  C   UNL A   1      39.755  25.555  28.087  1.00  0.00     0.031 C 
ATOM     44  C   UNL A   1      42.881  28.385  29.389  1.00  0.00     0.029 A 
ATOM     45  N   UNL A   1      41.352  29.736  30.351  1.00  0.00    -0.354 N 
ATOM     46  C   UNL A   1      41.839  24.617  28.363  1.00  0.00     0.074 A 
ATOM     47  C   UNL A   1      40.484  24.448  27.905  1.00  0.00     0.031 C 
ATOM     48  C   UNL A   1      43.523  29.120  30.309  1.00  0.00     0.029 A 
ATOM     49  C   UNL A   1      42.515  29.735  31.151  1.00  0.00     0.049 A 
ATOM     50  H   UNL A   1      40.619  30.393  30.379  1.00  0.00     0.167 HD
ATOM     51  C   UNL A   1      43.039  24.004  28.151  1.00  0.00     0.034 A 
ATOM     52  C   UNL A   1      42.419  29.591  32.505  1.00  0.00     0.034 A 
ATOM     53  C   UNL A   1      44.071  24.535  29.054  1.00  0.00     0.049 A 
ATOM     54  C   UNL A   1      43.092  28.344  33.051  1.00  0.00     0.074 A 
ATOM     55  C   UNL A   1      45.207  25.314  28.916  1.00  0.00     0.029 A 
ATOM     56  N   UNL A   1      43.852  24.434  30.420  1.00  0.00    -0.354 N 
ATOM     57  N   UNL A   1      43.699  27.447  32.321  1.00  0.00    -0.248 NA
ATOM     58  C   UNL A   1      43.052  27.967  34.465  1.00  0.00     0.031 C 
ATOM     59  C   UNL A   1      45.622  25.728  30.222  1.00  0.00     0.029 A 
ATOM     60  C   UNL A   1      44.762  25.169  31.151  1.00  0.00     0.049 A 
ATOM     61  H   UNL A   1      43.130  23.898  30.822  1.00  0.00     0.167 HD
ATOM     62  C   UNL A   1      44.046  26.377  33.103  1.00  0.00     0.074 A 
ATOM     63  C   UNL A   1      43.630  26.754  34.444  1.00  0.00     0.031 C 
ATOM     64  C   UNL A   1      44.600  25.234  32.598  1.00  0.00     0.034 A 
BRANCH  51  65
ATOM     65  C   UNL A   1      43.345  23.033  27.023  1.00  0.00     0.023 A 
ATOM     66  C   UNL A   1      42.713  21.769  27.029  1.00  0.00     0.031 A 
ATOM     67  C   UNL A   1      44.313  23.203  26.005  1.00  0.00     0.131 A 
ATOM     68  C   UNL A   1      43.060  20.763  26.102  1.00  0.00     0.055 A 
ATOM     69  C   UNL A   1      44.621  22.219  25.056  1.00  0.00     0.041 A 
ATOM     70  F   UNL A   1      45.061  24.302  25.887  1.00  0.00    -0.206 F 
ATOM     71  C   UNL A   1      44.003  20.987  25.106  1.00  0.00     0.022 A 
BRANCH  68  72
ATOM     72  S   UNL A   1      42.320  19.114  26.260  1.00  0.00     0.124 S 
ATOM     73  O   UNL A   1      40.987  19.323  25.705  1.00  0.00    -0.237 OA
ATOM     74  O   UNL A   1      43.230  18.289  25.475  1.00  0.00    -0.237 OA
ATOM     75  O   UNL A   1      42.352  18.866  27.702  1.00  0.00    -0.744 OA
ENDBRANCH  68  72
ENDBRANCH  51  65
BRANCH  52  76
ATOM     76  C   UNL A   1      41.196  30.245  33.061  1.00  0.00     0.023 A 
ATOM     77  C   UNL A   1      41.209  31.656  33.147  1.00  0.00     0.031 A 
ATOM     78  C   UNL A   1      39.954  29.599  33.112  1.00  0.00     0.131 A 
ATOM     79  C   UNL A   1      40.009  32.378  33.099  1.00  0.00     0.055 A 
ATOM     80  C   UNL A   1      38.757  30.326  33.151  1.00  0.00     0.041 A 
ATOM     81  F   UNL A   1      39.868  28.266  32.993  1.00  0.00    -0.206 F 
ATOM     82  C   UNL A   1      38.779  31.721  33.097  1.00  0.00     0.022 A 
BRANCH  79  83
ATOM     83  S   UNL A   1      40.099  34.160  32.747  1.00  0.00     0.124 S 
ATOM     84  O   UNL A   1      41.532  34.416  32.842  1.00  0.00    -0.237 OA
ATOM     85  O   UNL A   1      39.521  34.245  31.407  1.00  0.00    -0.237 OA
ATOM     86  O   UNL A   1      39.282  34.760  33.797  1.00  0.00    -0.744 OA
ENDBRANCH  79  83
ENDBRANCH  52  76
BRANCH  64  87
ATOM     87  C   UNL A   1      44.984  24.059  33.464  1.00  0.00     0.023 A 
ATOM     88  C   UNL A   1      46.323  23.784  33.789  1.00  0.00     0.031 A 
ATOM     89  C   UNL A   1      44.025  23.137  33.938  1.00  0.00     0.131 A 
ATOM     90  C   UNL A   1      46.655  22.690  34.607  1.00  0.00     0.055 A 
ATOM     91  C   UNL A   1      44.367  21.999  34.674  1.00  0.00     0.041 A 
ATOM     92  F   UNL A   1      42.711  23.325  33.746  1.00  0.00    -0.206 F 
ATOM     93  C   UNL A   1      45.689  21.776  35.026  1.00  0.00     0.022 A 
BRANCH  90  94
ATOM     94  S   UNL A   1      48.363  22.525  35.186  1.00  0.00     0.124 S 
ATOM     95  O   UNL A   1      49.068  23.529  34.397  1.00  0.00    -0.237 OA
ATOM     96  O   UNL A   1      48.221  22.822  36.610  1.00  0.00    -0.237 OA
ATOM     97  O   UNL A   1      48.702  21.138  34.875  1.00  0.00    -0.744 OA
ENDBRANCH  90  94
ENDBRANCH  64  87
ENDBRANCH  38  39
ENDBRANCH  30  33
ENDBRANCH  28  29
ENDBRANCH  27  28
ENDBRANCH  26  27
ENDBRANCH   1  26
TORSDOF 19
ENDMDL
MODEL 2
REMARK VINA RESULT:     -12.5      1.228      2.151
REMARK SMILES Cc1ccc(Nc2c(C)cccc2Cl)c(CC(=O)NCCCCCCNC(=O)c2ccc(-c3c4nc(c(-c5cc(S(=O)(=O)[O-])ccc5F)c5ccc([nH]5)c(-c5cc(S(=O)(=O)[O-])ccc5F)c5nc(c(-c6cc(S(=O)(=O)[O-])ccc6F)c6ccc3[nH]6)C=C5)C=C4)cc2)c1
REMARK SMILES IDX 22 1 21 2 20 3 19 4 17 5 18 6 16 8 15 9 1 10 2 11 3 12 92 13
REMARK SMILES IDX 4 14 5 15 6 16 7 18 8 19 13 20 9 21 10 22 12 23 14 24 11 25
REMARK SMILES IDX 23 26 24 27 25 28 26 29 27 30 28 32 29 33 30 34 91 35 31 36
REMARK SMILES IDX 90 37 32 38 33 39 34 40 84 41 35 42 89 43 83 44 85 45 36 46
REMARK SMILES IDX 88 47 82 48 81 49 37 51 69 52 49 53 68 54 50 55 53 56 67 57
REMARK SMILES IDX 86 58 51 59 52 60 66 62 87 63 54 64 38 65 39 66 47 67 40 68
REMARK SMILES IDX 46 69 48 70 45 71 41 72 42 73 43 74 44 75 70 76 71 77 79 78
REMARK SMILES IDX 72 79 78 80 80 81 77 82 73 83 74 84 75 85 76 86 55 87 56 88
REMARK SMILES IDX 64 89 57 90 63 91 65 92 62 93 58 94 59 95 60 96 61 97
REMARK H PARENT 19 7 6 17 26 31 85 50 53 61
REMARK Flexibility Score: inf
ROOT
ATOM      1  C   UNL A   1      31.576  27.619  26.987  1.00  0.00     0.002 C 
ENDROOT
BRANCH   1   2
ATOM      2  C   UNL A   1      30.798  27.056  25.787  1.00  0.00     0.021 C 
BRANCH   2   3
ATOM      3  C   UNL A   1      30.191  25.667  25.993  1.00  0.00     0.116 C 
BRANCH   3   4
ATOM      4  N   UNL A   1      30.970  24.850  26.901  1.00  0.00    -0.356 N 
ATOM      5  C   UNL A   1      31.563  23.644  26.682  1.00  0.00     0.224 C 
ATOM      6  O   UNL A   1      32.130  23.081  27.622  1.00  0.00    -0.275 OA
ATOM      7  H   UNL A   1      31.089  25.220  27.805  1.00  0.00     0.163 HD
BRANCH   5   8
ATOM      8  C   UNL A   1      31.537  22.998  25.307  1.00  0.00     0.137 C 
BRANCH   8   9
ATOM      9  C   UNL A   1      32.397  23.692  24.274  1.00  0.00    -0.015 A 
ATOM     10  C   UNL A   1      31.758  25.992  21.280  1.00  0.00     0.044 C 
ATOM     11  C   UNL A   1      32.456  25.145  22.300  1.00  0.00    -0.051 A 
ATOM     12  C   UNL A   1      33.833  24.952  22.224  1.00  0.00     0.005 A 
ATOM     13  C   UNL A   1      31.752  24.527  23.335  1.00  0.00     0.009 A 
ATOM     14  C   UNL A   1      34.490  24.166  23.173  1.00  0.00     0.026 A 
ATOM     15  C   UNL A   1      33.798  23.526  24.214  1.00  0.00     0.042 A 
BRANCH  15  16
ATOM     16  N   UNL A   1      34.490  22.798  25.210  1.00  0.00    -0.354 N 
ATOM     17  H   UNL A   1      34.281  23.044  26.140  1.00  0.00     0.167 HD
BRANCH  16  18
ATOM     18  C   UNL A   1      35.445  21.762  25.049  1.00  0.00     0.060 A 
ATOM     19  C   UNL A   1      35.063  20.416  24.856  1.00  0.00    -0.026 A 
ATOM     20  C   UNL A   1      36.820  22.062  25.174  1.00  0.00     0.064 A 
ATOM     21  C   UNL A   1      33.632  19.997  24.655  1.00  0.00     0.046 C 
ATOM     22  C   UNL A   1      36.049  19.412  24.854  1.00  0.00     0.005 A 
ATOM     23  C   UNL A   1      37.786  21.056  25.152  1.00  0.00     0.023 A 
ATOM     24  Cl  UNL A   1      37.356  23.697  25.380  1.00  0.00    -0.082 Cl
ATOM     25  C   UNL A   1      37.399  19.729  25.006  1.00  0.00     0.002 A 
ENDBRANCH  16  18
ENDBRANCH  15  16
ENDBRANCH   8   9
ENDBRANCH   5   8
ENDBRANCH   3   4
ENDBRANCH   2   3
ENDBRANCH   1   2
BRANCH   1  26
ATOM     26  C   UNL A   1      32.980  28.174  26.701  1.00  0.00     0.002 C 
BRANCH  26  27
ATOM     27  C   UNL A   1      33.475  29.276  27.640  1.00  0.00     0.021 C 
BRANCH  27  28
ATOM     28  C   UNL A   1      34.310  30.354  26.954  1.00  0.00     0.116 C 
BRANCH  28  29
ATOM     29  N   UNL A   1      34.916  31.300  27.885  1.00  0.00    -0.352 N 
ATOM     30  C   UNL A   1      35.997  31.126  28.734  1.00  0.00     0.251 C 
ATOM     31  H   UNL A   1      34.497  32.191  27.913  1.00  0.00     0.163 HD
ATOM     32  O   UNL A   1      36.335  31.999  29.516  1.00  0.00    -0.269 OA
BRANCH  30  33
ATOM     33  C   UNL A   1      36.813  29.895  28.603  1.00  0.00     0.039 A 
ATOM     34  C   UNL A   1      36.933  29.079  29.734  1.00  0.00     0.014 A 
ATOM     35  C   UNL A   1      37.608  29.675  27.484  1.00  0.00     0.014 A 
ATOM     36  C   UNL A   1      38.009  28.201  29.831  1.00  0.00     0.010 A 
ATOM     37  C   UNL A   1      38.725  28.873  27.612  1.00  0.00     0.010 A 
ATOM     38  C   UNL A   1      38.964  28.196  28.815  1.00  0.00    -0.014 A 
BRANCH  38  39
ATOM     39  C   UNL A   1      40.317  27.677  28.991  1.00  0.00     0.031 A 
ATOM     40  C   UNL A   1      40.656  26.285  28.641  1.00  0.00     0.074 A 
ATOM     41  C   UNL A   1      41.296  28.528  29.372  1.00  0.00     0.049 A 
ATOM     42  N   UNL A   1      41.762  25.709  28.971  1.00  0.00    -0.248 NA
ATOM     43  C   UNL A   1      39.728  25.387  27.960  1.00  0.00     0.031 C 
ATOM     44  C   UNL A   1      42.740  28.328  29.284  1.00  0.00     0.029 A 
ATOM     45  N   UNL A   1      41.152  29.650  30.189  1.00  0.00    -0.354 N 
ATOM     46  C   UNL A   1      41.832  24.515  28.298  1.00  0.00     0.074 A 
ATOM     47  C   UNL A   1      40.492  24.299  27.813  1.00  0.00     0.031 C 
ATOM     48  C   UNL A   1      43.339  29.096  30.206  1.00  0.00     0.029 A 
ATOM     49  C   UNL A   1      42.295  29.694  31.015  1.00  0.00     0.049 A 
ATOM     50  H   UNL A   1      40.399  30.285  30.189  1.00  0.00     0.167 HD
ATOM     51  C   UNL A   1      43.053  23.935  28.123  1.00  0.00     0.034 A 
ATOM     52  C   UNL A   1      42.172  29.570  32.369  1.00  0.00     0.034 A 
ATOM     53  C   UNL A   1      44.049  24.510  29.040  1.00  0.00     0.049 A 
ATOM     54  C   UNL A   1      42.868  28.352  32.950  1.00  0.00     0.074 A 
ATOM     55  C   UNL A   1      45.165  25.320  28.915  1.00  0.00     0.029 A 
ATOM     56  N   UNL A   1      43.802  24.424  30.403  1.00  0.00    -0.354 N 
ATOM     57  N   UNL A   1      43.518  27.462  32.249  1.00  0.00    -0.248 NA
ATOM     58  C   UNL A   1      42.807  27.997  34.369  1.00  0.00     0.031 C 
ATOM     59  C   UNL A   1      45.537  25.766  30.223  1.00  0.00     0.029 A 
ATOM     60  C   UNL A   1      44.672  25.197  31.142  1.00  0.00     0.049 A 
ATOM     61  H   UNL A   1      43.086  23.874  30.797  1.00  0.00     0.167 HD
ATOM     62  C   UNL A   1      43.877  26.414  33.057  1.00  0.00     0.074 A 
ATOM     63  C   UNL A   1      43.420  26.801  34.381  1.00  0.00     0.031 C 
ATOM     64  C   UNL A   1      44.476  25.281  32.584  1.00  0.00     0.034 A 
BRANCH  51  65
ATOM     65  C   UNL A   1      43.413  22.955  27.019  1.00  0.00     0.023 A 
ATOM     66  C   UNL A   1      42.772  21.696  26.996  1.00  0.00     0.031 A 
ATOM     67  C   UNL A   1      44.437  23.111  26.056  1.00  0.00     0.131 A 
ATOM     68  C   UNL A   1      43.160  20.682  26.095  1.00  0.00     0.055 A 
ATOM     69  C   UNL A   1      44.789  22.120  25.130  1.00  0.00     0.041 A 
ATOM     70  F   UNL A   1      45.200  24.203  25.973  1.00  0.00    -0.206 F 
ATOM     71  C   UNL A   1      44.159  20.893  25.151  1.00  0.00     0.022 A 
BRANCH  68  72
ATOM     72  S   UNL A   1      42.400  19.040  26.220  1.00  0.00     0.124 S 
ATOM     73  O   UNL A   1      42.586  18.724  27.633  1.00  0.00    -0.237 OA
ATOM     74  O   UNL A   1      41.032  19.298  25.786  1.00  0.00    -0.237 OA
ATOM     75  O   UNL A   1      43.196  18.227  25.301  1.00  0.00    -0.744 OA
ENDBRANCH  68  72
ENDBRANCH  51  65
BRANCH  52  76
ATOM     76  C   UNL A   1      40.919  30.197  32.886  1.00  0.00     0.023 A 
ATOM     77  C   UNL A   1      40.884  31.609  32.937  1.00  0.00     0.031 A 
ATOM     78  C   UNL A   1      39.698  29.512  32.931  1.00  0.00     0.131 A 
ATOM     79  C   UNL A   1      39.662  32.290  32.848  1.00  0.00     0.055 A 
ATOM     80  C   UNL A   1      38.477  30.199  32.931  1.00  0.00     0.041 A 
ATOM     81  F   UNL A   1      39.657  28.174  32.845  1.00  0.00    -0.206 F 
ATOM     82  C   UNL A   1      38.454  31.593  32.842  1.00  0.00     0.022 A 
BRANCH  79  83
ATOM     83  S   UNL A   1      39.700  34.064  32.453  1.00  0.00     0.124 S 
ATOM     84  O   UNL A   1      38.762  34.612  33.426  1.00  0.00    -0.237 OA
ATOM     85  O   UNL A   1      41.107  34.402  32.660  1.00  0.00    -0.237 OA
ATOM     86  O   UNL A   1      39.264  34.116  31.060  1.00  0.00    -0.744 OA
ENDBRANCH  79  83
ENDBRANCH  52  76
BRANCH  64  87
ATOM     87  C   UNL A   1      44.873  24.132  33.477  1.00  0.00     0.023 A 
ATOM     88  C   UNL A   1      46.219  23.842  33.757  1.00  0.00     0.031 A 
ATOM     89  C   UNL A   1      43.918  23.248  34.026  1.00  0.00     0.131 A 
ATOM     90  C   UNL A   1      46.565  22.772  34.602  1.00  0.00     0.055 A 
ATOM     91  C   UNL A   1      44.269  22.132  34.791  1.00  0.00     0.041 A 
ATOM     92  F   UNL A   1      42.601  23.456  33.882  1.00  0.00    -0.206 F 
ATOM     93  C   UNL A   1      45.600  21.895  35.095  1.00  0.00     0.022 A 
BRANCH  90  94
ATOM     94  S   UNL A   1      48.293  22.594  35.115  1.00  0.00     0.124 S 
ATOM     95  O   UNL A   1      48.916  23.791  34.563  1.00  0.00    -0.237 OA
ATOM     96  O   UNL A   1      48.164  22.558  36.570  1.00  0.00    -0.237 OA
ATOM     97  O   UNL A   1      48.709  21.335  34.500  1.00  0.00    -0.744 OA
ENDBRANCH  90  94
ENDBRANCH  64  87
ENDBRANCH  38  39
ENDBRANCH  30  33
ENDBRANCH  28  29
ENDBRANCH  27  28
ENDBRANCH  26  27
ENDBRANCH   1  26
TORSDOF 19
ENDMDL
MODEL 3
REMARK VINA RESULT:     -12.0      4.310     10.705
REMARK SMILES Cc1ccc(Nc2c(C)cccc2Cl)c(CC(=O)NCCCCCCNC(=O)c2ccc(-c3c4nc(c(-c5cc(S(=O)(=O)[O-])ccc5F)c5ccc([nH]5)c(-c5cc(S(=O)(=O)[O-])ccc5F)c5nc(c(-c6cc(S(=O)(=O)[O-])ccc6F)c6ccc3[nH]6)C=C5)C=C4)cc2)c1
REMARK SMILES IDX 22 1 21 2 20 3 19 4 17 5 18 6 16 8 15 9 1 10 2 11 3 12 92 13
REMARK SMILES IDX 4 14 5 15 6 16 7 18 8 19 13 20 9 21 10 22 12 23 14 24 11 25
REMARK SMILES IDX 23 26 24 27 25 28 26 29 27 30 28 32 29 33 30 34 91 35 31 36
REMARK SMILES IDX 90 37 32 38 33 39 34 40 84 41 35 42 89 43 83 44 85 45 36 46
REMARK SMILES IDX 88 47 82 48 81 49 37 51 69 52 49 53 68 54 50 55 53 56 67 57
REMARK SMILES IDX 86 58 51 59 52 60 66 62 87 63 54 64 38 65 39 66 47 67 40 68
REMARK SMILES IDX 46 69 48 70 45 71 41 72 42 73 43 74 44 75 70 76 71 77 79 78
REMARK SMILES IDX 72 79 78 80 80 81 77 82 73 83 74 84 75 85 76 86 55 87 56 88
REMARK SMILES IDX 64 89 57 90 63 91 65 92 62 93 58 94 59 95 60 96 61 97
REMARK H PARENT 19 7 6 17 26 31 85 50 53 61
REMARK Flexibility Score: inf
ROOT
ATOM      1  C   UNL A   1      34.939  22.166  24.468  1.00  0.00     0.002 C 
ENDROOT
BRANCH   1   2
ATOM      2  C   UNL A   1      33.734  23.060  24.133  1.00  0.00     0.021 C 
BRANCH   2   3
ATOM      3  C   UNL A   1      34.067  24.365  23.409  1.00  0.00     0.116 C 
BRANCH   3   4
ATOM      4  N   UNL A   1      33.030  24.764  22.478  1.00  0.00    -0.356 N 
ATOM      5  C   UNL A   1      32.720  26.005  22.012  1.00  0.00     0.224 C 
ATOM      6  O   UNL A   1      31.745  26.134  21.269  1.00  0.00    -0.275 OA
ATOM      7  H   UNL A   1      32.470  24.032  22.133  1.00  0.00     0.163 HD
BRANCH   5   8
ATOM      8  C   UNL A   1      33.559  27.214  22.392  1.00  0.00     0.137 C 
BRANCH   8   9
ATOM      9  C   UNL A   1      33.135  27.889  23.679  1.00  0.00    -0.015 A 
ATOM     10  C   UNL A   1      34.810  28.690  27.028  1.00  0.00     0.044 C 
ATOM     11  C   UNL A   1      33.785  28.578  25.940  1.00  0.00    -0.051 A 
ATOM     12  C   UNL A   1      32.480  29.008  26.163  1.00  0.00     0.005 A 
ATOM     13  C   UNL A   1      34.107  28.038  24.693  1.00  0.00     0.009 A 
ATOM     14  C   UNL A   1      31.521  28.908  25.152  1.00  0.00     0.026 A 
ATOM     15  C   UNL A   1      31.821  28.357  23.896  1.00  0.00     0.042 A 
BRANCH  15  16
ATOM     16  N   UNL A   1      30.859  28.336  22.860  1.00  0.00    -0.354 N 
ATOM     17  H   UNL A   1      31.218  28.329  21.944  1.00  0.00     0.167 HD
BRANCH  16  18
ATOM     18  C   UNL A   1      29.444  28.325  22.964  1.00  0.00     0.060 A 
ATOM     19  C   UNL A   1      28.660  29.449  22.623  1.00  0.00    -0.026 A 
ATOM     20  C   UNL A   1      28.799  27.193  23.509  1.00  0.00     0.064 A 
ATOM     21  C   UNL A   1      29.239  30.681  21.984  1.00  0.00     0.046 C 
ATOM     22  C   UNL A   1      27.278  29.433  22.889  1.00  0.00     0.005 A 
ATOM     23  C   UNL A   1      27.424  27.187  23.751  1.00  0.00     0.023 A 
ATOM     24  Cl  UNL A   1      29.699  25.770  23.919  1.00  0.00    -0.082 Cl
ATOM     25  C   UNL A   1      26.666  28.314  23.452  1.00  0.00     0.002 A 
ENDBRANCH  16  18
ENDBRANCH  15  16
ENDBRANCH   8   9
ENDBRANCH   5   8
ENDBRANCH   3   4
ENDBRANCH   2   3
ENDBRANCH   1   2
BRANCH   1  26
ATOM     26  C   UNL A   1      36.316  22.652  23.987  1.00  0.00     0.002 C 
BRANCH  26  27
ATOM     27  C   UNL A   1      37.525  22.139  24.770  1.00  0.00     0.021 C 
BRANCH  27  28
ATOM     28  C   UNL A   1      37.961  23.051  25.915  1.00  0.00     0.116 C 
BRANCH  28  29
ATOM     29  N   UNL A   1      39.352  22.862  26.311  1.00  0.00    -0.352 N 
ATOM     30  C   UNL A   1      40.295  23.805  26.686  1.00  0.00     0.251 C 
ATOM     31  H   UNL A   1      39.667  21.929  26.313  1.00  0.00     0.163 HD
ATOM     32  O   UNL A   1      41.451  23.492  26.914  1.00  0.00    -0.269 OA
BRANCH  30  33
ATOM     33  C   UNL A   1      39.850  25.202  26.913  1.00  0.00     0.039 A 
ATOM     34  C   UNL A   1      40.545  26.216  26.244  1.00  0.00     0.014 A 
ATOM     35  C   UNL A   1      38.938  25.512  27.916  1.00  0.00     0.014 A 
ATOM     36  C   UNL A   1      40.503  27.516  26.742  1.00  0.00     0.010 A 
ATOM     37  C   UNL A   1      38.964  26.778  28.467  1.00  0.00     0.010 A 
ATOM     38  C   UNL A   1      39.805  27.758  27.925  1.00  0.00    -0.014 A 
BRANCH  38  39
ATOM     39  C   UNL A   1      40.039  28.927  28.767  1.00  0.00     0.031 A 
ATOM     40  C   UNL A   1      39.070  30.038  28.823  1.00  0.00     0.074 A 
ATOM     41  C   UNL A   1      41.108  28.930  29.594  1.00  0.00     0.049 A 
ATOM     42  N   UNL A   1      39.316  31.180  29.371  1.00  0.00    -0.248 NA
ATOM     43  C   UNL A   1      37.760  29.985  28.182  1.00  0.00     0.031 C 
ATOM     44  C   UNL A   1      41.352  29.802  30.740  1.00  0.00     0.029 A 
ATOM     45  N   UNL A   1      42.335  28.304  29.370  1.00  0.00    -0.354 N 
ATOM     46  C   UNL A   1      38.136  31.877  29.438  1.00  0.00     0.074 A 
ATOM     47  C   UNL A   1      37.247  31.161  28.559  1.00  0.00     0.031 C 
ATOM     48  C   UNL A   1      42.674  29.874  30.955  1.00  0.00     0.029 A 
ATOM     49  C   UNL A   1      43.327  29.176  29.864  1.00  0.00     0.049 A 
ATOM     50  H   UNL A   1      42.479  27.425  28.949  1.00  0.00     0.167 HD
ATOM     51  C   UNL A   1      38.029  32.892  30.342  1.00  0.00     0.034 A 
ATOM     52  C   UNL A   1      44.252  29.718  29.017  1.00  0.00     0.034 A 
ATOM     53  C   UNL A   1      39.353  33.316  30.822  1.00  0.00     0.049 A 
ATOM     54  C   UNL A   1      44.199  31.232  28.920  1.00  0.00     0.074 A 
ATOM     55  C   UNL A   1      40.052  33.231  32.014  1.00  0.00     0.029 A 
ATOM     56  N   UNL A   1      40.269  33.766  29.883  1.00  0.00    -0.354 N 
ATOM     57  N   UNL A   1      43.343  31.988  29.554  1.00  0.00    -0.248 NA
ATOM     58  C   UNL A   1      45.058  32.007  28.023  1.00  0.00     0.031 C 
ATOM     59  C   UNL A   1      41.417  33.576  31.751  1.00  0.00     0.029 A 
ATOM     60  C   UNL A   1      41.535  33.907  30.413  1.00  0.00     0.049 A 
ATOM     61  H   UNL A   1      40.042  33.963  28.945  1.00  0.00     0.167 HD
ATOM     62  C   UNL A   1      43.462  33.282  29.117  1.00  0.00     0.074 A 
ATOM     63  C   UNL A   1      44.559  33.247  28.165  1.00  0.00     0.031 C 
ATOM     64  C   UNL A   1      42.624  34.284  29.521  1.00  0.00     0.034 A 
BRANCH  51  65
ATOM     65  C   UNL A   1      36.728  33.414  30.931  1.00  0.00     0.023 A 
ATOM     66  C   UNL A   1      35.773  33.986  30.060  1.00  0.00     0.031 A 
ATOM     67  C   UNL A   1      36.405  33.512  32.304  1.00  0.00     0.131 A 
ATOM     68  C   UNL A   1      34.613  34.624  30.548  1.00  0.00     0.055 A 
ATOM     69  C   UNL A   1      35.230  34.103  32.785  1.00  0.00     0.041 A 
ATOM     70  F   UNL A   1      37.219  33.092  33.276  1.00  0.00    -0.206 F 
ATOM     71  C   UNL A   1      34.330  34.674  31.909  1.00  0.00     0.022 A 
BRANCH  68  72
ATOM     72  S   UNL A   1      33.506  35.469  29.386  1.00  0.00     0.124 S 
ATOM     73  O   UNL A   1      34.414  35.815  28.297  1.00  0.00    -0.237 OA
ATOM     74  O   UNL A   1      32.511  34.442  29.104  1.00  0.00    -0.237 OA
ATOM     75  O   UNL A   1      33.013  36.610  30.158  1.00  0.00    -0.744 OA
ENDBRANCH  68  72
ENDBRANCH  51  65
BRANCH  52  76
ATOM     76  C   UNL A   1      44.637  28.779  27.922  1.00  0.00     0.023 A 
ATOM     77  C   UNL A   1      45.455  27.683  28.277  1.00  0.00     0.031 A 
ATOM     78  C   UNL A   1      43.934  28.704  26.713  1.00  0.00     0.131 A 
ATOM     79  C   UNL A   1      45.410  26.496  27.533  1.00  0.00     0.055 A 
ATOM     80  C   UNL A   1      43.961  27.544  25.926  1.00  0.00     0.041 A 
ATOM     81  F   UNL A   1      43.107  29.690  26.336  1.00  0.00    -0.206 F 
ATOM     82  C   UNL A   1      44.664  26.418  26.358  1.00  0.00     0.022 A 
BRANCH  79  83
ATOM     83  S   UNL A   1      46.106  24.992  28.281  1.00  0.00     0.124 S 
ATOM     84  O   UNL A   1      46.741  25.517  29.485  1.00  0.00    -0.237 OA
ATOM     85  O   UNL A   1      44.917  24.168  28.492  1.00  0.00    -0.237 OA
ATOM     86  O   UNL A   1      47.018  24.488  27.258  1.00  0.00    -0.744 OA
ENDBRANCH  79  83
ENDBRANCH  52  76
BRANCH  64  87
ATOM     87  C   UNL A   1      42.761  35.707  29.040  1.00  0.00     0.023 A 
ATOM     88  C   UNL A   1      43.306  36.715  29.853  1.00  0.00     0.031 A 
ATOM     89  C   UNL A   1      42.288  36.115  27.773  1.00  0.00     0.131 A 
ATOM     90  C   UNL A   1      43.433  38.033  29.379  1.00  0.00     0.055 A 
ATOM     91  C   UNL A   1      42.333  37.444  27.340  1.00  0.00     0.041 A 
ATOM     92  F   UNL A   1      41.805  35.235  26.884  1.00  0.00    -0.206 F 
ATOM     93  C   UNL A   1      42.921  38.411  28.139  1.00  0.00     0.022 A 
BRANCH  90  94
ATOM     94  S   UNL A   1      44.356  39.230  30.377  1.00  0.00     0.124 S 
ATOM     95  O   UNL A   1      45.286  39.804  29.410  1.00  0.00    -0.237 OA
ATOM     96  O   UNL A   1      43.289  40.116  30.835  1.00  0.00    -0.237 OA
ATOM     97  O   UNL A   1      44.971  38.411  31.419  1.00  0.00    -0.744 OA
ENDBRANCH  90  94
ENDBRANCH  64  87
ENDBRANCH  38  39
ENDBRANCH  30  33
ENDBRANCH  28  29
ENDBRANCH  27  28
ENDBRANCH  26  27
ENDBRANCH   1  26
TORSDOF 19
ENDMDL
