MODEL 1
REMARK VINA RESULT:     -11.4      0.000      0.000
REMARK SMILES O=C(NCCCCCCNC(=O)c1cc(SCC(=O)N2CCOCC2)ccn1)c1ccc(-c2c3nc(c(-c4cc(S(=O)(=O)[O-])ccc4F)c4ccc([nH]4)c(-c4cc(S(=O)(=O)[O-])ccc4F)c4nc(c(-c5cc(S(=O)(=O)[O-])ccc5F)c5ccc2[nH]5)C=C4)C=C3)cc1
REMARK SMILES IDX 6 1 5 2 4 3 3 4 1 5 2 6 29 8 30 9 91 10 31 11 90 12 32 13
REMARK SMILES IDX 33 14 34 15 84 16 35 17 89 18 83 19 85 20 36 21 88 22 82 23
REMARK SMILES IDX 81 24 37 26 69 27 49 28 68 29 50 30 53 31 67 32 86 33 51 34
REMARK SMILES IDX 52 35 66 37 87 38 54 39 38 40 39 41 47 42 40 43 46 44 48 45
REMARK SMILES IDX 45 46 41 47 42 48 43 49 44 50 70 51 71 52 79 53 72 54 78 55
REMARK SMILES IDX 80 56 77 57 73 58 74 59 75 60 76 61 55 62 56 63 64 64 57 65
REMARK SMILES IDX 63 66 65 67 62 68 58 69 59 70 60 71 61 72 7 73 8 74 9 75
REMARK SMILES IDX 10 76 11 77 12 79 13 80 14 81 28 82 15 83 27 84 26 85 16 86
REMARK SMILES IDX 17 87 18 88 19 89 20 90 21 91 25 92 22 93 24 94 23 95
REMARK H PARENT 3 7 85 25 53 36 10 78
REMARK Flexibility Score: inf
ROOT
ATOM      1  C   UNL A   1      31.798  29.774  26.878  1.00  0.00     0.002 C 
ENDROOT
BRANCH   1   2
ATOM      2  C   UNL A   1      31.710  31.269  26.565  1.00  0.00     0.021 C 
BRANCH   2   3
ATOM      3  C   UNL A   1      32.934  32.078  26.972  1.00  0.00     0.116 C 
BRANCH   3   4
ATOM      4  N   UNL A   1      32.589  33.435  27.360  1.00  0.00    -0.352 N 
ATOM      5  O   UNL A   1      32.560  35.250  28.698  1.00  0.00    -0.269 OA
ATOM      6  C   UNL A   1      33.097  34.189  28.387  1.00  0.00     0.251 C 
ATOM      7  H   UNL A   1      31.898  33.872  26.811  1.00  0.00     0.163 HD
BRANCH   6   8
ATOM      8  C   UNL A   1      34.289  33.712  29.120  1.00  0.00     0.039 A 
ATOM      9  C   UNL A   1      34.158  32.774  30.147  1.00  0.00     0.014 A 
ATOM     10  C   UNL A   1      35.552  34.187  28.755  1.00  0.00     0.014 A 
ATOM     11  C   UNL A   1      35.276  32.382  30.874  1.00  0.00     0.010 A 
ATOM     12  C   UNL A   1      36.685  33.731  29.434  1.00  0.00     0.010 A 
ATOM     13  C   UNL A   1      36.554  32.824  30.500  1.00  0.00    -0.014 A 
BRANCH  13  14
ATOM     14  C   UNL A   1      37.750  32.223  31.140  1.00  0.00     0.031 A 
ATOM     15  C   UNL A   1      38.502  31.097  30.492  1.00  0.00     0.074 A 
ATOM     16  C   UNL A   1      38.134  32.707  32.340  1.00  0.00     0.049 A 
ATOM     17  N   UNL A   1      39.532  30.432  30.946  1.00  0.00    -0.248 NA
ATOM     18  C   UNL A   1      38.036  30.654  29.169  1.00  0.00     0.031 C 
ATOM     19  C   UNL A   1      37.463  33.798  33.057  1.00  0.00     0.029 A 
ATOM     20  N   UNL A   1      39.163  32.353  33.172  1.00  0.00    -0.354 N 
ATOM     21  C   UNL A   1      39.830  29.478  29.979  1.00  0.00     0.074 A 
ATOM     22  C   UNL A   1      38.859  29.643  28.917  1.00  0.00     0.031 C 
ATOM     23  C   UNL A   1      38.108  34.032  34.208  1.00  0.00     0.029 A 
ATOM     24  C   UNL A   1      39.184  33.059  34.352  1.00  0.00     0.049 A 
ATOM     25  H   UNL A   1      39.824  31.658  32.947  1.00  0.00     0.167 HD
ATOM     26  C   UNL A   1      40.820  28.552  29.991  1.00  0.00     0.034 A 
ATOM     27  C   UNL A   1      39.946  32.912  35.453  1.00  0.00     0.034 A 
ATOM     28  C   UNL A   1      41.777  28.415  31.063  1.00  0.00     0.049 A 
ATOM     29  C   UNL A   1      40.995  31.831  35.456  1.00  0.00     0.074 A 
ATOM     30  C   UNL A   1      42.868  27.567  31.135  1.00  0.00     0.029 A 
ATOM     31  N   UNL A   1      41.742  29.119  32.260  1.00  0.00    -0.354 N 
ATOM     32  N   UNL A   1      41.308  30.985  34.502  1.00  0.00    -0.248 NA
ATOM     33  C   UNL A   1      41.790  31.680  36.680  1.00  0.00     0.031 C 
ATOM     34  C   UNL A   1      43.439  27.694  32.406  1.00  0.00     0.029 A 
ATOM     35  C   UNL A   1      42.756  28.680  33.098  1.00  0.00     0.049 A 
ATOM     36  H   UNL A   1      41.093  29.825  32.481  1.00  0.00     0.167 HD
ATOM     37  C   UNL A   1      42.345  30.211  35.009  1.00  0.00     0.074 A 
ATOM     38  C   UNL A   1      42.626  30.711  36.339  1.00  0.00     0.031 C 
ATOM     39  C   UNL A   1      43.006  29.177  34.430  1.00  0.00     0.034 A 
BRANCH  26  40
ATOM     40  C   UNL A   1      40.897  27.576  28.843  1.00  0.00     0.023 A 
ATOM     41  C   UNL A   1      41.836  27.712  27.806  1.00  0.00     0.031 A 
ATOM     42  C   UNL A   1      40.041  26.460  28.816  1.00  0.00     0.131 A 
ATOM     43  C   UNL A   1      41.872  26.765  26.768  1.00  0.00     0.055 A 
ATOM     44  C   UNL A   1      40.125  25.489  27.817  1.00  0.00     0.041 A 
ATOM     45  F   UNL A   1      39.112  26.290  29.771  1.00  0.00    -0.206 F 
ATOM     46  C   UNL A   1      41.041  25.642  26.781  1.00  0.00     0.022 A 
BRANCH  43  47
ATOM     47  S   UNL A   1      42.962  27.069  25.351  1.00  0.00     0.124 S 
ATOM     48  O   UNL A   1      42.851  25.813  24.612  1.00  0.00    -0.237 OA
ATOM     49  O   UNL A   1      42.349  28.232  24.722  1.00  0.00    -0.237 OA
ATOM     50  O   UNL A   1      44.267  27.308  25.964  1.00  0.00    -0.744 OA
ENDBRANCH  43  47
ENDBRANCH  26  40
BRANCH  27  51
ATOM     51  C   UNL A   1      39.701  33.746  36.663  1.00  0.00     0.023 A 
ATOM     52  C   UNL A   1      40.530  34.832  36.976  1.00  0.00     0.031 A 
ATOM     53  C   UNL A   1      38.664  33.429  37.562  1.00  0.00     0.131 A 
ATOM     54  C   UNL A   1      40.349  35.524  38.184  1.00  0.00     0.055 A 
ATOM     55  C   UNL A   1      38.444  34.165  38.727  1.00  0.00     0.041 A 
ATOM     56  F   UNL A   1      37.841  32.398  37.315  1.00  0.00    -0.206 F 
ATOM     57  C   UNL A   1      39.302  35.209  39.053  1.00  0.00     0.022 A 
BRANCH  54  58
ATOM     58  S   UNL A   1      41.586  36.760  38.664  1.00  0.00     0.124 S 
ATOM     59  O   UNL A   1      40.749  37.817  39.219  1.00  0.00    -0.237 OA
ATOM     60  O   UNL A   1      42.400  36.018  39.620  1.00  0.00    -0.237 OA
ATOM     61  O   UNL A   1      42.248  37.085  37.402  1.00  0.00    -0.744 OA
ENDBRANCH  54  58
ENDBRANCH  27  51
BRANCH  39  62
ATOM     62  C   UNL A   1      44.108  28.538  35.237  1.00  0.00     0.023 A 
ATOM     63  C   UNL A   1      43.853  27.456  36.097  1.00  0.00     0.031 A 
ATOM     64  C   UNL A   1      45.426  29.018  35.147  1.00  0.00     0.131 A 
ATOM     65  C   UNL A   1      44.892  26.920  36.872  1.00  0.00     0.055 A 
ATOM     66  C   UNL A   1      46.468  28.441  35.874  1.00  0.00     0.041 A 
ATOM     67  F   UNL A   1      45.722  30.052  34.345  1.00  0.00    -0.206 F 
ATOM     68  C   UNL A   1      46.202  27.393  36.750  1.00  0.00     0.022 A 
BRANCH  65  69
ATOM     69  S   UNL A   1      44.497  25.643  38.097  1.00  0.00     0.124 S 
ATOM     70  O   UNL A   1      43.979  26.437  39.205  1.00  0.00    -0.237 OA
ATOM     71  O   UNL A   1      43.519  24.821  37.390  1.00  0.00    -0.237 OA
ATOM     72  O   UNL A   1      45.784  24.996  38.344  1.00  0.00    -0.744 OA
ENDBRANCH  65  69
ENDBRANCH  39  62
ENDBRANCH  13  14
ENDBRANCH   6   8
ENDBRANCH   3   4
ENDBRANCH   2   3
ENDBRANCH   1   2
BRANCH   1  73
ATOM     73  C   UNL A   1      31.498  28.838  25.702  1.00  0.00     0.002 C 
BRANCH  73  74
ATOM     74  C   UNL A   1      32.142  29.231  24.369  1.00  0.00     0.021 C 
BRANCH  74  75
ATOM     75  C   UNL A   1      33.532  28.649  24.141  1.00  0.00     0.116 C 
BRANCH  75  76
ATOM     76  N   UNL A   1      33.667  28.015  22.841  1.00  0.00    -0.351 N 
ATOM     77  C   UNL A   1      33.488  26.690  22.509  1.00  0.00     0.269 C 
ATOM     78  H   UNL A   1      33.918  28.611  22.099  1.00  0.00     0.163 HD
ATOM     79  O   UNL A   1      33.675  26.314  21.355  1.00  0.00    -0.268 OA
BRANCH  77  80
ATOM     80  C   UNL A   1      33.071  25.728  23.565  1.00  0.00     0.129 A 
ATOM     81  C   UNL A   1      34.033  25.002  24.263  1.00  0.00     0.049 A 
ATOM     82  N   UNL A   1      31.732  25.590  23.738  1.00  0.00    -0.251 NA
ATOM     83  C   UNL A   1      33.595  24.018  25.138  1.00  0.00     0.012 A 
ATOM     84  C   UNL A   1      31.337  24.671  24.632  1.00  0.00     0.113 A 
ATOM     85  C   UNL A   1      32.217  23.867  25.336  1.00  0.00     0.035 A 
BRANCH  83  86
ATOM     86  S   UNL A   1      34.630  22.912  26.067  1.00  0.00    -0.116 SA
BRANCH  86  87
ATOM     87  C   UNL A   1      33.949  21.245  25.859  1.00  0.00     0.175 C 
BRANCH  87  88
ATOM     88  C   UNL A   1      34.720  20.222  25.040  1.00  0.00     0.233 C 
ATOM     89  O   UNL A   1      35.924  20.427  24.835  1.00  0.00    -0.274 OA
ATOM     90  N   UNL A   1      34.146  19.017  24.689  1.00  0.00    -0.337 N 
ATOM     91  C   UNL A   1      32.736  18.792  24.359  1.00  0.00     0.148 C 
ATOM     92  C   UNL A   1      35.017  17.876  24.367  1.00  0.00     0.148 C 
ATOM     93  C   UNL A   1      32.239  17.432  24.853  1.00  0.00     0.181 C 
ATOM     94  C   UNL A   1      34.427  16.571  24.913  1.00  0.00     0.181 C 
ATOM     95  O   UNL A   1      33.099  16.379  24.401  1.00  0.00    -0.378 OA
ENDBRANCH  87  88
ENDBRANCH  86  87
ENDBRANCH  83  86
ENDBRANCH  77  80
ENDBRANCH  75  76
ENDBRANCH  74  75
ENDBRANCH  73  74
ENDBRANCH   1  73
TORSDOF 19
ENDMDL
MODEL 2
REMARK VINA RESULT:     -11.3      1.434      1.967
REMARK SMILES O=C(NCCCCCCNC(=O)c1cc(SCC(=O)N2CCOCC2)ccn1)c1ccc(-c2c3nc(c(-c4cc(S(=O)(=O)[O-])ccc4F)c4ccc([nH]4)c(-c4cc(S(=O)(=O)[O-])ccc4F)c4nc(c(-c5cc(S(=O)(=O)[O-])ccc5F)c5ccc2[nH]5)C=C4)C=C3)cc1
REMARK SMILES IDX 6 1 5 2 4 3 3 4 1 5 2 6 29 8 30 9 91 10 31 11 90 12 32 13
REMARK SMILES IDX 33 14 34 15 84 16 35 17 89 18 83 19 85 20 36 21 88 22 82 23
REMARK SMILES IDX 81 24 37 26 69 27 49 28 68 29 50 30 53 31 67 32 86 33 51 34
REMARK SMILES IDX 52 35 66 37 87 38 54 39 38 40 39 41 47 42 40 43 46 44 48 45
REMARK SMILES IDX 45 46 41 47 42 48 43 49 44 50 70 51 71 52 79 53 72 54 78 55
REMARK SMILES IDX 80 56 77 57 73 58 74 59 75 60 76 61 55 62 56 63 64 64 57 65
REMARK SMILES IDX 63 66 65 67 62 68 58 69 59 70 60 71 61 72 7 73 8 74 9 75
REMARK SMILES IDX 10 76 11 77 12 79 13 80 14 81 28 82 15 83 27 84 26 85 16 86
REMARK SMILES IDX 17 87 18 88 19 89 20 90 21 91 25 92 22 93 24 94 23 95
REMARK H PARENT 3 7 85 25 53 36 10 78
REMARK Flexibility Score: inf
ROOT
ATOM      1  C   UNL A   1      31.774  30.512  26.242  1.00  0.00     0.002 C 
ENDROOT
BRANCH   1   2
ATOM      2  C   UNL A   1      31.535  31.895  26.852  1.00  0.00     0.021 C 
BRANCH   2   3
ATOM      3  C   UNL A   1      32.801  32.645  27.244  1.00  0.00     0.116 C 
BRANCH   3   4
ATOM      4  N   UNL A   1      32.525  34.019  27.627  1.00  0.00    -0.352 N 
ATOM      5  O   UNL A   1      32.612  35.844  28.949  1.00  0.00    -0.269 OA
ATOM      6  C   UNL A   1      33.093  34.758  28.633  1.00  0.00     0.251 C 
ATOM      7  H   UNL A   1      31.839  34.482  27.093  1.00  0.00     0.163 HD
BRANCH   6   8
ATOM      8  C   UNL A   1      34.283  34.236  29.339  1.00  0.00     0.039 A 
ATOM      9  C   UNL A   1      34.135  33.407  30.454  1.00  0.00     0.014 A 
ATOM     10  C   UNL A   1      35.557  34.556  28.862  1.00  0.00     0.014 A 
ATOM     11  C   UNL A   1      35.258  32.975  31.149  1.00  0.00     0.010 A 
ATOM     12  C   UNL A   1      36.686  34.054  29.515  1.00  0.00     0.010 A 
ATOM     13  C   UNL A   1      36.544  33.260  30.665  1.00  0.00    -0.014 A 
BRANCH  13  14
ATOM     14  C   UNL A   1      37.721  32.606  31.289  1.00  0.00     0.031 A 
ATOM     15  C   UNL A   1      38.437  31.473  30.613  1.00  0.00     0.074 A 
ATOM     16  C   UNL A   1      38.119  33.047  32.501  1.00  0.00     0.049 A 
ATOM     17  N   UNL A   1      39.445  30.765  31.049  1.00  0.00    -0.248 NA
ATOM     18  C   UNL A   1      37.958  31.079  29.279  1.00  0.00     0.031 C 
ATOM     19  C   UNL A   1      37.482  34.139  33.246  1.00  0.00     0.029 A 
ATOM     20  N   UNL A   1      39.136  32.639  33.323  1.00  0.00    -0.354 N 
ATOM     21  C   UNL A   1      39.714  29.827  30.058  1.00  0.00     0.074 A 
ATOM     22  C   UNL A   1      38.749  30.050  29.001  1.00  0.00     0.031 C 
ATOM     23  C   UNL A   1      38.133  34.324  34.402  1.00  0.00     0.029 A 
ATOM     24  C   UNL A   1      39.178  33.315  34.521  1.00  0.00     0.049 A 
ATOM     25  H   UNL A   1      39.775  31.931  33.080  1.00  0.00     0.167 HD
ATOM     26  C   UNL A   1      40.674  28.871  30.046  1.00  0.00     0.034 A 
ATOM     27  C   UNL A   1      39.935  33.116  35.617  1.00  0.00     0.034 A 
ATOM     28  C   UNL A   1      41.626  28.676  31.114  1.00  0.00     0.049 A 
ATOM     29  C   UNL A   1      40.950  32.003  35.592  1.00  0.00     0.074 A 
ATOM     30  C   UNL A   1      42.691  27.794  31.164  1.00  0.00     0.029 A 
ATOM     31  N   UNL A   1      41.613  29.351  32.329  1.00  0.00    -0.354 N 
ATOM     32  N   UNL A   1      41.236  31.173  34.617  1.00  0.00    -0.248 NA
ATOM     33  C   UNL A   1      41.739  31.797  36.812  1.00  0.00     0.031 C 
ATOM     34  C   UNL A   1      43.265  27.871  32.437  1.00  0.00     0.029 A 
ATOM     35  C   UNL A   1      42.612  28.859  33.155  1.00  0.00     0.049 A 
ATOM     36  H   UNL A   1      40.986  30.071  32.568  1.00  0.00     0.167 HD
ATOM     37  C   UNL A   1      42.249  30.354  35.104  1.00  0.00     0.074 A 
ATOM     38  C   UNL A   1      42.545  30.811  36.446  1.00  0.00     0.031 C 
ATOM     39  C   UNL A   1      42.878  29.314  34.499  1.00  0.00     0.034 A 
BRANCH  26  40
ATOM     40  C   UNL A   1      40.722  27.922  28.874  1.00  0.00     0.023 A 
ATOM     41  C   UNL A   1      41.669  28.051  27.844  1.00  0.00     0.031 A 
ATOM     42  C   UNL A   1      39.826  26.838  28.816  1.00  0.00     0.131 A 
ATOM     43  C   UNL A   1      41.676  27.131  26.782  1.00  0.00     0.055 A 
ATOM     44  C   UNL A   1      39.880  25.891  27.792  1.00  0.00     0.041 A 
ATOM     45  F   UNL A   1      38.888  26.677  29.762  1.00  0.00    -0.206 F 
ATOM     46  C   UNL A   1      40.805  26.038  26.763  1.00  0.00     0.022 A 
BRANCH  43  47
ATOM     47  S   UNL A   1      42.782  27.432  25.376  1.00  0.00     0.124 S 
ATOM     48  O   UNL A   1      42.133  28.567  24.722  1.00  0.00    -0.237 OA
ATOM     49  O   UNL A   1      44.054  27.716  26.028  1.00  0.00    -0.237 OA
ATOM     50  O   UNL A   1      42.733  26.178  24.625  1.00  0.00    -0.744 OA
ENDBRANCH  43  47
ENDBRANCH  26  40
BRANCH  27  51
ATOM     51  C   UNL A   1      39.715  33.927  36.848  1.00  0.00     0.023 A 
ATOM     52  C   UNL A   1      40.549  35.009  37.163  1.00  0.00     0.031 A 
ATOM     53  C   UNL A   1      38.701  33.590  37.765  1.00  0.00     0.131 A 
ATOM     54  C   UNL A   1      40.394  35.677  38.388  1.00  0.00     0.055 A 
ATOM     55  C   UNL A   1      38.505  34.302  38.948  1.00  0.00     0.041 A 
ATOM     56  F   UNL A   1      37.874  32.561  37.517  1.00  0.00    -0.206 F 
ATOM     57  C   UNL A   1      39.368  35.343  39.274  1.00  0.00     0.022 A 
BRANCH  54  58
ATOM     58  S   UNL A   1      41.638  36.908  38.863  1.00  0.00     0.124 S 
ATOM     59  O   UNL A   1      42.412  36.177  39.860  1.00  0.00    -0.237 OA
ATOM     60  O   UNL A   1      42.308  37.166  37.593  1.00  0.00    -0.237 OA
ATOM     61  O   UNL A   1      40.838  38.016  39.382  1.00  0.00    -0.744 OA
ENDBRANCH  54  58
ENDBRANCH  27  51
BRANCH  39  62
ATOM     62  C   UNL A   1      43.958  28.621  35.289  1.00  0.00     0.023 A 
ATOM     63  C   UNL A   1      43.675  27.507  36.097  1.00  0.00     0.031 A 
ATOM     64  C   UNL A   1      45.285  29.082  35.236  1.00  0.00     0.131 A 
ATOM     65  C   UNL A   1      44.696  26.919  36.859  1.00  0.00     0.055 A 
ATOM     66  C   UNL A   1      46.308  28.455  35.947  1.00  0.00     0.041 A 
ATOM     67  F   UNL A   1      45.609  30.145  34.484  1.00  0.00    -0.206 F 
ATOM     68  C   UNL A   1      46.014  27.374  36.773  1.00  0.00     0.022 A 
BRANCH  65  69
ATOM     69  S   UNL A   1      44.264  25.595  38.021  1.00  0.00     0.124 S 
ATOM     70  O   UNL A   1      45.466  24.769  37.998  1.00  0.00    -0.237 OA
ATOM     71  O   UNL A   1      44.018  26.330  39.257  1.00  0.00    -0.237 OA
ATOM     72  O   UNL A   1      43.079  24.985  37.419  1.00  0.00    -0.744 OA
ENDBRANCH  65  69
ENDBRANCH  39  62
ENDBRANCH  13  14
ENDBRANCH   6   8
ENDBRANCH   3   4
ENDBRANCH   2   3
ENDBRANCH   1   2
BRANCH   1  73
ATOM     73  C   UNL A   1      32.135  29.407  27.241  1.00  0.00     0.002 C 
BRANCH  73  74
ATOM     74  C   UNL A   1      33.604  28.975  27.241  1.00  0.00     0.021 C 
BRANCH  74  75
ATOM     75  C   UNL A   1      33.964  27.956  26.167  1.00  0.00     0.116 C 
BRANCH  75  76
ATOM     76  N   UNL A   1      34.127  28.559  24.856  1.00  0.00    -0.351 N 
ATOM     77  C   UNL A   1      33.358  28.381  23.728  1.00  0.00     0.269 C 
ATOM     78  H   UNL A   1      34.888  29.176  24.761  1.00  0.00     0.163 HD
ATOM     79  O   UNL A   1      33.658  28.950  22.682  1.00  0.00    -0.268 OA
BRANCH  77  80
ATOM     80  C   UNL A   1      32.166  27.491  23.795  1.00  0.00     0.129 A 
ATOM     81  C   UNL A   1      32.331  26.108  23.795  1.00  0.00     0.049 A 
ATOM     82  N   UNL A   1      30.964  28.120  23.801  1.00  0.00    -0.251 NA
ATOM     83  C   UNL A   1      31.191  25.320  23.719  1.00  0.00     0.012 A 
ATOM     84  C   UNL A   1      29.877  27.332  23.785  1.00  0.00     0.113 A 
ATOM     85  C   UNL A   1      29.941  25.951  23.733  1.00  0.00     0.035 A 
BRANCH  83  86
ATOM     86  S   UNL A   1      31.155  23.546  23.616  1.00  0.00    -0.116 SA
BRANCH  86  87
ATOM     87  C   UNL A   1      32.522  23.047  22.536  1.00  0.00     0.175 C 
BRANCH  87  88
ATOM     88  C   UNL A   1      33.944  23.071  23.075  1.00  0.00     0.233 C 
ATOM     89  O   UNL A   1      34.761  23.824  22.529  1.00  0.00    -0.274 OA
ATOM     90  N   UNL A   1      34.270  22.413  24.244  1.00  0.00    -0.337 N 
ATOM     91  C   UNL A   1      33.700  21.148  24.715  1.00  0.00     0.148 C 
ATOM     92  C   UNL A   1      35.454  22.845  25.001  1.00  0.00     0.148 C 
ATOM     93  C   UNL A   1      33.548  21.115  26.236  1.00  0.00     0.181 C 
ATOM     94  C   UNL A   1      35.188  22.779  26.510  1.00  0.00     0.181 C 
ATOM     95  O   UNL A   1      34.782  21.453  26.880  1.00  0.00    -0.378 OA
ENDBRANCH  87  88
ENDBRANCH  86  87
ENDBRANCH  83  86
ENDBRANCH  77  80
ENDBRANCH  75  76
ENDBRANCH  74  75
ENDBRANCH  73  74
ENDBRANCH   1  73
TORSDOF 19
ENDMDL
MODEL 3
REMARK VINA RESULT:     -11.2      2.366      2.831
REMARK SMILES O=C(NCCCCCCNC(=O)c1cc(SCC(=O)N2CCOCC2)ccn1)c1ccc(-c2c3nc(c(-c4cc(S(=O)(=O)[O-])ccc4F)c4ccc([nH]4)c(-c4cc(S(=O)(=O)[O-])ccc4F)c4nc(c(-c5cc(S(=O)(=O)[O-])ccc5F)c5ccc2[nH]5)C=C4)C=C3)cc1
REMARK SMILES IDX 6 1 5 2 4 3 3 4 1 5 2 6 29 8 30 9 91 10 31 11 90 12 32 13
REMARK SMILES IDX 33 14 34 15 84 16 35 17 89 18 83 19 85 20 36 21 88 22 82 23
REMARK SMILES IDX 81 24 37 26 69 27 49 28 68 29 50 30 53 31 67 32 86 33 51 34
REMARK SMILES IDX 52 35 66 37 87 38 54 39 38 40 39 41 47 42 40 43 46 44 48 45
REMARK SMILES IDX 45 46 41 47 42 48 43 49 44 50 70 51 71 52 79 53 72 54 78 55
REMARK SMILES IDX 80 56 77 57 73 58 74 59 75 60 76 61 55 62 56 63 64 64 57 65
REMARK SMILES IDX 63 66 65 67 62 68 58 69 59 70 60 71 61 72 7 73 8 74 9 75
REMARK SMILES IDX 10 76 11 77 12 79 13 80 14 81 28 82 15 83 27 84 26 85 16 86
REMARK SMILES IDX 17 87 18 88 19 89 20 90 21 91 25 92 22 93 24 94 23 95
REMARK H PARENT 3 7 85 25 53 36 10 78
REMARK Flexibility Score: inf
ROOT
ATOM      1  C   UNL A   1      31.363  29.603  25.633  1.00  0.00     0.002 C 
ENDROOT
BRANCH   1   2
ATOM      2  C   UNL A   1      31.347  31.068  26.072  1.00  0.00     0.021 C 
BRANCH   2   3
ATOM      3  C   UNL A   1      32.626  31.544  26.748  1.00  0.00     0.116 C 
BRANCH   3   4
ATOM      4  N   UNL A   1      32.554  32.944  27.131  1.00  0.00    -0.352 N 
ATOM      5  O   UNL A   1      33.014  34.761  28.383  1.00  0.00    -0.269 OA
ATOM      6  C   UNL A   1      33.329  33.626  28.033  1.00  0.00     0.251 C 
ATOM      7  H   UNL A   1      31.855  33.473  26.682  1.00  0.00     0.163 HD
BRANCH   6   8
ATOM      8  C   UNL A   1      34.541  32.984  28.585  1.00  0.00     0.039 A 
ATOM      9  C   UNL A   1      35.809  33.478  28.267  1.00  0.00     0.014 A 
ATOM     10  C   UNL A   1      34.405  31.896  29.452  1.00  0.00     0.014 A 
ATOM     11  C   UNL A   1      36.944  32.828  28.738  1.00  0.00     0.010 A 
ATOM     12  C   UNL A   1      35.545  31.293  29.989  1.00  0.00     0.010 A 
ATOM     13  C   UNL A   1      36.824  31.755  29.635  1.00  0.00    -0.014 A 
BRANCH  13  14
ATOM     14  C   UNL A   1      38.038  31.220  30.299  1.00  0.00     0.031 A 
ATOM     15  C   UNL A   1      38.922  30.215  29.622  1.00  0.00     0.074 A 
ATOM     16  C   UNL A   1      38.315  31.650  31.548  1.00  0.00     0.049 A 
ATOM     17  N   UNL A   1      39.986  29.614  30.086  1.00  0.00    -0.248 NA
ATOM     18  C   UNL A   1      38.566  29.827  28.248  1.00  0.00     0.031 C 
ATOM     19  C   UNL A   1      37.511  32.622  32.298  1.00  0.00     0.029 A 
ATOM     20  N   UNL A   1      39.331  31.331  32.411  1.00  0.00    -0.354 N 
ATOM     21  C   UNL A   1      40.419  28.762  29.077  1.00  0.00     0.074 A 
ATOM     22  C   UNL A   1      39.491  28.915  27.975  1.00  0.00     0.031 C 
ATOM     23  C   UNL A   1      38.073  32.831  33.496  1.00  0.00     0.029 A 
ATOM     24  C   UNL A   1      39.227  31.951  33.635  1.00  0.00     0.049 A 
ATOM     25  H   UNL A   1      40.064  30.717  32.177  1.00  0.00     0.167 HD
ATOM     26  C   UNL A   1      41.490  27.930  29.082  1.00  0.00     0.034 A 
ATOM     27  C   UNL A   1      39.944  31.794  34.764  1.00  0.00     0.034 A 
ATOM     28  C   UNL A   1      42.401  27.804  30.194  1.00  0.00     0.049 A 
ATOM     29  C   UNL A   1      41.088  30.815  34.753  1.00  0.00     0.074 A 
ATOM     30  C   UNL A   1      43.563  27.055  30.270  1.00  0.00     0.029 A 
ATOM     31  N   UNL A   1      42.242  28.415  31.432  1.00  0.00    -0.354 N 
ATOM     32  N   UNL A   1      41.525  30.071  33.764  1.00  0.00    -0.248 NA
ATOM     33  C   UNL A   1      41.833  30.649  36.008  1.00  0.00     0.031 C 
ATOM     34  C   UNL A   1      44.056  27.142  31.576  1.00  0.00     0.029 A 
ATOM     35  C   UNL A   1      43.250  28.010  32.294  1.00  0.00     0.049 A 
ATOM     36  H   UNL A   1      41.520  29.042  31.663  1.00  0.00     0.167 HD
ATOM     37  C   UNL A   1      42.605  29.359  34.276  1.00  0.00     0.074 A 
ATOM     38  C   UNL A   1      42.772  29.786  35.650  1.00  0.00     0.031 C 
ATOM     39  C   UNL A   1      43.387  28.432  33.668  1.00  0.00     0.034 A 
BRANCH  26  40
ATOM     40  C   UNL A   1      41.715  27.049  27.878  1.00  0.00     0.023 A 
ATOM     41  C   UNL A   1      41.309  25.705  27.847  1.00  0.00     0.031 A 
ATOM     42  C   UNL A   1      42.308  27.587  26.720  1.00  0.00     0.131 A 
ATOM     43  C   UNL A   1      41.533  24.934  26.694  1.00  0.00     0.055 A 
ATOM     44  C   UNL A   1      42.469  26.834  25.557  1.00  0.00     0.041 A 
ATOM     45  F   UNL A   1      42.732  28.861  26.700  1.00  0.00    -0.206 F 
ATOM     46  C   UNL A   1      42.086  25.497  25.540  1.00  0.00     0.022 A 
BRANCH  43  47
ATOM     47  S   UNL A   1      41.172  23.157  26.751  1.00  0.00     0.124 S 
ATOM     48  O   UNL A   1      42.011  22.646  25.668  1.00  0.00    -0.237 OA
ATOM     49  O   UNL A   1      41.585  22.792  28.100  1.00  0.00    -0.237 OA
ATOM     50  O   UNL A   1      39.734  23.089  26.499  1.00  0.00    -0.744 OA
ENDBRANCH  43  47
ENDBRANCH  26  40
BRANCH  27  51
ATOM     51  C   UNL A   1      39.563  32.516  36.011  1.00  0.00     0.023 A 
ATOM     52  C   UNL A   1      38.713  31.928  36.958  1.00  0.00     0.031 A 
ATOM     53  C   UNL A   1      39.996  33.835  36.245  1.00  0.00     0.131 A 
ATOM     54  C   UNL A   1      38.274  32.675  38.063  1.00  0.00     0.055 A 
ATOM     55  C   UNL A   1      39.614  34.549  37.381  1.00  0.00     0.041 A 
ATOM     56  F   UNL A   1      40.808  34.450  35.371  1.00  0.00    -0.206 F 
ATOM     57  C   UNL A   1      38.731  33.976  38.289  1.00  0.00     0.022 A 
BRANCH  54  58
ATOM     58  S   UNL A   1      36.991  31.966  39.130  1.00  0.00     0.124 S 
ATOM     59  O   UNL A   1      35.831  32.776  38.779  1.00  0.00    -0.237 OA
ATOM     60  O   UNL A   1      36.962  30.577  38.685  1.00  0.00    -0.237 OA
ATOM     61  O   UNL A   1      37.517  32.177  40.478  1.00  0.00    -0.744 OA
ENDBRANCH  54  58
ENDBRANCH  27  51
BRANCH  39  62
ATOM     62  C   UNL A   1      44.502  27.839  34.490  1.00  0.00     0.023 A 
ATOM     63  C   UNL A   1      44.350  26.608  35.152  1.00  0.00     0.031 A 
ATOM     64  C   UNL A   1      45.729  28.514  34.617  1.00  0.00     0.131 A 
ATOM     65  C   UNL A   1      45.391  26.112  35.950  1.00  0.00     0.055 A 
ATOM     66  C   UNL A   1      46.783  27.985  35.363  1.00  0.00     0.041 A 
ATOM     67  F   UNL A   1      45.924  29.695  34.011  1.00  0.00    -0.206 F 
ATOM     68  C   UNL A   1      46.613  26.783  36.044  1.00  0.00     0.022 A 
BRANCH  65  69
ATOM     69  S   UNL A   1      45.100  24.611  36.926  1.00  0.00     0.124 S 
ATOM     70  O   UNL A   1      46.435  24.026  36.987  1.00  0.00    -0.237 OA
ATOM     71  O   UNL A   1      44.582  25.147  38.180  1.00  0.00    -0.237 OA
ATOM     72  O   UNL A   1      44.131  23.865  36.125  1.00  0.00    -0.744 OA
ENDBRANCH  65  69
ENDBRANCH  39  62
ENDBRANCH  13  14
ENDBRANCH   6   8
ENDBRANCH   3   4
ENDBRANCH   2   3
ENDBRANCH   1   2
BRANCH   1  73
ATOM     73  C   UNL A   1      30.839  29.336  24.217  1.00  0.00     0.002 C 
BRANCH  73  74
ATOM     74  C   UNL A   1      31.517  28.183  23.472  1.00  0.00     0.021 C 
BRANCH  74  75
ATOM     75  C   UNL A   1      30.645  26.947  23.290  1.00  0.00     0.116 C 
BRANCH  75  76
ATOM     76  N   UNL A   1      29.996  26.533  24.522  1.00  0.00    -0.351 N 
ATOM     77  C   UNL A   1      30.508  25.767  25.546  1.00  0.00     0.269 C 
ATOM     78  H   UNL A   1      29.069  26.840  24.641  1.00  0.00     0.163 HD
ATOM     79  O   UNL A   1      29.805  25.482  26.512  1.00  0.00    -0.268 OA
BRANCH  77  80
ATOM     80  C   UNL A   1      31.916  25.292  25.463  1.00  0.00     0.129 A 
ATOM     81  C   UNL A   1      32.183  23.951  25.198  1.00  0.00     0.049 A 
ATOM     82  N   UNL A   1      32.867  26.228  25.712  1.00  0.00    -0.251 NA
ATOM     83  C   UNL A   1      33.502  23.527  25.267  1.00  0.00     0.012 A 
ATOM     84  C   UNL A   1      34.139  25.801  25.716  1.00  0.00     0.113 A 
ATOM     85  C   UNL A   1      34.498  24.480  25.513  1.00  0.00     0.035 A 
BRANCH  83  86
ATOM     86  S   UNL A   1      34.072  21.857  25.056  1.00  0.00    -0.116 SA
BRANCH  86  87
ATOM     87  C   UNL A   1      32.609  20.788  25.073  1.00  0.00     0.175 C 
BRANCH  87  88
ATOM     88  C   UNL A   1      32.390  19.805  23.933  1.00  0.00     0.233 C 
ATOM     89  O   UNL A   1      32.125  20.262  22.814  1.00  0.00    -0.274 OA
ATOM     90  N   UNL A   1      32.657  18.461  24.096  1.00  0.00    -0.337 N 
ATOM     91  C   UNL A   1      32.461  17.680  25.321  1.00  0.00     0.148 C 
ATOM     92  C   UNL A   1      32.932  17.637  22.909  1.00  0.00     0.148 C 
ATOM     93  C   UNL A   1      33.543  16.614  25.504  1.00  0.00     0.181 C 
ATOM     94  C   UNL A   1      34.032  16.611  23.203  1.00  0.00     0.181 C 
ATOM     95  O   UNL A   1      33.663  15.802  24.330  1.00  0.00    -0.378 OA
ENDBRANCH  87  88
ENDBRANCH  86  87
ENDBRANCH  83  86
ENDBRANCH  77  80
ENDBRANCH  75  76
ENDBRANCH  74  75
ENDBRANCH  73  74
ENDBRANCH   1  73
TORSDOF 19
ENDMDL
