MODEL 1
REMARK VINA RESULT:     -11.3      0.000      0.000
REMARK SMILES CCN(C)C(=O)Cn1ccc2c(C(=O)NCCCCCCNC(=O)c3ccc(-c4c5nc(c(-c6cc(S(=O)(=O)[O-])ccc6F)c6ccc([nH]6)c(-c6cc(S(=O)(=O)[O-])ccc6F)c6nc(c(-c7cc(S(=O)(=O)[O-])ccc7F)c7ccc4[nH]7)C=C6)C=C5)cc3)cccc21
REMARK SMILES IDX 18 1 17 2 16 3 15 4 13 5 14 6 12 8 8 9 9 10 91 11 10 12
REMARK SMILES IDX 11 13 90 14 89 15 88 16 7 17 5 18 6 19 3 20 4 21 2 22 1 23
REMARK SMILES IDX 19 24 20 25 21 26 22 27 23 28 24 30 25 31 26 32 87 33 27 34
REMARK SMILES IDX 86 35 28 36 29 37 30 38 80 39 31 40 85 41 79 42 81 43 32 44
REMARK SMILES IDX 84 45 78 46 77 47 33 49 65 50 45 51 64 52 46 53 49 54 63 55
REMARK SMILES IDX 82 56 47 57 48 58 62 60 83 61 50 62 34 63 35 64 43 65 36 66
REMARK SMILES IDX 42 67 44 68 41 69 37 70 38 71 39 72 40 73 66 74 67 75 75 76
REMARK SMILES IDX 68 77 74 78 76 79 73 80 69 81 70 82 71 83 72 84 51 85 52 86
REMARK SMILES IDX 60 87 53 88 59 89 61 90 58 91 54 92 55 93 56 94 57 95
REMARK H PARENT 15 7 22 29 81 48 49 59
REMARK Flexibility Score: inf
ROOT
ATOM      1  C   UNL A   1      30.707  27.787  25.441  1.00  0.00     0.002 C 
ENDROOT
BRANCH   1   2
ATOM      2  C   UNL A   1      30.977  28.793  24.310  1.00  0.00     0.021 C 
BRANCH   2   3
ATOM      3  C   UNL A   1      30.664  28.226  22.924  1.00  0.00     0.116 C 
BRANCH   3   4
ATOM      4  N   UNL A   1      31.897  27.938  22.221  1.00  0.00    -0.352 N 
ATOM      5  C   UNL A   1      33.025  27.203  22.475  1.00  0.00     0.251 C 
ATOM      6  O   UNL A   1      33.904  27.309  21.615  1.00  0.00    -0.269 OA
ATOM      7  H   UNL A   1      31.934  28.379  21.342  1.00  0.00     0.163 HD
BRANCH   5   8
ATOM      8  C   UNL A   1      33.231  26.291  23.648  1.00  0.00     0.049 A 
ATOM      9  N   UNL A   1      31.739  23.164  24.640  1.00  0.00    -0.338 N 
ATOM     10  C   UNL A   1      31.199  23.218  23.384  1.00  0.00     0.087 A 
ATOM     11  C   UNL A   1      32.580  24.248  24.835  1.00  0.00     0.049 A 
ATOM     12  C   UNL A   1      31.578  24.410  22.817  1.00  0.00     0.029 A 
ATOM     13  C   UNL A   1      32.481  25.075  23.706  1.00  0.00     0.012 A 
ATOM     14  C   UNL A   1      33.412  24.559  25.918  1.00  0.00     0.027 A 
ATOM     15  C   UNL A   1      34.202  25.697  25.822  1.00  0.00     0.003 A 
ATOM     16  C   UNL A   1      34.134  26.525  24.700  1.00  0.00     0.014 A 
BRANCH   9  17
ATOM     17  C   UNL A   1      31.504  22.118  25.629  1.00  0.00     0.222 C 
BRANCH  17  18
ATOM     18  C   UNL A   1      32.439  20.926  25.542  1.00  0.00     0.242 C 
ATOM     19  O   UNL A   1      32.029  19.871  25.047  1.00  0.00    -0.273 OA
BRANCH  18  20
ATOM     20  N   UNL A   1      33.751  21.060  25.992  1.00  0.00    -0.344 N 
ATOM     21  C   UNL A   1      34.115  21.434  27.356  1.00  0.00     0.146 C 
BRANCH  20  22
ATOM     22  C   UNL A   1      34.833  20.701  25.077  1.00  0.00     0.115 C 
ATOM     23  C   UNL A   1      35.396  21.900  24.326  1.00  0.00     0.027 C 
ENDBRANCH  20  22
ENDBRANCH  18  20
ENDBRANCH  17  18
ENDBRANCH   9  17
ENDBRANCH   5   8
ENDBRANCH   3   4
ENDBRANCH   2   3
ENDBRANCH   1   2
BRANCH   1  24
ATOM     24  C   UNL A   1      31.564  27.989  26.699  1.00  0.00     0.002 C 
BRANCH  24  25
ATOM     25  C   UNL A   1      31.860  29.453  27.054  1.00  0.00     0.021 C 
BRANCH  25  26
ATOM     26  C   UNL A   1      33.351  29.786  27.079  1.00  0.00     0.116 C 
BRANCH  26  27
ATOM     27  N   UNL A   1      33.612  31.152  27.477  1.00  0.00    -0.352 N 
ATOM     28  C   UNL A   1      34.686  31.818  27.997  1.00  0.00     0.251 C 
ATOM     29  H   UNL A   1      32.835  31.739  27.342  1.00  0.00     0.163 HD
ATOM     30  O   UNL A   1      34.514  33.025  28.197  1.00  0.00    -0.269 OA
BRANCH  28  31
ATOM     31  C   UNL A   1      35.986  31.200  28.380  1.00  0.00     0.039 A 
ATOM     32  C   UNL A   1      37.069  31.862  28.960  1.00  0.00     0.014 A 
ATOM     33  C   UNL A   1      36.119  29.829  28.089  1.00  0.00     0.014 A 
ATOM     34  C   UNL A   1      38.279  31.201  29.151  1.00  0.00     0.010 A 
ATOM     35  C   UNL A   1      37.318  29.157  28.298  1.00  0.00     0.010 A 
ATOM     36  C   UNL A   1      38.414  29.860  28.783  1.00  0.00    -0.014 A 
BRANCH  36  37
ATOM     37  C   UNL A   1      39.707  29.217  29.009  1.00  0.00     0.031 A 
ATOM     38  C   UNL A   1      40.010  28.904  30.436  1.00  0.00     0.074 A 
ATOM     39  C   UNL A   1      40.533  28.842  28.011  1.00  0.00     0.049 A 
ATOM     40  N   UNL A   1      40.954  29.382  31.178  1.00  0.00    -0.248 NA
ATOM     41  C   UNL A   1      39.060  28.047  31.162  1.00  0.00     0.031 C 
ATOM     42  C   UNL A   1      40.250  28.784  26.574  1.00  0.00     0.029 A 
ATOM     43  N   UNL A   1      41.787  28.318  28.092  1.00  0.00    -0.354 N 
ATOM     44  C   UNL A   1      40.831  28.759  32.423  1.00  0.00     0.074 A 
ATOM     45  C   UNL A   1      39.570  28.061  32.394  1.00  0.00     0.031 C 
ATOM     46  C   UNL A   1      41.188  28.021  25.967  1.00  0.00     0.029 A 
ATOM     47  C   UNL A   1      42.212  27.673  26.938  1.00  0.00     0.049 A 
ATOM     48  H   UNL A   1      42.344  28.389  28.900  1.00  0.00     0.167 HD
ATOM     49  C   UNL A   1      41.855  28.728  33.325  1.00  0.00     0.034 A 
ATOM     50  C   UNL A   1      43.276  26.839  26.818  1.00  0.00     0.034 A 
ATOM     51  C   UNL A   1      42.881  29.670  32.975  1.00  0.00     0.049 A 
ATOM     52  C   UNL A   1      44.171  27.055  27.982  1.00  0.00     0.074 A 
ATOM     53  C   UNL A   1      42.943  31.044  32.878  1.00  0.00     0.029 A 
ATOM     54  N   UNL A   1      43.984  29.191  32.312  1.00  0.00    -0.354 N 
ATOM     55  N   UNL A   1      44.881  28.130  28.167  1.00  0.00    -0.248 NA
ATOM     56  C   UNL A   1      43.919  26.255  29.172  1.00  0.00     0.031 C 
ATOM     57  C   UNL A   1      43.784  31.291  31.759  1.00  0.00     0.029 A 
ATOM     58  C   UNL A   1      44.248  30.061  31.286  1.00  0.00     0.049 A 
ATOM     59  H   UNL A   1      44.491  28.376  32.532  1.00  0.00     0.167 HD
ATOM     60  C   UNL A   1      44.756  28.391  29.523  1.00  0.00     0.074 A 
ATOM     61  C   UNL A   1      44.234  27.156  30.105  1.00  0.00     0.031 C 
ATOM     62  C   UNL A   1      44.809  29.664  30.011  1.00  0.00     0.034 A 
BRANCH  49  63
ATOM     63  C   UNL A   1      42.080  27.642  34.350  1.00  0.00     0.023 A 
ATOM     64  C   UNL A   1      42.836  26.486  34.088  1.00  0.00     0.031 A 
ATOM     65  C   UNL A   1      41.735  27.855  35.704  1.00  0.00     0.131 A 
ATOM     66  C   UNL A   1      43.221  25.611  35.113  1.00  0.00     0.055 A 
ATOM     67  C   UNL A   1      42.174  27.016  36.736  1.00  0.00     0.041 A 
ATOM     68  F   UNL A   1      41.009  28.920  36.076  1.00  0.00    -0.206 F 
ATOM     69  C   UNL A   1      42.927  25.887  36.444  1.00  0.00     0.022 A 
BRANCH  66  70
ATOM     70  S   UNL A   1      44.139  24.095  34.729  1.00  0.00     0.124 S 
ATOM     71  O   UNL A   1      45.093  24.033  35.827  1.00  0.00    -0.237 OA
ATOM     72  O   UNL A   1      43.077  23.094  34.751  1.00  0.00    -0.237 OA
ATOM     73  O   UNL A   1      44.704  24.367  33.407  1.00  0.00    -0.744 OA
ENDBRANCH  66  70
ENDBRANCH  49  63
BRANCH  50  74
ATOM     74  C   UNL A   1      43.299  25.559  26.068  1.00  0.00     0.023 A 
ATOM     75  C   UNL A   1      42.403  24.534  26.424  1.00  0.00     0.031 A 
ATOM     76  C   UNL A   1      44.385  25.210  25.248  1.00  0.00     0.131 A 
ATOM     77  C   UNL A   1      42.631  23.213  26.019  1.00  0.00     0.055 A 
ATOM     78  C   UNL A   1      44.600  23.892  24.824  1.00  0.00     0.041 A 
ATOM     79  F   UNL A   1      45.301  26.129  24.903  1.00  0.00    -0.206 F 
ATOM     80  C   UNL A   1      43.729  22.883  25.224  1.00  0.00     0.022 A 
BRANCH  77  81
ATOM     81  S   UNL A   1      41.554  21.880  26.610  1.00  0.00     0.124 S 
ATOM     82  O   UNL A   1      42.259  20.686  26.150  1.00  0.00    -0.237 OA
ATOM     83  O   UNL A   1      41.569  22.104  28.051  1.00  0.00    -0.237 OA
ATOM     84  O   UNL A   1      40.284  22.143  25.938  1.00  0.00    -0.744 OA
ENDBRANCH  77  81
ENDBRANCH  50  74
BRANCH  62  85
ATOM     85  C   UNL A   1      45.241  30.795  29.105  1.00  0.00     0.023 A 
ATOM     86  C   UNL A   1      46.536  31.303  29.311  1.00  0.00     0.031 A 
ATOM     87  C   UNL A   1      44.382  31.527  28.265  1.00  0.00     0.131 A 
ATOM     88  C   UNL A   1      46.918  32.523  28.745  1.00  0.00     0.055 A 
ATOM     89  C   UNL A   1      44.796  32.706  27.635  1.00  0.00     0.041 A 
ATOM     90  F   UNL A   1      43.096  31.185  28.100  1.00  0.00    -0.206 F 
ATOM     91  C   UNL A   1      46.062  33.222  27.892  1.00  0.00     0.022 A 
BRANCH  88  92
ATOM     92  S   UNL A   1      48.461  33.317  29.266  1.00  0.00     0.124 S 
ATOM     93  O   UNL A   1      48.371  34.619  28.614  1.00  0.00    -0.237 OA
ATOM     94  O   UNL A   1      48.328  33.333  30.722  1.00  0.00    -0.237 OA
ATOM     95  O   UNL A   1      49.503  32.431  28.756  1.00  0.00    -0.744 OA
ENDBRANCH  88  92
ENDBRANCH  62  85
ENDBRANCH  36  37
ENDBRANCH  28  31
ENDBRANCH  26  27
ENDBRANCH  25  26
ENDBRANCH  24  25
ENDBRANCH   1  24
TORSDOF 20
ENDMDL
MODEL 2
REMARK VINA RESULT:     -10.8      1.831      2.209
REMARK SMILES CCN(C)C(=O)Cn1ccc2c(C(=O)NCCCCCCNC(=O)c3ccc(-c4c5nc(c(-c6cc(S(=O)(=O)[O-])ccc6F)c6ccc([nH]6)c(-c6cc(S(=O)(=O)[O-])ccc6F)c6nc(c(-c7cc(S(=O)(=O)[O-])ccc7F)c7ccc4[nH]7)C=C6)C=C5)cc3)cccc21
REMARK SMILES IDX 18 1 17 2 16 3 15 4 13 5 14 6 12 8 8 9 9 10 91 11 10 12
REMARK SMILES IDX 11 13 90 14 89 15 88 16 7 17 5 18 6 19 3 20 4 21 2 22 1 23
REMARK SMILES IDX 19 24 20 25 21 26 22 27 23 28 24 30 25 31 26 32 87 33 27 34
REMARK SMILES IDX 86 35 28 36 29 37 30 38 80 39 31 40 85 41 79 42 81 43 32 44
REMARK SMILES IDX 84 45 78 46 77 47 33 49 65 50 45 51 64 52 46 53 49 54 63 55
REMARK SMILES IDX 82 56 47 57 48 58 62 60 83 61 50 62 34 63 35 64 43 65 36 66
REMARK SMILES IDX 42 67 44 68 41 69 37 70 38 71 39 72 40 73 66 74 67 75 75 76
REMARK SMILES IDX 68 77 74 78 76 79 73 80 69 81 70 82 71 83 72 84 51 85 52 86
REMARK SMILES IDX 60 87 53 88 59 89 61 90 58 91 54 92 55 93 56 94 57 95
REMARK H PARENT 15 7 22 29 81 48 49 59
REMARK Flexibility Score: inf
ROOT
ATOM      1  C   UNL A   1      30.856  27.134  26.048  1.00  0.00     0.002 C 
ENDROOT
BRANCH   1   2
ATOM      2  C   UNL A   1      30.837  27.393  24.532  1.00  0.00     0.021 C 
BRANCH   2   3
ATOM      3  C   UNL A   1      30.672  26.111  23.713  1.00  0.00     0.116 C 
BRANCH   3   4
ATOM      4  N   UNL A   1      31.710  26.034  22.707  1.00  0.00    -0.352 N 
ATOM      5  C   UNL A   1      32.964  25.488  22.628  1.00  0.00     0.251 C 
ATOM      6  O   UNL A   1      33.564  25.745  21.580  1.00  0.00    -0.269 OA
ATOM      7  H   UNL A   1      31.451  26.487  21.872  1.00  0.00     0.163 HD
BRANCH   5   8
ATOM      8  C   UNL A   1      33.603  24.607  23.660  1.00  0.00     0.049 A 
ATOM      9  N   UNL A   1      33.573  21.049  24.233  1.00  0.00    -0.338 N 
ATOM     10  C   UNL A   1      32.970  21.027  23.006  1.00  0.00     0.087 A 
ATOM     11  C   UNL A   1      33.917  22.351  24.564  1.00  0.00     0.049 A 
ATOM     12  C   UNL A   1      32.795  22.328  22.603  1.00  0.00     0.029 A 
ATOM     13  C   UNL A   1      33.413  23.193  23.561  1.00  0.00     0.012 A 
ATOM     14  C   UNL A   1      34.627  22.843  25.667  1.00  0.00     0.027 A 
ATOM     15  C   UNL A   1      34.881  24.207  25.716  1.00  0.00     0.003 A 
ATOM     16  C   UNL A   1      34.406  25.062  24.721  1.00  0.00     0.014 A 
BRANCH   9  17
ATOM     17  C   UNL A   1      33.851  19.889  25.072  1.00  0.00     0.222 C 
BRANCH  17  18
ATOM     18  C   UNL A   1      33.008  18.662  24.777  1.00  0.00     0.242 C 
ATOM     19  O   UNL A   1      31.778  18.767  24.746  1.00  0.00    -0.273 OA
BRANCH  18  20
ATOM     20  N   UNL A   1      33.644  17.451  24.512  1.00  0.00    -0.344 N 
ATOM     21  C   UNL A   1      34.011  16.994  23.175  1.00  0.00     0.146 C 
BRANCH  20  22
ATOM     22  C   UNL A   1      34.066  16.632  25.647  1.00  0.00     0.115 C 
ATOM     23  C   UNL A   1      35.318  15.817  25.357  1.00  0.00     0.027 C 
ENDBRANCH  20  22
ENDBRANCH  18  20
ENDBRANCH  17  18
ENDBRANCH   9  17
ENDBRANCH   5   8
ENDBRANCH   3   4
ENDBRANCH   2   3
ENDBRANCH   1   2
BRANCH   1  24
ATOM     24  C   UNL A   1      32.006  27.818  26.802  1.00  0.00     0.002 C 
BRANCH  24  25
ATOM     25  C   UNL A   1      32.160  29.320  26.528  1.00  0.00     0.021 C 
BRANCH  25  26
ATOM     26  C   UNL A   1      33.607  29.806  26.580  1.00  0.00     0.116 C 
BRANCH  26  27
ATOM     27  N   UNL A   1      33.782  30.950  27.448  1.00  0.00    -0.352 N 
ATOM     28  C   UNL A   1      34.819  31.459  28.179  1.00  0.00     0.251 C 
ATOM     29  H   UNL A   1      32.962  31.487  27.533  1.00  0.00     0.163 HD
ATOM     30  O   UNL A   1      34.568  32.495  28.803  1.00  0.00    -0.269 OA
BRANCH  28  31
ATOM     31  C   UNL A   1      36.167  30.841  28.316  1.00  0.00     0.039 A 
ATOM     32  C   UNL A   1      36.540  29.579  27.851  1.00  0.00     0.014 A 
ATOM     33  C   UNL A   1      37.123  31.608  29.009  1.00  0.00     0.014 A 
ATOM     34  C   UNL A   1      37.795  29.059  28.157  1.00  0.00     0.010 A 
ATOM     35  C   UNL A   1      38.385  31.103  29.298  1.00  0.00     0.010 A 
ATOM     36  C   UNL A   1      38.701  29.806  28.913  1.00  0.00    -0.014 A 
BRANCH  36  37
ATOM     37  C   UNL A   1      40.004  29.209  29.201  1.00  0.00     0.031 A 
ATOM     38  C   UNL A   1      40.215  28.823  30.627  1.00  0.00     0.074 A 
ATOM     39  C   UNL A   1      40.920  28.934  28.250  1.00  0.00     0.049 A 
ATOM     40  N   UNL A   1      41.076  29.298  31.467  1.00  0.00    -0.248 NA
ATOM     41  C   UNL A   1      39.258  27.882  31.227  1.00  0.00     0.031 C 
ATOM     42  C   UNL A   1      40.747  28.951  26.795  1.00  0.00     0.029 A 
ATOM     43  N   UNL A   1      42.188  28.463  28.397  1.00  0.00    -0.354 N 
ATOM     44  C   UNL A   1      40.892  28.595  32.660  1.00  0.00     0.074 A 
ATOM     45  C   UNL A   1      39.673  27.843  32.493  1.00  0.00     0.031 C 
ATOM     46  C   UNL A   1      41.765  28.270  26.219  1.00  0.00     0.029 A 
ATOM     47  C   UNL A   1      42.730  27.910  27.245  1.00  0.00     0.049 A 
ATOM     48  H   UNL A   1      42.680  28.510  29.249  1.00  0.00     0.167 HD
ATOM     49  C   UNL A   1      41.847  28.555  33.635  1.00  0.00     0.034 A 
ATOM     50  C   UNL A   1      43.840  27.134  27.159  1.00  0.00     0.034 A 
ATOM     51  C   UNL A   1      42.848  29.561  33.420  1.00  0.00     0.049 A 
ATOM     52  C   UNL A   1      44.634  27.318  28.399  1.00  0.00     0.074 A 
ATOM     53  C   UNL A   1      42.848  30.941  33.407  1.00  0.00     0.029 A 
ATOM     54  N   UNL A   1      44.020  29.175  32.818  1.00  0.00    -0.354 N 
ATOM     55  N   UNL A   1      45.274  28.411  28.701  1.00  0.00    -0.248 NA
ATOM     56  C   UNL A   1      44.334  26.437  29.518  1.00  0.00     0.031 C 
ATOM     57  C   UNL A   1      43.757  31.293  32.373  1.00  0.00     0.029 A 
ATOM     58  C   UNL A   1      44.315  30.117  31.867  1.00  0.00     0.049 A 
ATOM     59  H   UNL A   1      44.549  28.372  33.029  1.00  0.00     0.167 HD
ATOM     60  C   UNL A   1      45.036  28.583  30.055  1.00  0.00     0.074 A 
ATOM     61  C   UNL A   1      44.534  27.292  30.523  1.00  0.00     0.031 C 
ATOM     62  C   UNL A   1      44.989  29.825  30.619  1.00  0.00     0.034 A 
BRANCH  49  63
ATOM     63  C   UNL A   1      42.049  27.419  34.610  1.00  0.00     0.023 A 
ATOM     64  C   UNL A   1      42.789  26.265  34.300  1.00  0.00     0.031 A 
ATOM     65  C   UNL A   1      41.698  27.574  35.971  1.00  0.00     0.131 A 
ATOM     66  C   UNL A   1      43.154  25.338  35.286  1.00  0.00     0.055 A 
ATOM     67  C   UNL A   1      42.118  26.683  36.965  1.00  0.00     0.041 A 
ATOM     68  F   UNL A   1      40.985  28.633  36.387  1.00  0.00    -0.206 F 
ATOM     69  C   UNL A   1      42.855  25.557  36.626  1.00  0.00     0.022 A 
BRANCH  66  70
ATOM     70  S   UNL A   1      44.052  23.828  34.837  1.00  0.00     0.124 S 
ATOM     71  O   UNL A   1      45.113  24.348  33.985  1.00  0.00    -0.237 OA
ATOM     72  O   UNL A   1      44.471  23.334  36.146  1.00  0.00    -0.237 OA
ATOM     73  O   UNL A   1      43.036  23.015  34.168  1.00  0.00    -0.744 OA
ENDBRANCH  66  70
ENDBRANCH  49  63
BRANCH  50  74
ATOM     74  C   UNL A   1      43.983  25.905  26.340  1.00  0.00     0.023 A 
ATOM     75  C   UNL A   1      43.082  24.840  26.531  1.00  0.00     0.031 A 
ATOM     76  C   UNL A   1      45.163  25.632  25.628  1.00  0.00     0.131 A 
ATOM     77  C   UNL A   1      43.391  23.553  26.075  1.00  0.00     0.055 A 
ATOM     78  C   UNL A   1      45.460  24.348  25.152  1.00  0.00     0.041 A 
ATOM     79  F   UNL A   1      46.084  26.591  25.444  1.00  0.00    -0.206 F 
ATOM     80  C   UNL A   1      44.580  23.297  25.390  1.00  0.00     0.022 A 
BRANCH  77  81
ATOM     81  S   UNL A   1      42.294  22.162  26.460  1.00  0.00     0.124 S 
ATOM     82  O   UNL A   1      42.593  21.224  25.380  1.00  0.00    -0.237 OA
ATOM     83  O   UNL A   1      42.768  21.769  27.784  1.00  0.00    -0.237 OA
ATOM     84  O   UNL A   1      40.960  22.754  26.412  1.00  0.00    -0.744 OA
ENDBRANCH  77  81
ENDBRANCH  50  74
BRANCH  62  85
ATOM     85  C   UNL A   1      45.430  31.027  29.815  1.00  0.00     0.023 A 
ATOM     86  C   UNL A   1      44.629  31.370  28.711  1.00  0.00     0.031 A 
ATOM     87  C   UNL A   1      46.682  31.658  29.930  1.00  0.00     0.131 A 
ATOM     88  C   UNL A   1      45.101  32.259  27.740  1.00  0.00     0.055 A 
ATOM     89  C   UNL A   1      47.117  32.609  29.000  1.00  0.00     0.041 A 
ATOM     90  F   UNL A   1      47.561  31.313  30.882  1.00  0.00    -0.206 F 
ATOM     91  C   UNL A   1      46.335  32.896  27.886  1.00  0.00     0.022 A 
BRANCH  88  92
ATOM     92  S   UNL A   1      44.205  32.452  26.179  1.00  0.00     0.124 S 
ATOM     93  O   UNL A   1      45.291  32.528  25.208  1.00  0.00    -0.237 OA
ATOM     94  O   UNL A   1      43.401  31.232  26.127  1.00  0.00    -0.237 OA
ATOM     95  O   UNL A   1      43.439  33.682  26.360  1.00  0.00    -0.744 OA
ENDBRANCH  88  92
ENDBRANCH  62  85
ENDBRANCH  36  37
ENDBRANCH  28  31
ENDBRANCH  26  27
ENDBRANCH  25  26
ENDBRANCH  24  25
ENDBRANCH   1  24
TORSDOF 20
ENDMDL
MODEL 3
REMARK VINA RESULT:     -10.5      2.070      4.146
REMARK SMILES CCN(C)C(=O)Cn1ccc2c(C(=O)NCCCCCCNC(=O)c3ccc(-c4c5nc(c(-c6cc(S(=O)(=O)[O-])ccc6F)c6ccc([nH]6)c(-c6cc(S(=O)(=O)[O-])ccc6F)c6nc(c(-c7cc(S(=O)(=O)[O-])ccc7F)c7ccc4[nH]7)C=C6)C=C5)cc3)cccc21
REMARK SMILES IDX 18 1 17 2 16 3 15 4 13 5 14 6 12 8 8 9 9 10 91 11 10 12
REMARK SMILES IDX 11 13 90 14 89 15 88 16 7 17 5 18 6 19 3 20 4 21 2 22 1 23
REMARK SMILES IDX 19 24 20 25 21 26 22 27 23 28 24 30 25 31 26 32 87 33 27 34
REMARK SMILES IDX 86 35 28 36 29 37 30 38 80 39 31 40 85 41 79 42 81 43 32 44
REMARK SMILES IDX 84 45 78 46 77 47 33 49 65 50 45 51 64 52 46 53 49 54 63 55
REMARK SMILES IDX 82 56 47 57 48 58 62 60 83 61 50 62 34 63 35 64 43 65 36 66
REMARK SMILES IDX 42 67 44 68 41 69 37 70 38 71 39 72 40 73 66 74 67 75 75 76
REMARK SMILES IDX 68 77 74 78 76 79 73 80 69 81 70 82 71 83 72 84 51 85 52 86
REMARK SMILES IDX 60 87 53 88 59 89 61 90 58 91 54 92 55 93 56 94 57 95
REMARK H PARENT 15 7 22 29 81 48 49 59
REMARK Flexibility Score: inf
ROOT
ATOM      1  C   UNL A   1      32.252  27.255  26.821  1.00  0.00     0.002 C 
ENDROOT
BRANCH   1   2
ATOM      2  C   UNL A   1      33.563  27.229  26.018  1.00  0.00     0.021 C 
BRANCH   2   3
ATOM      3  C   UNL A   1      34.114  25.815  25.827  1.00  0.00     0.116 C 
BRANCH   3   4
ATOM      4  N   UNL A   1      34.185  25.502  24.415  1.00  0.00    -0.352 N 
ATOM      5  C   UNL A   1      33.287  25.395  23.385  1.00  0.00     0.251 C 
ATOM      6  O   UNL A   1      33.778  25.003  22.323  1.00  0.00    -0.269 OA
ATOM      7  H   UNL A   1      35.106  25.321  24.121  1.00  0.00     0.163 HD
BRANCH   5   8
ATOM      8  C   UNL A   1      31.831  25.750  23.451  1.00  0.00     0.049 A 
ATOM      9  N   UNL A   1      30.019  28.839  23.053  1.00  0.00    -0.338 N 
ATOM     10  C   UNL A   1      31.233  29.300  22.622  1.00  0.00     0.087 A 
ATOM     11  C   UNL A   1      30.105  27.486  23.339  1.00  0.00     0.049 A 
ATOM     12  C   UNL A   1      32.140  28.278  22.763  1.00  0.00     0.029 A 
ATOM     13  C   UNL A   1      31.447  27.103  23.191  1.00  0.00     0.012 A 
ATOM     14  C   UNL A   1      29.106  26.580  23.719  1.00  0.00     0.027 A 
ATOM     15  C   UNL A   1      29.469  25.251  23.888  1.00  0.00     0.003 A 
ATOM     16  C   UNL A   1      30.794  24.842  23.729  1.00  0.00     0.014 A 
BRANCH   9  17
ATOM     17  C   UNL A   1      28.798  29.628  23.172  1.00  0.00     0.222 C 
BRANCH  17  18
ATOM     18  C   UNL A   1      29.007  31.105  23.445  1.00  0.00     0.242 C 
ATOM     19  O   UNL A   1      29.501  31.457  24.522  1.00  0.00    -0.273 OA
BRANCH  18  20
ATOM     20  N   UNL A   1      28.669  32.031  22.460  1.00  0.00    -0.344 N 
ATOM     21  C   UNL A   1      28.714  33.478  22.648  1.00  0.00     0.146 C 
BRANCH  20  22
ATOM     22  C   UNL A   1      28.353  31.531  21.124  1.00  0.00     0.115 C 
ATOM     23  C   UNL A   1      27.674  32.573  20.246  1.00  0.00     0.027 C 
ENDBRANCH  20  22
ENDBRANCH  18  20
ENDBRANCH  17  18
ENDBRANCH   9  17
ENDBRANCH   5   8
ENDBRANCH   3   4
ENDBRANCH   2   3
ENDBRANCH   1   2
BRANCH   1  24
ATOM     24  C   UNL A   1      31.759  28.659  27.202  1.00  0.00     0.002 C 
BRANCH  24  25
ATOM     25  C   UNL A   1      32.200  29.781  26.252  1.00  0.00     0.021 C 
BRANCH  25  26
ATOM     26  C   UNL A   1      33.628  30.265  26.498  1.00  0.00     0.116 C 
BRANCH  26  27
ATOM     27  N   UNL A   1      33.718  31.211  27.588  1.00  0.00    -0.352 N 
ATOM     28  C   UNL A   1      34.692  31.571  28.477  1.00  0.00     0.251 C 
ATOM     29  H   UNL A   1      32.883  31.715  27.720  1.00  0.00     0.163 HD
ATOM     30  O   UNL A   1      34.377  32.457  29.277  1.00  0.00    -0.269 OA
BRANCH  28  31
ATOM     31  C   UNL A   1      36.040  30.948  28.583  1.00  0.00     0.039 A 
ATOM     32  C   UNL A   1      36.376  29.650  28.194  1.00  0.00     0.014 A 
ATOM     33  C   UNL A   1      37.041  31.752  29.161  1.00  0.00     0.014 A 
ATOM     34  C   UNL A   1      37.642  29.139  28.466  1.00  0.00     0.010 A 
ATOM     35  C   UNL A   1      38.314  31.254  29.414  1.00  0.00     0.010 A 
ATOM     36  C   UNL A   1      38.597  29.928  29.111  1.00  0.00    -0.014 A 
BRANCH  36  37
ATOM     37  C   UNL A   1      39.909  29.339  29.368  1.00  0.00     0.031 A 
ATOM     38  C   UNL A   1      40.126  28.880  30.771  1.00  0.00     0.074 A 
ATOM     39  C   UNL A   1      40.830  29.131  28.404  1.00  0.00     0.049 A 
ATOM     40  N   UNL A   1      40.979  29.322  31.636  1.00  0.00    -0.248 NA
ATOM     41  C   UNL A   1      39.184  27.891  31.317  1.00  0.00     0.031 C 
ATOM     42  C   UNL A   1      40.658  29.224  26.952  1.00  0.00     0.029 A 
ATOM     43  N   UNL A   1      42.106  28.673  28.528  1.00  0.00    -0.354 N 
ATOM     44  C   UNL A   1      40.806  28.552  32.789  1.00  0.00     0.074 A 
ATOM     45  C   UNL A   1      39.599  27.791  32.581  1.00  0.00     0.031 C 
ATOM     46  C   UNL A   1      41.687  28.592  26.342  1.00  0.00     0.029 A 
ATOM     47  C   UNL A   1      42.657  28.193  27.348  1.00  0.00     0.049 A 
ATOM     48  H   UNL A   1      42.596  28.682  29.382  1.00  0.00     0.167 HD
ATOM     49  C   UNL A   1      41.760  28.475  33.763  1.00  0.00     0.034 A 
ATOM     50  C   UNL A   1      43.781  27.441  27.222  1.00  0.00     0.034 A 
ATOM     51  C   UNL A   1      42.744  29.509  33.604  1.00  0.00     0.049 A 
ATOM     52  C   UNL A   1      44.570  27.571  28.471  1.00  0.00     0.074 A 
ATOM     53  C   UNL A   1      42.722  30.886  33.666  1.00  0.00     0.029 A 
ATOM     54  N   UNL A   1      43.923  29.175  32.983  1.00  0.00    -0.354 N 
ATOM     55  N   UNL A   1      45.192  28.657  28.832  1.00  0.00    -0.248 NA
ATOM     56  C   UNL A   1      44.285  26.625  29.540  1.00  0.00     0.031 C 
ATOM     57  C   UNL A   1      43.625  31.310  32.653  1.00  0.00     0.029 A 
ATOM     58  C   UNL A   1      44.203  30.172  32.085  1.00  0.00     0.049 A 
ATOM     59  H   UNL A   1      44.465  28.370  33.151  1.00  0.00     0.167 HD
ATOM     60  C   UNL A   1      44.951  28.751  30.194  1.00  0.00     0.074 A 
ATOM     61  C   UNL A   1      44.470  27.428  30.591  1.00  0.00     0.031 C 
ATOM     62  C   UNL A   1      44.883  29.959  30.824  1.00  0.00     0.034 A 
BRANCH  49  63
ATOM     63  C   UNL A   1      41.981  27.292  34.675  1.00  0.00     0.023 A 
ATOM     64  C   UNL A   1      42.799  26.202  34.331  1.00  0.00     0.031 A 
ATOM     65  C   UNL A   1      41.558  27.341  36.023  1.00  0.00     0.131 A 
ATOM     66  C   UNL A   1      43.169  25.234  35.276  1.00  0.00     0.055 A 
ATOM     67  C   UNL A   1      41.981  26.411  36.980  1.00  0.00     0.041 A 
ATOM     68  F   UNL A   1      40.768  28.330  36.467  1.00  0.00    -0.206 F 
ATOM     69  C   UNL A   1      42.796  25.351  36.610  1.00  0.00     0.022 A 
BRANCH  66  70
ATOM     70  S   UNL A   1      44.172  23.807  34.781  1.00  0.00     0.124 S 
ATOM     71  O   UNL A   1      44.390  24.066  33.364  1.00  0.00    -0.237 OA
ATOM     72  O   UNL A   1      45.342  23.955  35.642  1.00  0.00    -0.237 OA
ATOM     73  O   UNL A   1      43.314  22.664  35.096  1.00  0.00    -0.744 OA
ENDBRANCH  66  70
ENDBRANCH  49  63
BRANCH  50  74
ATOM     74  C   UNL A   1      43.943  26.260  26.338  1.00  0.00     0.023 A 
ATOM     75  C   UNL A   1      43.073  25.164  26.483  1.00  0.00     0.031 A 
ATOM     76  C   UNL A   1      45.121  26.056  25.598  1.00  0.00     0.131 A 
ATOM     77  C   UNL A   1      43.409  23.911  25.956  1.00  0.00     0.055 A 
ATOM     78  C   UNL A   1      45.445  24.808  25.052  1.00  0.00     0.041 A 
ATOM     79  F   UNL A   1      46.014  27.047  25.454  1.00  0.00    -0.206 F 
ATOM     80  C   UNL A   1      44.595  23.723  25.245  1.00  0.00     0.022 A 
BRANCH  77  81
ATOM     81  S   UNL A   1      42.353  22.473  26.280  1.00  0.00     0.124 S 
ATOM     82  O   UNL A   1      42.486  21.707  25.043  1.00  0.00    -0.237 OA
ATOM     83  O   UNL A   1      42.997  21.892  27.453  1.00  0.00    -0.237 OA
ATOM     84  O   UNL A   1      41.035  23.060  26.504  1.00  0.00    -0.744 OA
ENDBRANCH  77  81
ENDBRANCH  50  74
BRANCH  62  85
ATOM     85  C   UNL A   1      45.304  31.210  30.087  1.00  0.00     0.023 A 
ATOM     86  C   UNL A   1      44.780  31.381  28.793  1.00  0.00     0.031 A 
ATOM     87  C   UNL A   1      46.349  32.065  30.484  1.00  0.00     0.131 A 
ATOM     88  C   UNL A   1      45.331  32.328  27.924  1.00  0.00     0.055 A 
ATOM     89  C   UNL A   1      46.842  33.067  29.639  1.00  0.00     0.041 A 
ATOM     90  F   UNL A   1      46.987  31.905  31.651  1.00  0.00    -0.206 F 
ATOM     91  C   UNL A   1      46.349  33.186  28.344  1.00  0.00     0.022 A 
BRANCH  88  92
ATOM     92  S   UNL A   1      44.865  32.327  26.174  1.00  0.00     0.124 S 
ATOM     93  O   UNL A   1      46.063  31.790  25.537  1.00  0.00    -0.237 OA
ATOM     94  O   UNL A   1      43.699  31.445  26.161  1.00  0.00    -0.237 OA
ATOM     95  O   UNL A   1      44.576  33.728  25.883  1.00  0.00    -0.744 OA
ENDBRANCH  88  92
ENDBRANCH  62  85
ENDBRANCH  36  37
ENDBRANCH  28  31
ENDBRANCH  26  27
ENDBRANCH  25  26
ENDBRANCH  24  25
ENDBRANCH   1  24
TORSDOF 20
ENDMDL
