MODEL 1
REMARK VINA RESULT:     -11.5      0.000      0.000
REMARK SMILES O=C(NCCCCCCNC(=O)c1cc(Cl)ncc1-c1cccc(C(F)(F)F)c1)c1ccc(-c2c3nc(c(-c4cc(S(=O)(=O)[O-])ccc4F)c4ccc([nH]4)c(-c4cc(S(=O)(=O)[O-])ccc4F)c4nc(c(-c5cc(S(=O)(=O)[O-])ccc5F)c5ccc2[nH]5)C=C4)C=C3)cc1
REMARK SMILES IDX 6 1 5 2 4 3 3 4 1 5 2 6 30 8 31 9 92 10 32 11 91 12 33 13
REMARK SMILES IDX 34 14 35 15 85 16 36 17 90 18 84 19 86 20 37 21 89 22 83 23
REMARK SMILES IDX 82 24 38 26 70 27 50 28 69 29 51 30 54 31 68 32 87 33 52 34
REMARK SMILES IDX 53 35 67 37 88 38 55 39 39 40 40 41 48 42 41 43 47 44 49 45
REMARK SMILES IDX 46 46 42 47 43 48 44 49 45 50 71 51 72 52 80 53 73 54 79 55
REMARK SMILES IDX 81 56 78 57 74 58 75 59 76 60 77 61 56 62 57 63 65 64 58 65
REMARK SMILES IDX 64 66 66 67 63 68 59 69 60 70 61 71 62 72 7 73 8 74 9 75
REMARK SMILES IDX 10 76 11 77 12 79 13 80 14 81 19 82 15 83 18 84 16 85 17 86
REMARK SMILES IDX 20 87 21 88 29 89 22 90 24 91 23 92 25 93 26 94 27 95 28 96
REMARK H PARENT 3 7 86 25 54 36 10 78
REMARK Flexibility Score: inf
ROOT
ATOM      1  C   UNL A   1      30.707  31.490  25.444  1.00  0.00     0.002 C 
ENDROOT
BRANCH   1   2
ATOM      2  C   UNL A   1      31.223  31.741  26.862  1.00  0.00     0.021 C 
BRANCH   2   3
ATOM      3  C   UNL A   1      32.565  32.460  26.941  1.00  0.00     0.116 C 
BRANCH   3   4
ATOM      4  N   UNL A   1      32.427  33.837  27.385  1.00  0.00    -0.352 N 
ATOM      5  O   UNL A   1      32.741  35.614  28.735  1.00  0.00    -0.269 OA
ATOM      6  C   UNL A   1      33.117  34.504  28.367  1.00  0.00     0.251 C 
ATOM      7  H   UNL A   1      31.743  34.366  26.915  1.00  0.00     0.163 HD
BRANCH   6   8
ATOM      8  C   UNL A   1      34.303  33.875  28.988  1.00  0.00     0.039 A 
ATOM      9  C   UNL A   1      35.590  34.337  28.695  1.00  0.00     0.014 A 
ATOM     10  C   UNL A   1      34.122  32.822  29.888  1.00  0.00     0.014 A 
ATOM     11  C   UNL A   1      36.699  33.673  29.210  1.00  0.00     0.010 A 
ATOM     12  C   UNL A   1      35.236  32.207  30.466  1.00  0.00     0.010 A 
ATOM     13  C   UNL A   1      36.534  32.615  30.116  1.00  0.00    -0.014 A 
BRANCH  13  14
ATOM     14  C   UNL A   1      37.723  31.986  30.747  1.00  0.00     0.031 A 
ATOM     15  C   UNL A   1      38.528  30.953  30.012  1.00  0.00     0.074 A 
ATOM     16  C   UNL A   1      38.054  32.336  32.004  1.00  0.00     0.049 A 
ATOM     17  N   UNL A   1      39.543  30.242  30.434  1.00  0.00    -0.248 NA
ATOM     18  C   UNL A   1      38.130  30.672  28.627  1.00  0.00     0.031 C 
ATOM     19  C   UNL A   1      37.340  33.326  32.814  1.00  0.00     0.029 A 
ATOM     20  N   UNL A   1      39.059  31.897  32.826  1.00  0.00    -0.354 N 
ATOM     21  C   UNL A   1      39.896  29.414  29.375  1.00  0.00     0.074 A 
ATOM     22  C   UNL A   1      38.958  29.688  28.304  1.00  0.00     0.031 C 
ATOM     23  C   UNL A   1      37.932  33.424  34.012  1.00  0.00     0.029 A 
ATOM     24  C   UNL A   1      39.018  32.453  34.083  1.00  0.00     0.049 A 
ATOM     25  H   UNL A   1      39.744  31.248  32.544  1.00  0.00     0.167 HD
ATOM     26  C   UNL A   1      40.912  28.515  29.304  1.00  0.00     0.034 A 
ATOM     27  C   UNL A   1      39.736  32.180  35.189  1.00  0.00     0.034 A 
ATOM     28  C   UNL A   1      41.823  28.253  30.395  1.00  0.00     0.049 A 
ATOM     29  C   UNL A   1      40.815  31.135  35.116  1.00  0.00     0.074 A 
ATOM     30  C   UNL A   1      42.913  27.400  30.421  1.00  0.00     0.029 A 
ATOM     31  N   UNL A   1      41.736  28.819  31.663  1.00  0.00    -0.354 N 
ATOM     32  N   UNL A   1      41.162  30.383  34.097  1.00  0.00    -0.248 NA
ATOM     33  C   UNL A   1      41.599  30.903  36.333  1.00  0.00     0.031 C 
ATOM     34  C   UNL A   1      43.429  27.385  31.722  1.00  0.00     0.029 A 
ATOM     35  C   UNL A   1      42.724  28.300  32.488  1.00  0.00     0.049 A 
ATOM     36  H   UNL A   1      41.071  29.492  31.934  1.00  0.00     0.167 HD
ATOM     37  C   UNL A   1      42.224  29.604  34.544  1.00  0.00     0.074 A 
ATOM     38  C   UNL A   1      42.462  29.982  35.923  1.00  0.00     0.031 C 
ATOM     39  C   UNL A   1      42.944  28.672  33.869  1.00  0.00     0.034 A 
BRANCH  26  40
ATOM     40  C   UNL A   1      41.043  27.713  28.028  1.00  0.00     0.023 A 
ATOM     41  C   UNL A   1      40.663  26.362  27.957  1.00  0.00     0.031 A 
ATOM     42  C   UNL A   1      41.606  28.295  26.877  1.00  0.00     0.131 A 
ATOM     43  C   UNL A   1      40.941  25.613  26.802  1.00  0.00     0.055 A 
ATOM     44  C   UNL A   1      41.790  27.570  25.698  1.00  0.00     0.041 A 
ATOM     45  F   UNL A   1      42.007  29.576  26.884  1.00  0.00    -0.206 F 
ATOM     46  C   UNL A   1      41.478  26.215  25.662  1.00  0.00     0.022 A 
BRANCH  43  47
ATOM     47  S   UNL A   1      40.767  23.808  26.881  1.00  0.00     0.124 S 
ATOM     48  O   UNL A   1      39.347  23.633  26.582  1.00  0.00    -0.237 OA
ATOM     49  O   UNL A   1      41.696  23.358  25.852  1.00  0.00    -0.237 OA
ATOM     50  O   UNL A   1      41.149  23.487  28.255  1.00  0.00    -0.744 OA
ENDBRANCH  43  47
ENDBRANCH  26  40
BRANCH  27  51
ATOM     51  C   UNL A   1      39.408  32.875  36.465  1.00  0.00     0.023 A 
ATOM     52  C   UNL A   1      38.640  32.257  37.461  1.00  0.00     0.031 A 
ATOM     53  C   UNL A   1      39.889  34.175  36.712  1.00  0.00     0.131 A 
ATOM     54  C   UNL A   1      38.357  32.946  38.650  1.00  0.00     0.055 A 
ATOM     55  C   UNL A   1      39.650  34.836  37.916  1.00  0.00     0.041 A 
ATOM     56  F   UNL A   1      40.637  34.808  35.793  1.00  0.00    -0.206 F 
ATOM     57  C   UNL A   1      38.871  34.223  38.892  1.00  0.00     0.022 A 
BRANCH  54  58
ATOM     58  S   UNL A   1      37.259  32.168  39.865  1.00  0.00     0.124 S 
ATOM     59  O   UNL A   1      36.365  31.398  39.008  1.00  0.00    -0.237 OA
ATOM     60  O   UNL A   1      38.197  31.397  40.674  1.00  0.00    -0.237 OA
ATOM     61  O   UNL A   1      36.643  33.306  40.545  1.00  0.00    -0.744 OA
ENDBRANCH  54  58
ENDBRANCH  27  51
BRANCH  39  62
ATOM     62  C   UNL A   1      44.097  28.026  34.598  1.00  0.00     0.023 A 
ATOM     63  C   UNL A   1      43.954  26.816  35.299  1.00  0.00     0.031 A 
ATOM     64  C   UNL A   1      45.367  28.628  34.568  1.00  0.00     0.131 A 
ATOM     65  C   UNL A   1      45.058  26.264  35.969  1.00  0.00     0.055 A 
ATOM     66  C   UNL A   1      46.474  28.045  35.186  1.00  0.00     0.041 A 
ATOM     67  F   UNL A   1      45.558  29.788  33.920  1.00  0.00    -0.206 F 
ATOM     68  C   UNL A   1      46.321  26.860  35.899  1.00  0.00     0.022 A 
BRANCH  65  69
ATOM     69  S   UNL A   1      44.813  24.784  36.990  1.00  0.00     0.124 S 
ATOM     70  O   UNL A   1      43.835  25.251  37.969  1.00  0.00    -0.237 OA
ATOM     71  O   UNL A   1      44.330  23.809  36.019  1.00  0.00    -0.237 OA
ATOM     72  O   UNL A   1      46.146  24.514  37.527  1.00  0.00    -0.744 OA
ENDBRANCH  65  69
ENDBRANCH  39  62
ENDBRANCH  13  14
ENDBRANCH   6   8
ENDBRANCH   3   4
ENDBRANCH   2   3
ENDBRANCH   1   2
BRANCH   1  73
ATOM     73  C   UNL A   1      31.076  30.131  24.839  1.00  0.00     0.002 C 
BRANCH  73  74
ATOM     74  C   UNL A   1      30.158  29.630  23.722  1.00  0.00     0.021 C 
BRANCH  74  75
ATOM     75  C   UNL A   1      30.864  28.910  22.575  1.00  0.00     0.116 C 
BRANCH  75  76
ATOM     76  N   UNL A   1      32.292  29.189  22.546  1.00  0.00    -0.352 N 
ATOM     77  C   UNL A   1      33.349  28.332  22.704  1.00  0.00     0.252 C 
ATOM     78  H   UNL A   1      32.533  30.131  22.389  1.00  0.00     0.163 HD
ATOM     79  O   UNL A   1      34.504  28.754  22.698  1.00  0.00    -0.269 OA
BRANCH  77  80
ATOM     80  C   UNL A   1      33.096  26.888  22.860  1.00  0.00     0.052 A 
ATOM     81  C   UNL A   1      33.165  26.093  21.710  1.00  0.00     0.055 A 
ATOM     82  C   UNL A   1      32.848  26.320  24.121  1.00  0.00     0.013 A 
ATOM     83  C   UNL A   1      32.923  24.747  21.853  1.00  0.00     0.129 A 
ATOM     84  C   UNL A   1      32.631  24.942  24.121  1.00  0.00     0.122 A 
ATOM     85  Cl  UNL A   1      32.931  23.701  20.497  1.00  0.00    -0.062 Cl
ATOM     86  N   UNL A   1      32.654  24.147  23.026  1.00  0.00    -0.244 NA
BRANCH  82  87
ATOM     87  C   UNL A   1      32.797  27.066  25.389  1.00  0.00    -0.015 A 
ATOM     88  C   UNL A   1      31.633  27.045  26.177  1.00  0.00     0.009 A 
ATOM     89  C   UNL A   1      33.880  27.844  25.829  1.00  0.00     0.021 A 
ATOM     90  C   UNL A   1      31.547  27.782  27.360  1.00  0.00     0.001 A 
ATOM     91  C   UNL A   1      33.810  28.586  27.024  1.00  0.00     0.056 A 
ATOM     92  C   UNL A   1      32.629  28.551  27.779  1.00  0.00     0.013 A 
BRANCH  91  93
ATOM     93  C   UNL A   1      34.973  29.424  27.492  1.00  0.00     0.416 C 
ATOM     94  F   UNL A   1      34.757  30.756  27.306  1.00  0.00    -0.166 F 
ATOM     95  F   UNL A   1      35.226  29.273  28.823  1.00  0.00    -0.166 F 
ATOM     96  F   UNL A   1      36.144  29.144  26.855  1.00  0.00    -0.166 F 
ENDBRANCH  91  93
ENDBRANCH  82  87
ENDBRANCH  77  80
ENDBRANCH  75  76
ENDBRANCH  74  75
ENDBRANCH  73  74
ENDBRANCH   1  73
TORSDOF 18
ENDMDL
MODEL 2
REMARK VINA RESULT:     -11.4      1.824      2.591
REMARK SMILES O=C(NCCCCCCNC(=O)c1cc(Cl)ncc1-c1cccc(C(F)(F)F)c1)c1ccc(-c2c3nc(c(-c4cc(S(=O)(=O)[O-])ccc4F)c4ccc([nH]4)c(-c4cc(S(=O)(=O)[O-])ccc4F)c4nc(c(-c5cc(S(=O)(=O)[O-])ccc5F)c5ccc2[nH]5)C=C4)C=C3)cc1
REMARK SMILES IDX 6 1 5 2 4 3 3 4 1 5 2 6 30 8 31 9 92 10 32 11 91 12 33 13
REMARK SMILES IDX 34 14 35 15 85 16 36 17 90 18 84 19 86 20 37 21 89 22 83 23
REMARK SMILES IDX 82 24 38 26 70 27 50 28 69 29 51 30 54 31 68 32 87 33 52 34
REMARK SMILES IDX 53 35 67 37 88 38 55 39 39 40 40 41 48 42 41 43 47 44 49 45
REMARK SMILES IDX 46 46 42 47 43 48 44 49 45 50 71 51 72 52 80 53 73 54 79 55
REMARK SMILES IDX 81 56 78 57 74 58 75 59 76 60 77 61 56 62 57 63 65 64 58 65
REMARK SMILES IDX 64 66 66 67 63 68 59 69 60 70 61 71 62 72 7 73 8 74 9 75
REMARK SMILES IDX 10 76 11 77 12 79 13 80 14 81 19 82 15 83 18 84 16 85 17 86
REMARK SMILES IDX 20 87 21 88 29 89 22 90 24 91 23 92 25 93 26 94 27 95 28 96
REMARK H PARENT 3 7 86 25 54 36 10 78
REMARK Flexibility Score: inf
ROOT
ATOM      1  C   UNL A   1      31.471  30.647  25.683  1.00  0.00     0.002 C 
ENDROOT
BRANCH   1   2
ATOM      2  C   UNL A   1      31.328  31.924  26.512  1.00  0.00     0.021 C 
BRANCH   2   3
ATOM      3  C   UNL A   1      32.632  32.472  27.082  1.00  0.00     0.116 C 
BRANCH   3   4
ATOM      4  N   UNL A   1      32.491  33.834  27.570  1.00  0.00    -0.352 N 
ATOM      5  O   UNL A   1      32.804  35.567  28.975  1.00  0.00    -0.269 OA
ATOM      6  C   UNL A   1      33.181  34.471  28.572  1.00  0.00     0.251 C 
ATOM      7  H   UNL A   1      31.804  34.376  27.119  1.00  0.00     0.163 HD
BRANCH   6   8
ATOM      8  C   UNL A   1      34.371  33.826  29.169  1.00  0.00     0.039 A 
ATOM      9  C   UNL A   1      34.231  32.801  30.108  1.00  0.00     0.014 A 
ATOM     10  C   UNL A   1      35.643  34.243  28.768  1.00  0.00     0.014 A 
ATOM     11  C   UNL A   1      35.357  32.272  30.733  1.00  0.00     0.010 A 
ATOM     12  C   UNL A   1      36.775  33.655  29.339  1.00  0.00     0.010 A 
ATOM     13  C   UNL A   1      36.640  32.679  30.340  1.00  0.00    -0.014 A 
BRANCH  13  14
ATOM     14  C   UNL A   1      37.838  32.030  30.932  1.00  0.00     0.031 A 
ATOM     15  C   UNL A   1      38.605  30.986  30.171  1.00  0.00     0.074 A 
ATOM     16  C   UNL A   1      38.213  32.371  32.180  1.00  0.00     0.049 A 
ATOM     17  N   UNL A   1      39.621  30.259  30.561  1.00  0.00    -0.248 NA
ATOM     18  C   UNL A   1      38.161  30.716  28.798  1.00  0.00     0.031 C 
ATOM     19  C   UNL A   1      37.538  33.370  33.013  1.00  0.00     0.029 A 
ATOM     20  N   UNL A   1      39.235  31.915  32.970  1.00  0.00    -0.354 N 
ATOM     21  C   UNL A   1      39.930  29.428  29.489  1.00  0.00     0.074 A 
ATOM     22  C   UNL A   1      38.963  29.721  28.448  1.00  0.00     0.031 C 
ATOM     23  C   UNL A   1      38.168  33.454  34.193  1.00  0.00     0.029 A 
ATOM     24  C   UNL A   1      39.240  32.467  34.229  1.00  0.00     0.049 A 
ATOM     25  H   UNL A   1      39.901  31.256  32.666  1.00  0.00     0.167 HD
ATOM     26  C   UNL A   1      40.928  28.515  29.386  1.00  0.00     0.034 A 
ATOM     27  C   UNL A   1      39.987  32.181  35.313  1.00  0.00     0.034 A 
ATOM     28  C   UNL A   1      41.868  28.236  30.448  1.00  0.00     0.049 A 
ATOM     29  C   UNL A   1      41.047  31.119  35.204  1.00  0.00     0.074 A 
ATOM     30  C   UNL A   1      42.945  27.366  30.439  1.00  0.00     0.029 A 
ATOM     31  N   UNL A   1      41.828  28.799  31.719  1.00  0.00    -0.354 N 
ATOM     32  N   UNL A   1      41.352  30.364  34.173  1.00  0.00    -0.248 NA
ATOM     33  C   UNL A   1      41.864  30.871  36.396  1.00  0.00     0.031 C 
ATOM     34  C   UNL A   1      43.500  27.339  31.724  1.00  0.00     0.029 A 
ATOM     35  C   UNL A   1      42.832  28.263  32.513  1.00  0.00     0.049 A 
ATOM     36  H   UNL A   1      41.182  29.481  32.012  1.00  0.00     0.167 HD
ATOM     37  C   UNL A   1      42.415  29.568  34.586  1.00  0.00     0.074 A 
ATOM     38  C   UNL A   1      42.700  29.938  35.959  1.00  0.00     0.031 C 
ATOM     39  C   UNL A   1      43.099  28.627  33.888  1.00  0.00     0.034 A 
BRANCH  26  40
ATOM     40  C   UNL A   1      41.009  27.715  28.104  1.00  0.00     0.023 A 
ATOM     41  C   UNL A   1      40.573  26.380  28.032  1.00  0.00     0.031 A 
ATOM     42  C   UNL A   1      41.578  28.279  26.948  1.00  0.00     0.131 A 
ATOM     43  C   UNL A   1      40.804  25.627  26.871  1.00  0.00     0.055 A 
ATOM     44  C   UNL A   1      41.716  27.553  25.763  1.00  0.00     0.041 A 
ATOM     45  F   UNL A   1      42.032  29.542  26.955  1.00  0.00    -0.206 F 
ATOM     46  C   UNL A   1      41.349  26.212  25.726  1.00  0.00     0.022 A 
BRANCH  43  47
ATOM     47  S   UNL A   1      40.558  23.830  26.944  1.00  0.00     0.124 S 
ATOM     48  O   UNL A   1      39.159  23.705  26.538  1.00  0.00    -0.237 OA
ATOM     49  O   UNL A   1      41.545  23.339  25.991  1.00  0.00    -0.237 OA
ATOM     50  O   UNL A   1      40.822  23.505  28.344  1.00  0.00    -0.744 OA
ENDBRANCH  43  47
ENDBRANCH  26  40
BRANCH  27  51
ATOM     51  C   UNL A   1      39.708  32.876  36.600  1.00  0.00     0.023 A 
ATOM     52  C   UNL A   1      38.744  32.400  37.498  1.00  0.00     0.031 A 
ATOM     53  C   UNL A   1      40.434  34.029  36.957  1.00  0.00     0.131 A 
ATOM     54  C   UNL A   1      38.515  33.084  38.701  1.00  0.00     0.055 A 
ATOM     55  C   UNL A   1      40.240  34.676  38.177  1.00  0.00     0.041 A 
ATOM     56  F   UNL A   1      41.374  34.522  36.134  1.00  0.00    -0.206 F 
ATOM     57  C   UNL A   1      39.269  34.207  39.055  1.00  0.00     0.022 A 
BRANCH  54  58
ATOM     58  S   UNL A   1      37.178  32.514  39.785  1.00  0.00     0.124 S 
ATOM     59  O   UNL A   1      36.008  32.696  38.933  1.00  0.00    -0.237 OA
ATOM     60  O   UNL A   1      37.570  31.135  40.052  1.00  0.00    -0.237 OA
ATOM     61  O   UNL A   1      37.261  33.416  40.932  1.00  0.00    -0.744 OA
ENDBRANCH  54  58
ENDBRANCH  27  51
BRANCH  39  62
ATOM     62  C   UNL A   1      44.263  27.962  34.580  1.00  0.00     0.023 A 
ATOM     63  C   UNL A   1      44.129  26.740  35.262  1.00  0.00     0.031 A 
ATOM     64  C   UNL A   1      45.537  28.557  34.533  1.00  0.00     0.131 A 
ATOM     65  C   UNL A   1      45.243  26.169  35.898  1.00  0.00     0.055 A 
ATOM     66  C   UNL A   1      46.653  27.957  35.117  1.00  0.00     0.041 A 
ATOM     67  F   UNL A   1      45.721  29.727  33.902  1.00  0.00    -0.206 F 
ATOM     68  C   UNL A   1      46.508  26.759  35.812  1.00  0.00     0.022 A 
BRANCH  65  69
ATOM     69  S   UNL A   1      45.011  24.673  36.897  1.00  0.00     0.124 S 
ATOM     70  O   UNL A   1      44.726  23.669  35.876  1.00  0.00    -0.237 OA
ATOM     71  O   UNL A   1      46.297  24.546  37.575  1.00  0.00    -0.237 OA
ATOM     72  O   UNL A   1      43.884  25.011  37.765  1.00  0.00    -0.744 OA
ENDBRANCH  65  69
ENDBRANCH  39  62
ENDBRANCH  13  14
ENDBRANCH   6   8
ENDBRANCH   3   4
ENDBRANCH   2   3
ENDBRANCH   1   2
BRANCH   1  73
ATOM     73  C   UNL A   1      31.809  29.381  26.477  1.00  0.00     0.002 C 
BRANCH  73  74
ATOM     74  C   UNL A   1      33.297  29.032  26.568  1.00  0.00     0.021 C 
BRANCH  74  75
ATOM     75  C   UNL A   1      33.665  27.629  26.090  1.00  0.00     0.116 C 
BRANCH  75  76
ATOM     76  N   UNL A   1      32.785  26.610  26.642  1.00  0.00    -0.352 N 
ATOM     77  C   UNL A   1      32.332  25.450  26.073  1.00  0.00     0.252 C 
ATOM     78  H   UNL A   1      32.468  26.781  27.559  1.00  0.00     0.163 HD
ATOM     79  O   UNL A   1      31.544  24.722  26.674  1.00  0.00    -0.269 OA
BRANCH  77  80
ATOM     80  C   UNL A   1      32.814  25.062  24.734  1.00  0.00     0.052 A 
ATOM     81  C   UNL A   1      33.959  24.259  24.669  1.00  0.00     0.055 A 
ATOM     82  C   UNL A   1      32.124  25.436  23.570  1.00  0.00     0.013 A 
ATOM     83  C   UNL A   1      34.415  23.902  23.422  1.00  0.00     0.129 A 
ATOM     84  C   UNL A   1      32.692  24.996  22.373  1.00  0.00     0.122 A 
ATOM     85  Cl  UNL A   1      35.838  22.967  23.237  1.00  0.00    -0.062 Cl
ATOM     86  N   UNL A   1      33.816  24.250  22.270  1.00  0.00    -0.244 NA
BRANCH  82  87
ATOM     87  C   UNL A   1      30.893  26.242  23.539  1.00  0.00    -0.015 A 
ATOM     88  C   UNL A   1      29.685  25.710  24.026  1.00  0.00     0.009 A 
ATOM     89  C   UNL A   1      30.873  27.537  22.996  1.00  0.00     0.021 A 
ATOM     90  C   UNL A   1      28.497  26.440  23.964  1.00  0.00     0.001 A 
ATOM     91  C   UNL A   1      29.684  28.287  22.934  1.00  0.00     0.056 A 
ATOM     92  C   UNL A   1      28.495  27.720  23.418  1.00  0.00     0.013 A 
BRANCH  91  93
ATOM     93  C   UNL A   1      29.664  29.676  22.347  1.00  0.00     0.416 C 
ATOM     94  F   UNL A   1      30.838  29.991  21.731  1.00  0.00    -0.166 F 
ATOM     95  F   UNL A   1      28.697  29.831  21.400  1.00  0.00    -0.166 F 
ATOM     96  F   UNL A   1      29.450  30.658  23.266  1.00  0.00    -0.166 F 
ENDBRANCH  91  93
ENDBRANCH  82  87
ENDBRANCH  77  80
ENDBRANCH  75  76
ENDBRANCH  74  75
ENDBRANCH  73  74
ENDBRANCH   1  73
TORSDOF 18
ENDMDL
MODEL 3
REMARK VINA RESULT:     -11.3      6.200     11.392
REMARK SMILES O=C(NCCCCCCNC(=O)c1cc(Cl)ncc1-c1cccc(C(F)(F)F)c1)c1ccc(-c2c3nc(c(-c4cc(S(=O)(=O)[O-])ccc4F)c4ccc([nH]4)c(-c4cc(S(=O)(=O)[O-])ccc4F)c4nc(c(-c5cc(S(=O)(=O)[O-])ccc5F)c5ccc2[nH]5)C=C4)C=C3)cc1
REMARK SMILES IDX 6 1 5 2 4 3 3 4 1 5 2 6 30 8 31 9 92 10 32 11 91 12 33 13
REMARK SMILES IDX 34 14 35 15 85 16 36 17 90 18 84 19 86 20 37 21 89 22 83 23
REMARK SMILES IDX 82 24 38 26 70 27 50 28 69 29 51 30 54 31 68 32 87 33 52 34
REMARK SMILES IDX 53 35 67 37 88 38 55 39 39 40 40 41 48 42 41 43 47 44 49 45
REMARK SMILES IDX 46 46 42 47 43 48 44 49 45 50 71 51 72 52 80 53 73 54 79 55
REMARK SMILES IDX 81 56 78 57 74 58 75 59 76 60 77 61 56 62 57 63 65 64 58 65
REMARK SMILES IDX 64 66 66 67 63 68 59 69 60 70 61 71 62 72 7 73 8 74 9 75
REMARK SMILES IDX 10 76 11 77 12 79 13 80 14 81 19 82 15 83 18 84 16 85 17 86
REMARK SMILES IDX 20 87 21 88 29 89 22 90 24 91 23 92 25 93 26 94 27 95 28 96
REMARK H PARENT 3 7 86 25 54 36 10 78
REMARK Flexibility Score: inf
ROOT
ATOM      1  C   UNL A   1      36.963  20.578  24.420  1.00  0.00     0.002 C 
ENDROOT
BRANCH   1   2
ATOM      2  C   UNL A   1      37.952  19.551  24.974  1.00  0.00     0.021 C 
BRANCH   2   3
ATOM      3  C   UNL A   1      39.092  20.136  25.800  1.00  0.00     0.116 C 
BRANCH   3   4
ATOM      4  N   UNL A   1      40.220  19.225  25.902  1.00  0.00    -0.352 N 
ATOM      5  O   UNL A   1      42.392  18.627  25.977  1.00  0.00    -0.269 OA
ATOM      6  C   UNL A   1      41.549  19.511  26.100  1.00  0.00     0.251 C 
ATOM      7  H   UNL A   1      40.002  18.269  25.818  1.00  0.00     0.163 HD
BRANCH   6   8
ATOM      8  C   UNL A   1      41.960  20.888  26.450  1.00  0.00     0.039 A 
ATOM      9  C   UNL A   1      42.270  21.226  27.771  1.00  0.00     0.014 A 
ATOM     10  C   UNL A   1      42.052  21.847  25.439  1.00  0.00     0.014 A 
ATOM     11  C   UNL A   1      42.560  22.547  28.100  1.00  0.00     0.010 A 
ATOM     12  C   UNL A   1      42.420  23.157  25.760  1.00  0.00     0.010 A 
ATOM     13  C   UNL A   1      42.659  23.521  27.095  1.00  0.00    -0.014 A 
BRANCH  13  14
ATOM     14  C   UNL A   1      43.077  24.904  27.442  1.00  0.00     0.031 A 
ATOM     15  C   UNL A   1      42.119  25.859  28.093  1.00  0.00     0.074 A 
ATOM     16  C   UNL A   1      44.328  25.300  27.136  1.00  0.00     0.049 A 
ATOM     17  N   UNL A   1      42.286  27.122  28.391  1.00  0.00    -0.248 NA
ATOM     18  C   UNL A   1      40.795  25.327  28.441  1.00  0.00     0.031 C 
ATOM     19  C   UNL A   1      45.342  24.457  26.498  1.00  0.00     0.029 A 
ATOM     20  N   UNL A   1      44.957  26.506  27.305  1.00  0.00    -0.354 N 
ATOM     21  C   UNL A   1      41.083  27.546  28.945  1.00  0.00     0.074 A 
ATOM     22  C   UNL A   1      40.185  26.408  28.904  1.00  0.00     0.031 C 
ATOM     23  C   UNL A   1      46.466  25.169  26.335  1.00  0.00     0.029 A 
ATOM     24  C   UNL A   1      46.230  26.535  26.787  1.00  0.00     0.049 A 
ATOM     25  H   UNL A   1      44.538  27.276  27.753  1.00  0.00     0.167 HD
ATOM     26  C   UNL A   1      40.764  28.768  29.444  1.00  0.00     0.034 A 
ATOM     27  C   UNL A   1      47.098  27.555  26.640  1.00  0.00     0.034 A 
ATOM     28  C   UNL A   1      41.677  29.888  29.458  1.00  0.00     0.049 A 
ATOM     29  C   UNL A   1      46.705  28.919  27.138  1.00  0.00     0.074 A 
ATOM     30  C   UNL A   1      41.478  31.155  29.978  1.00  0.00     0.029 A 
ATOM     31  N   UNL A   1      42.953  29.886  28.903  1.00  0.00    -0.354 N 
ATOM     32  N   UNL A   1      45.577  29.299  27.692  1.00  0.00    -0.248 NA
ATOM     33  C   UNL A   1      47.699  29.988  26.997  1.00  0.00     0.031 C 
ATOM     34  C   UNL A   1      42.593  31.941  29.661  1.00  0.00     0.029 A 
ATOM     35  C   UNL A   1      43.532  31.141  29.028  1.00  0.00     0.049 A 
ATOM     36  H   UNL A   1      43.382  29.107  28.483  1.00  0.00     0.167 HD
ATOM     37  C   UNL A   1      45.734  30.648  27.989  1.00  0.00     0.074 A 
ATOM     38  C   UNL A   1      47.069  31.014  27.555  1.00  0.00     0.031 C 
ATOM     39  C   UNL A   1      44.859  31.501  28.577  1.00  0.00     0.034 A 
BRANCH  26  40
ATOM     40  C   UNL A   1      39.354  28.964  29.956  1.00  0.00     0.023 A 
ATOM     41  C   UNL A   1      38.364  29.598  29.184  1.00  0.00     0.031 A 
ATOM     42  C   UNL A   1      39.005  28.554  31.256  1.00  0.00     0.131 A 
ATOM     43  C   UNL A   1      37.115  29.895  29.750  1.00  0.00     0.055 A 
ATOM     44  C   UNL A   1      37.728  28.766  31.779  1.00  0.00     0.041 A 
ATOM     45  F   UNL A   1      39.908  27.960  32.052  1.00  0.00    -0.206 F 
ATOM     46  C   UNL A   1      36.780  29.460  31.034  1.00  0.00     0.022 A 
BRANCH  43  47
ATOM     47  S   UNL A   1      36.008  31.021  28.855  1.00  0.00     0.124 S 
ATOM     48  O   UNL A   1      36.958  31.951  28.248  1.00  0.00    -0.237 OA
ATOM     49  O   UNL A   1      35.320  30.123  27.937  1.00  0.00    -0.237 OA
ATOM     50  O   UNL A   1      35.177  31.596  29.911  1.00  0.00    -0.744 OA
ENDBRANCH  43  47
ENDBRANCH  26  40
BRANCH  27  51
ATOM     51  C   UNL A   1      48.392  27.321  25.941  1.00  0.00     0.023 A 
ATOM     52  C   UNL A   1      48.509  27.451  24.551  1.00  0.00     0.031 A 
ATOM     53  C   UNL A   1      49.546  26.984  26.674  1.00  0.00     0.131 A 
ATOM     54  C   UNL A   1      49.748  27.225  23.933  1.00  0.00     0.055 A 
ATOM     55  C   UNL A   1      50.786  26.811  26.062  1.00  0.00     0.041 A 
ATOM     56  F   UNL A   1      49.488  26.855  28.010  1.00  0.00    -0.206 F 
ATOM     57  C   UNL A   1      50.891  26.925  24.680  1.00  0.00     0.022 A 
BRANCH  54  58
ATOM     58  S   UNL A   1      49.840  27.280  22.123  1.00  0.00     0.124 S 
ATOM     59  O   UNL A   1      49.597  28.693  21.856  1.00  0.00    -0.237 OA
ATOM     60  O   UNL A   1      51.195  26.802  21.871  1.00  0.00    -0.237 OA
ATOM     61  O   UNL A   1      48.773  26.374  21.700  1.00  0.00    -0.744 OA
ENDBRANCH  54  58
ENDBRANCH  27  51
BRANCH  39  62
ATOM     62  C   UNL A   1      45.333  32.910  28.837  1.00  0.00     0.023 A 
ATOM     63  C   UNL A   1      44.983  33.984  28.000  1.00  0.00     0.031 A 
ATOM     64  C   UNL A   1      46.134  33.182  29.961  1.00  0.00     0.131 A 
ATOM     65  C   UNL A   1      45.461  35.273  28.282  1.00  0.00     0.055 A 
ATOM     66  C   UNL A   1      46.557  34.475  30.270  1.00  0.00     0.041 A 
ATOM     67  F   UNL A   1      46.504  32.193  30.791  1.00  0.00    -0.206 F 
ATOM     68  C   UNL A   1      46.228  35.529  29.422  1.00  0.00     0.022 A 
BRANCH  65  69
ATOM     69  S   UNL A   1      45.121  36.611  27.104  1.00  0.00     0.124 S 
ATOM     70  O   UNL A   1      46.278  36.533  26.216  1.00  0.00    -0.237 OA
ATOM     71  O   UNL A   1      43.844  36.205  26.527  1.00  0.00    -0.237 OA
ATOM     72  O   UNL A   1      45.068  37.804  27.947  1.00  0.00    -0.744 OA
ENDBRANCH  65  69
ENDBRANCH  39  62
ENDBRANCH  13  14
ENDBRANCH   6   8
ENDBRANCH   3   4
ENDBRANCH   2   3
ENDBRANCH   1   2
BRANCH   1  73
ATOM     73  C   UNL A   1      36.011  21.198  25.448  1.00  0.00     0.002 C 
BRANCH  73  74
ATOM     74  C   UNL A   1      36.523  22.460  26.149  1.00  0.00     0.021 C 
BRANCH  74  75
ATOM     75  C   UNL A   1      35.604  23.675  26.051  1.00  0.00     0.116 C 
BRANCH  75  76
ATOM     76  N   UNL A   1      35.419  24.116  24.676  1.00  0.00    -0.352 N 
ATOM     77  C   UNL A   1      34.288  24.573  24.053  1.00  0.00     0.252 C 
ATOM     78  H   UNL A   1      36.226  24.081  24.112  1.00  0.00     0.163 HD
ATOM     79  O   UNL A   1      34.304  24.860  22.857  1.00  0.00    -0.269 OA
BRANCH  77  80
ATOM     80  C   UNL A   1      33.048  24.742  24.833  1.00  0.00     0.052 A 
ATOM     81  C   UNL A   1      32.853  25.970  25.475  1.00  0.00     0.055 A 
ATOM     82  C   UNL A   1      32.073  23.732  24.887  1.00  0.00     0.013 A 
ATOM     83  C   UNL A   1      31.701  26.128  26.209  1.00  0.00     0.129 A 
ATOM     84  C   UNL A   1      30.949  24.031  25.658  1.00  0.00     0.122 A 
ATOM     85  Cl  UNL A   1      31.397  27.574  27.075  1.00  0.00    -0.062 Cl
ATOM     86  N   UNL A   1      30.742  25.191  26.322  1.00  0.00    -0.244 NA
BRANCH  82  87
ATOM     87  C   UNL A   1      32.169  22.428  24.213  1.00  0.00    -0.015 A 
ATOM     88  C   UNL A   1      31.842  22.307  22.850  1.00  0.00     0.009 A 
ATOM     89  C   UNL A   1      32.549  21.267  24.906  1.00  0.00     0.021 A 
ATOM     90  C   UNL A   1      31.882  21.071  22.203  1.00  0.00     0.001 A 
ATOM     91  C   UNL A   1      32.601  20.015  24.265  1.00  0.00     0.056 A 
ATOM     92  C   UNL A   1      32.257  19.930  22.907  1.00  0.00     0.013 A 
BRANCH  91  93
ATOM     93  C   UNL A   1      33.005  18.769  25.012  1.00  0.00     0.416 C 
ATOM     94  F   UNL A   1      32.217  17.702  24.699  1.00  0.00    -0.166 F 
ATOM     95  F   UNL A   1      34.281  18.381  24.734  1.00  0.00    -0.166 F 
ATOM     96  F   UNL A   1      32.939  18.896  26.367  1.00  0.00    -0.166 F 
ENDBRANCH  91  93
ENDBRANCH  82  87
ENDBRANCH  77  80
ENDBRANCH  75  76
ENDBRANCH  74  75
ENDBRANCH  73  74
ENDBRANCH   1  73
TORSDOF 18
ENDMDL
