MODEL 1
REMARK VINA RESULT:     -11.7      0.000      0.000
REMARK SMILES O=C(NCCCCCCNC(=O)C1([C@H]2CS(=O)(=O)C[C@H]2O)CCCC1)c1ccc(-c2c3nc(c(-c4cc(S(=O)(=O)[O-])ccc4F)c4ccc([nH]4)c(-c4cc(S(=O)(=O)[O-])ccc4F)c4nc(c(-c5cc(S(=O)(=O)[O-])ccc5F)c5ccc2[nH]5)C=C4)C=C3)cc1
REMARK SMILES IDX 6 1 5 2 4 3 3 4 1 5 2 6 26 8 27 9 88 10 28 11 87 12 29 13
REMARK SMILES IDX 30 14 31 15 81 16 32 17 86 18 80 19 82 20 33 21 85 22 79 23
REMARK SMILES IDX 78 24 34 26 66 27 46 28 65 29 47 30 50 31 64 32 83 33 48 34
REMARK SMILES IDX 49 35 63 37 84 38 51 39 35 40 36 41 44 42 37 43 43 44 45 45
REMARK SMILES IDX 42 46 38 47 39 48 40 49 41 50 67 51 68 52 76 53 69 54 75 55
REMARK SMILES IDX 77 56 74 57 70 58 71 59 72 60 73 61 52 62 53 63 61 64 54 65
REMARK SMILES IDX 60 66 62 67 59 68 55 69 56 70 57 71 58 72 7 73 8 74 9 75
REMARK SMILES IDX 10 76 11 77 12 79 13 80 22 81 25 82 23 83 24 84 14 85 15 86
REMARK SMILES IDX 20 87 16 88 19 89 17 90 18 91 21 92
REMARK H PARENT 3 7 82 25 50 36 10 78 21 93
REMARK Flexibility Score: inf
ROOT
ATOM      1  C   UNL A   1      31.785  28.177  27.249  1.00  0.00     0.002 C 
ENDROOT
BRANCH   1   2
ATOM      2  C   UNL A   1      31.420  29.364  26.357  1.00  0.00     0.021 C 
BRANCH   2   3
ATOM      3  C   UNL A   1      32.588  30.280  26.017  1.00  0.00     0.116 C 
BRANCH   3   4
ATOM      4  N   UNL A   1      32.365  31.654  26.443  1.00  0.00    -0.352 N 
ATOM      5  O   UNL A   1      32.657  33.510  27.694  1.00  0.00    -0.269 OA
ATOM      6  C   UNL A   1      33.086  32.419  27.330  1.00  0.00     0.251 C 
ATOM      7  H   UNL A   1      31.586  32.100  26.038  1.00  0.00     0.163 HD
BRANCH   6   8
ATOM      8  C   UNL A   1      34.367  31.905  27.861  1.00  0.00     0.039 A 
ATOM      9  C   UNL A   1      34.486  30.566  28.238  1.00  0.00     0.014 A 
ATOM     10  C   UNL A   1      35.448  32.776  28.018  1.00  0.00     0.014 A 
ATOM     11  C   UNL A   1      35.606  30.149  28.944  1.00  0.00     0.010 A 
ATOM     12  C   UNL A   1      36.621  32.320  28.629  1.00  0.00     0.010 A 
ATOM     13  C   UNL A   1      36.693  31.015  29.144  1.00  0.00    -0.014 A 
BRANCH  13  14
ATOM     14  C   UNL A   1      37.890  30.519  29.877  1.00  0.00     0.031 A 
ATOM     15  C   UNL A   1      38.106  30.849  31.330  1.00  0.00     0.074 A 
ATOM     16  C   UNL A   1      38.761  29.718  29.231  1.00  0.00     0.049 A 
ATOM     17  N   UNL A   1      39.072  30.466  32.129  1.00  0.00    -0.248 NA
ATOM     18  C   UNL A   1      37.119  31.731  31.969  1.00  0.00     0.031 C 
ATOM     19  C   UNL A   1      38.656  29.325  27.822  1.00  0.00     0.029 A 
ATOM     20  N   UNL A   1      39.885  29.068  29.670  1.00  0.00    -0.354 N 
ATOM     21  C   UNL A   1      38.823  31.077  33.354  1.00  0.00     0.074 A 
ATOM     22  C   UNL A   1      37.634  31.886  33.180  1.00  0.00     0.031 C 
ATOM     23  C   UNL A   1      39.634  28.455  27.534  1.00  0.00     0.029 A 
ATOM     24  C   UNL A   1      40.485  28.291  28.704  1.00  0.00     0.049 A 
ATOM     25  H   UNL A   1      40.231  29.148  30.588  1.00  0.00     0.167 HD
ATOM     26  C   UNL A   1      39.517  30.965  34.517  1.00  0.00     0.034 A 
ATOM     27  C   UNL A   1      41.605  27.546  28.746  1.00  0.00     0.034 A 
ATOM     28  C   UNL A   1      40.701  30.151  34.671  1.00  0.00     0.049 A 
ATOM     29  C   UNL A   1      42.383  27.481  30.034  1.00  0.00     0.074 A 
ATOM     30  C   UNL A   1      41.458  29.941  35.811  1.00  0.00     0.029 A 
ATOM     31  N   UNL A   1      41.310  29.423  33.655  1.00  0.00    -0.354 N 
ATOM     32  N   UNL A   1      42.119  28.045  31.190  1.00  0.00    -0.248 NA
ATOM     33  C   UNL A   1      43.604  26.668  30.022  1.00  0.00     0.031 C 
ATOM     34  C   UNL A   1      42.568  29.162  35.465  1.00  0.00     0.029 A 
ATOM     35  C   UNL A   1      42.453  28.796  34.135  1.00  0.00     0.049 A 
ATOM     36  H   UNL A   1      40.980  29.361  32.730  1.00  0.00     0.167 HD
ATOM     37  C   UNL A   1      43.125  27.622  32.054  1.00  0.00     0.074 A 
ATOM     38  C   UNL A   1      43.986  26.744  31.288  1.00  0.00     0.031 C 
ATOM     39  C   UNL A   1      43.313  27.927  33.364  1.00  0.00     0.034 A 
BRANCH  26  40
ATOM     40  C   UNL A   1      39.043  31.785  35.697  1.00  0.00     0.023 A 
ATOM     41  C   UNL A   1      38.377  31.206  36.791  1.00  0.00     0.031 A 
ATOM     42  C   UNL A   1      39.245  33.178  35.719  1.00  0.00     0.131 A 
ATOM     43  C   UNL A   1      37.869  32.018  37.816  1.00  0.00     0.055 A 
ATOM     44  C   UNL A   1      38.817  33.971  36.785  1.00  0.00     0.041 A 
ATOM     45  F   UNL A   1      39.855  33.796  34.695  1.00  0.00    -0.206 F 
ATOM     46  C   UNL A   1      38.109  33.394  37.835  1.00  0.00     0.022 A 
BRANCH  43  47
ATOM     47  S   UNL A   1      36.756  31.274  39.039  1.00  0.00     0.124 S 
ATOM     48  O   UNL A   1      36.468  29.977  38.430  1.00  0.00    -0.237 OA
ATOM     49  O   UNL A   1      37.581  31.243  40.242  1.00  0.00    -0.237 OA
ATOM     50  O   UNL A   1      35.623  32.198  39.081  1.00  0.00    -0.744 OA
ENDBRANCH  43  47
ENDBRANCH  26  40
BRANCH  27  51
ATOM     51  C   UNL A   1      42.073  26.818  27.531  1.00  0.00     0.023 A 
ATOM     52  C   UNL A   1      41.848  25.441  27.381  1.00  0.00     0.031 A 
ATOM     53  C   UNL A   1      42.791  27.483  26.520  1.00  0.00     0.131 A 
ATOM     54  C   UNL A   1      42.381  24.764  26.274  1.00  0.00     0.055 A 
ATOM     55  C   UNL A   1      43.262  26.817  25.389  1.00  0.00     0.041 A 
ATOM     56  F   UNL A   1      43.033  28.801  26.613  1.00  0.00    -0.206 F 
ATOM     57  C   UNL A   1      43.072  25.444  25.268  1.00  0.00     0.022 A 
BRANCH  54  58
ATOM     58  S   UNL A   1      42.244  22.956  26.218  1.00  0.00     0.124 S 
ATOM     59  O   UNL A   1      42.753  22.662  24.884  1.00  0.00    -0.237 OA
ATOM     60  O   UNL A   1      43.095  22.554  27.334  1.00  0.00    -0.237 OA
ATOM     61  O   UNL A   1      40.815  22.718  26.409  1.00  0.00    -0.744 OA
ENDBRANCH  54  58
ENDBRANCH  27  51
BRANCH  39  62
ATOM     62  C   UNL A   1      44.464  27.244  34.068  1.00  0.00     0.023 A 
ATOM     63  C   UNL A   1      44.369  25.927  34.552  1.00  0.00     0.031 A 
ATOM     64  C   UNL A   1      45.665  27.941  34.288  1.00  0.00     0.131 A 
ATOM     65  C   UNL A   1      45.424  25.379  35.298  1.00  0.00     0.055 A 
ATOM     66  C   UNL A   1      46.741  27.362  34.963  1.00  0.00     0.041 A 
ATOM     67  F   UNL A   1      45.812  29.204  33.856  1.00  0.00    -0.206 F 
ATOM     68  C   UNL A   1      46.617  26.080  35.489  1.00  0.00     0.022 A 
BRANCH  65  69
ATOM     69  S   UNL A   1      45.166  23.787  36.131  1.00  0.00     0.124 S 
ATOM     70  O   UNL A   1      45.062  24.192  37.529  1.00  0.00    -0.237 OA
ATOM     71  O   UNL A   1      43.935  23.308  35.513  1.00  0.00    -0.237 OA
ATOM     72  O   UNL A   1      46.367  23.025  35.793  1.00  0.00    -0.744 OA
ENDBRANCH  65  69
ENDBRANCH  39  62
ENDBRANCH  13  14
ENDBRANCH   6   8
ENDBRANCH   3   4
ENDBRANCH   2   3
ENDBRANCH   1   2
BRANCH   1  73
ATOM     73  C   UNL A   1      31.963  26.845  26.512  1.00  0.00     0.002 C 
BRANCH  73  74
ATOM     74  C   UNL A   1      31.366  26.794  25.100  1.00  0.00     0.021 C 
BRANCH  74  75
ATOM     75  C   UNL A   1      31.238  25.383  24.530  1.00  0.00     0.116 C 
BRANCH  75  76
ATOM     76  N   UNL A   1      32.042  25.231  23.329  1.00  0.00    -0.356 N 
ATOM     77  C   UNL A   1      33.233  24.618  23.093  1.00  0.00     0.226 C 
ATOM     78  H   UNL A   1      31.648  25.653  22.531  1.00  0.00     0.163 HD
ATOM     79  O   UNL A   1      33.701  24.756  21.959  1.00  0.00    -0.274 OA
BRANCH  77  80
ATOM     80  C   UNL A   1      33.901  23.683  24.140  1.00  0.00     0.055 C 
ATOM     81  C   UNL A   1      35.137  23.015  23.490  1.00  0.00     0.017 C 
ATOM     82  C   UNL A   1      34.558  24.544  25.249  1.00  0.00     0.017 C 
ATOM     83  C   UNL A   1      36.168  22.836  24.591  1.00  0.00     0.001 C 
ATOM     84  C   UNL A   1      35.970  24.022  25.509  1.00  0.00     0.001 C 
BRANCH  80  85
ATOM     85  C   UNL A   1      32.783  22.678  24.626  1.00  0.00     0.049 C 
ATOM     86  C   UNL A   1      32.814  21.304  23.910  1.00  0.00     0.144 C 
ATOM     87  C   UNL A   1      32.589  22.336  26.119  1.00  0.00     0.134 C 
ATOM     88  S   UNL A   1      33.403  20.089  25.079  1.00  0.00     0.153 S 
ATOM     89  C   UNL A   1      33.469  21.155  26.489  1.00  0.00     0.169 C 
ATOM     90  O   UNL A   1      32.358  19.112  25.291  1.00  0.00    -0.229 OA
ATOM     91  O   UNL A   1      34.754  19.695  24.728  1.00  0.00    -0.229 OA
BRANCH  87  92
ATOM     92  O   UNL A   1      32.816  23.427  26.986  1.00  0.00    -0.392 OA
ATOM     93  H   UNL A   1      31.975  23.871  27.174  1.00  0.00     0.211 HD
ENDBRANCH  87  92
ENDBRANCH  80  85
ENDBRANCH  77  80
ENDBRANCH  75  76
ENDBRANCH  74  75
ENDBRANCH  73  74
ENDBRANCH   1  73
TORSDOF 18
ENDMDL
MODEL 2
REMARK VINA RESULT:     -11.7      1.808      2.262
REMARK SMILES O=C(NCCCCCCNC(=O)C1([C@H]2CS(=O)(=O)C[C@H]2O)CCCC1)c1ccc(-c2c3nc(c(-c4cc(S(=O)(=O)[O-])ccc4F)c4ccc([nH]4)c(-c4cc(S(=O)(=O)[O-])ccc4F)c4nc(c(-c5cc(S(=O)(=O)[O-])ccc5F)c5ccc2[nH]5)C=C4)C=C3)cc1
REMARK SMILES IDX 6 1 5 2 4 3 3 4 1 5 2 6 26 8 27 9 88 10 28 11 87 12 29 13
REMARK SMILES IDX 30 14 31 15 81 16 32 17 86 18 80 19 82 20 33 21 85 22 79 23
REMARK SMILES IDX 78 24 34 26 66 27 46 28 65 29 47 30 50 31 64 32 83 33 48 34
REMARK SMILES IDX 49 35 63 37 84 38 51 39 35 40 36 41 44 42 37 43 43 44 45 45
REMARK SMILES IDX 42 46 38 47 39 48 40 49 41 50 67 51 68 52 76 53 69 54 75 55
REMARK SMILES IDX 77 56 74 57 70 58 71 59 72 60 73 61 52 62 53 63 61 64 54 65
REMARK SMILES IDX 60 66 62 67 59 68 55 69 56 70 57 71 58 72 7 73 8 74 9 75
REMARK SMILES IDX 10 76 11 77 12 79 13 80 22 81 25 82 23 83 24 84 14 85 15 86
REMARK SMILES IDX 20 87 16 88 19 89 17 90 18 91 21 92
REMARK H PARENT 3 7 82 25 50 36 10 78 21 93
REMARK Flexibility Score: inf
ROOT
ATOM      1  C   UNL A   1      31.150  28.130  24.845  1.00  0.00     0.002 C 
ENDROOT
BRANCH   1   2
ATOM      2  C   UNL A   1      32.218  28.413  25.901  1.00  0.00     0.021 C 
BRANCH   2   3
ATOM      3  C   UNL A   1      33.161  29.558  25.554  1.00  0.00     0.116 C 
BRANCH   3   4
ATOM      4  N   UNL A   1      32.718  30.834  26.097  1.00  0.00    -0.352 N 
ATOM      5  O   UNL A   1      32.661  32.562  27.547  1.00  0.00    -0.269 OA
ATOM      6  C   UNL A   1      33.264  31.586  27.110  1.00  0.00     0.251 C 
ATOM      7  H   UNL A   1      31.911  31.213  25.677  1.00  0.00     0.163 HD
BRANCH   6   8
ATOM      8  C   UNL A   1      34.568  31.194  27.687  1.00  0.00     0.039 A 
ATOM      9  C   UNL A   1      34.783  29.882  28.112  1.00  0.00     0.014 A 
ATOM     10  C   UNL A   1      35.572  32.153  27.839  1.00  0.00     0.014 A 
ATOM     11  C   UNL A   1      35.915  29.578  28.856  1.00  0.00     0.010 A 
ATOM     12  C   UNL A   1      36.762  31.813  28.492  1.00  0.00     0.010 A 
ATOM     13  C   UNL A   1      36.924  30.535  29.051  1.00  0.00    -0.014 A 
BRANCH  13  14
ATOM     14  C   UNL A   1      38.138  30.160  29.828  1.00  0.00     0.031 A 
ATOM     15  C   UNL A   1      38.336  30.635  31.243  1.00  0.00     0.074 A 
ATOM     16  C   UNL A   1      39.043  29.337  29.260  1.00  0.00     0.049 A 
ATOM     17  N   UNL A   1      39.313  30.369  32.074  1.00  0.00    -0.248 NA
ATOM     18  C   UNL A   1      37.311  31.533  31.796  1.00  0.00     0.031 C 
ATOM     19  C   UNL A   1      38.959  28.808  27.896  1.00  0.00     0.029 A 
ATOM     20  N   UNL A   1      40.191  28.778  29.758  1.00  0.00    -0.354 N 
ATOM     21  C   UNL A   1      39.036  31.083  33.236  1.00  0.00     0.074 A 
ATOM     22  C   UNL A   1      37.816  31.823  32.986  1.00  0.00     0.031 C 
ATOM     23  C   UNL A   1      39.972  27.955  27.691  1.00  0.00     0.029 A 
ATOM     24  C   UNL A   1      40.825  27.938  28.871  1.00  0.00     0.049 A 
ATOM     25  H   UNL A   1      40.530  28.959  30.665  1.00  0.00     0.167 HD
ATOM     26  C   UNL A   1      39.730  31.111  34.403  1.00  0.00     0.034 A 
ATOM     27  C   UNL A   1      41.975  27.246  28.983  1.00  0.00     0.034 A 
ATOM     28  C   UNL A   1      40.946  30.364  34.634  1.00  0.00     0.049 A 
ATOM     29  C   UNL A   1      42.750  27.336  30.270  1.00  0.00     0.074 A 
ATOM     30  C   UNL A   1      41.707  30.294  35.788  1.00  0.00     0.029 A 
ATOM     31  N   UNL A   1      41.587  29.569  33.691  1.00  0.00    -0.354 N 
ATOM     32  N   UNL A   1      42.459  27.996  31.368  1.00  0.00    -0.248 NA
ATOM     33  C   UNL A   1      44.004  26.576  30.336  1.00  0.00     0.031 C 
ATOM     34  C   UNL A   1      42.849  29.532  35.518  1.00  0.00     0.029 A 
ATOM     35  C   UNL A   1      42.753  29.037  34.228  1.00  0.00     0.049 A 
ATOM     36  H   UNL A   1      41.263  29.405  32.777  1.00  0.00     0.167 HD
ATOM     37  C   UNL A   1      43.479  27.699  32.267  1.00  0.00     0.074 A 
ATOM     38  C   UNL A   1      44.378  26.788  31.589  1.00  0.00     0.031 C 
ATOM     39  C   UNL A   1      43.650  28.134  33.543  1.00  0.00     0.034 A 
BRANCH  26  40
ATOM     40  C   UNL A   1      39.219  32.019  35.500  1.00  0.00     0.023 A 
ATOM     41  C   UNL A   1      39.627  33.361  35.610  1.00  0.00     0.031 A 
ATOM     42  C   UNL A   1      38.322  31.529  36.466  1.00  0.00     0.131 A 
ATOM     43  C   UNL A   1      39.204  34.137  36.699  1.00  0.00     0.055 A 
ATOM     44  C   UNL A   1      37.833  32.332  37.498  1.00  0.00     0.041 A 
ATOM     45  F   UNL A   1      37.910  30.251  36.432  1.00  0.00    -0.206 F 
ATOM     46  C   UNL A   1      38.287  33.641  37.630  1.00  0.00     0.022 A 
BRANCH  43  47
ATOM     47  S   UNL A   1      39.992  35.748  36.972  1.00  0.00     0.124 S 
ATOM     48  O   UNL A   1      39.334  36.198  38.197  1.00  0.00    -0.237 OA
ATOM     49  O   UNL A   1      41.401  35.394  37.100  1.00  0.00    -0.237 OA
ATOM     50  O   UNL A   1      39.645  36.509  35.773  1.00  0.00    -0.744 OA
ENDBRANCH  43  47
ENDBRANCH  26  40
BRANCH  27  51
ATOM     51  C   UNL A   1      42.475  26.426  27.842  1.00  0.00     0.023 A 
ATOM     52  C   UNL A   1      42.013  25.118  27.633  1.00  0.00     0.031 A 
ATOM     53  C   UNL A   1      43.459  26.925  26.968  1.00  0.00     0.131 A 
ATOM     54  C   UNL A   1      42.569  24.335  26.611  1.00  0.00     0.055 A 
ATOM     55  C   UNL A   1      43.961  26.165  25.912  1.00  0.00     0.041 A 
ATOM     56  F   UNL A   1      43.936  28.171  27.121  1.00  0.00    -0.206 F 
ATOM     57  C   UNL A   1      43.528  24.855  25.738  1.00  0.00     0.022 A 
BRANCH  54  58
ATOM     58  S   UNL A   1      42.093  22.589  26.502  1.00  0.00     0.124 S 
ATOM     59  O   UNL A   1      42.929  21.989  27.535  1.00  0.00    -0.237 OA
ATOM     60  O   UNL A   1      40.663  22.647  26.787  1.00  0.00    -0.237 OA
ATOM     61  O   UNL A   1      42.439  22.228  25.128  1.00  0.00    -0.744 OA
ENDBRANCH  54  58
ENDBRANCH  27  51
BRANCH  39  62
ATOM     62  C   UNL A   1      44.825  27.569  34.308  1.00  0.00     0.023 A 
ATOM     63  C   UNL A   1      44.741  26.362  35.024  1.00  0.00     0.031 A 
ATOM     64  C   UNL A   1      46.042  28.273  34.348  1.00  0.00     0.131 A 
ATOM     65  C   UNL A   1      45.824  25.938  35.811  1.00  0.00     0.055 A 
ATOM     66  C   UNL A   1      47.142  27.806  35.068  1.00  0.00     0.041 A 
ATOM     67  F   UNL A   1      46.181  29.436  33.690  1.00  0.00    -0.206 F 
ATOM     68  C   UNL A   1      47.030  26.641  35.821  1.00  0.00     0.022 A 
BRANCH  65  69
ATOM     69  S   UNL A   1      45.590  24.526  36.925  1.00  0.00     0.124 S 
ATOM     70  O   UNL A   1      44.467  24.971  37.745  1.00  0.00    -0.237 OA
ATOM     71  O   UNL A   1      45.307  23.438  35.995  1.00  0.00    -0.237 OA
ATOM     72  O   UNL A   1      46.869  24.426  37.626  1.00  0.00    -0.744 OA
ENDBRANCH  65  69
ENDBRANCH  39  62
ENDBRANCH  13  14
ENDBRANCH   6   8
ENDBRANCH   3   4
ENDBRANCH   2   3
ENDBRANCH   1   2
BRANCH   1  73
ATOM     73  C   UNL A   1      31.657  28.112  23.399  1.00  0.00     0.002 C 
BRANCH  73  74
ATOM     74  C   UNL A   1      31.028  27.041  22.500  1.00  0.00     0.021 C 
BRANCH  74  75
ATOM     75  C   UNL A   1      31.078  25.631  23.086  1.00  0.00     0.116 C 
BRANCH  75  76
ATOM     76  N   UNL A   1      31.822  24.732  22.221  1.00  0.00    -0.356 N 
ATOM     77  C   UNL A   1      32.971  24.026  22.401  1.00  0.00     0.226 C 
ATOM     78  H   UNL A   1      31.417  24.610  21.331  1.00  0.00     0.163 HD
ATOM     79  O   UNL A   1      33.398  23.420  21.415  1.00  0.00    -0.274 OA
BRANCH  77  80
ATOM     80  C   UNL A   1      33.636  23.876  23.799  1.00  0.00     0.055 C 
ATOM     81  C   UNL A   1      34.242  25.239  24.208  1.00  0.00     0.017 C 
ATOM     82  C   UNL A   1      32.534  23.688  24.873  1.00  0.00     0.017 C 
ATOM     83  C   UNL A   1      34.114  25.340  25.719  1.00  0.00     0.001 C 
ATOM     84  C   UNL A   1      32.829  24.614  26.050  1.00  0.00     0.001 C 
BRANCH  80  85
ATOM     85  C   UNL A   1      34.679  22.696  23.676  1.00  0.00     0.049 C 
ATOM     86  C   UNL A   1      36.158  23.160  23.653  1.00  0.00     0.144 C 
ATOM     87  C   UNL A   1      34.664  21.492  24.642  1.00  0.00     0.134 C 
ATOM     88  S   UNL A   1      36.903  22.699  25.209  1.00  0.00     0.153 S 
ATOM     89  C   UNL A   1      35.523  21.801  25.855  1.00  0.00     0.169 C 
ATOM     90  O   UNL A   1      37.976  21.765  24.945  1.00  0.00    -0.229 OA
ATOM     91  O   UNL A   1      37.108  23.886  26.017  1.00  0.00    -0.229 OA
BRANCH  87  92
ATOM     92  O   UNL A   1      33.367  21.092  25.031  1.00  0.00    -0.392 OA
ATOM     93  H   UNL A   1      33.260  20.141  24.871  1.00  0.00     0.211 HD
ENDBRANCH  87  92
ENDBRANCH  80  85
ENDBRANCH  77  80
ENDBRANCH  75  76
ENDBRANCH  74  75
ENDBRANCH  73  74
ENDBRANCH   1  73
TORSDOF 18
ENDMDL
MODEL 3
REMARK VINA RESULT:     -11.6      1.780      2.427
REMARK SMILES O=C(NCCCCCCNC(=O)C1([C@H]2CS(=O)(=O)C[C@H]2O)CCCC1)c1ccc(-c2c3nc(c(-c4cc(S(=O)(=O)[O-])ccc4F)c4ccc([nH]4)c(-c4cc(S(=O)(=O)[O-])ccc4F)c4nc(c(-c5cc(S(=O)(=O)[O-])ccc5F)c5ccc2[nH]5)C=C4)C=C3)cc1
REMARK SMILES IDX 6 1 5 2 4 3 3 4 1 5 2 6 26 8 27 9 88 10 28 11 87 12 29 13
REMARK SMILES IDX 30 14 31 15 81 16 32 17 86 18 80 19 82 20 33 21 85 22 79 23
REMARK SMILES IDX 78 24 34 26 66 27 46 28 65 29 47 30 50 31 64 32 83 33 48 34
REMARK SMILES IDX 49 35 63 37 84 38 51 39 35 40 36 41 44 42 37 43 43 44 45 45
REMARK SMILES IDX 42 46 38 47 39 48 40 49 41 50 67 51 68 52 76 53 69 54 75 55
REMARK SMILES IDX 77 56 74 57 70 58 71 59 72 60 73 61 52 62 53 63 61 64 54 65
REMARK SMILES IDX 60 66 62 67 59 68 55 69 56 70 57 71 58 72 7 73 8 74 9 75
REMARK SMILES IDX 10 76 11 77 12 79 13 80 22 81 25 82 23 83 24 84 14 85 15 86
REMARK SMILES IDX 20 87 16 88 19 89 17 90 18 91 21 92
REMARK H PARENT 3 7 82 25 50 36 10 78 21 93
REMARK Flexibility Score: inf
ROOT
ATOM      1  C   UNL A   1      32.828  28.780  25.168  1.00  0.00     0.002 C 
ENDROOT
BRANCH   1   2
ATOM      2  C   UNL A   1      32.020  30.063  25.370  1.00  0.00     0.021 C 
BRANCH   2   3
ATOM      3  C   UNL A   1      32.001  30.578  26.803  1.00  0.00     0.116 C 
BRANCH   3   4
ATOM      4  N   UNL A   1      31.985  32.032  26.875  1.00  0.00    -0.352 N 
ATOM      5  O   UNL A   1      32.640  34.081  27.559  1.00  0.00    -0.269 OA
ATOM      6  C   UNL A   1      32.897  32.885  27.450  1.00  0.00     0.251 C 
ATOM      7  H   UNL A   1      31.209  32.466  26.452  1.00  0.00     0.163 HD
BRANCH   6   8
ATOM      8  C   UNL A   1      34.178  32.348  27.959  1.00  0.00     0.039 A 
ATOM      9  C   UNL A   1      34.269  31.015  28.366  1.00  0.00     0.014 A 
ATOM     10  C   UNL A   1      35.287  33.190  28.066  1.00  0.00     0.014 A 
ATOM     11  C   UNL A   1      35.396  30.583  29.051  1.00  0.00     0.010 A 
ATOM     12  C   UNL A   1      36.463  32.716  28.656  1.00  0.00     0.010 A 
ATOM     13  C   UNL A   1      36.512  31.422  29.200  1.00  0.00    -0.014 A 
BRANCH  13  14
ATOM     14  C   UNL A   1      37.714  30.909  29.913  1.00  0.00     0.031 A 
ATOM     15  C   UNL A   1      37.997  31.294  31.341  1.00  0.00     0.074 A 
ATOM     16  C   UNL A   1      38.529  30.045  29.274  1.00  0.00     0.049 A 
ATOM     17  N   UNL A   1      38.975  30.906  32.122  1.00  0.00    -0.248 NA
ATOM     18  C   UNL A   1      37.070  32.244  31.974  1.00  0.00     0.031 C 
ATOM     19  C   UNL A   1      38.356  29.595  27.890  1.00  0.00     0.029 A 
ATOM     20  N   UNL A   1      39.641  29.368  29.703  1.00  0.00    -0.354 N 
ATOM     21  C   UNL A   1      38.796  31.580  33.327  1.00  0.00     0.074 A 
ATOM     22  C   UNL A   1      37.636  32.430  33.158  1.00  0.00     0.031 C 
ATOM     23  C   UNL A   1      39.287  28.673  27.607  1.00  0.00     0.029 A 
ATOM     24  C   UNL A   1      40.173  28.525  28.754  1.00  0.00     0.049 A 
ATOM     25  H   UNL A   1      40.023  29.475  30.604  1.00  0.00     0.167 HD
ATOM     26  C   UNL A   1      39.528  31.491  34.468  1.00  0.00     0.034 A 
ATOM     27  C   UNL A   1      41.264  27.736  28.790  1.00  0.00     0.034 A 
ATOM     28  C   UNL A   1      40.683  30.636  34.618  1.00  0.00     0.049 A 
ATOM     29  C   UNL A   1      42.085  27.696  30.051  1.00  0.00     0.074 A 
ATOM     30  C   UNL A   1      41.473  30.445  35.739  1.00  0.00     0.029 A 
ATOM     31  N   UNL A   1      41.225  29.840  33.616  1.00  0.00    -0.354 N 
ATOM     32  N   UNL A   1      41.886  28.321  31.189  1.00  0.00    -0.248 NA
ATOM     33  C   UNL A   1      43.272  26.833  30.034  1.00  0.00     0.031 C 
ATOM     34  C   UNL A   1      42.537  29.606  35.391  1.00  0.00     0.029 A 
ATOM     35  C   UNL A   1      42.358  29.187  34.083  1.00  0.00     0.049 A 
ATOM     36  H   UNL A   1      40.859  29.750  32.707  1.00  0.00     0.167 HD
ATOM     37  C   UNL A   1      42.905  27.896  32.035  1.00  0.00     0.074 A 
ATOM     38  C   UNL A   1      43.702  26.949  31.281  1.00  0.00     0.031 C 
ATOM     39  C   UNL A   1      43.154  28.249  33.323  1.00  0.00     0.034 A 
BRANCH  26  40
ATOM     40  C   UNL A   1      39.131  32.382  35.625  1.00  0.00     0.023 A 
ATOM     41  C   UNL A   1      39.553  33.720  35.718  1.00  0.00     0.031 A 
ATOM     42  C   UNL A   1      38.331  31.876  36.667  1.00  0.00     0.131 A 
ATOM     43  C   UNL A   1      39.242  34.478  36.857  1.00  0.00     0.055 A 
ATOM     44  C   UNL A   1      37.949  32.663  37.756  1.00  0.00     0.041 A 
ATOM     45  F   UNL A   1      37.913  30.601  36.651  1.00  0.00    -0.206 F 
ATOM     46  C   UNL A   1      38.419  33.968  37.864  1.00  0.00     0.022 A 
BRANCH  43  47
ATOM     47  S   UNL A   1      40.059  36.083  37.078  1.00  0.00     0.124 S 
ATOM     48  O   UNL A   1      41.443  35.681  37.319  1.00  0.00    -0.237 OA
ATOM     49  O   UNL A   1      39.802  36.747  35.805  1.00  0.00    -0.237 OA
ATOM     50  O   UNL A   1      39.376  36.661  38.234  1.00  0.00    -0.744 OA
ENDBRANCH  43  47
ENDBRANCH  26  40
BRANCH  27  51
ATOM     51  C   UNL A   1      41.656  26.937  27.594  1.00  0.00     0.023 A 
ATOM     52  C   UNL A   1      41.479  25.545  27.563  1.00  0.00     0.031 A 
ATOM     53  C   UNL A   1      42.257  27.550  26.478  1.00  0.00     0.131 A 
ATOM     54  C   UNL A   1      41.945  24.807  26.465  1.00  0.00     0.055 A 
ATOM     55  C   UNL A   1      42.657  26.818  25.361  1.00  0.00     0.041 A 
ATOM     56  F   UNL A   1      42.449  28.879  26.454  1.00  0.00    -0.206 F 
ATOM     57  C   UNL A   1      42.517  25.435  25.356  1.00  0.00     0.022 A 
BRANCH  54  58
ATOM     58  S   UNL A   1      41.882  22.997  26.552  1.00  0.00     0.124 S 
ATOM     59  O   UNL A   1      42.147  22.625  25.167  1.00  0.00    -0.237 OA
ATOM     60  O   UNL A   1      42.943  22.702  27.510  1.00  0.00    -0.237 OA
ATOM     61  O   UNL A   1      40.525  22.726  27.024  1.00  0.00    -0.744 OA
ENDBRANCH  54  58
ENDBRANCH  27  51
BRANCH  39  62
ATOM     62  C   UNL A   1      44.301  27.551  34.017  1.00  0.00     0.023 A 
ATOM     63  C   UNL A   1      44.150  26.297  34.635  1.00  0.00     0.031 A 
ATOM     64  C   UNL A   1      45.561  28.172  34.089  1.00  0.00     0.131 A 
ATOM     65  C   UNL A   1      45.215  25.743  35.364  1.00  0.00     0.055 A 
ATOM     66  C   UNL A   1      46.639  27.580  34.748  1.00  0.00     0.041 A 
ATOM     67  F   UNL A   1      45.765  29.373  33.524  1.00  0.00    -0.206 F 
ATOM     68  C   UNL A   1      46.464  26.366  35.407  1.00  0.00     0.022 A 
BRANCH  65  69
ATOM     69  S   UNL A   1      44.907  24.263  36.366  1.00  0.00     0.124 S 
ATOM     70  O   UNL A   1      44.616  24.839  37.675  1.00  0.00    -0.237 OA
ATOM     71  O   UNL A   1      43.778  23.649  35.675  1.00  0.00    -0.237 OA
ATOM     72  O   UNL A   1      46.164  23.522  36.279  1.00  0.00    -0.744 OA
ENDBRANCH  65  69
ENDBRANCH  39  62
ENDBRANCH  13  14
ENDBRANCH   6   8
ENDBRANCH   3   4
ENDBRANCH   2   3
ENDBRANCH   1   2
BRANCH   1  73
ATOM     73  C   UNL A   1      32.841  27.828  26.368  1.00  0.00     0.002 C 
BRANCH  73  74
ATOM     74  C   UNL A   1      31.466  27.305  26.802  1.00  0.00     0.021 C 
BRANCH  74  75
ATOM     75  C   UNL A   1      30.948  26.143  25.957  1.00  0.00     0.116 C 
BRANCH  75  76
ATOM     76  N   UNL A   1      30.775  24.948  26.764  1.00  0.00    -0.356 N 
ATOM     77  C   UNL A   1      31.212  23.668  26.614  1.00  0.00     0.226 C 
ATOM     78  H   UNL A   1      30.238  25.091  27.577  1.00  0.00     0.163 HD
ATOM     79  O   UNL A   1      30.802  22.852  27.445  1.00  0.00    -0.274 OA
BRANCH  77  80
ATOM     80  C   UNL A   1      32.273  23.278  25.547  1.00  0.00     0.055 C 
ATOM     81  C   UNL A   1      32.379  21.735  25.495  1.00  0.00     0.017 C 
ATOM     82  C   UNL A   1      31.721  23.601  24.135  1.00  0.00     0.017 C 
ATOM     83  C   UNL A   1      32.688  21.365  24.054  1.00  0.00     0.001 C 
ATOM     84  C   UNL A   1      31.966  22.401  23.222  1.00  0.00     0.001 C 
BRANCH  80  85
ATOM     85  C   UNL A   1      33.608  24.022  25.945  1.00  0.00     0.049 C 
ATOM     86  C   UNL A   1      34.613  23.140  26.730  1.00  0.00     0.144 C 
ATOM     87  C   UNL A   1      34.471  24.762  24.901  1.00  0.00     0.134 C 
ATOM     88  S   UNL A   1      35.986  22.776  25.647  1.00  0.00     0.153 S 
ATOM     89  C   UNL A   1      35.476  23.798  24.296  1.00  0.00     0.169 C 
ATOM     90  O   UNL A   1      37.186  23.342  26.222  1.00  0.00    -0.229 OA
ATOM     91  O   UNL A   1      35.920  21.388  25.233  1.00  0.00    -0.229 OA
BRANCH  87  92
ATOM     92  O   UNL A   1      33.718  25.405  23.894  1.00  0.00    -0.392 OA
ATOM     93  H   UNL A   1      34.293  26.004  23.393  1.00  0.00     0.211 HD
ENDBRANCH  87  92
ENDBRANCH  80  85
ENDBRANCH  77  80
ENDBRANCH  75  76
ENDBRANCH  74  75
ENDBRANCH  73  74
ENDBRANCH   1  73
TORSDOF 18
ENDMDL
