MODEL 1
REMARK VINA RESULT:     -11.0      0.000      0.000
REMARK SMILES CC(C)[C@@](C)(CC(=O)N[C@H]1CCCC1(C)C)C(=O)NCCCCCCNC(=O)c1ccc(-c2c3nc(c(-c4cc(S(=O)(=O)[O-])ccc4F)c4ccc([nH]4)c(-c4cc(S(=O)(=O)[O-])ccc4F)c4nc(c(-c5cc(S(=O)(=O)[O-])ccc5F)c5ccc2[nH]5)C=C4)C=C3)cc1
REMARK SMILES IDX 22 1 21 2 20 3 19 4 17 5 18 6 4 8 5 9 2 10 1 11 3 12 6 13
REMARK SMILES IDX 7 14 8 15 9 16 10 18 11 19 14 20 12 21 13 22 15 23 16 24
REMARK SMILES IDX 23 25 24 26 25 27 26 28 27 29 28 31 29 32 30 33 91 34 31 35
REMARK SMILES IDX 90 36 32 37 33 38 34 39 84 40 35 41 89 42 83 43 85 44 36 45
REMARK SMILES IDX 88 46 82 47 81 48 37 50 69 51 49 52 68 53 50 54 53 55 67 56
REMARK SMILES IDX 86 57 51 58 52 59 66 61 87 62 54 63 38 64 39 65 47 66 40 67
REMARK SMILES IDX 46 68 48 69 45 70 41 71 42 72 43 73 44 74 70 75 71 76 79 77
REMARK SMILES IDX 72 78 78 79 80 80 77 81 73 82 74 83 75 84 76 85 55 86 56 87
REMARK SMILES IDX 64 88 57 89 63 90 65 91 62 92 58 93 59 94 60 95 61 96
REMARK H PARENT 19 7 9 17 26 30 85 49 53 60
REMARK Flexibility Score: inf
ROOT
ATOM      1  C   UNL A   1      32.670  29.645  26.998  1.00  0.00     0.002 C 
ENDROOT
BRANCH   1   2
ATOM      2  C   UNL A   1      32.399  28.214  27.486  1.00  0.00     0.021 C 
BRANCH   2   3
ATOM      3  C   UNL A   1      33.028  27.161  26.587  1.00  0.00     0.116 C 
BRANCH   3   4
ATOM      4  N   UNL A   1      32.087  26.072  26.426  1.00  0.00    -0.356 N 
ATOM      5  C   UNL A   1      31.256  25.716  25.427  1.00  0.00     0.226 C 
ATOM      6  O   UNL A   1      30.385  24.904  25.752  1.00  0.00    -0.274 OA
ATOM      7  H   UNL A   1      32.045  25.472  27.206  1.00  0.00     0.163 HD
BRANCH   5   8
ATOM      8  C   UNL A   1      31.491  26.159  23.971  1.00  0.00     0.057 C 
ATOM      9  C   UNL A   1      30.859  24.982  23.134  1.00  0.00     0.022 C 
BRANCH   8  10
ATOM     10  C   UNL A   1      30.778  27.578  23.797  1.00  0.00    -0.002 C 
ATOM     11  C   UNL A   1      31.505  28.581  22.891  1.00  0.00     0.008 C 
ATOM     12  C   UNL A   1      29.285  27.557  23.396  1.00  0.00     0.008 C 
ENDBRANCH   8  10
BRANCH   8  13
ATOM     13  C   UNL A   1      32.994  26.196  23.547  1.00  0.00     0.116 C 
BRANCH  13  14
ATOM     14  C   UNL A   1      33.447  25.372  22.383  1.00  0.00     0.221 C 
ATOM     15  O   UNL A   1      33.428  25.878  21.252  1.00  0.00    -0.275 OA
ATOM     16  N   UNL A   1      33.883  24.107  22.428  1.00  0.00    -0.353 N 
ATOM     17  H   UNL A   1      33.955  23.810  21.492  1.00  0.00     0.163 HD
BRANCH  16  18
ATOM     18  C   UNL A   1      34.306  22.952  23.255  1.00  0.00     0.087 C 
ATOM     19  C   UNL A   1      35.775  23.300  23.609  1.00  0.00     0.025 C 
ATOM     20  C   UNL A   1      33.797  22.432  24.648  1.00  0.00    -0.015 C 
ATOM     21  C   UNL A   1      35.746  23.816  25.050  1.00  0.00     0.003 C 
ATOM     22  C   UNL A   1      34.364  23.486  25.599  1.00  0.00     0.008 C 
ATOM     23  C   UNL A   1      32.342  22.143  24.982  1.00  0.00     0.013 C 
ATOM     24  C   UNL A   1      34.447  21.035  24.894  1.00  0.00     0.013 C 
ENDBRANCH  16  18
ENDBRANCH  13  14
ENDBRANCH   8  13
ENDBRANCH   5   8
ENDBRANCH   3   4
ENDBRANCH   2   3
ENDBRANCH   1   2
BRANCH   1  25
ATOM     25  C   UNL A   1      31.420  30.404  26.532  1.00  0.00     0.002 C 
BRANCH  25  26
ATOM     26  C   UNL A   1      31.596  31.921  26.471  1.00  0.00     0.021 C 
BRANCH  26  27
ATOM     27  C   UNL A   1      32.790  32.424  27.264  1.00  0.00     0.116 C 
BRANCH  27  28
ATOM     28  N   UNL A   1      32.644  33.828  27.601  1.00  0.00    -0.352 N 
ATOM     29  C   UNL A   1      33.276  34.536  28.591  1.00  0.00     0.251 C 
ATOM     30  H   UNL A   1      32.008  34.338  27.048  1.00  0.00     0.163 HD
ATOM     31  O   UNL A   1      32.869  35.638  28.920  1.00  0.00    -0.269 OA
BRANCH  29  32
ATOM     32  C   UNL A   1      34.438  33.918  29.259  1.00  0.00     0.039 A 
ATOM     33  C   UNL A   1      34.212  32.953  30.238  1.00  0.00     0.014 A 
ATOM     34  C   UNL A   1      35.740  34.264  28.880  1.00  0.00     0.014 A 
ATOM     35  C   UNL A   1      35.300  32.296  30.809  1.00  0.00     0.010 A 
ATOM     36  C   UNL A   1      36.817  33.548  29.388  1.00  0.00     0.010 A 
ATOM     37  C   UNL A   1      36.607  32.563  30.364  1.00  0.00    -0.014 A 
BRANCH  37  38
ATOM     38  C   UNL A   1      37.764  31.812  30.912  1.00  0.00     0.031 A 
ATOM     39  C   UNL A   1      38.293  32.140  32.281  1.00  0.00     0.074 A 
ATOM     40  C   UNL A   1      38.354  30.863  30.157  1.00  0.00     0.049 A 
ATOM     41  N   UNL A   1      39.313  31.626  32.915  1.00  0.00    -0.248 NA
ATOM     42  C   UNL A   1      37.598  33.203  33.027  1.00  0.00     0.031 C 
ATOM     43  C   UNL A   1      37.946  30.489  28.800  1.00  0.00     0.029 A 
ATOM     44  N   UNL A   1      39.422  30.043  30.416  1.00  0.00    -0.354 N 
ATOM     45  C   UNL A   1      39.389  32.303  34.127  1.00  0.00     0.074 A 
ATOM     46  C   UNL A   1      38.346  33.305  34.116  1.00  0.00     0.031 C 
ATOM     47  C   UNL A   1      38.731  29.493  28.362  1.00  0.00     0.029 A 
ATOM     48  C   UNL A   1      39.736  29.195  29.378  1.00  0.00     0.049 A 
ATOM     49  H   UNL A   1      39.919  30.059  31.267  1.00  0.00     0.167 HD
ATOM     50  C   UNL A   1      40.241  32.092  35.160  1.00  0.00     0.034 A 
ATOM     51  C   UNL A   1      40.730  28.294  29.253  1.00  0.00     0.034 A 
ATOM     52  C   UNL A   1      41.266  31.079  35.156  1.00  0.00     0.049 A 
ATOM     53  C   UNL A   1      41.686  28.109  30.407  1.00  0.00     0.074 A 
ATOM     54  C   UNL A   1      42.140  30.739  36.173  1.00  0.00     0.029 A 
ATOM     55  N   UNL A   1      41.565  30.248  34.084  1.00  0.00    -0.354 N 
ATOM     56  N   UNL A   1      41.702  28.716  31.572  1.00  0.00    -0.248 NA
ATOM     57  C   UNL A   1      42.750  27.114  30.234  1.00  0.00     0.031 C 
ATOM     58  C   UNL A   1      43.021  29.769  35.688  1.00  0.00     0.029 A 
ATOM     59  C   UNL A   1      42.638  29.431  34.400  1.00  0.00     0.049 A 
ATOM     60  H   UNL A   1      41.085  30.242  33.224  1.00  0.00     0.167 HD
ATOM     61  C   UNL A   1      42.756  28.145  32.281  1.00  0.00     0.074 A 
ATOM     62  C   UNL A   1      43.334  27.134  31.423  1.00  0.00     0.031 C 
ATOM     63  C   UNL A   1      43.207  28.430  33.530  1.00  0.00     0.034 A 
BRANCH  50  64
ATOM     64  C   UNL A   1      40.121  32.988  36.368  1.00  0.00     0.023 A 
ATOM     65  C   UNL A   1      39.383  32.612  37.503  1.00  0.00     0.031 A 
ATOM     66  C   UNL A   1      40.778  34.232  36.390  1.00  0.00     0.131 A 
ATOM     67  C   UNL A   1      39.284  33.488  38.595  1.00  0.00     0.055 A 
ATOM     68  C   UNL A   1      40.738  35.066  37.510  1.00  0.00     0.041 A 
ATOM     69  F   UNL A   1      41.476  34.655  35.325  1.00  0.00    -0.206 F 
ATOM     70  C   UNL A   1      39.980  34.700  38.618  1.00  0.00     0.022 A 
BRANCH  67  71
ATOM     71  S   UNL A   1      38.144  33.073  39.943  1.00  0.00     0.124 S 
ATOM     72  O   UNL A   1      36.969  32.615  39.204  1.00  0.00    -0.237 OA
ATOM     73  O   UNL A   1      38.879  32.047  40.673  1.00  0.00    -0.237 OA
ATOM     74  O   UNL A   1      37.971  34.340  40.649  1.00  0.00    -0.744 OA
ENDBRANCH  67  71
ENDBRANCH  50  64
BRANCH  51  75
ATOM     75  C   UNL A   1      40.905  27.516  27.991  1.00  0.00     0.023 A 
ATOM     76  C   UNL A   1      40.574  26.153  27.929  1.00  0.00     0.031 A 
ATOM     77  C   UNL A   1      41.483  28.102  26.851  1.00  0.00     0.131 A 
ATOM     78  C   UNL A   1      40.893  25.405  26.784  1.00  0.00     0.055 A 
ATOM     79  C   UNL A   1      41.730  27.370  25.687  1.00  0.00     0.041 A 
ATOM     80  F   UNL A   1      41.822  29.401  26.851  1.00  0.00    -0.206 F 
ATOM     81  C   UNL A   1      41.453  26.008  25.657  1.00  0.00     0.022 A 
BRANCH  78  82
ATOM     82  S   UNL A   1      40.693  23.602  26.845  1.00  0.00     0.124 S 
ATOM     83  O   UNL A   1      41.640  23.167  25.826  1.00  0.00    -0.237 OA
ATOM     84  O   UNL A   1      41.054  23.305  28.227  1.00  0.00    -0.237 OA
ATOM     85  O   UNL A   1      39.284  23.407  26.514  1.00  0.00    -0.744 OA
ENDBRANCH  78  82
ENDBRANCH  51  75
BRANCH  63  86
ATOM     86  C   UNL A   1      44.353  27.598  34.054  1.00  0.00     0.023 A 
ATOM     87  C   UNL A   1      44.138  26.436  34.814  1.00  0.00     0.031 A 
ATOM     88  C   UNL A   1      45.681  27.983  33.797  1.00  0.00     0.131 A 
ATOM     89  C   UNL A   1      45.233  25.735  35.344  1.00  0.00     0.055 A 
ATOM     90  C   UNL A   1      46.766  27.242  34.265  1.00  0.00     0.041 A 
ATOM     91  F   UNL A   1      45.947  29.088  33.080  1.00  0.00    -0.206 F 
ATOM     92  C   UNL A   1      46.545  26.119  35.057  1.00  0.00     0.022 A 
BRANCH  89  93
ATOM     93  S   UNL A   1      44.915  24.378  36.504  1.00  0.00     0.124 S 
ATOM     94  O   UNL A   1      44.120  23.464  35.691  1.00  0.00    -0.237 OA
ATOM     95  O   UNL A   1      46.263  23.928  36.835  1.00  0.00    -0.237 OA
ATOM     96  O   UNL A   1      44.192  25.024  37.598  1.00  0.00    -0.744 OA
ENDBRANCH  89  93
ENDBRANCH  63  86
ENDBRANCH  37  38
ENDBRANCH  29  32
ENDBRANCH  27  28
ENDBRANCH  26  27
ENDBRANCH  25  26
ENDBRANCH   1  25
TORSDOF 20
ENDMDL
MODEL 2
REMARK VINA RESULT:     -10.9      2.311      7.880
REMARK SMILES CC(C)[C@@](C)(CC(=O)N[C@H]1CCCC1(C)C)C(=O)NCCCCCCNC(=O)c1ccc(-c2c3nc(c(-c4cc(S(=O)(=O)[O-])ccc4F)c4ccc([nH]4)c(-c4cc(S(=O)(=O)[O-])ccc4F)c4nc(c(-c5cc(S(=O)(=O)[O-])ccc5F)c5ccc2[nH]5)C=C4)C=C3)cc1
REMARK SMILES IDX 22 1 21 2 20 3 19 4 17 5 18 6 4 8 5 9 2 10 1 11 3 12 6 13
REMARK SMILES IDX 7 14 8 15 9 16 10 18 11 19 14 20 12 21 13 22 15 23 16 24
REMARK SMILES IDX 23 25 24 26 25 27 26 28 27 29 28 31 29 32 30 33 91 34 31 35
REMARK SMILES IDX 90 36 32 37 33 38 34 39 84 40 35 41 89 42 83 43 85 44 36 45
REMARK SMILES IDX 88 46 82 47 81 48 37 50 69 51 49 52 68 53 50 54 53 55 67 56
REMARK SMILES IDX 86 57 51 58 52 59 66 61 87 62 54 63 38 64 39 65 47 66 40 67
REMARK SMILES IDX 46 68 48 69 45 70 41 71 42 72 43 73 44 74 70 75 71 76 79 77
REMARK SMILES IDX 72 78 78 79 80 80 77 81 73 82 74 83 75 84 76 85 55 86 56 87
REMARK SMILES IDX 64 88 57 89 63 90 65 91 62 92 58 93 59 94 60 95 61 96
REMARK H PARENT 19 7 9 17 26 30 85 49 53 60
REMARK Flexibility Score: inf
ROOT
ATOM      1  C   UNL A   1      33.152  29.981  26.919  1.00  0.00     0.002 C 
ENDROOT
BRANCH   1   2
ATOM      2  C   UNL A   1      33.133  28.537  27.444  1.00  0.00     0.021 C 
BRANCH   2   3
ATOM      3  C   UNL A   1      33.472  27.518  26.367  1.00  0.00     0.116 C 
BRANCH   3   4
ATOM      4  N   UNL A   1      32.454  26.489  26.373  1.00  0.00    -0.356 N 
ATOM      5  C   UNL A   1      31.508  26.126  25.484  1.00  0.00     0.226 C 
ATOM      6  O   UNL A   1      30.625  25.398  25.946  1.00  0.00    -0.274 OA
ATOM      7  H   UNL A   1      32.452  25.944  27.193  1.00  0.00     0.163 HD
BRANCH   5   8
ATOM      8  C   UNL A   1      31.625  26.457  23.985  1.00  0.00     0.057 C 
ATOM      9  C   UNL A   1      30.756  25.333  23.303  1.00  0.00     0.022 C 
BRANCH   8  10
ATOM     10  C   UNL A   1      31.081  27.948  23.795  1.00  0.00    -0.002 C 
ATOM     11  C   UNL A   1      31.990  28.890  22.995  1.00  0.00     0.008 C 
ATOM     12  C   UNL A   1      29.639  28.094  23.259  1.00  0.00     0.008 C 
ENDBRANCH   8  10
BRANCH   8  13
ATOM     13  C   UNL A   1      33.060  26.272  23.398  1.00  0.00     0.116 C 
BRANCH  13  14
ATOM     14  C   UNL A   1      33.263  25.350  22.237  1.00  0.00     0.221 C 
ATOM     15  O   UNL A   1      33.179  25.810  21.090  1.00  0.00    -0.275 OA
ATOM     16  N   UNL A   1      33.532  24.040  22.302  1.00  0.00    -0.353 N 
ATOM     17  H   UNL A   1      33.455  23.701  21.381  1.00  0.00     0.163 HD
BRANCH  16  18
ATOM     18  C   UNL A   1      33.894  22.872  23.137  1.00  0.00     0.087 C 
ATOM     19  C   UNL A   1      35.403  23.099  23.414  1.00  0.00     0.025 C 
ATOM     20  C   UNL A   1      33.411  22.428  24.565  1.00  0.00    -0.015 C 
ATOM     21  C   UNL A   1      35.488  23.646  24.841  1.00  0.00     0.003 C 
ATOM     22  C   UNL A   1      34.110  23.449  25.461  1.00  0.00     0.008 C 
ATOM     23  C   UNL A   1      31.954  22.272  24.973  1.00  0.00     0.013 C 
ATOM     24  C   UNL A   1      33.950  20.985  24.817  1.00  0.00     0.013 C 
ENDBRANCH  16  18
ENDBRANCH  13  14
ENDBRANCH   8  13
ENDBRANCH   5   8
ENDBRANCH   3   4
ENDBRANCH   2   3
ENDBRANCH   1   2
BRANCH   1  25
ATOM     25  C   UNL A   1      31.763  30.593  26.696  1.00  0.00     0.002 C 
BRANCH  25  26
ATOM     26  C   UNL A   1      31.752  32.121  26.657  1.00  0.00     0.021 C 
BRANCH  26  27
ATOM     27  C   UNL A   1      32.891  32.755  27.437  1.00  0.00     0.116 C 
BRANCH  27  28
ATOM     28  N   UNL A   1      32.630  34.158  27.701  1.00  0.00    -0.352 N 
ATOM     29  C   UNL A   1      33.144  34.946  28.699  1.00  0.00     0.251 C 
ATOM     30  H   UNL A   1      32.003  34.601  27.084  1.00  0.00     0.163 HD
ATOM     31  O   UNL A   1      32.644  36.030  28.950  1.00  0.00    -0.269 OA
BRANCH  29  32
ATOM     32  C   UNL A   1      34.293  34.435  29.471  1.00  0.00     0.039 A 
ATOM     33  C   UNL A   1      34.054  33.805  30.690  1.00  0.00     0.014 A 
ATOM     34  C   UNL A   1      35.592  34.542  28.961  1.00  0.00     0.014 A 
ATOM     35  C   UNL A   1      35.122  33.237  31.383  1.00  0.00     0.010 A 
ATOM     36  C   UNL A   1      36.640  33.901  29.610  1.00  0.00     0.010 A 
ATOM     37  C   UNL A   1      36.416  33.249  30.832  1.00  0.00    -0.014 A 
BRANCH  37  38
ATOM     38  C   UNL A   1      37.542  32.578  31.527  1.00  0.00     0.031 A 
ATOM     39  C   UNL A   1      38.267  31.441  30.860  1.00  0.00     0.074 A 
ATOM     40  C   UNL A   1      37.881  32.973  32.771  1.00  0.00     0.049 A 
ATOM     41  N   UNL A   1      39.246  30.707  31.318  1.00  0.00    -0.248 NA
ATOM     42  C   UNL A   1      37.817  31.065  29.510  1.00  0.00     0.031 C 
ATOM     43  C   UNL A   1      37.221  34.042  33.526  1.00  0.00     0.029 A 
ATOM     44  N   UNL A   1      38.859  32.525  33.621  1.00  0.00    -0.354 N 
ATOM     45  C   UNL A   1      39.525  29.779  30.321  1.00  0.00     0.074 A 
ATOM     46  C   UNL A   1      38.573  30.007  29.256  1.00  0.00     0.031 C 
ATOM     47  C   UNL A   1      37.834  34.187  34.711  1.00  0.00     0.029 A 
ATOM     48  C   UNL A   1      38.891  33.187  34.828  1.00  0.00     0.049 A 
ATOM     49  H   UNL A   1      39.482  31.797  33.390  1.00  0.00     0.167 HD
ATOM     50  C   UNL A   1      40.499  28.838  30.292  1.00  0.00     0.034 A 
ATOM     51  C   UNL A   1      39.671  32.998  35.910  1.00  0.00     0.034 A 
ATOM     52  C   UNL A   1      41.447  28.635  31.360  1.00  0.00     0.049 A 
ATOM     53  C   UNL A   1      40.723  31.915  35.862  1.00  0.00     0.074 A 
ATOM     54  C   UNL A   1      42.512  27.753  31.407  1.00  0.00     0.029 A 
ATOM     55  N   UNL A   1      41.441  29.313  32.572  1.00  0.00    -0.354 N 
ATOM     56  N   UNL A   1      41.014  31.090  34.883  1.00  0.00    -0.248 NA
ATOM     57  C   UNL A   1      41.556  31.746  37.058  1.00  0.00     0.031 C 
ATOM     58  C   UNL A   1      43.092  27.834  32.675  1.00  0.00     0.029 A 
ATOM     59  C   UNL A   1      42.454  28.836  33.389  1.00  0.00     0.049 A 
ATOM     60  H   UNL A   1      40.808  30.027  32.817  1.00  0.00     0.167 HD
ATOM     61  C   UNL A   1      42.089  30.329  35.336  1.00  0.00     0.074 A 
ATOM     62  C   UNL A   1      42.406  30.811  36.664  1.00  0.00     0.031 C 
ATOM     63  C   UNL A   1      42.755  29.323  34.714  1.00  0.00     0.034 A 
BRANCH  50  64
ATOM     64  C   UNL A   1      40.575  27.937  29.085  1.00  0.00     0.023 A 
ATOM     65  C   UNL A   1      41.511  28.147  28.058  1.00  0.00     0.031 A 
ATOM     66  C   UNL A   1      39.710  26.833  28.973  1.00  0.00     0.131 A 
ATOM     67  C   UNL A   1      41.531  27.294  26.943  1.00  0.00     0.055 A 
ATOM     68  C   UNL A   1      39.785  25.945  27.898  1.00  0.00     0.041 A 
ATOM     69  F   UNL A   1      38.779  26.598  29.910  1.00  0.00    -0.206 F 
ATOM     70  C   UNL A   1      40.694  26.178  26.871  1.00  0.00     0.022 A 
BRANCH  67  71
ATOM     71  S   UNL A   1      42.591  27.725  25.536  1.00  0.00     0.124 S 
ATOM     72  O   UNL A   1      42.462  26.537  24.696  1.00  0.00    -0.237 OA
ATOM     73  O   UNL A   1      41.963  28.939  25.028  1.00  0.00    -0.237 OA
ATOM     74  O   UNL A   1      43.907  27.909  26.143  1.00  0.00    -0.744 OA
ENDBRANCH  67  71
ENDBRANCH  50  64
BRANCH  51  75
ATOM     75  C   UNL A   1      39.483  33.818  37.144  1.00  0.00     0.023 A 
ATOM     76  C   UNL A   1      40.290  34.937  37.400  1.00  0.00     0.031 A 
ATOM     77  C   UNL A   1      38.547  33.447  38.126  1.00  0.00     0.131 A 
ATOM     78  C   UNL A   1      40.203  35.598  38.636  1.00  0.00     0.055 A 
ATOM     79  C   UNL A   1      38.412  34.153  39.324  1.00  0.00     0.041 A 
ATOM     80  F   UNL A   1      37.747  32.385  37.938  1.00  0.00    -0.206 F 
ATOM     81  C   UNL A   1      39.257  35.224  39.593  1.00  0.00     0.022 A 
BRANCH  78  82
ATOM     82  S   UNL A   1      41.440  36.865  39.030  1.00  0.00     0.124 S 
ATOM     83  O   UNL A   1      40.596  37.995  39.401  1.00  0.00    -0.237 OA
ATOM     84  O   UNL A   1      42.183  36.234  40.115  1.00  0.00    -0.237 OA
ATOM     85  O   UNL A   1      42.176  37.020  37.778  1.00  0.00    -0.744 OA
ENDBRANCH  78  82
ENDBRANCH  51  75
BRANCH  63  86
ATOM     86  C   UNL A   1      43.925  28.715  35.448  1.00  0.00     0.023 A 
ATOM     87  C   UNL A   1      45.237  29.183  35.271  1.00  0.00     0.031 A 
ATOM     88  C   UNL A   1      43.721  27.639  36.332  1.00  0.00     0.131 A 
ATOM     89  C   UNL A   1      46.303  28.539  35.916  1.00  0.00     0.055 A 
ATOM     90  C   UNL A   1      44.777  27.049  37.028  1.00  0.00     0.041 A 
ATOM     91  F   UNL A   1      42.489  27.145  36.538  1.00  0.00    -0.206 F 
ATOM     92  C   UNL A   1      46.079  27.488  36.810  1.00  0.00     0.022 A 
BRANCH  89  93
ATOM     93  S   UNL A   1      47.998  29.022  35.489  1.00  0.00     0.124 S 
ATOM     94  O   UNL A   1      48.605  27.737  35.158  1.00  0.00    -0.237 OA
ATOM     95  O   UNL A   1      47.790  29.936  34.370  1.00  0.00    -0.237 OA
ATOM     96  O   UNL A   1      48.495  29.646  36.714  1.00  0.00    -0.744 OA
ENDBRANCH  89  93
ENDBRANCH  63  86
ENDBRANCH  37  38
ENDBRANCH  29  32
ENDBRANCH  27  28
ENDBRANCH  26  27
ENDBRANCH  25  26
ENDBRANCH   1  25
TORSDOF 20
ENDMDL
MODEL 3
REMARK VINA RESULT:     -10.8      4.993     10.425
REMARK SMILES CC(C)[C@@](C)(CC(=O)N[C@H]1CCCC1(C)C)C(=O)NCCCCCCNC(=O)c1ccc(-c2c3nc(c(-c4cc(S(=O)(=O)[O-])ccc4F)c4ccc([nH]4)c(-c4cc(S(=O)(=O)[O-])ccc4F)c4nc(c(-c5cc(S(=O)(=O)[O-])ccc5F)c5ccc2[nH]5)C=C4)C=C3)cc1
REMARK SMILES IDX 22 1 21 2 20 3 19 4 17 5 18 6 4 8 5 9 2 10 1 11 3 12 6 13
REMARK SMILES IDX 7 14 8 15 9 16 10 18 11 19 14 20 12 21 13 22 15 23 16 24
REMARK SMILES IDX 23 25 24 26 25 27 26 28 27 29 28 31 29 32 30 33 91 34 31 35
REMARK SMILES IDX 90 36 32 37 33 38 34 39 84 40 35 41 89 42 83 43 85 44 36 45
REMARK SMILES IDX 88 46 82 47 81 48 37 50 69 51 49 52 68 53 50 54 53 55 67 56
REMARK SMILES IDX 86 57 51 58 52 59 66 61 87 62 54 63 38 64 39 65 47 66 40 67
REMARK SMILES IDX 46 68 48 69 45 70 41 71 42 72 43 73 44 74 70 75 71 76 79 77
REMARK SMILES IDX 72 78 78 79 80 80 77 81 73 82 74 83 75 84 76 85 55 86 56 87
REMARK SMILES IDX 64 88 57 89 63 90 65 91 62 92 58 93 59 94 60 95 61 96
REMARK H PARENT 19 7 9 17 26 30 85 49 53 60
REMARK Flexibility Score: inf
ROOT
ATOM      1  C   UNL A   1      33.900  20.241  25.593  1.00  0.00     0.002 C 
ENDROOT
BRANCH   1   2
ATOM      2  C   UNL A   1      32.712  20.100  24.628  1.00  0.00     0.021 C 
BRANCH   2   3
ATOM      3  C   UNL A   1      32.158  21.445  24.183  1.00  0.00     0.116 C 
BRANCH   3   4
ATOM      4  N   UNL A   1      32.964  21.933  23.085  1.00  0.00    -0.356 N 
ATOM      5  C   UNL A   1      33.191  23.165  22.587  1.00  0.00     0.226 C 
ATOM      6  O   UNL A   1      33.699  23.176  21.462  1.00  0.00    -0.274 OA
ATOM      7  H   UNL A   1      33.443  21.220  22.602  1.00  0.00     0.163 HD
BRANCH   5   8
ATOM      8  C   UNL A   1      32.988  24.437  23.431  1.00  0.00     0.057 C 
ATOM      9  C   UNL A   1      31.472  24.791  23.181  1.00  0.00     0.022 C 
BRANCH   8  10
ATOM     10  C   UNL A   1      33.360  24.059  24.938  1.00  0.00    -0.002 C 
ATOM     11  C   UNL A   1      34.706  24.595  25.444  1.00  0.00     0.008 C 
ATOM     12  C   UNL A   1      32.286  24.354  26.010  1.00  0.00     0.008 C 
ENDBRANCH   8  10
BRANCH   8  13
ATOM     13  C   UNL A   1      33.784  25.679  22.919  1.00  0.00     0.116 C 
BRANCH  13  14
ATOM     14  C   UNL A   1      33.178  26.556  21.869  1.00  0.00     0.221 C 
ATOM     15  O   UNL A   1      33.237  26.194  20.685  1.00  0.00    -0.275 OA
ATOM     16  N   UNL A   1      32.561  27.727  22.071  1.00  0.00    -0.353 N 
ATOM     17  H   UNL A   1      32.417  28.116  21.179  1.00  0.00     0.163 HD
BRANCH  16  18
ATOM     18  C   UNL A   1      31.997  28.699  23.036  1.00  0.00     0.087 C 
ATOM     19  C   UNL A   1      30.594  28.997  22.446  1.00  0.00     0.025 C 
ATOM     20  C   UNL A   1      31.637  28.559  24.560  1.00  0.00    -0.015 C 
ATOM     21  C   UNL A   1      29.606  28.187  23.290  1.00  0.00     0.003 C 
ATOM     22  C   UNL A   1      30.381  27.690  24.503  1.00  0.00     0.008 C 
ATOM     23  C   UNL A   1      32.591  28.047  25.628  1.00  0.00     0.013 C 
ATOM     24  C   UNL A   1      31.318  29.988  25.101  1.00  0.00     0.013 C 
ENDBRANCH  16  18
ENDBRANCH  13  14
ENDBRANCH   8  13
ENDBRANCH   5   8
ENDBRANCH   3   4
ENDBRANCH   2   3
ENDBRANCH   1   2
BRANCH   1  25
ATOM     25  C   UNL A   1      35.241  20.540  24.909  1.00  0.00     0.002 C 
BRANCH  25  26
ATOM     26  C   UNL A   1      36.174  21.434  25.726  1.00  0.00     0.021 C 
BRANCH  26  27
ATOM     27  C   UNL A   1      37.566  21.559  25.132  1.00  0.00     0.116 C 
BRANCH  27  28
ATOM     28  N   UNL A   1      38.458  20.545  25.664  1.00  0.00    -0.352 N 
ATOM     29  C   UNL A   1      39.678  20.717  26.267  1.00  0.00     0.251 C 
ATOM     30  H   UNL A   1      38.147  19.615  25.583  1.00  0.00     0.163 HD
ATOM     31  O   UNL A   1      40.424  19.766  26.434  1.00  0.00    -0.269 OA
BRANCH  29  32
ATOM     32  C   UNL A   1      40.069  22.079  26.679  1.00  0.00     0.039 A 
ATOM     33  C   UNL A   1      41.007  22.227  27.698  1.00  0.00     0.014 A 
ATOM     34  C   UNL A   1      39.539  23.196  26.024  1.00  0.00     0.014 A 
ATOM     35  C   UNL A   1      41.452  23.504  28.032  1.00  0.00     0.010 A 
ATOM     36  C   UNL A   1      40.048  24.460  26.300  1.00  0.00     0.010 A 
ATOM     37  C   UNL A   1      41.004  24.626  27.312  1.00  0.00    -0.014 A 
BRANCH  37  38
ATOM     38  C   UNL A   1      41.533  25.980  27.611  1.00  0.00     0.031 A 
ATOM     39  C   UNL A   1      42.890  26.386  27.103  1.00  0.00     0.074 A 
ATOM     40  C   UNL A   1      40.804  26.822  28.369  1.00  0.00     0.049 A 
ATOM     41  N   UNL A   1      43.538  27.505  27.291  1.00  0.00    -0.248 NA
ATOM     42  C   UNL A   1      43.625  25.395  26.299  1.00  0.00     0.031 C 
ATOM     43  C   UNL A   1      39.491  26.518  28.944  1.00  0.00     0.029 A 
ATOM     44  N   UNL A   1      41.058  28.102  28.791  1.00  0.00    -0.354 N 
ATOM     45  C   UNL A   1      44.756  27.353  26.637  1.00  0.00     0.074 A 
ATOM     46  C   UNL A   1      44.780  26.012  26.096  1.00  0.00     0.031 C 
ATOM     47  C   UNL A   1      39.043  27.592  29.614  1.00  0.00     0.029 A 
ATOM     48  C   UNL A   1      40.057  28.640  29.568  1.00  0.00     0.049 A 
ATOM     49  H   UNL A   1      41.881  28.592  28.559  1.00  0.00     0.167 HD
ATOM     50  C   UNL A   1      45.753  28.259  26.487  1.00  0.00     0.034 A 
ATOM     51  C   UNL A   1      39.975  29.834  30.187  1.00  0.00     0.034 A 
ATOM     52  C   UNL A   1      45.704  29.597  27.024  1.00  0.00     0.049 A 
ATOM     53  C   UNL A   1      41.119  30.808  30.033  1.00  0.00     0.074 A 
ATOM     54  C   UNL A   1      46.630  30.614  26.878  1.00  0.00     0.029 A 
ATOM     55  N   UNL A   1      44.682  30.102  27.817  1.00  0.00    -0.354 N 
ATOM     56  N   UNL A   1      42.235  30.669  29.356  1.00  0.00    -0.248 NA
ATOM     57  C   UNL A   1      40.987  32.100  30.716  1.00  0.00     0.031 C 
ATOM     58  C   UNL A   1      46.214  31.700  27.652  1.00  0.00     0.029 A 
ATOM     59  C   UNL A   1      44.979  31.400  28.204  1.00  0.00     0.049 A 
ATOM     60  H   UNL A   1      43.867  29.610  28.069  1.00  0.00     0.167 HD
ATOM     61  C   UNL A   1      42.920  31.873  29.505  1.00  0.00     0.074 A 
ATOM     62  C   UNL A   1      42.080  32.730  30.314  1.00  0.00     0.031 C 
ATOM     63  C   UNL A   1      44.133  32.240  29.017  1.00  0.00     0.034 A 
BRANCH  50  64
ATOM     64  C   UNL A   1      46.990  27.830  25.739  1.00  0.00     0.023 A 
ATOM     65  C   UNL A   1      47.137  28.045  24.358  1.00  0.00     0.031 A 
ATOM     66  C   UNL A   1      48.053  27.217  26.428  1.00  0.00     0.131 A 
ATOM     67  C   UNL A   1      48.299  27.610  23.702  1.00  0.00     0.055 A 
ATOM     68  C   UNL A   1      49.237  26.855  25.783  1.00  0.00     0.041 A 
ATOM     69  F   UNL A   1      47.959  26.963  27.742  1.00  0.00    -0.206 F 
ATOM     70  C   UNL A   1      49.362  27.043  24.410  1.00  0.00     0.022 A 
BRANCH  67  71
ATOM     71  S   UNL A   1      48.359  27.696  21.891  1.00  0.00     0.124 S 
ATOM     72  O   UNL A   1      49.456  28.637  21.678  1.00  0.00    -0.237 OA
ATOM     73  O   UNL A   1      48.623  26.312  21.518  1.00  0.00    -0.237 OA
ATOM     74  O   UNL A   1      47.036  28.200  21.528  1.00  0.00    -0.744 OA
ENDBRANCH  67  71
ENDBRANCH  50  64
BRANCH  51  75
ATOM     75  C   UNL A   1      38.793  30.179  31.033  1.00  0.00     0.023 A 
ATOM     76  C   UNL A   1      37.718  30.915  30.510  1.00  0.00     0.031 A 
ATOM     77  C   UNL A   1      38.758  29.850  32.400  1.00  0.00     0.131 A 
ATOM     78  C   UNL A   1      36.695  31.363  31.360  1.00  0.00     0.055 A 
ATOM     79  C   UNL A   1      37.700  30.235  33.226  1.00  0.00     0.041 A 
ATOM     80  F   UNL A   1      39.759  29.148  32.957  1.00  0.00    -0.206 F 
ATOM     81  C   UNL A   1      36.670  31.013  32.712  1.00  0.00     0.022 A 
BRANCH  78  82
ATOM     82  S   UNL A   1      35.470  32.529  30.702  1.00  0.00     0.124 S 
ATOM     83  O   UNL A   1      35.308  32.045  29.336  1.00  0.00    -0.237 OA
ATOM     84  O   UNL A   1      34.338  32.315  31.598  1.00  0.00    -0.237 OA
ATOM     85  O   UNL A   1      36.131  33.824  30.832  1.00  0.00    -0.744 OA
ENDBRANCH  78  82
ENDBRANCH  51  75
BRANCH  63  86
ATOM     86  C   UNL A   1      44.595  33.647  29.310  1.00  0.00     0.023 A 
ATOM     87  C   UNL A   1      45.377  33.951  30.437  1.00  0.00     0.031 A 
ATOM     88  C   UNL A   1      44.234  34.701  28.452  1.00  0.00     0.131 A 
ATOM     89  C   UNL A   1      45.720  35.284  30.710  1.00  0.00     0.055 A 
ATOM     90  C   UNL A   1      44.641  36.015  28.689  1.00  0.00     0.041 A 
ATOM     91  F   UNL A   1      43.483  34.471  27.362  1.00  0.00    -0.206 F 
ATOM     92  C   UNL A   1      45.375  36.315  29.833  1.00  0.00     0.022 A 
BRANCH  89  93
ATOM     93  S   UNL A   1      46.533  35.666  32.286  1.00  0.00     0.124 S 
ATOM     94  O   UNL A   1      45.492  36.407  32.991  1.00  0.00    -0.237 OA
ATOM     95  O   UNL A   1      46.838  34.339  32.811  1.00  0.00    -0.237 OA
ATOM     96  O   UNL A   1      47.696  36.458  31.889  1.00  0.00    -0.744 OA
ENDBRANCH  89  93
ENDBRANCH  63  86
ENDBRANCH  37  38
ENDBRANCH  29  32
ENDBRANCH  27  28
ENDBRANCH  26  27
ENDBRANCH  25  26
ENDBRANCH   1  25
TORSDOF 20
ENDMDL
