MODEL 1
REMARK VINA RESULT:     -10.0      0.000      0.000
REMARK SMILES CCOC(=O)[C@H](C)NC(=O)N1CC[C@H](C(=O)NCCCCCCNC(=O)c2ccc(-c3c4nc(c(-c5cc(S(=O)(=O)[O-])ccc5F)c5ccc([nH]5)c(-c5cc(S(=O)(=O)[O-])ccc5F)c5nc(c(-c6cc(S(=O)(=O)[O-])ccc6F)c6ccc3[nH]6)C=C5)C=C4)cc2)[C@@H]1C
REMARK SMILES IDX 19 1 18 2 17 3 15 4 16 5 14 7 11 8 12 9 90 10 13 11 91 12
REMARK SMILES IDX 9 13 8 14 10 16 6 17 7 18 4 19 5 20 3 21 2 22 1 23 20 24
REMARK SMILES IDX 21 25 22 26 23 27 24 28 25 29 26 31 27 32 28 33 89 34 29 35
REMARK SMILES IDX 88 36 30 37 31 38 32 39 82 40 33 41 87 42 81 43 83 44 34 45
REMARK SMILES IDX 86 46 80 47 79 48 35 50 67 51 47 52 66 53 48 54 51 55 65 56
REMARK SMILES IDX 84 57 49 58 50 59 64 61 85 62 52 63 36 64 37 65 45 66 38 67
REMARK SMILES IDX 44 68 46 69 43 70 39 71 40 72 41 73 42 74 68 75 69 76 77 77
REMARK SMILES IDX 70 78 76 79 78 80 75 81 71 82 72 83 73 84 74 85 53 86 54 87
REMARK SMILES IDX 62 88 55 89 61 90 63 91 60 92 56 93 57 94 58 95 59 96
REMARK H PARENT 17 6 8 15 24 30 83 49 51 60
REMARK Flexibility Score: inf
ROOT
ATOM      1  C   UNL A   1      34.318  29.655  27.151  1.00  0.00     0.021 C 
ENDROOT
BRANCH   1   2
ATOM      2  C   UNL A   1      32.825  29.378  27.324  1.00  0.00     0.116 C 
BRANCH   2   3
ATOM      3  N   UNL A   1      32.068  29.874  26.198  1.00  0.00    -0.356 N 
ATOM      4  C   UNL A   1      31.561  29.248  25.110  1.00  0.00     0.225 C 
ATOM      5  O   UNL A   1      30.974  29.961  24.287  1.00  0.00    -0.275 OA
ATOM      6  H   UNL A   1      31.889  30.842  26.227  1.00  0.00     0.163 HD
BRANCH   4   7
ATOM      7  C   UNL A   1      31.589  27.739  24.893  1.00  0.00     0.102 C 
ATOM      8  N   UNL A   1      32.463  26.216  23.279  1.00  0.00    -0.321 N 
ATOM      9  C   UNL A   1      31.091  26.435  22.901  1.00  0.00     0.122 C 
ATOM     10  C   UNL A   1      32.899  27.172  24.310  1.00  0.00     0.096 C 
ATOM     11  C   UNL A   1      30.452  27.048  24.133  1.00  0.00     0.037 C 
ATOM     12  C   UNL A   1      33.895  28.201  23.775  1.00  0.00     0.032 C 
BRANCH   8  13
ATOM     13  C   UNL A   1      33.276  25.513  22.441  1.00  0.00     0.318 C 
ATOM     14  N   UNL A   1      33.843  24.379  22.904  1.00  0.00    -0.325 N 
ATOM     15  H   UNL A   1      34.668  24.089  22.450  1.00  0.00     0.166 HD
ATOM     16  O   UNL A   1      33.457  25.833  21.268  1.00  0.00    -0.249 OA
BRANCH  14  17
ATOM     17  C   UNL A   1      33.380  23.535  23.997  1.00  0.00     0.190 C 
ATOM     18  C   UNL A   1      33.091  22.122  23.506  1.00  0.00     0.043 C 
BRANCH  17  19
ATOM     19  C   UNL A   1      34.468  23.540  25.060  1.00  0.00     0.328 C 
ATOM     20  O   UNL A   1      35.617  23.142  24.886  1.00  0.00    -0.250 OA
BRANCH  19  21
ATOM     21  O   UNL A   1      34.009  24.153  26.188  1.00  0.00    -0.464 OA
BRANCH  21  22
ATOM     22  C   UNL A   1      32.725  23.720  26.652  1.00  0.00     0.229 C 
ATOM     23  C   UNL A   1      32.889  22.522  27.566  1.00  0.00     0.049 C 
ENDBRANCH  21  22
ENDBRANCH  19  21
ENDBRANCH  17  19
ENDBRANCH  14  17
ENDBRANCH   8  13
ENDBRANCH   4   7
ENDBRANCH   2   3
ENDBRANCH   1   2
BRANCH   1  24
ATOM     24  C   UNL A   1      34.879  30.638  28.185  1.00  0.00     0.002 C 
BRANCH  24  25
ATOM     25  C   UNL A   1      34.872  32.105  27.745  1.00  0.00     0.002 C 
BRANCH  25  26
ATOM     26  C   UNL A   1      33.608  32.887  28.109  1.00  0.00     0.021 C 
BRANCH  26  27
ATOM     27  C   UNL A   1      33.746  34.403  27.997  1.00  0.00     0.116 C 
BRANCH  27  28
ATOM     28  N   UNL A   1      33.178  35.078  29.152  1.00  0.00    -0.352 N 
ATOM     29  C   UNL A   1      33.446  34.894  30.484  1.00  0.00     0.251 C 
ATOM     30  H   UNL A   1      32.505  35.767  28.948  1.00  0.00     0.163 HD
ATOM     31  O   UNL A   1      32.691  35.374  31.326  1.00  0.00    -0.269 OA
BRANCH  29  32
ATOM     32  C   UNL A   1      34.630  34.112  30.898  1.00  0.00     0.039 A 
ATOM     33  C   UNL A   1      35.900  34.554  30.521  1.00  0.00     0.014 A 
ATOM     34  C   UNL A   1      34.485  32.931  31.632  1.00  0.00     0.014 A 
ATOM     35  C   UNL A   1      37.029  33.833  30.917  1.00  0.00     0.010 A 
ATOM     36  C   UNL A   1      35.614  32.251  32.083  1.00  0.00     0.010 A 
ATOM     37  C   UNL A   1      36.898  32.689  31.721  1.00  0.00    -0.014 A 
BRANCH  37  38
ATOM     38  C   UNL A   1      38.088  31.918  32.162  1.00  0.00     0.031 A 
ATOM     39  C   UNL A   1      38.756  32.252  33.468  1.00  0.00     0.074 A 
ATOM     40  C   UNL A   1      38.590  30.950  31.370  1.00  0.00     0.049 A 
ATOM     41  N   UNL A   1      39.843  31.752  33.997  1.00  0.00    -0.248 NA
ATOM     42  C   UNL A   1      38.130  33.312  34.274  1.00  0.00     0.031 C 
ATOM     43  C   UNL A   1      38.043  30.552  30.071  1.00  0.00     0.029 A 
ATOM     44  N   UNL A   1      39.674  30.125  31.538  1.00  0.00    -0.354 N 
ATOM     45  C   UNL A   1      40.034  32.436  35.193  1.00  0.00     0.074 A 
ATOM     46  C   UNL A   1      38.989  33.435  35.275  1.00  0.00     0.031 C 
ATOM     47  C   UNL A   1      38.776  29.541  29.576  1.00  0.00     0.029 A 
ATOM     48  C   UNL A   1      39.871  29.250  30.494  1.00  0.00     0.049 A 
ATOM     49  H   UNL A   1      40.255  30.156  32.331  1.00  0.00     0.167 HD
ATOM     50  C   UNL A   1      40.974  32.231  36.148  1.00  0.00     0.034 A 
ATOM     51  C   UNL A   1      40.832  28.325  30.299  1.00  0.00     0.034 A 
ATOM     52  C   UNL A   1      42.006  31.227  36.054  1.00  0.00     0.049 A 
ATOM     53  C   UNL A   1      41.893  28.146  31.357  1.00  0.00     0.074 A 
ATOM     54  C   UNL A   1      42.999  30.920  36.968  1.00  0.00     0.029 A 
ATOM     55  N   UNL A   1      42.177  30.363  34.980  1.00  0.00    -0.354 N 
ATOM     56  N   UNL A   1      42.044  28.785  32.495  1.00  0.00    -0.248 NA
ATOM     57  C   UNL A   1      42.907  27.113  31.109  1.00  0.00     0.031 C 
ATOM     58  C   UNL A   1      43.803  29.914  36.423  1.00  0.00     0.029 A 
ATOM     59  C   UNL A   1      43.269  29.538  35.202  1.00  0.00     0.049 A 
ATOM     60  H   UNL A   1      41.606  30.340  34.178  1.00  0.00     0.167 HD
ATOM     61  C   UNL A   1      43.143  28.197  33.116  1.00  0.00     0.074 A 
ATOM     62  C   UNL A   1      43.608  27.149  32.232  1.00  0.00     0.031 C 
ATOM     63  C   UNL A   1      43.717  28.493  34.310  1.00  0.00     0.034 A 
BRANCH  50  64
ATOM     64  C   UNL A   1      40.932  33.126  37.365  1.00  0.00     0.023 A 
ATOM     65  C   UNL A   1      40.221  32.758  38.522  1.00  0.00     0.031 A 
ATOM     66  C   UNL A   1      41.586  34.370  37.364  1.00  0.00     0.131 A 
ATOM     67  C   UNL A   1      40.118  33.654  39.596  1.00  0.00     0.055 A 
ATOM     68  C   UNL A   1      41.549  35.222  38.470  1.00  0.00     0.041 A 
ATOM     69  F   UNL A   1      42.263  34.786  36.282  1.00  0.00    -0.206 F 
ATOM     70  C   UNL A   1      40.800  34.873  39.589  1.00  0.00     0.022 A 
BRANCH  67  71
ATOM     71  S   UNL A   1      38.965  33.265  40.940  1.00  0.00     0.124 S 
ATOM     72  O   UNL A   1      39.365  34.232  41.959  1.00  0.00    -0.237 OA
ATOM     73  O   UNL A   1      37.665  33.491  40.319  1.00  0.00    -0.237 OA
ATOM     74  O   UNL A   1      39.269  31.871  41.261  1.00  0.00    -0.744 OA
ENDBRANCH  67  71
ENDBRANCH  50  64
BRANCH  51  75
ATOM     75  C   UNL A   1      40.850  27.492  29.061  1.00  0.00     0.023 A 
ATOM     76  C   UNL A   1      41.764  27.759  28.029  1.00  0.00     0.031 A 
ATOM     77  C   UNL A   1      39.912  26.465  28.860  1.00  0.00     0.131 A 
ATOM     78  C   UNL A   1      41.681  27.052  26.820  1.00  0.00     0.055 A 
ATOM     79  C   UNL A   1      39.873  25.723  27.677  1.00  0.00     0.041 A 
ATOM     80  F   UNL A   1      39.017  26.164  29.815  1.00  0.00    -0.206 F 
ATOM     81  C   UNL A   1      40.750  26.027  26.641  1.00  0.00     0.022 A 
BRANCH  78  82
ATOM     82  S   UNL A   1      42.736  27.574  25.438  1.00  0.00     0.124 S 
ATOM     83  O   UNL A   1      43.965  27.947  26.128  1.00  0.00    -0.237 OA
ATOM     84  O   UNL A   1      42.794  26.361  24.630  1.00  0.00    -0.237 OA
ATOM     85  O   UNL A   1      41.991  28.682  24.844  1.00  0.00    -0.744 OA
ENDBRANCH  78  82
ENDBRANCH  51  75
BRANCH  63  86
ATOM     86  C   UNL A   1      44.868  27.623  34.752  1.00  0.00     0.023 A 
ATOM     87  C   UNL A   1      44.678  26.498  35.572  1.00  0.00     0.031 A 
ATOM     88  C   UNL A   1      46.181  27.941  34.357  1.00  0.00     0.131 A 
ATOM     89  C   UNL A   1      45.786  25.766  36.022  1.00  0.00     0.055 A 
ATOM     90  C   UNL A   1      47.274  27.173  34.759  1.00  0.00     0.041 A 
ATOM     91  F   UNL A   1      46.421  29.005  33.576  1.00  0.00    -0.206 F 
ATOM     92  C   UNL A   1      47.082  26.086  35.608  1.00  0.00     0.022 A 
BRANCH  89  93
ATOM     93  S   UNL A   1      45.524  24.446  37.239  1.00  0.00     0.124 S 
ATOM     94  O   UNL A   1      46.761  24.494  38.011  1.00  0.00    -0.237 OA
ATOM     95  O   UNL A   1      44.323  24.898  37.934  1.00  0.00    -0.237 OA
ATOM     96  O   UNL A   1      45.350  23.250  36.416  1.00  0.00    -0.744 OA
ENDBRANCH  89  93
ENDBRANCH  63  86
ENDBRANCH  37  38
ENDBRANCH  29  32
ENDBRANCH  27  28
ENDBRANCH  26  27
ENDBRANCH  25  26
ENDBRANCH  24  25
ENDBRANCH   1  24
TORSDOF 21
ENDMDL
MODEL 2
REMARK VINA RESULT:      -9.9      6.172     10.021
REMARK SMILES CCOC(=O)[C@H](C)NC(=O)N1CC[C@H](C(=O)NCCCCCCNC(=O)c2ccc(-c3c4nc(c(-c5cc(S(=O)(=O)[O-])ccc5F)c5ccc([nH]5)c(-c5cc(S(=O)(=O)[O-])ccc5F)c5nc(c(-c6cc(S(=O)(=O)[O-])ccc6F)c6ccc3[nH]6)C=C5)C=C4)cc2)[C@@H]1C
REMARK SMILES IDX 19 1 18 2 17 3 15 4 16 5 14 7 11 8 12 9 90 10 13 11 91 12
REMARK SMILES IDX 9 13 8 14 10 16 6 17 7 18 4 19 5 20 3 21 2 22 1 23 20 24
REMARK SMILES IDX 21 25 22 26 23 27 24 28 25 29 26 31 27 32 28 33 89 34 29 35
REMARK SMILES IDX 88 36 30 37 31 38 32 39 82 40 33 41 87 42 81 43 83 44 34 45
REMARK SMILES IDX 86 46 80 47 79 48 35 50 67 51 47 52 66 53 48 54 51 55 65 56
REMARK SMILES IDX 84 57 49 58 50 59 64 61 85 62 52 63 36 64 37 65 45 66 38 67
REMARK SMILES IDX 44 68 46 69 43 70 39 71 40 72 41 73 42 74 68 75 69 76 77 77
REMARK SMILES IDX 70 78 76 79 78 80 75 81 71 82 72 83 73 84 74 85 53 86 54 87
REMARK SMILES IDX 62 88 55 89 61 90 63 91 60 92 56 93 57 94 58 95 59 96
REMARK H PARENT 17 6 8 15 24 30 83 49 51 60
REMARK Flexibility Score: inf
ROOT
ATOM      1  C   UNL A   1      35.070  21.463  26.065  1.00  0.00     0.021 C 
ENDROOT
BRANCH   1   2
ATOM      2  C   UNL A   1      33.660  20.972  26.391  1.00  0.00     0.116 C 
BRANCH   2   3
ATOM      3  N   UNL A   1      32.880  22.009  27.027  1.00  0.00    -0.356 N 
ATOM      4  C   UNL A   1      32.248  23.095  26.522  1.00  0.00     0.225 C 
ATOM      5  O   UNL A   1      31.677  23.830  27.339  1.00  0.00    -0.275 OA
ATOM      6  H   UNL A   1      32.793  21.908  28.002  1.00  0.00     0.163 HD
BRANCH   4   7
ATOM      7  C   UNL A   1      32.123  23.406  25.035  1.00  0.00     0.102 C 
ATOM      8  N   UNL A   1      32.535  25.259  23.591  1.00  0.00    -0.321 N 
ATOM      9  C   UNL A   1      31.133  25.325  23.916  1.00  0.00     0.122 C 
ATOM     10  C   UNL A   1      33.241  24.286  24.440  1.00  0.00     0.096 C 
ATOM     11  C   UNL A   1      30.807  23.951  24.469  1.00  0.00     0.037 C 
ATOM     12  C   UNL A   1      34.176  24.954  25.448  1.00  0.00     0.032 C 
BRANCH   8  13
ATOM     13  C   UNL A   1      33.105  26.292  22.908  1.00  0.00     0.318 C 
ATOM     14  N   UNL A   1      32.889  27.548  23.353  1.00  0.00    -0.325 N 
ATOM     15  H   UNL A   1      32.990  28.268  22.689  1.00  0.00     0.166 HD
ATOM     16  O   UNL A   1      33.856  26.120  21.950  1.00  0.00    -0.249 OA
BRANCH  14  17
ATOM     17  C   UNL A   1      32.524  27.963  24.701  1.00  0.00     0.190 C 
ATOM     18  C   UNL A   1      33.746  28.456  25.465  1.00  0.00     0.043 C 
BRANCH  17  19
ATOM     19  C   UNL A   1      31.478  29.058  24.564  1.00  0.00     0.328 C 
ATOM     20  O   UNL A   1      31.483  30.113  25.193  1.00  0.00    -0.250 OA
BRANCH  19  21
ATOM     21  O   UNL A   1      30.607  28.742  23.564  1.00  0.00    -0.464 OA
BRANCH  21  22
ATOM     22  C   UNL A   1      29.680  29.772  23.199  1.00  0.00     0.229 C 
ATOM     23  C   UNL A   1      28.362  29.149  22.784  1.00  0.00     0.049 C 
ENDBRANCH  21  22
ENDBRANCH  19  21
ENDBRANCH  17  19
ENDBRANCH  14  17
ENDBRANCH   8  13
ENDBRANCH   4   7
ENDBRANCH   2   3
ENDBRANCH   1   2
BRANCH   1  24
ATOM     24  C   UNL A   1      35.700  20.751  24.864  1.00  0.00     0.002 C 
BRANCH  24  25
ATOM     25  C   UNL A   1      37.184  21.061  24.640  1.00  0.00     0.002 C 
BRANCH  25  26
ATOM     26  C   UNL A   1      38.144  19.916  24.974  1.00  0.00     0.021 C 
BRANCH  26  27
ATOM     27  C   UNL A   1      39.157  20.237  26.069  1.00  0.00     0.116 C 
BRANCH  27  28
ATOM     28  N   UNL A   1      40.265  19.298  26.065  1.00  0.00    -0.352 N 
ATOM     29  C   UNL A   1      41.614  19.546  26.072  1.00  0.00     0.251 C 
ATOM     30  H   UNL A   1      40.012  18.347  26.057  1.00  0.00     0.163 HD
ATOM     31  O   UNL A   1      42.399  18.637  25.813  1.00  0.00    -0.269 OA
BRANCH  29  32
ATOM     32  C   UNL A   1      42.113  20.903  26.380  1.00  0.00     0.039 A 
ATOM     33  C   UNL A   1      42.238  21.831  25.343  1.00  0.00     0.014 A 
ATOM     34  C   UNL A   1      42.486  21.249  27.682  1.00  0.00     0.014 A 
ATOM     35  C   UNL A   1      42.696  23.121  25.621  1.00  0.00     0.010 A 
ATOM     36  C   UNL A   1      42.876  22.554  27.969  1.00  0.00     0.010 A 
ATOM     37  C   UNL A   1      42.997  23.501  26.939  1.00  0.00    -0.014 A 
BRANCH  37  38
ATOM     38  C   UNL A   1      43.473  24.873  27.254  1.00  0.00     0.031 A 
ATOM     39  C   UNL A   1      42.533  25.866  27.882  1.00  0.00     0.074 A 
ATOM     40  C   UNL A   1      44.732  25.234  26.938  1.00  0.00     0.049 A 
ATOM     41  N   UNL A   1      42.728  27.128  28.167  1.00  0.00    -0.248 NA
ATOM     42  C   UNL A   1      41.183  25.379  28.207  1.00  0.00     0.031 C 
ATOM     43  C   UNL A   1      45.727  24.365  26.305  1.00  0.00     0.029 A 
ATOM     44  N   UNL A   1      45.392  26.426  27.102  1.00  0.00    -0.354 N 
ATOM     45  C   UNL A   1      41.528  27.587  28.700  1.00  0.00     0.074 A 
ATOM     46  C   UNL A   1      40.591  26.485  28.632  1.00  0.00     0.031 C 
ATOM     47  C   UNL A   1      46.877  25.044  26.163  1.00  0.00     0.029 A 
ATOM     48  C   UNL A   1      46.690  26.408  26.648  1.00  0.00     0.049 A 
ATOM     49  H   UNL A   1      44.974  27.220  27.508  1.00  0.00     0.167 HD
ATOM     50  C   UNL A   1      41.242  28.804  29.226  1.00  0.00     0.034 A 
ATOM     51  C   UNL A   1      47.620  27.383  26.619  1.00  0.00     0.034 A 
ATOM     52  C   UNL A   1      42.189  29.891  29.291  1.00  0.00     0.049 A 
ATOM     53  C   UNL A   1      47.264  28.742  27.169  1.00  0.00     0.074 A 
ATOM     54  C   UNL A   1      42.015  31.159  29.817  1.00  0.00     0.029 A 
ATOM     55  N   UNL A   1      43.494  29.836  28.817  1.00  0.00    -0.354 N 
ATOM     56  N   UNL A   1      46.131  29.152  27.694  1.00  0.00    -0.248 NA
ATOM     57  C   UNL A   1      48.315  29.767  27.134  1.00  0.00     0.031 C 
ATOM     58  C   UNL A   1      43.190  31.888  29.608  1.00  0.00     0.029 A 
ATOM     59  C   UNL A   1      44.126  31.054  29.021  1.00  0.00     0.049 A 
ATOM     60  H   UNL A   1      43.909  29.049  28.397  1.00  0.00     0.167 HD
ATOM     61  C   UNL A   1      46.353  30.468  28.091  1.00  0.00     0.074 A 
ATOM     62  C   UNL A   1      47.727  30.778  27.756  1.00  0.00     0.031 C 
ATOM     63  C   UNL A   1      45.500  31.343  28.683  1.00  0.00     0.034 A 
BRANCH  50  64
ATOM     64  C   UNL A   1      39.843  29.020  29.752  1.00  0.00     0.023 A 
ATOM     65  C   UNL A   1      38.865  29.680  28.985  1.00  0.00     0.031 A 
ATOM     66  C   UNL A   1      39.484  28.586  31.039  1.00  0.00     0.131 A 
ATOM     67  C   UNL A   1      37.606  29.954  29.539  1.00  0.00     0.055 A 
ATOM     68  C   UNL A   1      38.202  28.787  31.554  1.00  0.00     0.041 A 
ATOM     69  F   UNL A   1      40.380  27.969  31.827  1.00  0.00    -0.206 F 
ATOM     70  C   UNL A   1      37.258  29.488  30.809  1.00  0.00     0.022 A 
BRANCH  67  71
ATOM     71  S   UNL A   1      36.481  31.049  28.633  1.00  0.00     0.124 S 
ATOM     72  O   UNL A   1      37.255  32.287  28.581  1.00  0.00    -0.237 OA
ATOM     73  O   UNL A   1      36.311  30.349  27.364  1.00  0.00    -0.237 OA
ATOM     74  O   UNL A   1      35.293  31.100  29.482  1.00  0.00    -0.744 OA
ENDBRANCH  67  71
ENDBRANCH  50  64
BRANCH  51  75
ATOM     75  C   UNL A   1      48.977  27.128  26.053  1.00  0.00     0.023 A 
ATOM     76  C   UNL A   1      49.289  27.504  24.737  1.00  0.00     0.031 A 
ATOM     77  C   UNL A   1      49.959  26.445  26.792  1.00  0.00     0.131 A 
ATOM     78  C   UNL A   1      50.523  27.140  24.178  1.00  0.00     0.055 A 
ATOM     79  C   UNL A   1      51.209  26.139  26.252  1.00  0.00     0.041 A 
ATOM     80  F   UNL A   1      49.716  26.066  28.058  1.00  0.00    -0.206 F 
ATOM     81  C   UNL A   1      51.491  26.471  24.930  1.00  0.00     0.022 A 
BRANCH  78  82
ATOM     82  S   UNL A   1      50.800  27.454  22.412  1.00  0.00     0.124 S 
ATOM     83  O   UNL A   1      49.746  26.653  21.801  1.00  0.00    -0.237 OA
ATOM     84  O   UNL A   1      50.635  28.901  22.335  1.00  0.00    -0.237 OA
ATOM     85  O   UNL A   1      52.161  26.970  22.192  1.00  0.00    -0.744 OA
ENDBRANCH  78  82
ENDBRANCH  51  75
BRANCH  63  86
ATOM     86  C   UNL A   1      46.058  32.693  29.062  1.00  0.00     0.023 A 
ATOM     87  C   UNL A   1      45.969  33.803  28.205  1.00  0.00     0.031 A 
ATOM     88  C   UNL A   1      46.708  32.863  30.299  1.00  0.00     0.131 A 
ATOM     89  C   UNL A   1      46.573  35.016  28.565  1.00  0.00     0.055 A 
ATOM     90  C   UNL A   1      47.253  34.090  30.679  1.00  0.00     0.041 A 
ATOM     91  F   UNL A   1      46.823  31.838  31.157  1.00  0.00    -0.206 F 
ATOM     92  C   UNL A   1      47.200  35.171  29.804  1.00  0.00     0.022 A 
BRANCH  89  93
ATOM     93  S   UNL A   1      46.614  36.364  27.352  1.00  0.00     0.124 S 
ATOM     94  O   UNL A   1      45.196  36.573  27.082  1.00  0.00    -0.237 OA
ATOM     95  O   UNL A   1      47.284  37.428  28.093  1.00  0.00    -0.237 OA
ATOM     96  O   UNL A   1      47.382  35.804  26.242  1.00  0.00    -0.744 OA
ENDBRANCH  89  93
ENDBRANCH  63  86
ENDBRANCH  37  38
ENDBRANCH  29  32
ENDBRANCH  27  28
ENDBRANCH  26  27
ENDBRANCH  25  26
ENDBRANCH  24  25
ENDBRANCH   1  24
TORSDOF 21
ENDMDL
MODEL 3
REMARK VINA RESULT:      -9.7      3.464      4.934
REMARK SMILES CCOC(=O)[C@H](C)NC(=O)N1CC[C@H](C(=O)NCCCCCCNC(=O)c2ccc(-c3c4nc(c(-c5cc(S(=O)(=O)[O-])ccc5F)c5ccc([nH]5)c(-c5cc(S(=O)(=O)[O-])ccc5F)c5nc(c(-c6cc(S(=O)(=O)[O-])ccc6F)c6ccc3[nH]6)C=C5)C=C4)cc2)[C@@H]1C
REMARK SMILES IDX 19 1 18 2 17 3 15 4 16 5 14 7 11 8 12 9 90 10 13 11 91 12
REMARK SMILES IDX 9 13 8 14 10 16 6 17 7 18 4 19 5 20 3 21 2 22 1 23 20 24
REMARK SMILES IDX 21 25 22 26 23 27 24 28 25 29 26 31 27 32 28 33 89 34 29 35
REMARK SMILES IDX 88 36 30 37 31 38 32 39 82 40 33 41 87 42 81 43 83 44 34 45
REMARK SMILES IDX 86 46 80 47 79 48 35 50 67 51 47 52 66 53 48 54 51 55 65 56
REMARK SMILES IDX 84 57 49 58 50 59 64 61 85 62 52 63 36 64 37 65 45 66 38 67
REMARK SMILES IDX 44 68 46 69 43 70 39 71 40 72 41 73 42 74 68 75 69 76 77 77
REMARK SMILES IDX 70 78 76 79 78 80 75 81 71 82 72 83 73 84 74 85 53 86 54 87
REMARK SMILES IDX 62 88 55 89 61 90 63 91 60 92 56 93 57 94 58 95 59 96
REMARK H PARENT 17 6 8 15 24 30 83 49 51 60
REMARK Flexibility Score: inf
ROOT
ATOM      1  C   UNL A   1      31.812  28.979  23.116  1.00  0.00     0.021 C 
ENDROOT
BRANCH   1   2
ATOM      2  C   UNL A   1      31.249  27.796  22.329  1.00  0.00     0.116 C 
BRANCH   2   3
ATOM      3  N   UNL A   1      32.268  26.804  22.077  1.00  0.00    -0.356 N 
ATOM      4  C   UNL A   1      32.527  25.612  22.667  1.00  0.00     0.225 C 
ATOM      5  O   UNL A   1      33.508  24.989  22.243  1.00  0.00    -0.275 OA
ATOM      6  H   UNL A   1      32.886  27.035  21.346  1.00  0.00     0.163 HD
BRANCH   4   7
ATOM      7  C   UNL A   1      31.646  24.968  23.731  1.00  0.00     0.102 C 
ATOM      8  N   UNL A   1      31.873  23.297  25.419  1.00  0.00    -0.321 N 
ATOM      9  C   UNL A   1      31.314  22.621  24.277  1.00  0.00     0.122 C 
ATOM     10  C   UNL A   1      32.341  24.649  25.071  1.00  0.00     0.096 C 
ATOM     11  C   UNL A   1      30.798  23.738  23.389  1.00  0.00     0.037 C 
ATOM     12  C   UNL A   1      33.865  24.764  25.078  1.00  0.00     0.032 C 
BRANCH   8  13
ATOM     13  C   UNL A   1      32.273  22.561  26.493  1.00  0.00     0.318 C 
ATOM     14  N   UNL A   1      32.905  21.390  26.264  1.00  0.00    -0.325 N 
ATOM     15  H   UNL A   1      32.868  20.726  26.991  1.00  0.00     0.166 HD
ATOM     16  O   UNL A   1      32.142  22.950  27.651  1.00  0.00    -0.249 OA
BRANCH  14  17
ATOM     17  C   UNL A   1      33.636  20.993  25.068  1.00  0.00     0.190 C 
ATOM     18  C   UNL A   1      35.135  21.197  25.256  1.00  0.00     0.043 C 
BRANCH  17  19
ATOM     19  C   UNL A   1      33.306  19.532  24.805  1.00  0.00     0.328 C 
ATOM     20  O   UNL A   1      32.169  19.080  24.699  1.00  0.00    -0.250 OA
BRANCH  19  21
ATOM     21  O   UNL A   1      34.455  18.830  24.593  1.00  0.00    -0.464 OA
BRANCH  21  22
ATOM     22  C   UNL A   1      34.293  17.536  24.001  1.00  0.00     0.229 C 
ATOM     23  C   UNL A   1      34.377  16.468  25.074  1.00  0.00     0.049 C 
ENDBRANCH  21  22
ENDBRANCH  19  21
ENDBRANCH  17  19
ENDBRANCH  14  17
ENDBRANCH   8  13
ENDBRANCH   4   7
ENDBRANCH   2   3
ENDBRANCH   1   2
BRANCH   1  24
ATOM     24  C   UNL A   1      30.942  29.383  24.311  1.00  0.00     0.002 C 
BRANCH  24  25
ATOM     25  C   UNL A   1      31.630  29.259  25.675  1.00  0.00     0.002 C 
BRANCH  25  26
ATOM     26  C   UNL A   1      32.757  28.225  25.742  1.00  0.00     0.021 C 
BRANCH  26  27
ATOM     27  C   UNL A   1      34.108  28.788  26.174  1.00  0.00     0.116 C 
BRANCH  27  28
ATOM     28  N   UNL A   1      33.999  30.172  26.604  1.00  0.00    -0.352 N 
ATOM     29  C   UNL A   1      34.723  30.845  27.553  1.00  0.00     0.251 C 
ATOM     30  H   UNL A   1      33.306  30.701  26.147  1.00  0.00     0.163 HD
ATOM     31  O   UNL A   1      34.324  31.935  27.959  1.00  0.00    -0.269 OA
BRANCH  29  32
ATOM     32  C   UNL A   1      35.968  30.256  28.089  1.00  0.00     0.039 A 
ATOM     33  C   UNL A   1      37.149  30.379  27.353  1.00  0.00     0.014 A 
ATOM     34  C   UNL A   1      35.964  29.558  29.301  1.00  0.00     0.014 A 
ATOM     35  C   UNL A   1      38.335  29.839  27.853  1.00  0.00     0.010 A 
ATOM     36  C   UNL A   1      37.160  29.080  29.830  1.00  0.00     0.010 A 
ATOM     37  C   UNL A   1      38.356  29.205  29.106  1.00  0.00    -0.014 A 
BRANCH  37  38
ATOM     38  C   UNL A   1      39.612  28.636  29.659  1.00  0.00     0.031 A 
ATOM     39  C   UNL A   1      40.239  29.252  30.880  1.00  0.00     0.074 A 
ATOM     40  C   UNL A   1      40.206  27.597  29.041  1.00  0.00     0.049 A 
ATOM     41  N   UNL A   1      41.367  28.955  31.475  1.00  0.00    -0.248 NA
ATOM     42  C   UNL A   1      39.512  30.372  31.499  1.00  0.00     0.031 C 
ATOM     43  C   UNL A   1      39.705  26.932  27.836  1.00  0.00     0.029 A 
ATOM     44  N   UNL A   1      41.362  26.919  29.335  1.00  0.00    -0.354 N 
ATOM     45  C   UNL A   1      41.486  29.850  32.533  1.00  0.00     0.074 A 
ATOM     46  C   UNL A   1      40.352  30.746  32.454  1.00  0.00     0.031 C 
ATOM     47  C   UNL A   1      40.532  25.924  27.514  1.00  0.00     0.029 A 
ATOM     48  C   UNL A   1      41.646  25.899  28.456  1.00  0.00     0.049 A 
ATOM     49  H   UNL A   1      41.934  27.141  30.105  1.00  0.00     0.167 HD
ATOM     50  C   UNL A   1      42.437  29.902  33.499  1.00  0.00     0.034 A 
ATOM     51  C   UNL A   1      42.690  25.048  28.412  1.00  0.00     0.034 A 
ATOM     52  C   UNL A   1      43.560  28.998  33.567  1.00  0.00     0.049 A 
ATOM     53  C   UNL A   1      43.759  25.155  29.472  1.00  0.00     0.074 A 
ATOM     54  C   UNL A   1      44.573  28.947  34.508  1.00  0.00     0.029 A 
ATOM     55  N   UNL A   1      43.816  27.980  32.655  1.00  0.00    -0.354 N 
ATOM     56  N   UNL A   1      43.843  25.992  30.481  1.00  0.00    -0.248 NA
ATOM     57  C   UNL A   1      44.866  24.194  29.394  1.00  0.00     0.031 C 
ATOM     58  C   UNL A   1      45.470  27.941  34.136  1.00  0.00     0.029 A 
ATOM     59  C   UNL A   1      44.980  27.312  33.003  1.00  0.00     0.049 A 
ATOM     60  H   UNL A   1      43.254  27.766  31.877  1.00  0.00     0.167 HD
ATOM     61  C   UNL A   1      44.990  25.625  31.181  1.00  0.00     0.074 A 
ATOM     62  C   UNL A   1      45.556  24.488  30.486  1.00  0.00     0.031 C 
ATOM     63  C   UNL A   1      45.528  26.176  32.300  1.00  0.00     0.034 A 
BRANCH  50  64
ATOM     64  C   UNL A   1      42.305  30.985  34.543  1.00  0.00     0.023 A 
ATOM     65  C   UNL A   1      42.787  32.287  34.314  1.00  0.00     0.031 A 
ATOM     66  C   UNL A   1      41.716  30.713  35.789  1.00  0.00     0.131 A 
ATOM     67  C   UNL A   1      42.741  33.243  35.339  1.00  0.00     0.055 A 
ATOM     68  C   UNL A   1      41.596  31.694  36.777  1.00  0.00     0.041 A 
ATOM     69  F   UNL A   1      41.257  29.485  36.075  1.00  0.00    -0.206 F 
ATOM     70  C   UNL A   1      42.123  32.963  36.560  1.00  0.00     0.022 A 
BRANCH  67  71
ATOM     71  S   UNL A   1      43.623  34.809  35.103  1.00  0.00     0.124 S 
ATOM     72  O   UNL A   1      43.325  35.105  33.704  1.00  0.00    -0.237 OA
ATOM     73  O   UNL A   1      42.993  35.680  36.089  1.00  0.00    -0.237 OA
ATOM     74  O   UNL A   1      45.017  34.463  35.376  1.00  0.00    -0.744 OA
ENDBRANCH  67  71
ENDBRANCH  50  64
BRANCH  51  75
ATOM     75  C   UNL A   1      42.792  24.020  27.336  1.00  0.00     0.023 A 
ATOM     76  C   UNL A   1      42.102  22.801  27.439  1.00  0.00     0.031 A 
ATOM     77  C   UNL A   1      43.633  24.207  26.225  1.00  0.00     0.131 A 
ATOM     78  C   UNL A   1      42.312  21.794  26.485  1.00  0.00     0.055 A 
ATOM     79  C   UNL A   1      43.791  23.225  25.245  1.00  0.00     0.041 A 
ATOM     80  F   UNL A   1      44.313  25.355  26.073  1.00  0.00    -0.206 F 
ATOM     81  C   UNL A   1      43.142  22.002  25.382  1.00  0.00     0.022 A 
BRANCH  78  82
ATOM     82  S   UNL A   1      41.572  20.162  26.772  1.00  0.00     0.124 S 
ATOM     83  O   UNL A   1      40.231  20.520  27.222  1.00  0.00    -0.237 OA
ATOM     84  O   UNL A   1      41.665  19.554  25.449  1.00  0.00    -0.237 OA
ATOM     85  O   UNL A   1      42.437  19.572  27.790  1.00  0.00    -0.744 OA
ENDBRANCH  78  82
ENDBRANCH  51  75
BRANCH  63  86
ATOM     86  C   UNL A   1      46.753  25.506  32.871  1.00  0.00     0.023 A 
ATOM     87  C   UNL A   1      46.664  24.498  33.846  1.00  0.00     0.031 A 
ATOM     88  C   UNL A   1      48.034  25.901  32.443  1.00  0.00     0.131 A 
ATOM     89  C   UNL A   1      47.833  23.962  34.406  1.00  0.00     0.055 A 
ATOM     90  C   UNL A   1      49.193  25.320  32.959  1.00  0.00     0.041 A 
ATOM     91  F   UNL A   1      48.179  26.860  31.515  1.00  0.00    -0.206 F 
ATOM     92  C   UNL A   1      49.097  24.354  33.957  1.00  0.00     0.022 A 
BRANCH  89  93
ATOM     93  S   UNL A   1      47.683  22.812  35.801  1.00  0.00     0.124 S 
ATOM     94  O   UNL A   1      46.389  23.183  36.363  1.00  0.00    -0.237 OA
ATOM     95  O   UNL A   1      47.740  21.512  35.140  1.00  0.00    -0.237 OA
ATOM     96  O   UNL A   1      48.839  23.133  36.637  1.00  0.00    -0.744 OA
ENDBRANCH  89  93
ENDBRANCH  63  86
ENDBRANCH  37  38
ENDBRANCH  29  32
ENDBRANCH  27  28
ENDBRANCH  26  27
ENDBRANCH  25  26
ENDBRANCH  24  25
ENDBRANCH   1  24
TORSDOF 21
ENDMDL
