MODEL 1
REMARK VINA RESULT:     -11.0      0.000      0.000
REMARK SMILES COc1ccc(-n2c(SCc3cn(-c4ccc(C(=O)NCCCCCCNC(=O)c5ccc(-c6c7nc(c(-c8cc(S(=O)(=O)[O-])ccc8F)c8ccc([nH]8)c(-c8cc(S(=O)(=O)[O-])ccc8F)c8nc(c(-c9cc(S(=O)(=O)[O-])ccc9F)c9ccc6[nH]9)C=C8)C=C7)cc5)cc4)nn3)nc3ccccc3c2=O)cc1
REMARK SMILES IDX 22 1 21 2 20 3 18 4 19 5 17 7 14 8 15 9 94 10 16 11 93 12
REMARK SMILES IDX 13 13 11 14 12 15 96 16 95 17 10 18 9 19 8 20 7 21 104 22
REMARK SMILES IDX 97 23 103 24 105 25 98 26 102 27 99 28 101 29 100 30 6 31
REMARK SMILES IDX 3 32 4 33 107 34 5 35 106 36 2 37 1 38 23 39 24 40 25 41
REMARK SMILES IDX 26 42 27 43 28 44 29 46 30 47 31 48 92 49 32 50 91 51 33 52
REMARK SMILES IDX 34 53 35 54 85 55 36 56 90 57 84 58 86 59 37 60 89 61 83 62
REMARK SMILES IDX 82 63 38 65 70 66 50 67 69 68 51 69 54 70 68 71 87 72 52 73
REMARK SMILES IDX 53 74 67 76 88 77 55 78 39 79 40 80 48 81 41 82 47 83 49 84
REMARK SMILES IDX 46 85 42 86 43 87 44 88 45 89 71 90 72 91 80 92 73 93 79 94
REMARK SMILES IDX 81 95 78 96 74 97 75 98 76 99 77 100 56 101 57 102 65 103
REMARK SMILES IDX 58 104 64 105 66 106 63 107 59 108 60 109 61 110 62 111
REMARK H PARENT 20 6 27 45 86 64 54 75
REMARK Flexibility Score: inf
ROOT
ATOM      1  C   UNL A   1      40.980  29.302  34.054  1.00  0.00     0.021 C 
ENDROOT
BRANCH   1   2
ATOM      2  C   UNL A   1      41.826  28.253  34.781  1.00  0.00     0.116 C 
BRANCH   2   3
ATOM      3  N   UNL A   1      41.146  27.790  35.976  1.00  0.00    -0.352 N 
ATOM      4  C   UNL A   1      41.259  26.637  36.709  1.00  0.00     0.251 C 
ATOM      5  O   UNL A   1      40.582  26.527  37.729  1.00  0.00    -0.269 OA
ATOM      6  H   UNL A   1      40.478  28.423  36.326  1.00  0.00     0.163 HD
BRANCH   4   7
ATOM      7  C   UNL A   1      42.216  25.561  36.350  1.00  0.00     0.039 A 
ATOM      8  C   UNL A   1      44.146  23.697  35.648  1.00  0.00     0.066 A 
ATOM      9  C   UNL A   1      44.411  24.586  36.692  1.00  0.00     0.029 A 
ATOM     10  C   UNL A   1      42.919  23.687  34.993  1.00  0.00     0.029 A 
ATOM     11  C   UNL A   1      43.452  25.541  37.017  1.00  0.00     0.016 A 
ATOM     12  C   UNL A   1      41.939  24.572  35.403  1.00  0.00     0.016 A 
BRANCH   8  13
ATOM     13  N   UNL A   1      45.099  22.752  35.273  1.00  0.00    -0.220 N 
ATOM     14  C   UNL A   1      46.716  21.326  35.227  1.00  0.00     0.093 A 
ATOM     15  C   UNL A   1      45.946  22.057  36.093  1.00  0.00     0.141 A 
ATOM     16  N   UNL A   1      46.372  21.658  33.946  1.00  0.00    -0.134 NA
ATOM     17  N   UNL A   1      45.307  22.431  33.987  1.00  0.00    -0.062 NA
BRANCH  14  18
ATOM     18  C   UNL A   1      47.692  20.273  35.546  1.00  0.00     0.138 C 
BRANCH  18  19
ATOM     19  S   UNL A   1      49.277  20.482  34.757  1.00  0.00    -0.081 SA
BRANCH  19  20
ATOM     20  C   UNL A   1      50.441  19.714  35.924  1.00  0.00     0.176 A 
ATOM     21  N   UNL A   1      50.760  20.563  36.965  1.00  0.00    -0.255 N 
ATOM     22  C   UNL A   1      51.847  21.401  36.744  1.00  0.00     0.266 A 
ATOM     23  N   UNL A   1      51.405  19.030  35.382  1.00  0.00    -0.223 NA
ATOM     24  C   UNL A   1      52.496  21.192  35.402  1.00  0.00     0.066 A 
ATOM     25  O   UNL A   1      52.257  22.277  37.497  1.00  0.00    -0.268 OA
ATOM     26  C   UNL A   1      52.321  19.927  34.804  1.00  0.00     0.079 A 
ATOM     27  C   UNL A   1      52.964  22.258  34.642  1.00  0.00     0.016 A 
ATOM     28  C   UNL A   1      52.728  19.693  33.493  1.00  0.00     0.029 A 
ATOM     29  C   UNL A   1      53.267  22.043  33.293  1.00  0.00     0.001 A 
ATOM     30  C   UNL A   1      53.180  20.764  32.728  1.00  0.00     0.002 A 
BRANCH  21  31
ATOM     31  C   UNL A   1      49.972  20.565  38.143  1.00  0.00     0.052 A 
ATOM     32  C   UNL A   1      47.989  20.272  40.102  1.00  0.00     0.119 A 
ATOM     33  C   UNL A   1      49.003  19.323  40.000  1.00  0.00     0.048 A 
ATOM     34  C   UNL A   1      48.028  21.419  39.309  1.00  0.00     0.048 A 
ATOM     35  C   UNL A   1      49.973  19.451  38.997  1.00  0.00     0.030 A 
ATOM     36  C   UNL A   1      49.036  21.580  38.350  1.00  0.00     0.030 A 
BRANCH  32  37
ATOM     37  O   UNL A   1      47.013  20.081  41.041  1.00  0.00    -0.497 OA
ATOM     38  C   UNL A   1      46.112  19.028  40.692  1.00  0.00     0.278 C 
ENDBRANCH  32  37
ENDBRANCH  21  31
ENDBRANCH  19  20
ENDBRANCH  18  19
ENDBRANCH  14  18
ENDBRANCH   8  13
ENDBRANCH   4   7
ENDBRANCH   2   3
ENDBRANCH   1   2
BRANCH   1  39
ATOM     39  C   UNL A   1      40.037  30.064  34.989  1.00  0.00     0.002 C 
BRANCH  39  40
ATOM     40  C   UNL A   1      38.736  30.551  34.336  1.00  0.00     0.002 C 
BRANCH  40  41
ATOM     41  C   UNL A   1      38.385  29.904  32.988  1.00  0.00     0.021 C 
BRANCH  41  42
ATOM     42  C   UNL A   1      37.846  30.896  31.966  1.00  0.00     0.116 C 
BRANCH  42  43
ATOM     43  N   UNL A   1      36.731  30.336  31.213  1.00  0.00    -0.352 N 
ATOM     44  C   UNL A   1      36.745  29.734  29.971  1.00  0.00     0.251 C 
ATOM     45  H   UNL A   1      35.850  30.396  31.649  1.00  0.00     0.163 HD
ATOM     46  O   UNL A   1      35.727  29.704  29.300  1.00  0.00    -0.269 OA
BRANCH  44  47
ATOM     47  C   UNL A   1      38.001  29.135  29.474  1.00  0.00     0.039 A 
ATOM     48  C   UNL A   1      38.701  29.728  28.421  1.00  0.00     0.014 A 
ATOM     49  C   UNL A   1      38.472  27.957  30.057  1.00  0.00     0.014 A 
ATOM     50  C   UNL A   1      39.910  29.166  28.015  1.00  0.00     0.010 A 
ATOM     51  C   UNL A   1      39.723  27.473  29.742  1.00  0.00     0.010 A 
ATOM     52  C   UNL A   1      40.433  28.050  28.698  1.00  0.00    -0.014 A 
BRANCH  52  53
ATOM     53  C   UNL A   1      41.820  27.631  28.477  1.00  0.00     0.031 A 
ATOM     54  C   UNL A   1      41.902  26.362  27.711  1.00  0.00     0.074 A 
ATOM     55  C   UNL A   1      42.919  28.374  28.741  1.00  0.00     0.049 A 
ATOM     56  N   UNL A   1      42.157  25.191  28.189  1.00  0.00    -0.248 NA
ATOM     57  C   UNL A   1      41.414  26.334  26.320  1.00  0.00     0.031 C 
ATOM     58  C   UNL A   1      42.975  29.743  29.258  1.00  0.00     0.029 A 
ATOM     59  N   UNL A   1      44.240  28.091  28.522  1.00  0.00    -0.354 N 
ATOM     60  C   UNL A   1      42.194  24.344  27.091  1.00  0.00     0.074 A 
ATOM     61  C   UNL A   1      41.466  25.026  26.055  1.00  0.00     0.031 C 
ATOM     62  C   UNL A   1      44.224  30.242  29.102  1.00  0.00     0.029 A 
ATOM     63  C   UNL A   1      45.101  29.192  28.608  1.00  0.00     0.049 A 
ATOM     64  H   UNL A   1      44.561  27.183  28.319  1.00  0.00     0.167 HD
ATOM     65  C   UNL A   1      43.109  23.339  27.041  1.00  0.00     0.034 A 
ATOM     66  C   UNL A   1      46.431  29.248  28.296  1.00  0.00     0.034 A 
ATOM     67  C   UNL A   1      43.648  23.073  28.366  1.00  0.00     0.049 A 
ATOM     68  C   UNL A   1      46.944  27.861  28.406  1.00  0.00     0.074 A 
ATOM     69  C   UNL A   1      43.084  22.812  29.604  1.00  0.00     0.029 A 
ATOM     70  N   UNL A   1      44.940  23.472  28.637  1.00  0.00    -0.354 N 
ATOM     71  N   UNL A   1      47.000  27.213  29.537  1.00  0.00    -0.248 NA
ATOM     72  C   UNL A   1      46.906  27.028  27.215  1.00  0.00     0.031 C 
ATOM     73  C   UNL A   1      43.869  23.563  30.531  1.00  0.00     0.029 A 
ATOM     74  C   UNL A   1      44.934  24.137  29.838  1.00  0.00     0.049 A 
ATOM     75  H   UNL A   1      45.727  23.309  28.069  1.00  0.00     0.167 HD
ATOM     76  C   UNL A   1      46.526  25.945  29.238  1.00  0.00     0.074 A 
ATOM     77  C   UNL A   1      46.572  25.862  27.777  1.00  0.00     0.031 C 
ATOM     78  C   UNL A   1      45.865  25.201  30.174  1.00  0.00     0.034 A 
BRANCH  65  79
ATOM     79  C   UNL A   1      43.846  22.925  25.780  1.00  0.00     0.023 A 
ATOM     80  C   UNL A   1      43.844  21.552  25.476  1.00  0.00     0.031 A 
ATOM     81  C   UNL A   1      44.786  23.705  25.064  1.00  0.00     0.131 A 
ATOM     82  C   UNL A   1      44.830  20.994  24.648  1.00  0.00     0.055 A 
ATOM     83  C   UNL A   1      45.718  23.153  24.181  1.00  0.00     0.041 A 
ATOM     84  F   UNL A   1      44.922  25.025  25.226  1.00  0.00    -0.206 F 
ATOM     85  C   UNL A   1      45.773  21.784  24.001  1.00  0.00     0.022 A 
BRANCH  82  86
ATOM     86  S   UNL A   1      44.976  19.192  24.606  1.00  0.00     0.124 S 
ATOM     87  O   UNL A   1      45.600  18.933  25.900  1.00  0.00    -0.237 OA
ATOM     88  O   UNL A   1      43.583  18.784  24.467  1.00  0.00    -0.237 OA
ATOM     89  O   UNL A   1      45.818  18.950  23.439  1.00  0.00    -0.744 OA
ENDBRANCH  82  86
ENDBRANCH  65  79
BRANCH  66  90
ATOM     90  C   UNL A   1      47.201  30.349  27.629  1.00  0.00     0.023 A 
ATOM     91  C   UNL A   1      46.588  31.492  27.047  1.00  0.00     0.031 A 
ATOM     92  C   UNL A   1      48.601  30.420  27.800  1.00  0.00     0.131 A 
ATOM     93  C   UNL A   1      47.365  32.624  26.685  1.00  0.00     0.055 A 
ATOM     94  C   UNL A   1      49.358  31.541  27.447  1.00  0.00     0.041 A 
ATOM     95  F   UNL A   1      49.280  29.434  28.405  1.00  0.00    -0.206 F 
ATOM     96  C   UNL A   1      48.742  32.654  26.900  1.00  0.00     0.022 A 
BRANCH  93  97
ATOM     97  S   UNL A   1      46.589  34.139  26.012  1.00  0.00     0.124 S 
ATOM     98  O   UNL A   1      46.368  34.935  27.213  1.00  0.00    -0.237 OA
ATOM     99  O   UNL A   1      47.599  34.630  25.082  1.00  0.00    -0.237 OA
ATOM    100  O   UNL A   1      45.367  33.643  25.374  1.00  0.00    -0.744 OA
ENDBRANCH  93  97
ENDBRANCH  66  90
BRANCH  78 101
ATOM    101  C   UNL A   1      45.963  25.602  31.635  1.00  0.00     0.023 A 
ATOM    102  C   UNL A   1      47.036  25.300  32.508  1.00  0.00     0.031 A 
ATOM    103  C   UNL A   1      44.929  26.413  32.140  1.00  0.00     0.131 A 
ATOM    104  C   UNL A   1      47.031  25.792  33.830  1.00  0.00     0.055 A 
ATOM    105  C   UNL A   1      44.942  26.919  33.437  1.00  0.00     0.041 A 
ATOM    106  F   UNL A   1      43.888  26.754  31.361  1.00  0.00    -0.206 F 
ATOM    107  C   UNL A   1      45.989  26.603  34.292  1.00  0.00     0.022 A 
BRANCH 104 108
ATOM    108  S   UNL A   1      48.361  25.358  35.000  1.00  0.00     0.124 S 
ATOM    109  O   UNL A   1      48.828  24.061  34.525  1.00  0.00    -0.237 OA
ATOM    110  O   UNL A   1      49.295  26.470  34.842  1.00  0.00    -0.237 OA
ATOM    111  O   UNL A   1      47.676  25.321  36.294  1.00  0.00    -0.744 OA
ENDBRANCH 104 108
ENDBRANCH  78 101
ENDBRANCH  52  53
ENDBRANCH  44  47
ENDBRANCH  42  43
ENDBRANCH  41  42
ENDBRANCH  40  41
ENDBRANCH  39  40
ENDBRANCH   1  39
TORSDOF 22
ENDMDL
MODEL 2
REMARK VINA RESULT:     -10.1      5.495     13.359
REMARK SMILES COc1ccc(-n2c(SCc3cn(-c4ccc(C(=O)NCCCCCCNC(=O)c5ccc(-c6c7nc(c(-c8cc(S(=O)(=O)[O-])ccc8F)c8ccc([nH]8)c(-c8cc(S(=O)(=O)[O-])ccc8F)c8nc(c(-c9cc(S(=O)(=O)[O-])ccc9F)c9ccc6[nH]9)C=C8)C=C7)cc5)cc4)nn3)nc3ccccc3c2=O)cc1
REMARK SMILES IDX 22 1 21 2 20 3 18 4 19 5 17 7 14 8 15 9 94 10 16 11 93 12
REMARK SMILES IDX 13 13 11 14 12 15 96 16 95 17 10 18 9 19 8 20 7 21 104 22
REMARK SMILES IDX 97 23 103 24 105 25 98 26 102 27 99 28 101 29 100 30 6 31
REMARK SMILES IDX 3 32 4 33 107 34 5 35 106 36 2 37 1 38 23 39 24 40 25 41
REMARK SMILES IDX 26 42 27 43 28 44 29 46 30 47 31 48 92 49 32 50 91 51 33 52
REMARK SMILES IDX 34 53 35 54 85 55 36 56 90 57 84 58 86 59 37 60 89 61 83 62
REMARK SMILES IDX 82 63 38 65 70 66 50 67 69 68 51 69 54 70 68 71 87 72 52 73
REMARK SMILES IDX 53 74 67 76 88 77 55 78 39 79 40 80 48 81 41 82 47 83 49 84
REMARK SMILES IDX 46 85 42 86 43 87 44 88 45 89 71 90 72 91 80 92 73 93 79 94
REMARK SMILES IDX 81 95 78 96 74 97 75 98 76 99 77 100 56 101 57 102 65 103
REMARK SMILES IDX 58 104 64 105 66 106 63 107 59 108 60 109 61 110 62 111
REMARK H PARENT 20 6 27 45 86 64 54 75
REMARK Flexibility Score: inf
ROOT
ATOM      1  C   UNL A   1      37.058  29.327  29.549  1.00  0.00     0.021 C 
ENDROOT
BRANCH   1   2
ATOM      2  C   UNL A   1      37.298  29.831  28.123  1.00  0.00     0.116 C 
BRANCH   2   3
ATOM      3  N   UNL A   1      36.502  31.015  27.861  1.00  0.00    -0.352 N 
ATOM      4  C   UNL A   1      35.201  31.177  27.461  1.00  0.00     0.251 C 
ATOM      5  O   UNL A   1      34.759  32.321  27.364  1.00  0.00    -0.269 OA
ATOM      6  H   UNL A   1      36.987  31.862  27.997  1.00  0.00     0.163 HD
BRANCH   4   7
ATOM      7  C   UNL A   1      34.299  30.025  27.210  1.00  0.00     0.039 A 
ATOM      8  C   UNL A   1      32.544  27.896  26.935  1.00  0.00     0.066 A 
ATOM      9  C   UNL A   1      32.039  29.149  27.292  1.00  0.00     0.029 A 
ATOM     10  C   UNL A   1      33.893  27.706  26.658  1.00  0.00     0.029 A 
ATOM     11  C   UNL A   1      32.930  30.205  27.462  1.00  0.00     0.016 A 
ATOM     12  C   UNL A   1      34.746  28.793  26.727  1.00  0.00     0.016 A 
BRANCH   8  13
ATOM     13  N   UNL A   1      31.684  26.809  26.792  1.00  0.00    -0.220 N 
ATOM     14  C   UNL A   1      30.826  24.839  26.606  1.00  0.00     0.093 A 
ATOM     15  C   UNL A   1      31.997  25.482  26.909  1.00  0.00     0.141 A 
ATOM     16  N   UNL A   1      29.893  25.772  26.246  1.00  0.00    -0.134 NA
ATOM     17  N   UNL A   1      30.388  26.969  26.482  1.00  0.00    -0.062 NA
BRANCH  14  18
ATOM     18  C   UNL A   1      30.519  23.406  26.724  1.00  0.00     0.138 C 
BRANCH  18  19
ATOM     19  S   UNL A   1      30.812  22.470  25.235  1.00  0.00    -0.081 SA
BRANCH  19  20
ATOM     20  C   UNL A   1      32.516  22.913  24.780  1.00  0.00     0.176 A 
ATOM     21  N   UNL A   1      32.603  23.350  23.474  1.00  0.00    -0.255 N 
ATOM     22  C   UNL A   1      32.820  22.359  22.523  1.00  0.00     0.266 A 
ATOM     23  N   UNL A   1      33.437  22.101  25.211  1.00  0.00    -0.223 NA
ATOM     24  C   UNL A   1      32.954  20.983  23.118  1.00  0.00     0.066 A 
ATOM     25  O   UNL A   1      32.857  22.510  21.307  1.00  0.00    -0.268 OA
ATOM     26  C   UNL A   1      33.372  20.912  24.463  1.00  0.00     0.079 A 
ATOM     27  C   UNL A   1      32.400  19.864  22.506  1.00  0.00     0.016 A 
ATOM     28  C   UNL A   1      33.356  19.704  25.154  1.00  0.00     0.029 A 
ATOM     29  C   UNL A   1      32.283  18.680  23.243  1.00  0.00     0.001 A 
ATOM     30  C   UNL A   1      32.785  18.590  24.548  1.00  0.00     0.002 A 
BRANCH  21  31
ATOM     31  C   UNL A   1      32.434  24.724  23.175  1.00  0.00     0.052 A 
ATOM     32  C   UNL A   1      31.983  27.490  23.209  1.00  0.00     0.119 A 
ATOM     33  C   UNL A   1      33.282  27.003  23.313  1.00  0.00     0.048 A 
ATOM     34  C   UNL A   1      30.926  26.610  22.975  1.00  0.00     0.048 A 
ATOM     35  C   UNL A   1      33.504  25.619  23.332  1.00  0.00     0.030 A 
ATOM     36  C   UNL A   1      31.156  25.229  22.928  1.00  0.00     0.030 A 
BRANCH  32  37
ATOM     37  O   UNL A   1      31.789  28.844  23.269  1.00  0.00    -0.497 OA
ATOM     38  C   UNL A   1      30.607  29.260  22.582  1.00  0.00     0.278 C 
ENDBRANCH  32  37
ENDBRANCH  21  31
ENDBRANCH  19  20
ENDBRANCH  18  19
ENDBRANCH  14  18
ENDBRANCH   8  13
ENDBRANCH   4   7
ENDBRANCH   2   3
ENDBRANCH   1   2
BRANCH   1  39
ATOM     39  C   UNL A   1      36.693  30.447  30.527  1.00  0.00     0.002 C 
BRANCH  39  40
ATOM     40  C   UNL A   1      37.167  30.224  31.970  1.00  0.00     0.002 C 
BRANCH  40  41
ATOM     41  C   UNL A   1      36.761  31.309  32.979  1.00  0.00     0.021 C 
BRANCH  41  42
ATOM     42  C   UNL A   1      37.855  32.338  33.229  1.00  0.00     0.116 C 
BRANCH  42  43
ATOM     43  N   UNL A   1      37.850  33.383  32.214  1.00  0.00    -0.352 N 
ATOM     44  C   UNL A   1      38.894  33.824  31.426  1.00  0.00     0.251 C 
ATOM     45  H   UNL A   1      36.987  33.835  32.072  1.00  0.00     0.163 HD
ATOM     46  O   UNL A   1      38.862  34.947  30.949  1.00  0.00    -0.269 OA
BRANCH  44  47
ATOM     47  C   UNL A   1      40.039  32.924  31.174  1.00  0.00     0.039 A 
ATOM     48  C   UNL A   1      41.163  32.959  32.001  1.00  0.00     0.014 A 
ATOM     49  C   UNL A   1      39.992  32.049  30.087  1.00  0.00     0.014 A 
ATOM     50  C   UNL A   1      42.199  32.057  31.767  1.00  0.00     0.010 A 
ATOM     51  C   UNL A   1      40.956  31.078  29.929  1.00  0.00     0.010 A 
ATOM     52  C   UNL A   1      42.080  31.096  30.743  1.00  0.00    -0.014 A 
BRANCH  52  53
ATOM     53  C   UNL A   1      43.017  29.972  30.670  1.00  0.00     0.031 A 
ATOM     54  C   UNL A   1      44.242  30.317  29.905  1.00  0.00     0.074 A 
ATOM     55  C   UNL A   1      42.915  28.816  31.366  1.00  0.00     0.049 A 
ATOM     56  N   UNL A   1      44.515  29.966  28.694  1.00  0.00    -0.248 NA
ATOM     57  C   UNL A   1      45.146  31.354  30.434  1.00  0.00     0.031 C 
ATOM     58  C   UNL A   1      41.896  28.446  32.350  1.00  0.00     0.029 A 
ATOM     59  N   UNL A   1      43.759  27.740  31.403  1.00  0.00    -0.354 N 
ATOM     60  C   UNL A   1      45.785  30.463  28.444  1.00  0.00     0.074 A 
ATOM     61  C   UNL A   1      45.983  31.513  29.406  1.00  0.00     0.031 C 
ATOM     62  C   UNL A   1      42.298  27.353  33.039  1.00  0.00     0.029 A 
ATOM     63  C   UNL A   1      43.534  26.849  32.459  1.00  0.00     0.049 A 
ATOM     64  H   UNL A   1      44.473  27.603  30.738  1.00  0.00     0.167 HD
ATOM     65  C   UNL A   1      46.667  29.731  27.710  1.00  0.00     0.034 A 
ATOM     66  C   UNL A   1      44.298  25.781  32.839  1.00  0.00     0.034 A 
ATOM     67  C   UNL A   1      45.972  28.698  26.959  1.00  0.00     0.049 A 
ATOM     68  C   UNL A   1      45.067  25.370  31.638  1.00  0.00     0.074 A 
ATOM     69  C   UNL A   1      44.890  28.694  26.094  1.00  0.00     0.029 A 
ATOM     70  N   UNL A   1      46.103  27.389  27.375  1.00  0.00    -0.354 N 
ATOM     71  N   UNL A   1      44.503  24.881  30.568  1.00  0.00    -0.248 NA
ATOM     72  C   UNL A   1      46.372  25.974  31.431  1.00  0.00     0.031 C 
ATOM     73  C   UNL A   1      44.136  27.537  26.454  1.00  0.00     0.029 A 
ATOM     74  C   UNL A   1      44.849  26.832  27.423  1.00  0.00     0.049 A 
ATOM     75  H   UNL A   1      46.948  26.935  27.598  1.00  0.00     0.167 HD
ATOM     76  C   UNL A   1      45.132  25.527  29.515  1.00  0.00     0.074 A 
ATOM     77  C   UNL A   1      46.336  26.117  30.103  1.00  0.00     0.031 C 
ATOM     78  C   UNL A   1      44.472  25.775  28.345  1.00  0.00     0.034 A 
BRANCH  65  79
ATOM     79  C   UNL A   1      48.151  29.637  28.016  1.00  0.00     0.023 A 
ATOM     80  C   UNL A   1      49.019  29.648  26.909  1.00  0.00     0.031 A 
ATOM     81  C   UNL A   1      48.731  29.225  29.239  1.00  0.00     0.131 A 
ATOM     82  C   UNL A   1      50.315  29.118  27.002  1.00  0.00     0.055 A 
ATOM     83  C   UNL A   1      50.048  28.769  29.343  1.00  0.00     0.041 A 
ATOM     84  F   UNL A   1      48.052  29.158  30.389  1.00  0.00    -0.206 F 
ATOM     85  C   UNL A   1      50.837  28.671  28.212  1.00  0.00     0.022 A 
BRANCH  82  86
ATOM     86  S   UNL A   1      51.224  28.834  25.465  1.00  0.00     0.124 S 
ATOM     87  O   UNL A   1      51.753  30.168  25.203  1.00  0.00    -0.237 OA
ATOM     88  O   UNL A   1      52.192  27.823  25.874  1.00  0.00    -0.237 OA
ATOM     89  O   UNL A   1      50.189  28.373  24.544  1.00  0.00    -0.744 OA
ENDBRANCH  82  86
ENDBRANCH  65  79
BRANCH  66  90
ATOM     90  C   UNL A   1      44.625  25.294  34.220  1.00  0.00     0.023 A 
ATOM     91  C   UNL A   1      44.902  26.163  35.310  1.00  0.00     0.031 A 
ATOM     92  C   UNL A   1      44.399  23.940  34.551  1.00  0.00     0.131 A 
ATOM     93  C   UNL A   1      44.927  25.668  36.641  1.00  0.00     0.055 A 
ATOM     94  C   UNL A   1      44.420  23.461  35.864  1.00  0.00     0.041 A 
ATOM     95  F   UNL A   1      44.057  23.041  33.616  1.00  0.00    -0.206 F 
ATOM     96  C   UNL A   1      44.670  24.325  36.917  1.00  0.00     0.022 A 
BRANCH  93  97
ATOM     97  S   UNL A   1      45.196  26.780  38.070  1.00  0.00     0.124 S 
ATOM     98  O   UNL A   1      45.524  28.044  37.423  1.00  0.00    -0.237 OA
ATOM     99  O   UNL A   1      43.918  26.718  38.768  1.00  0.00    -0.237 OA
ATOM    100  O   UNL A   1      46.310  26.153  38.785  1.00  0.00    -0.744 OA
ENDBRANCH  93  97
ENDBRANCH  66  90
BRANCH  78 101
ATOM    101  C   UNL A   1      43.180  25.031  28.059  1.00  0.00     0.023 A 
ATOM    102  C   UNL A   1      43.074  23.745  27.477  1.00  0.00     0.031 A 
ATOM    103  C   UNL A   1      41.988  25.648  28.483  1.00  0.00     0.131 A 
ATOM    104  C   UNL A   1      41.808  23.140  27.327  1.00  0.00     0.055 A 
ATOM    105  C   UNL A   1      40.743  25.036  28.357  1.00  0.00     0.041 A 
ATOM    106  F   UNL A   1      42.016  26.862  29.059  1.00  0.00    -0.206 F 
ATOM    107  C   UNL A   1      40.647  23.783  27.769  1.00  0.00     0.022 A 
BRANCH 104 108
ATOM    108  S   UNL A   1      41.632  21.518  26.514  1.00  0.00     0.124 S 
ATOM    109  O   UNL A   1      42.027  20.569  27.548  1.00  0.00    -0.237 OA
ATOM    110  O   UNL A   1      40.220  21.504  26.140  1.00  0.00    -0.237 OA
ATOM    111  O   UNL A   1      42.558  21.604  25.381  1.00  0.00    -0.744 OA
ENDBRANCH 104 108
ENDBRANCH  78 101
ENDBRANCH  52  53
ENDBRANCH  44  47
ENDBRANCH  42  43
ENDBRANCH  41  42
ENDBRANCH  40  41
ENDBRANCH  39  40
ENDBRANCH   1  39
TORSDOF 22
ENDMDL
MODEL 3
REMARK VINA RESULT:     -10.1      5.975     14.053
REMARK SMILES COc1ccc(-n2c(SCc3cn(-c4ccc(C(=O)NCCCCCCNC(=O)c5ccc(-c6c7nc(c(-c8cc(S(=O)(=O)[O-])ccc8F)c8ccc([nH]8)c(-c8cc(S(=O)(=O)[O-])ccc8F)c8nc(c(-c9cc(S(=O)(=O)[O-])ccc9F)c9ccc6[nH]9)C=C8)C=C7)cc5)cc4)nn3)nc3ccccc3c2=O)cc1
REMARK SMILES IDX 22 1 21 2 20 3 18 4 19 5 17 7 14 8 15 9 94 10 16 11 93 12
REMARK SMILES IDX 13 13 11 14 12 15 96 16 95 17 10 18 9 19 8 20 7 21 104 22
REMARK SMILES IDX 97 23 103 24 105 25 98 26 102 27 99 28 101 29 100 30 6 31
REMARK SMILES IDX 3 32 4 33 107 34 5 35 106 36 2 37 1 38 23 39 24 40 25 41
REMARK SMILES IDX 26 42 27 43 28 44 29 46 30 47 31 48 92 49 32 50 91 51 33 52
REMARK SMILES IDX 34 53 35 54 85 55 36 56 90 57 84 58 86 59 37 60 89 61 83 62
REMARK SMILES IDX 82 63 38 65 70 66 50 67 69 68 51 69 54 70 68 71 87 72 52 73
REMARK SMILES IDX 53 74 67 76 88 77 55 78 39 79 40 80 48 81 41 82 47 83 49 84
REMARK SMILES IDX 46 85 42 86 43 87 44 88 45 89 71 90 72 91 80 92 73 93 79 94
REMARK SMILES IDX 81 95 78 96 74 97 75 98 76 99 77 100 56 101 57 102 65 103
REMARK SMILES IDX 58 104 64 105 66 106 63 107 59 108 60 109 61 110 62 111
REMARK H PARENT 20 6 27 45 86 64 54 75
REMARK Flexibility Score: inf
ROOT
ATOM      1  C   UNL A   1      43.818  22.967  24.658  1.00  0.00     0.021 C 
ENDROOT
BRANCH   1   2
ATOM      2  C   UNL A   1      43.971  21.781  25.615  1.00  0.00     0.116 C 
BRANCH   2   3
ATOM      3  N   UNL A   1      43.966  22.236  26.993  1.00  0.00    -0.352 N 
ATOM      4  C   UNL A   1      42.956  22.659  27.816  1.00  0.00     0.251 C 
ATOM      5  O   UNL A   1      43.234  22.943  28.980  1.00  0.00    -0.269 OA
ATOM      6  H   UNL A   1      44.856  22.241  27.415  1.00  0.00     0.163 HD
BRANCH   4   7
ATOM      7  C   UNL A   1      41.541  22.717  27.371  1.00  0.00     0.039 A 
ATOM      8  C   UNL A   1      38.958  22.730  26.363  1.00  0.00     0.066 A 
ATOM      9  C   UNL A   1      39.633  21.513  26.481  1.00  0.00     0.029 A 
ATOM     10  C   UNL A   1      39.528  23.924  26.793  1.00  0.00     0.029 A 
ATOM     11  C   UNL A   1      40.941  21.518  26.955  1.00  0.00     0.016 A 
ATOM     12  C   UNL A   1      40.788  23.893  27.362  1.00  0.00     0.016 A 
BRANCH   8  13
ATOM     13  N   UNL A   1      37.660  22.766  25.858  1.00  0.00    -0.220 N 
ATOM     14  C   UNL A   1      35.742  23.368  25.077  1.00  0.00     0.093 A 
ATOM     15  C   UNL A   1      36.989  23.854  25.369  1.00  0.00     0.141 A 
ATOM     16  N   UNL A   1      35.678  22.058  25.466  1.00  0.00    -0.134 NA
ATOM     17  N   UNL A   1      36.885  21.671  25.824  1.00  0.00    -0.062 NA
BRANCH  14  18
ATOM     18  C   UNL A   1      34.644  24.046  24.372  1.00  0.00     0.138 C 
BRANCH  18  19
ATOM     19  S   UNL A   1      33.983  25.459  25.237  1.00  0.00    -0.081 SA
BRANCH  19  20
ATOM     20  C   UNL A   1      32.419  24.845  25.929  1.00  0.00     0.176 A 
ATOM     21  N   UNL A   1      31.564  24.388  24.945  1.00  0.00    -0.255 N 
ATOM     22  C   UNL A   1      30.715  25.344  24.399  1.00  0.00     0.266 A 
ATOM     23  N   UNL A   1      31.912  25.564  26.887  1.00  0.00    -0.223 NA
ATOM     24  C   UNL A   1      30.872  26.705  25.022  1.00  0.00     0.066 A 
ATOM     25  O   UNL A   1      29.932  25.178  23.470  1.00  0.00    -0.268 OA
ATOM     26  C   UNL A   1      31.391  26.747  26.332  1.00  0.00     0.079 A 
ATOM     27  C   UNL A   1      30.820  27.868  24.260  1.00  0.00     0.016 A 
ATOM     28  C   UNL A   1      31.739  27.957  26.926  1.00  0.00     0.029 A 
ATOM     29  C   UNL A   1      31.276  29.065  24.825  1.00  0.00     0.001 A 
ATOM     30  C   UNL A   1      31.704  29.117  26.158  1.00  0.00     0.002 A 
BRANCH  21  31
ATOM     31  C   UNL A   1      31.621  23.035  24.532  1.00  0.00     0.052 A 
ATOM     32  C   UNL A   1      32.362  20.446  23.756  1.00  0.00     0.119 A 
ATOM     33  C   UNL A   1      32.058  20.705  25.089  1.00  0.00     0.048 A 
ATOM     34  C   UNL A   1      32.188  21.443  22.795  1.00  0.00     0.048 A 
ATOM     35  C   UNL A   1      31.722  22.008  25.483  1.00  0.00     0.030 A 
ATOM     36  C   UNL A   1      31.788  22.730  23.179  1.00  0.00     0.030 A 
BRANCH  32  37
ATOM     37  O   UNL A   1      32.760  19.182  23.413  1.00  0.00    -0.497 OA
ATOM     38  C   UNL A   1      32.526  18.231  24.455  1.00  0.00     0.278 C 
ENDBRANCH  32  37
ENDBRANCH  21  31
ENDBRANCH  19  20
ENDBRANCH  18  19
ENDBRANCH  14  18
ENDBRANCH   8  13
ENDBRANCH   4   7
ENDBRANCH   2   3
ENDBRANCH   1   2
BRANCH   1  39
ATOM     39  C   UNL A   1      44.623  24.195  25.092  1.00  0.00     0.002 C 
BRANCH  39  40
ATOM     40  C   UNL A   1      43.819  25.501  25.166  1.00  0.00     0.002 C 
BRANCH  40  41
ATOM     41  C   UNL A   1      43.963  26.297  26.472  1.00  0.00     0.021 C 
BRANCH  41  42
ATOM     42  C   UNL A   1      45.410  26.468  26.916  1.00  0.00     0.116 C 
BRANCH  42  43
ATOM     43  N   UNL A   1      46.091  27.496  26.139  1.00  0.00    -0.352 N 
ATOM     44  C   UNL A   1      45.880  28.860  26.143  1.00  0.00     0.251 C 
ATOM     45  H   UNL A   1      46.795  27.174  25.531  1.00  0.00     0.163 HD
ATOM     46  O   UNL A   1      46.203  29.527  25.174  1.00  0.00    -0.269 OA
BRANCH  44  47
ATOM     47  C   UNL A   1      45.263  29.492  27.328  1.00  0.00     0.039 A 
ATOM     48  C   UNL A   1      43.891  29.752  27.358  1.00  0.00     0.014 A 
ATOM     49  C   UNL A   1      46.070  29.844  28.412  1.00  0.00     0.014 A 
ATOM     50  C   UNL A   1      43.335  30.297  28.514  1.00  0.00     0.010 A 
ATOM     51  C   UNL A   1      45.505  30.266  29.595  1.00  0.00     0.010 A 
ATOM     52  C   UNL A   1      44.144  30.529  29.645  1.00  0.00    -0.014 A 
BRANCH  52  53
ATOM     53  C   UNL A   1      43.532  30.826  30.943  1.00  0.00     0.031 A 
ATOM     54  C   UNL A   1      43.346  29.602  31.762  1.00  0.00     0.074 A 
ATOM     55  C   UNL A   1      43.332  32.062  31.456  1.00  0.00     0.049 A 
ATOM     56  N   UNL A   1      42.239  28.967  31.955  1.00  0.00    -0.248 NA
ATOM     57  C   UNL A   1      44.535  28.859  32.217  1.00  0.00     0.031 C 
ATOM     58  C   UNL A   1      43.704  33.350  30.866  1.00  0.00     0.029 A 
ATOM     59  N   UNL A   1      42.821  32.434  32.669  1.00  0.00    -0.354 N 
ATOM     60  C   UNL A   1      42.550  27.942  32.835  1.00  0.00     0.074 A 
ATOM     61  C   UNL A   1      43.972  27.760  32.726  1.00  0.00     0.031 C 
ATOM     62  C   UNL A   1      43.614  34.325  31.800  1.00  0.00     0.029 A 
ATOM     63  C   UNL A   1      43.045  33.771  33.018  1.00  0.00     0.049 A 
ATOM     64  H   UNL A   1      42.334  31.808  33.253  1.00  0.00     0.167 HD
ATOM     65  C   UNL A   1      41.666  27.594  33.810  1.00  0.00     0.034 A 
ATOM     66  C   UNL A   1      42.789  34.384  34.214  1.00  0.00     0.034 A 
ATOM     67  C   UNL A   1      40.340  28.108  33.503  1.00  0.00     0.049 A 
ATOM     68  C   UNL A   1      41.729  33.584  34.875  1.00  0.00     0.074 A 
ATOM     69  C   UNL A   1      39.508  28.038  32.398  1.00  0.00     0.029 A 
ATOM     70  N   UNL A   1      39.866  29.172  34.242  1.00  0.00    -0.354 N 
ATOM     71  N   UNL A   1      40.517  33.485  34.402  1.00  0.00    -0.248 NA
ATOM     72  C   UNL A   1      42.145  32.499  35.749  1.00  0.00     0.031 C 
ATOM     73  C   UNL A   1      38.950  29.346  32.274  1.00  0.00     0.029 A 
ATOM     74  C   UNL A   1      39.366  30.105  33.368  1.00  0.00     0.049 A 
ATOM     75  H   UNL A   1      39.885  29.249  35.223  1.00  0.00     0.167 HD
ATOM     76  C   UNL A   1      40.205  32.139  34.516  1.00  0.00     0.074 A 
ATOM     77  C   UNL A   1      41.207  31.599  35.437  1.00  0.00     0.031 C 
ATOM     78  C   UNL A   1      39.359  31.534  33.631  1.00  0.00     0.034 A 
BRANCH  65  79
ATOM     79  C   UNL A   1      42.069  27.211  35.222  1.00  0.00     0.023 A 
ATOM     80  C   UNL A   1      42.993  28.058  35.860  1.00  0.00     0.031 A 
ATOM     81  C   UNL A   1      41.871  25.952  35.839  1.00  0.00     0.131 A 
ATOM     82  C   UNL A   1      43.778  27.596  36.928  1.00  0.00     0.055 A 
ATOM     83  C   UNL A   1      42.603  25.526  36.950  1.00  0.00     0.041 A 
ATOM     84  F   UNL A   1      41.029  25.027  35.368  1.00  0.00    -0.206 F 
ATOM     85  C   UNL A   1      43.594  26.332  37.476  1.00  0.00     0.022 A 
BRANCH  82  86
ATOM     86  S   UNL A   1      45.183  28.612  37.443  1.00  0.00     0.124 S 
ATOM     87  O   UNL A   1      46.248  27.615  37.483  1.00  0.00    -0.237 OA
ATOM     88  O   UNL A   1      45.253  29.591  36.365  1.00  0.00    -0.237 OA
ATOM     89  O   UNL A   1      44.760  29.137  38.738  1.00  0.00    -0.744 OA
ENDBRANCH  82  86
ENDBRANCH  65  79
BRANCH  66  90
ATOM     90  C   UNL A   1      43.597  35.418  34.939  1.00  0.00     0.023 A 
ATOM     91  C   UNL A   1      44.655  35.099  35.833  1.00  0.00     0.031 A 
ATOM     92  C   UNL A   1      43.511  36.771  34.542  1.00  0.00     0.131 A 
ATOM     93  C   UNL A   1      45.561  36.103  36.269  1.00  0.00     0.055 A 
ATOM     94  C   UNL A   1      44.410  37.752  34.971  1.00  0.00     0.041 A 
ATOM     95  F   UNL A   1      42.600  37.178  33.645  1.00  0.00    -0.206 F 
ATOM     96  C   UNL A   1      45.448  37.420  35.826  1.00  0.00     0.022 A 
BRANCH  93  97
ATOM     97  S   UNL A   1      46.981  35.702  37.352  1.00  0.00     0.124 S 
ATOM     98  O   UNL A   1      47.263  36.986  37.983  1.00  0.00    -0.237 OA
ATOM     99  O   UNL A   1      46.441  34.657  38.214  1.00  0.00    -0.237 OA
ATOM    100  O   UNL A   1      48.008  35.245  36.414  1.00  0.00    -0.744 OA
ENDBRANCH  93  97
ENDBRANCH  66  90
BRANCH  78 101
ATOM    101  C   UNL A   1      38.480  32.399  32.746  1.00  0.00     0.023 A 
ATOM    102  C   UNL A   1      37.249  32.989  33.123  1.00  0.00     0.031 A 
ATOM    103  C   UNL A   1      38.975  32.702  31.464  1.00  0.00     0.131 A 
ATOM    104  C   UNL A   1      36.563  33.829  32.219  1.00  0.00     0.055 A 
ATOM    105  C   UNL A   1      38.308  33.553  30.586  1.00  0.00     0.041 A 
ATOM    106  F   UNL A   1      40.146  32.190  31.048  1.00  0.00    -0.206 F 
ATOM    107  C   UNL A   1      37.093  34.112  30.957  1.00  0.00     0.022 A 
BRANCH 104 108
ATOM    108  S   UNL A   1      34.940  34.542  32.647  1.00  0.00     0.124 S 
ATOM    109  O   UNL A   1      34.271  33.467  33.371  1.00  0.00    -0.237 OA
ATOM    110  O   UNL A   1      35.310  35.712  33.440  1.00  0.00    -0.237 OA
ATOM    111  O   UNL A   1      34.353  34.855  31.342  1.00  0.00    -0.744 OA
ENDBRANCH 104 108
ENDBRANCH  78 101
ENDBRANCH  52  53
ENDBRANCH  44  47
ENDBRANCH  42  43
ENDBRANCH  41  42
ENDBRANCH  40  41
ENDBRANCH  39  40
ENDBRANCH   1  39
TORSDOF 22
ENDMDL
