MODEL 1
REMARK VINA RESULT:     -11.9      0.000      0.000
REMARK SMILES [NH3+][C@]1(C(=O)NCCCCCCNC(=O)c2ccc(-c3c4nc(c(-c5cc(S(=O)(=O)[O-])ccc5F)c5ccc([nH]5)c(-c5cc(S(=O)(=O)[O-])ccc5F)c5nc(c(-c6cc(S(=O)(=O)[O-])ccc6F)c6ccc3[nH]6)C=C5)C=C4)cc2)CC[C@@H](Sc2ccc(Cl)c(Cl)c2)C1
REMARK SMILES IDX 9 1 8 2 7 3 6 4 5 5 3 6 4 7 2 9 78 10 90 11 79 12 80 13 1 14
REMARK SMILES IDX 81 18 82 19 83 20 89 21 84 22 87 23 85 24 88 25 86 26 10 27
REMARK SMILES IDX 11 28 12 29 13 30 14 32 15 33 16 34 77 35 17 36 76 37 18 38
REMARK SMILES IDX 19 39 20 40 70 41 21 42 75 43 69 44 71 45 22 46 74 47 68 48
REMARK SMILES IDX 67 49 23 51 55 52 35 53 54 54 36 55 39 56 53 57 72 58 37 59
REMARK SMILES IDX 38 60 52 62 73 63 40 64 24 65 25 66 33 67 26 68 32 69 34 70
REMARK SMILES IDX 31 71 27 72 28 73 29 74 30 75 56 76 57 77 65 78 58 79 64 80
REMARK SMILES IDX 66 81 63 82 59 83 60 84 61 85 62 86 41 87 42 88 50 89 43 90
REMARK SMILES IDX 49 91 51 92 48 93 44 94 45 95 46 96 47 97
REMARK H PARENT 5 8 1 15 1 16 1 17 12 31 71 50 39 61
REMARK Flexibility Score: inf
ROOT
ATOM      1  C   UNL A   1      31.534  30.952  25.933  1.00  0.00     0.002 C 
ENDROOT
BRANCH   1   2
ATOM      2  C   UNL A   1      32.539  29.909  26.422  1.00  0.00     0.002 C 
BRANCH   2   3
ATOM      3  C   UNL A   1      31.977  28.748  27.241  1.00  0.00     0.021 C 
BRANCH   3   4
ATOM      4  C   UNL A   1      32.123  27.354  26.643  1.00  0.00     0.116 C 
BRANCH   4   5
ATOM      5  N   UNL A   1      30.993  26.487  26.896  1.00  0.00    -0.351 N 
ATOM      6  C   UNL A   1      30.112  25.884  26.057  1.00  0.00     0.281 C 
ATOM      7  O   UNL A   1      29.316  25.094  26.588  1.00  0.00    -0.268 OA
ATOM      8  H   UNL A   1      30.832  26.302  27.850  1.00  0.00     0.163 HD
BRANCH   6   9
ATOM      9  C   UNL A   1      29.947  26.225  24.542  1.00  0.00     0.175 C 
ATOM     10  C   UNL A   1      30.499  27.540  23.987  1.00  0.00     0.080 C 
ATOM     11  C   UNL A   1      30.667  25.134  23.699  1.00  0.00     0.094 C 
ATOM     12  C   UNL A   1      30.829  27.261  22.532  1.00  0.00     0.022 C 
ATOM     13  C   UNL A   1      31.402  25.852  22.564  1.00  0.00     0.058 C 
BRANCH   9  14
ATOM     14  N   UNL A   1      28.492  26.152  24.236  1.00  0.00    -0.345 N 
ATOM     15  H   UNL A   1      27.982  26.782  24.857  1.00  0.00     0.345 HD
ATOM     16  H   UNL A   1      28.162  25.198  24.374  1.00  0.00     0.345 HD
ATOM     17  H   UNL A   1      28.334  26.430  23.267  1.00  0.00     0.345 HD
ENDBRANCH   9  14
BRANCH  13  18
ATOM     18  S   UNL A   1      33.247  25.787  22.612  1.00  0.00    -0.122 SA
BRANCH  18  19
ATOM     19  C   UNL A   1      33.691  24.287  23.472  1.00  0.00     0.009 A 
ATOM     20  C   UNL A   1      34.898  24.234  24.181  1.00  0.00     0.017 A 
ATOM     21  C   UNL A   1      32.973  23.103  23.278  1.00  0.00     0.037 A 
ATOM     22  C   UNL A   1      35.387  23.015  24.668  1.00  0.00     0.023 A 
ATOM     23  C   UNL A   1      33.450  21.884  23.777  1.00  0.00     0.060 A 
ATOM     24  C   UNL A   1      34.675  21.834  24.447  1.00  0.00     0.059 A 
ATOM     25  Cl  UNL A   1      32.488  20.475  23.503  1.00  0.00    -0.083 Cl
ATOM     26  Cl  UNL A   1      35.387  20.349  24.959  1.00  0.00    -0.083 Cl
ENDBRANCH  18  19
ENDBRANCH  13  18
ENDBRANCH   6   9
ENDBRANCH   4   5
ENDBRANCH   3   4
ENDBRANCH   2   3
ENDBRANCH   1   2
BRANCH   1  27
ATOM     27  C   UNL A   1      31.412  32.225  26.771  1.00  0.00     0.021 C 
BRANCH  27  28
ATOM     28  C   UNL A   1      32.695  32.739  27.406  1.00  0.00     0.116 C 
BRANCH  28  29
ATOM     29  N   UNL A   1      32.631  34.154  27.716  1.00  0.00    -0.352 N 
ATOM     30  C   UNL A   1      33.304  34.871  28.675  1.00  0.00     0.251 C 
ATOM     31  H   UNL A   1      32.014  34.679  27.157  1.00  0.00     0.163 HD
ATOM     32  O   UNL A   1      32.973  36.031  28.898  1.00  0.00    -0.269 OA
BRANCH  30  33
ATOM     33  C   UNL A   1      34.404  34.247  29.451  1.00  0.00     0.039 A 
ATOM     34  C   UNL A   1      35.718  34.411  29.001  1.00  0.00     0.014 A 
ATOM     35  C   UNL A   1      34.153  33.474  30.587  1.00  0.00     0.014 A 
ATOM     36  C   UNL A   1      36.775  33.828  29.707  1.00  0.00     0.010 A 
ATOM     37  C   UNL A   1      35.212  32.966  31.337  1.00  0.00     0.010 A 
ATOM     38  C   UNL A   1      36.534  33.116  30.892  1.00  0.00    -0.014 A 
BRANCH  38  39
ATOM     39  C   UNL A   1      37.645  32.466  31.638  1.00  0.00     0.031 A 
ATOM     40  C   UNL A   1      38.385  31.307  31.020  1.00  0.00     0.074 A 
ATOM     41  C   UNL A   1      37.971  32.895  32.873  1.00  0.00     0.049 A 
ATOM     42  N   UNL A   1      39.341  30.568  31.522  1.00  0.00    -0.248 NA
ATOM     43  C   UNL A   1      37.970  30.909  29.666  1.00  0.00     0.031 C 
ATOM     44  C   UNL A   1      37.312  33.989  33.590  1.00  0.00     0.029 A 
ATOM     45  N   UNL A   1      38.939  32.465  33.746  1.00  0.00    -0.354 N 
ATOM     46  C   UNL A   1      39.637  29.617  30.549  1.00  0.00     0.074 A 
ATOM     47  C   UNL A   1      38.702  29.824  29.465  1.00  0.00     0.031 C 
ATOM     48  C   UNL A   1      37.917  34.166  34.776  1.00  0.00     0.029 A 
ATOM     49  C   UNL A   1      38.978  33.173  34.926  1.00  0.00     0.049 A 
ATOM     50  H   UNL A   1      39.550  31.720  33.547  1.00  0.00     0.167 HD
ATOM     51  C   UNL A   1      40.618  28.679  30.544  1.00  0.00     0.034 A 
ATOM     52  C   UNL A   1      39.777  33.037  36.003  1.00  0.00     0.034 A 
ATOM     53  C   UNL A   1      41.550  28.491  31.628  1.00  0.00     0.049 A 
ATOM     54  C   UNL A   1      40.843  31.968  35.984  1.00  0.00     0.074 A 
ATOM     55  C   UNL A   1      42.588  27.579  31.729  1.00  0.00     0.029 A 
ATOM     56  N   UNL A   1      41.563  29.235  32.803  1.00  0.00    -0.354 N 
ATOM     57  N   UNL A   1      41.123  31.092  35.047  1.00  0.00    -0.248 NA
ATOM     58  C   UNL A   1      41.715  31.887  37.163  1.00  0.00     0.031 C 
ATOM     59  C   UNL A   1      43.190  27.735  32.982  1.00  0.00     0.029 A 
ATOM     60  C   UNL A   1      42.581  28.794  33.635  1.00  0.00     0.049 A 
ATOM     61  H   UNL A   1      40.940  29.967  33.013  1.00  0.00     0.167 HD
ATOM     62  C   UNL A   1      42.236  30.391  35.505  1.00  0.00     0.074 A 
ATOM     63  C   UNL A   1      42.581  30.956  36.793  1.00  0.00     0.031 C 
ATOM     64  C   UNL A   1      42.916  29.374  34.914  1.00  0.00     0.034 A 
BRANCH  51  65
ATOM     65  C   UNL A   1      40.712  27.785  29.329  1.00  0.00     0.023 A 
ATOM     66  C   UNL A   1      41.648  28.028  28.308  1.00  0.00     0.031 A 
ATOM     67  C   UNL A   1      39.834  26.699  29.166  1.00  0.00     0.131 A 
ATOM     68  C   UNL A   1      41.628  27.255  27.138  1.00  0.00     0.055 A 
ATOM     69  C   UNL A   1      39.879  25.877  28.038  1.00  0.00     0.041 A 
ATOM     70  F   UNL A   1      38.902  26.428  30.095  1.00  0.00    -0.206 F 
ATOM     71  C   UNL A   1      40.769  26.162  27.008  1.00  0.00     0.022 A 
BRANCH  68  72
ATOM     72  S   UNL A   1      42.634  27.794  25.727  1.00  0.00     0.124 S 
ATOM     73  O   UNL A   1      42.092  29.127  25.474  1.00  0.00    -0.237 OA
ATOM     74  O   UNL A   1      43.987  27.746  26.267  1.00  0.00    -0.237 OA
ATOM     75  O   UNL A   1      42.337  26.802  24.695  1.00  0.00    -0.744 OA
ENDBRANCH  68  72
ENDBRANCH  51  65
BRANCH  52  76
ATOM     76  C   UNL A   1      39.620  33.928  37.189  1.00  0.00     0.023 A 
ATOM     77  C   UNL A   1      39.021  33.457  38.369  1.00  0.00     0.031 A 
ATOM     78  C   UNL A   1      40.000  35.281  37.140  1.00  0.00     0.131 A 
ATOM     79  C   UNL A   1      38.756  34.344  39.424  1.00  0.00     0.055 A 
ATOM     80  C   UNL A   1      39.791  36.146  38.216  1.00  0.00     0.041 A 
ATOM     81  F   UNL A   1      40.582  35.784  36.039  1.00  0.00    -0.206 F 
ATOM     82  C   UNL A   1      39.148  35.683  39.360  1.00  0.00     0.022 A 
BRANCH  79  83
ATOM     83  S   UNL A   1      37.782  33.748  40.834  1.00  0.00     0.124 S 
ATOM     84  O   UNL A   1      37.462  34.995  41.520  1.00  0.00    -0.237 OA
ATOM     85  O   UNL A   1      36.670  33.077  40.169  1.00  0.00    -0.237 OA
ATOM     86  O   UNL A   1      38.710  32.866  41.538  1.00  0.00    -0.744 OA
ENDBRANCH  79  83
ENDBRANCH  52  76
BRANCH  64  87
ATOM     87  C   UNL A   1      44.146  28.867  35.630  1.00  0.00     0.023 A 
ATOM     88  C   UNL A   1      44.095  27.782  36.522  1.00  0.00     0.031 A 
ATOM     89  C   UNL A   1      45.384  29.508  35.440  1.00  0.00     0.131 A 
ATOM     90  C   UNL A   1      45.240  27.420  37.248  1.00  0.00     0.055 A 
ATOM     91  C   UNL A   1      46.535  29.099  36.113  1.00  0.00     0.041 A 
ATOM     92  F   UNL A   1      45.493  30.550  34.599  1.00  0.00    -0.206 F 
ATOM     93  C   UNL A   1      46.463  28.061  37.037  1.00  0.00     0.022 A 
BRANCH  90  94
ATOM     94  S   UNL A   1      45.079  26.180  38.562  1.00  0.00     0.124 S 
ATOM     95  O   UNL A   1      43.907  26.657  39.290  1.00  0.00    -0.237 OA
ATOM     96  O   UNL A   1      44.899  24.946  37.805  1.00  0.00    -0.237 OA
ATOM     97  O   UNL A   1      46.344  26.282  39.288  1.00  0.00    -0.744 OA
ENDBRANCH  90  94
ENDBRANCH  64  87
ENDBRANCH  38  39
ENDBRANCH  30  33
ENDBRANCH  28  29
ENDBRANCH  27  28
ENDBRANCH   1  27
TORSDOF 19
ENDMDL
MODEL 2
REMARK VINA RESULT:     -11.8      1.660      7.726
REMARK SMILES [NH3+][C@]1(C(=O)NCCCCCCNC(=O)c2ccc(-c3c4nc(c(-c5cc(S(=O)(=O)[O-])ccc5F)c5ccc([nH]5)c(-c5cc(S(=O)(=O)[O-])ccc5F)c5nc(c(-c6cc(S(=O)(=O)[O-])ccc6F)c6ccc3[nH]6)C=C5)C=C4)cc2)CC[C@@H](Sc2ccc(Cl)c(Cl)c2)C1
REMARK SMILES IDX 9 1 8 2 7 3 6 4 5 5 3 6 4 7 2 9 78 10 90 11 79 12 80 13 1 14
REMARK SMILES IDX 81 18 82 19 83 20 89 21 84 22 87 23 85 24 88 25 86 26 10 27
REMARK SMILES IDX 11 28 12 29 13 30 14 32 15 33 16 34 77 35 17 36 76 37 18 38
REMARK SMILES IDX 19 39 20 40 70 41 21 42 75 43 69 44 71 45 22 46 74 47 68 48
REMARK SMILES IDX 67 49 23 51 55 52 35 53 54 54 36 55 39 56 53 57 72 58 37 59
REMARK SMILES IDX 38 60 52 62 73 63 40 64 24 65 25 66 33 67 26 68 32 69 34 70
REMARK SMILES IDX 31 71 27 72 28 73 29 74 30 75 56 76 57 77 65 78 58 79 64 80
REMARK SMILES IDX 66 81 63 82 59 83 60 84 61 85 62 86 41 87 42 88 50 89 43 90
REMARK SMILES IDX 49 91 51 92 48 93 44 94 45 95 46 96 47 97
REMARK H PARENT 5 8 1 15 1 16 1 17 12 31 71 50 39 61
REMARK Flexibility Score: inf
ROOT
ATOM      1  C   UNL A   1      31.329  30.749  26.078  1.00  0.00     0.002 C 
ENDROOT
BRANCH   1   2
ATOM      2  C   UNL A   1      32.448  29.839  26.583  1.00  0.00     0.002 C 
BRANCH   2   3
ATOM      3  C   UNL A   1      32.020  28.591  27.354  1.00  0.00     0.021 C 
BRANCH   3   4
ATOM      4  C   UNL A   1      32.168  27.256  26.634  1.00  0.00     0.116 C 
BRANCH   4   5
ATOM      5  N   UNL A   1      31.060  26.351  26.847  1.00  0.00    -0.351 N 
ATOM      6  C   UNL A   1      30.145  25.827  25.992  1.00  0.00     0.281 C 
ATOM      7  O   UNL A   1      29.384  24.974  26.473  1.00  0.00    -0.268 OA
ATOM      8  H   UNL A   1      30.948  26.064  27.783  1.00  0.00     0.163 HD
BRANCH   6   9
ATOM      9  C   UNL A   1      29.902  26.325  24.532  1.00  0.00     0.175 C 
ATOM     10  C   UNL A   1      30.374  27.716  24.107  1.00  0.00     0.080 C 
ATOM     11  C   UNL A   1      30.630  25.367  23.545  1.00  0.00     0.094 C 
ATOM     12  C   UNL A   1      30.654  27.614  22.618  1.00  0.00     0.022 C 
ATOM     13  C   UNL A   1      31.286  26.239  22.471  1.00  0.00     0.058 C 
BRANCH   9  14
ATOM     14  N   UNL A   1      28.439  26.219  24.274  1.00  0.00    -0.345 N 
ATOM     15  H   UNL A   1      27.927  26.458  25.123  1.00  0.00     0.345 HD
ATOM     16  H   UNL A   1      28.211  25.266  23.994  1.00  0.00     0.345 HD
ATOM     17  H   UNL A   1      28.178  26.864  23.528  1.00  0.00     0.345 HD
ENDBRANCH   9  14
BRANCH  13  18
ATOM     18  S   UNL A   1      33.133  26.254  22.442  1.00  0.00    -0.122 SA
BRANCH  18  19
ATOM     19  C   UNL A   1      33.675  24.703  23.142  1.00  0.00     0.009 A 
ATOM     20  C   UNL A   1      33.442  23.515  22.438  1.00  0.00     0.017 A 
ATOM     21  C   UNL A   1      34.127  24.624  24.463  1.00  0.00     0.037 A 
ATOM     22  C   UNL A   1      33.639  22.271  23.052  1.00  0.00     0.023 A 
ATOM     23  C   UNL A   1      34.341  23.383  25.076  1.00  0.00     0.060 A 
ATOM     24  C   UNL A   1      34.068  22.203  24.379  1.00  0.00     0.059 A 
ATOM     25  Cl  UNL A   1      34.916  23.383  26.706  1.00  0.00    -0.083 Cl
ATOM     26  Cl  UNL A   1      34.171  20.649  25.120  1.00  0.00    -0.083 Cl
ENDBRANCH  18  19
ENDBRANCH  13  18
ENDBRANCH   6   9
ENDBRANCH   4   5
ENDBRANCH   3   4
ENDBRANCH   2   3
ENDBRANCH   1   2
BRANCH   1  27
ATOM     27  C   UNL A   1      31.371  32.204  26.545  1.00  0.00     0.021 C 
BRANCH  27  28
ATOM     28  C   UNL A   1      32.692  32.687  27.126  1.00  0.00     0.116 C 
BRANCH  28  29
ATOM     29  N   UNL A   1      32.583  33.998  27.736  1.00  0.00    -0.352 N 
ATOM     30  C   UNL A   1      33.281  34.532  28.792  1.00  0.00     0.251 C 
ATOM     31  H   UNL A   1      31.909  34.592  27.335  1.00  0.00     0.163 HD
ATOM     32  O   UNL A   1      32.911  35.598  29.275  1.00  0.00    -0.269 OA
BRANCH  30  33
ATOM     33  C   UNL A   1      34.454  33.823  29.358  1.00  0.00     0.039 A 
ATOM     34  C   UNL A   1      35.734  34.248  28.992  1.00  0.00     0.014 A 
ATOM     35  C   UNL A   1      34.306  32.725  30.209  1.00  0.00     0.014 A 
ATOM     36  C   UNL A   1      36.859  33.594  29.503  1.00  0.00     0.010 A 
ATOM     37  C   UNL A   1      35.427  32.129  30.785  1.00  0.00     0.010 A 
ATOM     38  C   UNL A   1      36.717  32.540  30.419  1.00  0.00    -0.014 A 
BRANCH  38  39
ATOM     39  C   UNL A   1      37.903  31.816  30.950  1.00  0.00     0.031 A 
ATOM     40  C   UNL A   1      38.412  32.125  32.335  1.00  0.00     0.074 A 
ATOM     41  C   UNL A   1      38.536  30.905  30.185  1.00  0.00     0.049 A 
ATOM     42  N   UNL A   1      39.458  31.652  32.962  1.00  0.00    -0.248 NA
ATOM     43  C   UNL A   1      37.656  33.126  33.104  1.00  0.00     0.031 C 
ATOM     44  C   UNL A   1      38.157  30.538  28.818  1.00  0.00     0.029 A 
ATOM     45  N   UNL A   1      39.632  30.120  30.445  1.00  0.00    -0.354 N 
ATOM     46  C   UNL A   1      39.488  32.299  34.194  1.00  0.00     0.074 A 
ATOM     47  C   UNL A   1      38.404  33.257  34.188  1.00  0.00     0.031 C 
ATOM     48  C   UNL A   1      38.984  29.576  28.376  1.00  0.00     0.029 A 
ATOM     49  C   UNL A   1      39.978  29.287  29.406  1.00  0.00     0.049 A 
ATOM     50  H   UNL A   1      40.125  30.151  31.296  1.00  0.00     0.167 HD
ATOM     51  C   UNL A   1      40.321  32.093  35.246  1.00  0.00     0.034 A 
ATOM     52  C   UNL A   1      40.983  28.394  29.297  1.00  0.00     0.034 A 
ATOM     53  C   UNL A   1      41.391  31.126  35.240  1.00  0.00     0.049 A 
ATOM     54  C   UNL A   1      41.912  28.202  30.471  1.00  0.00     0.074 A 
ATOM     55  C   UNL A   1      42.292  30.826  36.249  1.00  0.00     0.029 A 
ATOM     56  N   UNL A   1      41.705  30.294  34.172  1.00  0.00    -0.354 N 
ATOM     57  N   UNL A   1      41.913  28.808  31.637  1.00  0.00    -0.248 NA
ATOM     58  C   UNL A   1      42.963  27.188  30.319  1.00  0.00     0.031 C 
ATOM     59  C   UNL A   1      43.180  29.856  35.772  1.00  0.00     0.029 A 
ATOM     60  C   UNL A   1      42.789  29.492  34.493  1.00  0.00     0.049 A 
ATOM     61  H   UNL A   1      41.227  30.278  33.311  1.00  0.00     0.167 HD
ATOM     62  C   UNL A   1      42.933  28.210  32.372  1.00  0.00     0.074 A 
ATOM     63  C   UNL A   1      43.514  27.190  31.524  1.00  0.00     0.031 C 
ATOM     64  C   UNL A   1      43.351  28.475  33.638  1.00  0.00     0.034 A 
BRANCH  51  65
ATOM     65  C   UNL A   1      40.103  32.943  36.475  1.00  0.00     0.023 A 
ATOM     66  C   UNL A   1      39.303  32.499  37.545  1.00  0.00     0.031 A 
ATOM     67  C   UNL A   1      40.668  34.227  36.570  1.00  0.00     0.131 A 
ATOM     68  C   UNL A   1      39.021  33.360  38.615  1.00  0.00     0.055 A 
ATOM     69  C   UNL A   1      40.456  35.046  37.683  1.00  0.00     0.041 A 
ATOM     70  F   UNL A   1      41.423  34.718  35.574  1.00  0.00    -0.206 F 
ATOM     71  C   UNL A   1      39.615  34.620  38.706  1.00  0.00     0.022 A 
BRANCH  68  72
ATOM     72  S   UNL A   1      37.746  32.868  39.808  1.00  0.00     0.124 S 
ATOM     73  O   UNL A   1      36.523  33.121  39.049  1.00  0.00    -0.237 OA
ATOM     74  O   UNL A   1      38.066  31.467  40.054  1.00  0.00    -0.237 OA
ATOM     75  O   UNL A   1      37.967  33.768  40.938  1.00  0.00    -0.744 OA
ENDBRANCH  68  72
ENDBRANCH  51  65
BRANCH  52  76
ATOM     76  C   UNL A   1      41.170  27.602  28.046  1.00  0.00     0.023 A 
ATOM     77  C   UNL A   1      40.878  26.229  28.015  1.00  0.00     0.031 A 
ATOM     78  C   UNL A   1      41.708  28.187  26.886  1.00  0.00     0.131 A 
ATOM     79  C   UNL A   1      41.189  25.472  26.875  1.00  0.00     0.055 A 
ATOM     80  C   UNL A   1      41.958  27.441  25.733  1.00  0.00     0.041 A 
ATOM     81  F   UNL A   1      42.000  29.497  26.859  1.00  0.00    -0.206 F 
ATOM     82  C   UNL A   1      41.716  26.071  25.729  1.00  0.00     0.022 A 
BRANCH  79  83
ATOM     83  S   UNL A   1      41.006  23.669  26.955  1.00  0.00     0.124 S 
ATOM     84  O   UNL A   1      39.567  23.509  26.783  1.00  0.00    -0.237 OA
ATOM     85  O   UNL A   1      41.840  23.232  25.839  1.00  0.00    -0.237 OA
ATOM     86  O   UNL A   1      41.519  23.335  28.282  1.00  0.00    -0.744 OA
ENDBRANCH  79  83
ENDBRANCH  52  76
BRANCH  64  87
ATOM     87  C   UNL A   1      44.442  27.590  34.197  1.00  0.00     0.023 A 
ATOM     88  C   UNL A   1      44.155  26.407  34.899  1.00  0.00     0.031 A 
ATOM     89  C   UNL A   1      45.791  27.961  34.052  1.00  0.00     0.131 A 
ATOM     90  C   UNL A   1      45.194  25.679  35.497  1.00  0.00     0.055 A 
ATOM     91  C   UNL A   1      46.825  27.196  34.589  1.00  0.00     0.041 A 
ATOM     92  F   UNL A   1      46.125  29.081  33.390  1.00  0.00    -0.206 F 
ATOM     93  C   UNL A   1      46.530  26.057  35.332  1.00  0.00     0.022 A 
BRANCH  90  94
ATOM     94  S   UNL A   1      44.771  24.299  36.594  1.00  0.00     0.124 S 
ATOM     95  O   UNL A   1      46.080  23.901  37.103  1.00  0.00    -0.237 OA
ATOM     96  O   UNL A   1      43.879  24.932  37.560  1.00  0.00    -0.237 OA
ATOM     97  O   UNL A   1      44.132  23.333  35.702  1.00  0.00    -0.744 OA
ENDBRANCH  90  94
ENDBRANCH  64  87
ENDBRANCH  38  39
ENDBRANCH  30  33
ENDBRANCH  28  29
ENDBRANCH  27  28
ENDBRANCH   1  27
TORSDOF 19
ENDMDL
MODEL 3
REMARK VINA RESULT:     -11.7      1.445      1.876
REMARK SMILES [NH3+][C@]1(C(=O)NCCCCCCNC(=O)c2ccc(-c3c4nc(c(-c5cc(S(=O)(=O)[O-])ccc5F)c5ccc([nH]5)c(-c5cc(S(=O)(=O)[O-])ccc5F)c5nc(c(-c6cc(S(=O)(=O)[O-])ccc6F)c6ccc3[nH]6)C=C5)C=C4)cc2)CC[C@@H](Sc2ccc(Cl)c(Cl)c2)C1
REMARK SMILES IDX 9 1 8 2 7 3 6 4 5 5 3 6 4 7 2 9 78 10 90 11 79 12 80 13 1 14
REMARK SMILES IDX 81 18 82 19 83 20 89 21 84 22 87 23 85 24 88 25 86 26 10 27
REMARK SMILES IDX 11 28 12 29 13 30 14 32 15 33 16 34 77 35 17 36 76 37 18 38
REMARK SMILES IDX 19 39 20 40 70 41 21 42 75 43 69 44 71 45 22 46 74 47 68 48
REMARK SMILES IDX 67 49 23 51 55 52 35 53 54 54 36 55 39 56 53 57 72 58 37 59
REMARK SMILES IDX 38 60 52 62 73 63 40 64 24 65 25 66 33 67 26 68 32 69 34 70
REMARK SMILES IDX 31 71 27 72 28 73 29 74 30 75 56 76 57 77 65 78 58 79 64 80
REMARK SMILES IDX 66 81 63 82 59 83 60 84 61 85 62 86 41 87 42 88 50 89 43 90
REMARK SMILES IDX 49 91 51 92 48 93 44 94 45 95 46 96 47 97
REMARK H PARENT 5 8 1 15 1 16 1 17 12 31 71 50 39 61
REMARK Flexibility Score: inf
ROOT
ATOM      1  C   UNL A   1      31.407  30.579  25.708  1.00  0.00     0.002 C 
ENDROOT
BRANCH   1   2
ATOM      2  C   UNL A   1      32.623  29.696  25.987  1.00  0.00     0.002 C 
BRANCH   2   3
ATOM      3  C   UNL A   1      32.421  28.542  26.968  1.00  0.00     0.021 C 
BRANCH   3   4
ATOM      4  C   UNL A   1      32.363  27.140  26.374  1.00  0.00     0.116 C 
BRANCH   4   5
ATOM      5  N   UNL A   1      31.161  26.409  26.714  1.00  0.00    -0.351 N 
ATOM      6  C   UNL A   1      30.146  25.933  25.947  1.00  0.00     0.281 C 
ATOM      7  O   UNL A   1      29.308  25.234  26.536  1.00  0.00    -0.268 OA
ATOM      8  H   UNL A   1      31.060  26.225  27.676  1.00  0.00     0.163 HD
BRANCH   6   9
ATOM      9  C   UNL A   1      29.897  26.324  24.456  1.00  0.00     0.175 C 
ATOM     10  C   UNL A   1      30.308  27.706  23.946  1.00  0.00     0.080 C 
ATOM     11  C   UNL A   1      30.679  25.340  23.540  1.00  0.00     0.094 C 
ATOM     12  C   UNL A   1      30.609  27.522  22.469  1.00  0.00     0.022 C 
ATOM     13  C   UNL A   1      31.306  26.171  22.416  1.00  0.00     0.058 C 
BRANCH   9  14
ATOM     14  N   UNL A   1      28.443  26.133  24.194  1.00  0.00    -0.345 N 
ATOM     15  H   UNL A   1      28.246  26.337  23.214  1.00  0.00     0.345 HD
ATOM     16  H   UNL A   1      27.905  26.762  24.789  1.00  0.00     0.345 HD
ATOM     17  H   UNL A   1      28.184  25.168  24.398  1.00  0.00     0.345 HD
ENDBRANCH   9  14
BRANCH  13  18
ATOM     18  S   UNL A   1      33.150  26.272  22.402  1.00  0.00    -0.122 SA
BRANCH  18  19
ATOM     19  C   UNL A   1      33.759  24.728  23.063  1.00  0.00     0.009 A 
ATOM     20  C   UNL A   1      33.468  23.534  22.392  1.00  0.00     0.017 A 
ATOM     21  C   UNL A   1      34.329  24.662  24.337  1.00  0.00     0.037 A 
ATOM     22  C   UNL A   1      33.724  22.296  22.995  1.00  0.00     0.023 A 
ATOM     23  C   UNL A   1      34.602  23.426  24.938  1.00  0.00     0.060 A 
ATOM     24  C   UNL A   1      34.271  22.240  24.278  1.00  0.00     0.059 A 
ATOM     25  Cl  UNL A   1      35.321  23.442  26.510  1.00  0.00    -0.083 Cl
ATOM     26  Cl  UNL A   1      34.447  20.692  25.019  1.00  0.00    -0.083 Cl
ENDBRANCH  18  19
ENDBRANCH  13  18
ENDBRANCH   6   9
ENDBRANCH   4   5
ENDBRANCH   3   4
ENDBRANCH   2   3
ENDBRANCH   1   2
BRANCH   1  27
ATOM     27  C   UNL A   1      31.310  31.877  26.510  1.00  0.00     0.021 C 
BRANCH  27  28
ATOM     28  C   UNL A   1      32.603  32.383  27.133  1.00  0.00     0.116 C 
BRANCH  28  29
ATOM     29  N   UNL A   1      32.521  33.776  27.525  1.00  0.00    -0.352 N 
ATOM     30  C   UNL A   1      33.220  34.454  28.494  1.00  0.00     0.251 C 
ATOM     31  H   UNL A   1      31.869  34.315  27.023  1.00  0.00     0.163 HD
ATOM     32  O   UNL A   1      32.873  35.592  28.796  1.00  0.00    -0.269 OA
BRANCH  30  33
ATOM     33  C   UNL A   1      34.367  33.815  29.186  1.00  0.00     0.039 A 
ATOM     34  C   UNL A   1      35.658  34.266  28.897  1.00  0.00     0.014 A 
ATOM     35  C   UNL A   1      34.186  32.756  30.079  1.00  0.00     0.014 A 
ATOM     36  C   UNL A   1      36.759  33.678  29.527  1.00  0.00     0.010 A 
ATOM     37  C   UNL A   1      35.276  32.229  30.769  1.00  0.00     0.010 A 
ATOM     38  C   UNL A   1      36.578  32.667  30.483  1.00  0.00    -0.014 A 
BRANCH  38  39
ATOM     39  C   UNL A   1      37.741  32.012  31.140  1.00  0.00     0.031 A 
ATOM     40  C   UNL A   1      38.546  30.984  30.387  1.00  0.00     0.074 A 
ATOM     41  C   UNL A   1      38.057  32.318  32.415  1.00  0.00     0.049 A 
ATOM     42  N   UNL A   1      39.556  30.259  30.792  1.00  0.00    -0.248 NA
ATOM     43  C   UNL A   1      38.137  30.717  28.999  1.00  0.00     0.031 C 
ATOM     44  C   UNL A   1      37.338  33.275  33.258  1.00  0.00     0.029 A 
ATOM     45  N   UNL A   1      39.065  31.857  33.224  1.00  0.00    -0.354 N 
ATOM     46  C   UNL A   1      39.900  29.448  29.714  1.00  0.00     0.074 A 
ATOM     47  C   UNL A   1      38.936  29.715  28.668  1.00  0.00     0.031 C 
ATOM     48  C   UNL A   1      37.949  33.355  34.452  1.00  0.00     0.029 A 
ATOM     49  C   UNL A   1      39.075  32.425  34.477  1.00  0.00     0.049 A 
ATOM     50  H   UNL A   1      39.720  31.181  32.935  1.00  0.00     0.167 HD
ATOM     51  C   UNL A   1      40.940  28.585  29.592  1.00  0.00     0.034 A 
ATOM     52  C   UNL A   1      39.897  32.220  35.526  1.00  0.00     0.034 A 
ATOM     53  C   UNL A   1      41.899  28.337  30.640  1.00  0.00     0.049 A 
ATOM     54  C   UNL A   1      41.032  31.235  35.374  1.00  0.00     0.074 A 
ATOM     55  C   UNL A   1      42.996  27.492  30.627  1.00  0.00     0.029 A 
ATOM     56  N   UNL A   1      41.881  28.940  31.893  1.00  0.00    -0.354 N 
ATOM     57  N   UNL A   1      41.355  30.493  34.340  1.00  0.00    -0.248 NA
ATOM     58  C   UNL A   1      41.925  31.078  36.529  1.00  0.00     0.031 C 
ATOM     59  C   UNL A   1      43.607  27.542  31.885  1.00  0.00     0.029 A 
ATOM     60  C   UNL A   1      42.938  28.477  32.660  1.00  0.00     0.049 A 
ATOM     61  H   UNL A   1      41.214  29.599  32.192  1.00  0.00     0.167 HD
ATOM     62  C   UNL A   1      42.518  29.821  34.705  1.00  0.00     0.074 A 
ATOM     63  C   UNL A   1      42.845  30.256  36.047  1.00  0.00     0.031 C 
ATOM     64  C   UNL A   1      43.255  28.927  33.995  1.00  0.00     0.034 A 
BRANCH  51  65
ATOM     65  C   UNL A   1      41.074  27.845  28.282  1.00  0.00     0.023 A 
ATOM     66  C   UNL A   1      40.700  26.493  28.160  1.00  0.00     0.031 A 
ATOM     67  C   UNL A   1      41.614  28.478  27.149  1.00  0.00     0.131 A 
ATOM     68  C   UNL A   1      40.950  25.801  26.966  1.00  0.00     0.055 A 
ATOM     69  C   UNL A   1      41.777  27.807  25.936  1.00  0.00     0.041 A 
ATOM     70  F   UNL A   1      42.010  29.760  27.207  1.00  0.00    -0.206 F 
ATOM     71  C   UNL A   1      41.460  26.455  25.843  1.00  0.00     0.022 A 
BRANCH  68  72
ATOM     72  S   UNL A   1      40.745  23.998  26.953  1.00  0.00     0.124 S 
ATOM     73  O   UNL A   1      41.660  23.607  25.883  1.00  0.00    -0.237 OA
ATOM     74  O   UNL A   1      41.144  23.624  28.304  1.00  0.00    -0.237 OA
ATOM     75  O   UNL A   1      39.327  23.817  26.647  1.00  0.00    -0.744 OA
ENDBRANCH  68  72
ENDBRANCH  51  65
BRANCH  52  76
ATOM     76  C   UNL A   1      39.701  32.957  36.808  1.00  0.00     0.023 A 
ATOM     77  C   UNL A   1      38.843  32.455  37.801  1.00  0.00     0.031 A 
ATOM     78  C   UNL A   1      40.308  34.205  37.032  1.00  0.00     0.131 A 
ATOM     79  C   UNL A   1      38.562  33.227  38.940  1.00  0.00     0.055 A 
ATOM     80  C   UNL A   1      40.074  34.940  38.196  1.00  0.00     0.041 A 
ATOM     81  F   UNL A   1      41.141  34.729  36.120  1.00  0.00    -0.206 F 
ATOM     82  C   UNL A   1      39.182  34.460  39.150  1.00  0.00     0.022 A 
BRANCH  79  83
ATOM     83  S   UNL A   1      37.282  32.646  40.086  1.00  0.00     0.124 S 
ATOM     84  O   UNL A   1      37.912  31.462  40.659  1.00  0.00    -0.237 OA
ATOM     85  O   UNL A   1      37.134  33.791  40.978  1.00  0.00    -0.237 OA
ATOM     86  O   UNL A   1      36.138  32.385  39.213  1.00  0.00    -0.744 OA
ENDBRANCH  79  83
ENDBRANCH  52  76
BRANCH  64  87
ATOM     87  C   UNL A   1      44.527  28.425  34.638  1.00  0.00     0.023 A 
ATOM     88  C   UNL A   1      44.558  27.252  35.412  1.00  0.00     0.031 A 
ATOM     89  C   UNL A   1      45.720  29.157  34.501  1.00  0.00     0.131 A 
ATOM     90  C   UNL A   1      45.736  26.887  36.082  1.00  0.00     0.055 A 
ATOM     91  C   UNL A   1      46.906  28.752  35.113  1.00  0.00     0.041 A 
ATOM     92  F   UNL A   1      45.750  30.285  33.773  1.00  0.00    -0.206 F 
ATOM     93  C   UNL A   1      46.914  27.622  35.923  1.00  0.00     0.022 A 
BRANCH  90  94
ATOM     94  S   UNL A   1      45.676  25.510  37.260  1.00  0.00     0.124 S 
ATOM     95  O   UNL A   1      45.736  24.350  36.376  1.00  0.00    -0.237 OA
ATOM     96  O   UNL A   1      46.860  25.749  38.078  1.00  0.00    -0.237 OA
ATOM     97  O   UNL A   1      44.399  25.700  37.947  1.00  0.00    -0.744 OA
ENDBRANCH  90  94
ENDBRANCH  64  87
ENDBRANCH  38  39
ENDBRANCH  30  33
ENDBRANCH  28  29
ENDBRANCH  27  28
ENDBRANCH   1  27
TORSDOF 19
ENDMDL
