MODEL 1
REMARK VINA RESULT:      -9.4      0.000      0.000
REMARK SMILES C[C@H]([NH2+]CCc1ccccc1)[C@@H](C)C(=O)NCCCCCCNC(=O)c1ccc(-c2c3nc(c(-c4cc(S(=O)(=O)[O-])ccc4F)c4ccc([nH]4)c(-c4cc(S(=O)(=O)[O-])ccc4F)c4nc(c(-c5cc(S(=O)(=O)[O-])ccc5F)c5ccc2[nH]5)C=C4)C=C3)cc1
REMARK SMILES IDX 18 1 17 2 16 3 14 4 15 5 12 7 13 8 2 9 1 10 3 11 4 14 5 15
REMARK SMILES IDX 6 16 7 17 11 18 8 19 10 20 9 21 19 22 20 23 21 24 22 25
REMARK SMILES IDX 23 26 24 27 25 29 26 30 27 31 88 32 28 33 87 34 29 35 30 36
REMARK SMILES IDX 31 37 81 38 32 39 86 40 80 41 82 42 33 43 85 44 79 45 78 46
REMARK SMILES IDX 34 48 66 49 46 50 65 51 47 52 50 53 64 54 83 55 48 56 49 57
REMARK SMILES IDX 63 59 84 60 51 61 35 62 36 63 44 64 37 65 43 66 45 67 42 68
REMARK SMILES IDX 38 69 39 70 40 71 41 72 67 73 68 74 76 75 69 76 75 77 77 78
REMARK SMILES IDX 74 79 70 80 71 81 72 82 73 83 52 84 53 85 61 86 54 87 60 88
REMARK SMILES IDX 62 89 59 90 55 91 56 92 57 93 58 94
REMARK H PARENT 16 6 3 12 3 13 23 28 82 47 50 58
REMARK Flexibility Score: inf
ROOT
ATOM      1  C   UNL A   1      32.682  36.341  30.710  1.00  0.00     0.021 C 
ENDROOT
BRANCH   1   2
ATOM      2  C   UNL A   1      33.589  35.932  31.869  1.00  0.00     0.116 C 
BRANCH   2   3
ATOM      3  N   UNL A   1      33.094  34.745  32.547  1.00  0.00    -0.356 N 
ATOM      4  C   UNL A   1      33.728  33.626  32.988  1.00  0.00     0.228 C 
ATOM      5  O   UNL A   1      33.036  32.744  33.506  1.00  0.00    -0.275 OA
ATOM      6  H   UNL A   1      32.123  34.752  32.716  1.00  0.00     0.163 HD
BRANCH   4   7
ATOM      7  C   UNL A   1      35.245  33.450  32.881  1.00  0.00     0.133 C 
ATOM      8  C   UNL A   1      35.553  32.296  31.919  1.00  0.00     0.024 C 
BRANCH   7   9
ATOM      9  C   UNL A   1      35.907  33.394  34.278  1.00  0.00     0.191 C 
ATOM     10  C   UNL A   1      35.408  34.527  35.188  1.00  0.00     0.076 C 
BRANCH   9  11
ATOM     11  N   UNL A   1      37.369  33.319  34.308  1.00  0.00    -0.343 N 
ATOM     12  H   UNL A   1      37.648  32.579  33.663  1.00  0.00     0.346 HD
ATOM     13  H   UNL A   1      37.597  33.158  35.289  1.00  0.00     0.346 HD
BRANCH  11  14
ATOM     14  C   UNL A   1      38.125  34.518  33.949  1.00  0.00     0.265 C 
BRANCH  14  15
ATOM     15  C   UNL A   1      39.533  34.147  33.437  1.00  0.00     0.097 C 
BRANCH  15  16
ATOM     16  C   UNL A   1      39.730  34.335  31.948  1.00  0.00    -0.042 A 
ATOM     17  C   UNL A   1      41.012  34.420  31.394  1.00  0.00     0.004 A 
ATOM     18  C   UNL A   1      38.616  34.454  31.100  1.00  0.00     0.004 A 
ATOM     19  C   UNL A   1      41.175  34.633  30.022  1.00  0.00     0.000 A 
ATOM     20  C   UNL A   1      38.779  34.688  29.736  1.00  0.00     0.000 A 
ATOM     21  C   UNL A   1      40.059  34.776  29.196  1.00  0.00     0.000 A 
ENDBRANCH  15  16
ENDBRANCH  14  15
ENDBRANCH  11  14
ENDBRANCH   9  11
ENDBRANCH   7   9
ENDBRANCH   4   7
ENDBRANCH   2   3
ENDBRANCH   1   2
BRANCH   1  22
ATOM     22  C   UNL A   1      33.232  35.998  29.323  1.00  0.00     0.002 C 
BRANCH  22  23
ATOM     23  C   UNL A   1      33.588  34.523  29.107  1.00  0.00     0.002 C 
BRANCH  23  24
ATOM     24  C   UNL A   1      35.087  34.211  29.072  1.00  0.00     0.021 C 
BRANCH  24  25
ATOM     25  C   UNL A   1      35.503  33.199  28.009  1.00  0.00     0.116 C 
BRANCH  25  26
ATOM     26  N   UNL A   1      34.474  32.199  27.775  1.00  0.00    -0.352 N 
ATOM     27  C   UNL A   1      34.598  30.831  27.738  1.00  0.00     0.251 C 
ATOM     28  H   UNL A   1      33.567  32.549  27.622  1.00  0.00     0.163 HD
ATOM     29  O   UNL A   1      33.668  30.142  27.331  1.00  0.00    -0.269 OA
BRANCH  27  30
ATOM     30  C   UNL A   1      35.866  30.203  28.167  1.00  0.00     0.039 A 
ATOM     31  C   UNL A   1      36.958  30.203  27.294  1.00  0.00     0.014 A 
ATOM     32  C   UNL A   1      35.977  29.627  29.436  1.00  0.00     0.014 A 
ATOM     33  C   UNL A   1      38.181  29.675  27.718  1.00  0.00     0.010 A 
ATOM     34  C   UNL A   1      37.212  29.164  29.878  1.00  0.00     0.010 A 
ATOM     35  C   UNL A   1      38.326  29.179  29.022  1.00  0.00    -0.014 A 
BRANCH  35  36
ATOM     36  C   UNL A   1      39.620  28.640  29.517  1.00  0.00     0.031 A 
ATOM     37  C   UNL A   1      40.339  29.350  30.631  1.00  0.00     0.074 A 
ATOM     38  C   UNL A   1      40.185  27.575  28.916  1.00  0.00     0.049 A 
ATOM     39  N   UNL A   1      41.542  29.151  31.104  1.00  0.00    -0.248 NA
ATOM     40  C   UNL A   1      39.616  30.459  31.271  1.00  0.00     0.031 C 
ATOM     41  C   UNL A   1      39.594  26.814  27.812  1.00  0.00     0.029 A 
ATOM     42  N   UNL A   1      41.392  26.959  29.133  1.00  0.00    -0.354 N 
ATOM     43  C   UNL A   1      41.730  30.123  32.081  1.00  0.00     0.074 A 
ATOM     44  C   UNL A   1      40.538  30.944  32.089  1.00  0.00     0.031 C 
ATOM     45  C   UNL A   1      40.436  25.827  27.460  1.00  0.00     0.029 A 
ATOM     46  C   UNL A   1      41.645  25.915  28.272  1.00  0.00     0.049 A 
ATOM     47  H   UNL A   1      42.019  27.237  29.840  1.00  0.00     0.167 HD
ATOM     48  C   UNL A   1      42.791  30.302  32.908  1.00  0.00     0.034 A 
ATOM     49  C   UNL A   1      42.736  25.135  28.138  1.00  0.00     0.034 A 
ATOM     50  C   UNL A   1      43.963  29.461  32.898  1.00  0.00     0.049 A 
ATOM     51  C   UNL A   1      43.916  25.368  29.049  1.00  0.00     0.074 A 
ATOM     52  C   UNL A   1      45.078  29.524  33.716  1.00  0.00     0.029 A 
ATOM     53  N   UNL A   1      44.174  28.403  32.022  1.00  0.00    -0.354 N 
ATOM     54  N   UNL A   1      44.071  26.277  29.984  1.00  0.00    -0.248 NA
ATOM     55  C   UNL A   1      45.063  24.463  28.894  1.00  0.00     0.031 C 
ATOM     56  C   UNL A   1      45.987  28.546  33.297  1.00  0.00     0.029 A 
ATOM     57  C   UNL A   1      45.409  27.822  32.266  1.00  0.00     0.049 A 
ATOM     58  H   UNL A   1      43.539  28.110  31.329  1.00  0.00     0.167 HD
ATOM     59  C   UNL A   1      45.316  26.026  30.555  1.00  0.00     0.074 A 
ATOM     60  C   UNL A   1      45.868  24.881  29.860  1.00  0.00     0.031 C 
ATOM     61  C   UNL A   1      45.943  26.677  31.567  1.00  0.00     0.034 A 
BRANCH  48  62
ATOM     62  C   UNL A   1      42.734  31.469  33.865  1.00  0.00     0.023 A 
ATOM     63  C   UNL A   1      42.027  31.394  35.079  1.00  0.00     0.031 A 
ATOM     64  C   UNL A   1      43.361  32.685  33.546  1.00  0.00     0.131 A 
ATOM     65  C   UNL A   1      41.892  32.536  35.882  1.00  0.00     0.055 A 
ATOM     66  C   UNL A   1      43.297  33.794  34.394  1.00  0.00     0.041 A 
ATOM     67  F   UNL A   1      44.035  32.826  32.392  1.00  0.00    -0.206 F 
ATOM     68  C   UNL A   1      42.544  33.728  35.562  1.00  0.00     0.022 A 
BRANCH  65  69
ATOM     69  S   UNL A   1      40.723  32.483  37.268  1.00  0.00     0.124 S 
ATOM     70  O   UNL A   1      40.291  33.877  37.341  1.00  0.00    -0.237 OA
ATOM     71  O   UNL A   1      39.724  31.528  36.802  1.00  0.00    -0.237 OA
ATOM     72  O   UNL A   1      41.542  32.033  38.392  1.00  0.00    -0.744 OA
ENDBRANCH  65  69
ENDBRANCH  48  62
BRANCH  49  73
ATOM     73  C   UNL A   1      42.780  24.069  27.095  1.00  0.00     0.023 A 
ATOM     74  C   UNL A   1      42.088  22.861  27.271  1.00  0.00     0.031 A 
ATOM     75  C   UNL A   1      43.548  24.225  25.928  1.00  0.00     0.131 A 
ATOM     76  C   UNL A   1      42.216  21.836  26.320  1.00  0.00     0.055 A 
ATOM     77  C   UNL A   1      43.630  23.223  24.960  1.00  0.00     0.041 A 
ATOM     78  F   UNL A   1      44.226  25.363  25.708  1.00  0.00    -0.206 F 
ATOM     79  C   UNL A   1      42.972  22.014  25.160  1.00  0.00     0.022 A 
BRANCH  76  80
ATOM     80  S   UNL A   1      41.445  20.231  26.667  1.00  0.00     0.124 S 
ATOM     81  O   UNL A   1      42.210  19.779  27.823  1.00  0.00    -0.237 OA
ATOM     82  O   UNL A   1      40.060  20.609  26.920  1.00  0.00    -0.237 OA
ATOM     83  O   UNL A   1      41.668  19.475  25.436  1.00  0.00    -0.744 OA
ENDBRANCH  76  80
ENDBRANCH  49  73
BRANCH  61  84
ATOM     84  C   UNL A   1      47.266  26.121  32.031  1.00  0.00     0.023 A 
ATOM     85  C   UNL A   1      47.362  25.228  33.111  1.00  0.00     0.031 A 
ATOM     86  C   UNL A   1      48.451  26.491  31.369  1.00  0.00     0.131 A 
ATOM     87  C   UNL A   1      48.621  24.767  33.525  1.00  0.00     0.055 A 
ATOM     88  C   UNL A   1      49.695  25.988  31.751  1.00  0.00     0.041 A 
ATOM     89  F   UNL A   1      48.416  27.343  30.332  1.00  0.00    -0.206 F 
ATOM     90  C   UNL A   1      49.786  25.128  32.842  1.00  0.00     0.022 A 
BRANCH  87  91
ATOM     91  S   UNL A   1      48.728  23.742  35.019  1.00  0.00     0.124 S 
ATOM     92  O   UNL A   1      49.998  24.175  35.594  1.00  0.00    -0.237 OA
ATOM     93  O   UNL A   1      47.529  24.134  35.754  1.00  0.00    -0.237 OA
ATOM     94  O   UNL A   1      48.716  22.376  34.500  1.00  0.00    -0.744 OA
ENDBRANCH  87  91
ENDBRANCH  61  84
ENDBRANCH  35  36
ENDBRANCH  27  30
ENDBRANCH  25  26
ENDBRANCH  24  25
ENDBRANCH  23  24
ENDBRANCH  22  23
ENDBRANCH   1  22
TORSDOF 21
ENDMDL
MODEL 2
REMARK VINA RESULT:      -9.2      4.503      7.719
REMARK SMILES C[C@H]([NH2+]CCc1ccccc1)[C@@H](C)C(=O)NCCCCCCNC(=O)c1ccc(-c2c3nc(c(-c4cc(S(=O)(=O)[O-])ccc4F)c4ccc([nH]4)c(-c4cc(S(=O)(=O)[O-])ccc4F)c4nc(c(-c5cc(S(=O)(=O)[O-])ccc5F)c5ccc2[nH]5)C=C4)C=C3)cc1
REMARK SMILES IDX 18 1 17 2 16 3 14 4 15 5 12 7 13 8 2 9 1 10 3 11 4 14 5 15
REMARK SMILES IDX 6 16 7 17 11 18 8 19 10 20 9 21 19 22 20 23 21 24 22 25
REMARK SMILES IDX 23 26 24 27 25 29 26 30 27 31 88 32 28 33 87 34 29 35 30 36
REMARK SMILES IDX 31 37 81 38 32 39 86 40 80 41 82 42 33 43 85 44 79 45 78 46
REMARK SMILES IDX 34 48 66 49 46 50 65 51 47 52 50 53 64 54 83 55 48 56 49 57
REMARK SMILES IDX 63 59 84 60 51 61 35 62 36 63 44 64 37 65 43 66 45 67 42 68
REMARK SMILES IDX 38 69 39 70 40 71 41 72 67 73 68 74 76 75 69 76 75 77 77 78
REMARK SMILES IDX 74 79 70 80 71 81 72 82 73 83 52 84 53 85 61 86 54 87 60 88
REMARK SMILES IDX 62 89 59 90 55 91 56 92 57 93 58 94
REMARK H PARENT 16 6 3 12 3 13 23 28 82 47 50 58
REMARK Flexibility Score: inf
ROOT
ATOM      1  C   UNL A   1      33.105  29.276  25.118  1.00  0.00     0.021 C 
ENDROOT
BRANCH   1   2
ATOM      2  C   UNL A   1      33.244  29.033  23.615  1.00  0.00     0.116 C 
BRANCH   2   3
ATOM      3  N   UNL A   1      31.950  29.004  22.954  1.00  0.00    -0.356 N 
ATOM      4  C   UNL A   1      31.162  27.969  22.555  1.00  0.00     0.228 C 
ATOM      5  O   UNL A   1      30.109  28.245  21.972  1.00  0.00    -0.275 OA
ATOM      6  H   UNL A   1      31.576  29.894  22.758  1.00  0.00     0.163 HD
BRANCH   4   7
ATOM      7  C   UNL A   1      31.532  26.509  22.826  1.00  0.00     0.133 C 
ATOM      8  C   UNL A   1      31.924  25.834  21.507  1.00  0.00     0.024 C 
BRANCH   7   9
ATOM      9  C   UNL A   1      30.454  25.803  23.681  1.00  0.00     0.191 C 
ATOM     10  C   UNL A   1      30.642  26.088  25.179  1.00  0.00     0.076 C 
BRANCH   9  11
ATOM     11  N   UNL A   1      30.269  24.368  23.452  1.00  0.00    -0.343 N 
ATOM     12  H   UNL A   1      30.485  24.189  22.471  1.00  0.00     0.346 HD
ATOM     13  H   UNL A   1      29.306  24.186  23.733  1.00  0.00     0.346 HD
BRANCH  11  14
ATOM     14  C   UNL A   1      31.066  23.439  24.251  1.00  0.00     0.265 C 
BRANCH  14  15
ATOM     15  C   UNL A   1      31.877  22.490  23.343  1.00  0.00     0.097 C 
BRANCH  15  16
ATOM     16  C   UNL A   1      33.357  22.429  23.660  1.00  0.00    -0.042 A 
ATOM     17  C   UNL A   1      34.232  23.424  23.212  1.00  0.00     0.004 A 
ATOM     18  C   UNL A   1      33.876  21.349  24.392  1.00  0.00     0.004 A 
ATOM     19  C   UNL A   1      35.601  23.332  23.480  1.00  0.00     0.000 A 
ATOM     20  C   UNL A   1      35.244  21.246  24.640  1.00  0.00     0.000 A 
ATOM     21  C   UNL A   1      36.107  22.240  24.185  1.00  0.00     0.000 A 
ENDBRANCH  15  16
ENDBRANCH  14  15
ENDBRANCH  11  14
ENDBRANCH   9  11
ENDBRANCH   7   9
ENDBRANCH   4   7
ENDBRANCH   2   3
ENDBRANCH   1   2
BRANCH   1  22
ATOM     22  C   UNL A   1      31.799  29.961  25.531  1.00  0.00     0.002 C 
BRANCH  22  23
ATOM     23  C   UNL A   1      31.843  30.695  26.876  1.00  0.00     0.002 C 
BRANCH  23  24
ATOM     24  C   UNL A   1      31.780  32.223  26.790  1.00  0.00     0.021 C 
BRANCH  24  25
ATOM     25  C   UNL A   1      33.039  32.941  27.266  1.00  0.00     0.116 C 
BRANCH  25  26
ATOM     26  N   UNL A   1      32.736  34.226  27.874  1.00  0.00    -0.352 N 
ATOM     27  C   UNL A   1      33.220  34.758  29.046  1.00  0.00     0.251 C 
ATOM     28  H   UNL A   1      32.100  34.792  27.381  1.00  0.00     0.163 HD
ATOM     29  O   UNL A   1      32.711  35.770  29.517  1.00  0.00    -0.269 OA
BRANCH  27  30
ATOM     30  C   UNL A   1      34.337  34.085  29.743  1.00  0.00     0.039 A 
ATOM     31  C   UNL A   1      34.056  33.193  30.782  1.00  0.00     0.014 A 
ATOM     32  C   UNL A   1      35.659  34.329  29.361  1.00  0.00     0.014 A 
ATOM     33  C   UNL A   1      35.101  32.499  31.399  1.00  0.00     0.010 A 
ATOM     34  C   UNL A   1      36.690  33.588  29.930  1.00  0.00     0.010 A 
ATOM     35  C   UNL A   1      36.423  32.668  30.958  1.00  0.00    -0.014 A 
BRANCH  35  36
ATOM     36  C   UNL A   1      37.554  31.924  31.569  1.00  0.00     0.031 A 
ATOM     37  C   UNL A   1      38.086  32.356  32.909  1.00  0.00     0.074 A 
ATOM     38  C   UNL A   1      38.154  30.926  30.892  1.00  0.00     0.049 A 
ATOM     39  N   UNL A   1      39.156  31.958  33.547  1.00  0.00    -0.248 NA
ATOM     40  C   UNL A   1      37.326  33.406  33.604  1.00  0.00     0.031 C 
ATOM     41  C   UNL A   1      37.744  30.430  29.576  1.00  0.00     0.029 A 
ATOM     42  N   UNL A   1      39.251  30.163  31.205  1.00  0.00    -0.354 N 
ATOM     43  C   UNL A   1      39.211  32.724  34.707  1.00  0.00     0.074 A 
ATOM     44  C   UNL A   1      38.098  33.647  34.652  1.00  0.00     0.031 C 
ATOM     45  C   UNL A   1      38.571  29.438  29.204  1.00  0.00     0.029 A 
ATOM     46  C   UNL A   1      39.599  29.263  30.224  1.00  0.00     0.049 A 
ATOM     47  H   UNL A   1      39.744  30.251  32.054  1.00  0.00     0.167 HD
ATOM     48  C   UNL A   1      40.098  32.650  35.731  1.00  0.00     0.034 A 
ATOM     49  C   UNL A   1      40.641  28.410  30.146  1.00  0.00     0.034 A 
ATOM     50  C   UNL A   1      41.190  31.708  35.777  1.00  0.00     0.049 A 
ATOM     51  C   UNL A   1      41.631  28.362  31.285  1.00  0.00     0.074 A 
ATOM     52  C   UNL A   1      42.124  31.517  36.781  1.00  0.00     0.029 A 
ATOM     53  N   UNL A   1      41.499  30.801  34.771  1.00  0.00    -0.354 N 
ATOM     54  N   UNL A   1      41.658  29.077  32.386  1.00  0.00    -0.248 NA
ATOM     55  C   UNL A   1      42.724  27.387  31.173  1.00  0.00     0.031 C 
ATOM     56  C   UNL A   1      43.030  30.539  36.358  1.00  0.00     0.029 A 
ATOM     57  C   UNL A   1      42.620  30.065  35.122  1.00  0.00     0.049 A 
ATOM     58  H   UNL A   1      40.996  30.696  33.932  1.00  0.00     0.167 HD
ATOM     59  C   UNL A   1      42.748  28.608  33.116  1.00  0.00     0.074 A 
ATOM     60  C   UNL A   1      43.348  27.549  32.330  1.00  0.00     0.031 C 
ATOM     61  C   UNL A   1      43.205  29.008  34.329  1.00  0.00     0.034 A 
BRANCH  48  62
ATOM     62  C   UNL A   1      39.931  33.634  36.864  1.00  0.00     0.023 A 
ATOM     63  C   UNL A   1      39.399  33.248  38.107  1.00  0.00     0.031 A 
ATOM     64  C   UNL A   1      40.272  34.987  36.690  1.00  0.00     0.131 A 
ATOM     65  C   UNL A   1      39.142  34.213  39.091  1.00  0.00     0.055 A 
ATOM     66  C   UNL A   1      40.097  35.929  37.706  1.00  0.00     0.041 A 
ATOM     67  F   UNL A   1      40.767  35.423  35.520  1.00  0.00    -0.206 F 
ATOM     68  C   UNL A   1      39.512  35.547  38.909  1.00  0.00     0.022 A 
BRANCH  65  69
ATOM     69  S   UNL A   1      38.175  33.727  40.546  1.00  0.00     0.124 S 
ATOM     70  O   UNL A   1      37.095  32.953  39.936  1.00  0.00    -0.237 OA
ATOM     71  O   UNL A   1      39.142  32.968  41.329  1.00  0.00    -0.237 OA
ATOM     72  O   UNL A   1      37.764  35.003  41.127  1.00  0.00    -0.744 OA
ENDBRANCH  65  69
ENDBRANCH  48  62
BRANCH  49  73
ATOM     73  C   UNL A   1      40.818  27.541  28.948  1.00  0.00     0.023 A 
ATOM     74  C   UNL A   1      41.820  27.812  28.003  1.00  0.00     0.031 A 
ATOM     75  C   UNL A   1      39.963  26.451  28.707  1.00  0.00     0.131 A 
ATOM     76  C   UNL A   1      41.911  27.036  26.837  1.00  0.00     0.055 A 
ATOM     77  C   UNL A   1      40.091  25.650  27.572  1.00  0.00     0.041 A 
ATOM     78  F   UNL A   1      38.991  26.144  29.582  1.00  0.00    -0.206 F 
ATOM     79  C   UNL A   1      41.062  25.949  26.621  1.00  0.00     0.022 A 
BRANCH  76  80
ATOM     80  S   UNL A   1      43.106  27.524  25.562  1.00  0.00     0.124 S 
ATOM     81  O   UNL A   1      43.561  26.229  25.071  1.00  0.00    -0.237 OA
ATOM     82  O   UNL A   1      42.274  28.301  24.650  1.00  0.00    -0.237 OA
ATOM     83  O   UNL A   1      44.100  28.295  26.307  1.00  0.00    -0.744 OA
ENDBRANCH  76  80
ENDBRANCH  49  73
BRANCH  61  84
ATOM     84  C   UNL A   1      44.370  28.250  34.913  1.00  0.00     0.023 A 
ATOM     85  C   UNL A   1      44.202  27.034  35.596  1.00  0.00     0.031 A 
ATOM     86  C   UNL A   1      45.675  28.756  34.773  1.00  0.00     0.131 A 
ATOM     87  C   UNL A   1      45.315  26.386  36.152  1.00  0.00     0.055 A 
ATOM     88  C   UNL A   1      46.785  28.080  35.279  1.00  0.00     0.041 A 
ATOM     89  F   UNL A   1      45.892  29.915  34.129  1.00  0.00    -0.206 F 
ATOM     90  C   UNL A   1      46.607  26.892  35.983  1.00  0.00     0.022 A 
BRANCH  87  91
ATOM     91  S   UNL A   1      45.049  24.903  37.163  1.00  0.00     0.124 S 
ATOM     92  O   UNL A   1      44.694  25.478  38.457  1.00  0.00    -0.237 OA
ATOM     93  O   UNL A   1      43.971  24.226  36.449  1.00  0.00    -0.237 OA
ATOM     94  O   UNL A   1      46.342  24.222  37.121  1.00  0.00    -0.744 OA
ENDBRANCH  87  91
ENDBRANCH  61  84
ENDBRANCH  35  36
ENDBRANCH  27  30
ENDBRANCH  25  26
ENDBRANCH  24  25
ENDBRANCH  23  24
ENDBRANCH  22  23
ENDBRANCH   1  22
TORSDOF 21
ENDMDL
MODEL 3
REMARK VINA RESULT:      -9.0      1.734      2.006
REMARK SMILES C[C@H]([NH2+]CCc1ccccc1)[C@@H](C)C(=O)NCCCCCCNC(=O)c1ccc(-c2c3nc(c(-c4cc(S(=O)(=O)[O-])ccc4F)c4ccc([nH]4)c(-c4cc(S(=O)(=O)[O-])ccc4F)c4nc(c(-c5cc(S(=O)(=O)[O-])ccc5F)c5ccc2[nH]5)C=C4)C=C3)cc1
REMARK SMILES IDX 18 1 17 2 16 3 14 4 15 5 12 7 13 8 2 9 1 10 3 11 4 14 5 15
REMARK SMILES IDX 6 16 7 17 11 18 8 19 10 20 9 21 19 22 20 23 21 24 22 25
REMARK SMILES IDX 23 26 24 27 25 29 26 30 27 31 88 32 28 33 87 34 29 35 30 36
REMARK SMILES IDX 31 37 81 38 32 39 86 40 80 41 82 42 33 43 85 44 79 45 78 46
REMARK SMILES IDX 34 48 66 49 46 50 65 51 47 52 50 53 64 54 83 55 48 56 49 57
REMARK SMILES IDX 63 59 84 60 51 61 35 62 36 63 44 64 37 65 43 66 45 67 42 68
REMARK SMILES IDX 38 69 39 70 40 71 41 72 67 73 68 74 76 75 69 76 75 77 77 78
REMARK SMILES IDX 74 79 70 80 71 81 72 82 73 83 52 84 53 85 61 86 54 87 60 88
REMARK SMILES IDX 62 89 59 90 55 91 56 92 57 93 58 94
REMARK H PARENT 16 6 3 12 3 13 23 28 82 47 50 58
REMARK Flexibility Score: inf
ROOT
ATOM      1  C   UNL A   1      32.473  36.178  30.533  1.00  0.00     0.021 C 
ENDROOT
BRANCH   1   2
ATOM      2  C   UNL A   1      33.412  35.936  31.715  1.00  0.00     0.116 C 
BRANCH   2   3
ATOM      3  N   UNL A   1      32.997  34.788  32.503  1.00  0.00    -0.356 N 
ATOM      4  C   UNL A   1      33.689  33.710  32.962  1.00  0.00     0.228 C 
ATOM      5  O   UNL A   1      33.059  32.852  33.588  1.00  0.00    -0.275 OA
ATOM      6  H   UNL A   1      32.043  34.790  32.750  1.00  0.00     0.163 HD
BRANCH   4   7
ATOM      7  C   UNL A   1      35.196  33.552  32.743  1.00  0.00     0.133 C 
ATOM      8  C   UNL A   1      35.441  32.509  31.648  1.00  0.00     0.024 C 
BRANCH   7   9
ATOM      9  C   UNL A   1      35.942  33.351  34.083  1.00  0.00     0.191 C 
ATOM     10  C   UNL A   1      35.465  34.344  35.153  1.00  0.00     0.076 C 
BRANCH   9  11
ATOM     11  N   UNL A   1      37.405  33.327  34.022  1.00  0.00    -0.343 N 
ATOM     12  H   UNL A   1      37.671  32.541  33.428  1.00  0.00     0.346 HD
ATOM     13  H   UNL A   1      37.701  33.264  34.996  1.00  0.00     0.346 HD
BRANCH  11  14
ATOM     14  C   UNL A   1      38.089  34.512  33.507  1.00  0.00     0.265 C 
BRANCH  14  15
ATOM     15  C   UNL A   1      39.590  34.228  33.284  1.00  0.00     0.097 C 
BRANCH  15  16
ATOM     16  C   UNL A   1      40.051  34.381  31.850  1.00  0.00    -0.042 A 
ATOM     17  C   UNL A   1      41.413  34.402  31.528  1.00  0.00     0.004 A 
ATOM     18  C   UNL A   1      39.109  34.532  30.819  1.00  0.00     0.004 A 
ATOM     19  C   UNL A   1      41.821  34.583  30.204  1.00  0.00     0.000 A 
ATOM     20  C   UNL A   1      39.517  34.735  29.502  1.00  0.00     0.000 A 
ATOM     21  C   UNL A   1      40.875  34.759  29.194  1.00  0.00     0.000 A 
ENDBRANCH  15  16
ENDBRANCH  14  15
ENDBRANCH  11  14
ENDBRANCH   9  11
ENDBRANCH   7   9
ENDBRANCH   4   7
ENDBRANCH   2   3
ENDBRANCH   1   2
BRANCH   1  22
ATOM     22  C   UNL A   1      33.157  36.148  29.163  1.00  0.00     0.002 C 
BRANCH  22  23
ATOM     23  C   UNL A   1      33.626  34.765  28.697  1.00  0.00     0.002 C 
BRANCH  23  24
ATOM     24  C   UNL A   1      35.144  34.569  28.656  1.00  0.00     0.021 C 
BRANCH  24  25
ATOM     25  C   UNL A   1      35.605  33.303  27.942  1.00  0.00     0.116 C 
BRANCH  25  26
ATOM     26  N   UNL A   1      34.521  32.348  27.770  1.00  0.00    -0.352 N 
ATOM     27  C   UNL A   1      34.572  30.975  27.807  1.00  0.00     0.251 C 
ATOM     28  H   UNL A   1      33.633  32.738  27.606  1.00  0.00     0.163 HD
ATOM     29  O   UNL A   1      33.602  30.316  27.446  1.00  0.00    -0.269 OA
BRANCH  27  30
ATOM     30  C   UNL A   1      35.809  30.305  28.261  1.00  0.00     0.039 A 
ATOM     31  C   UNL A   1      36.928  30.295  27.422  1.00  0.00     0.014 A 
ATOM     32  C   UNL A   1      35.866  29.696  29.518  1.00  0.00     0.014 A 
ATOM     33  C   UNL A   1      38.123  29.726  27.871  1.00  0.00     0.010 A 
ATOM     34  C   UNL A   1      37.074  29.191  29.987  1.00  0.00     0.010 A 
ATOM     35  C   UNL A   1      38.214  29.196  29.167  1.00  0.00    -0.014 A 
BRANCH  35  36
ATOM     36  C   UNL A   1      39.477  28.612  29.688  1.00  0.00     0.031 A 
ATOM     37  C   UNL A   1      40.139  29.232  30.889  1.00  0.00     0.074 A 
ATOM     38  C   UNL A   1      40.069  27.590  29.041  1.00  0.00     0.049 A 
ATOM     39  N   UNL A   1      41.313  28.989  31.410  1.00  0.00    -0.248 NA
ATOM     40  C   UNL A   1      39.386  30.296  31.570  1.00  0.00     0.031 C 
ATOM     41  C   UNL A   1      39.536  26.917  27.854  1.00  0.00     0.029 A 
ATOM     42  N   UNL A   1      41.261  26.950  29.276  1.00  0.00    -0.354 N 
ATOM     43  C   UNL A   1      41.452  29.884  32.465  1.00  0.00     0.074 A 
ATOM     44  C   UNL A   1      40.264  30.712  32.470  1.00  0.00     0.031 C 
ATOM     45  C   UNL A   1      40.391  25.953  27.475  1.00  0.00     0.029 A 
ATOM     46  C   UNL A   1      41.556  25.971  28.354  1.00  0.00     0.049 A 
ATOM     47  H   UNL A   1      41.850  27.170  30.034  1.00  0.00     0.167 HD
ATOM     48  C   UNL A   1      42.468  29.993  33.358  1.00  0.00     0.034 A 
ATOM     49  C   UNL A   1      42.650  25.194  28.221  1.00  0.00     0.034 A 
ATOM     50  C   UNL A   1      43.635  29.146  33.348  1.00  0.00     0.049 A 
ATOM     51  C   UNL A   1      43.780  25.349  29.209  1.00  0.00     0.074 A 
ATOM     52  C   UNL A   1      44.705  29.139  34.227  1.00  0.00     0.029 A 
ATOM     53  N   UNL A   1      43.889  28.154  32.408  1.00  0.00    -0.354 N 
ATOM     54  N   UNL A   1      43.887  26.185  30.216  1.00  0.00    -0.248 NA
ATOM     55  C   UNL A   1      44.930  24.450  29.048  1.00  0.00     0.031 C 
ATOM     56  C   UNL A   1      45.631  28.188  33.785  1.00  0.00     0.029 A 
ATOM     57  C   UNL A   1      45.107  27.547  32.674  1.00  0.00     0.049 A 
ATOM     58  H   UNL A   1      43.292  27.918  31.663  1.00  0.00     0.167 HD
ATOM     59  C   UNL A   1      45.099  25.884  30.831  1.00  0.00     0.074 A 
ATOM     60  C   UNL A   1      45.684  24.789  30.084  1.00  0.00     0.031 C 
ATOM     61  C   UNL A   1      45.674  26.453  31.921  1.00  0.00     0.034 A 
BRANCH  48  62
ATOM     62  C   UNL A   1      42.364  31.086  34.395  1.00  0.00     0.023 A 
ATOM     63  C   UNL A   1      42.942  32.352  34.195  1.00  0.00     0.031 A 
ATOM     64  C   UNL A   1      41.710  30.849  35.617  1.00  0.00     0.131 A 
ATOM     65  C   UNL A   1      42.933  33.298  35.230  1.00  0.00     0.055 A 
ATOM     66  C   UNL A   1      41.627  31.828  36.611  1.00  0.00     0.041 A 
ATOM     67  F   UNL A   1      41.155  29.654  35.876  1.00  0.00    -0.206 F 
ATOM     68  C   UNL A   1      42.256  33.055  36.427  1.00  0.00     0.022 A 
BRANCH  65  69
ATOM     69  S   UNL A   1      43.952  34.788  35.048  1.00  0.00     0.124 S 
ATOM     70  O   UNL A   1      42.941  35.798  34.737  1.00  0.00    -0.237 OA
ATOM     71  O   UNL A   1      44.585  34.900  36.356  1.00  0.00    -0.237 OA
ATOM     72  O   UNL A   1      44.849  34.457  33.944  1.00  0.00    -0.744 OA
ENDBRANCH  65  69
ENDBRANCH  48  62
BRANCH  49  73
ATOM     73  C   UNL A   1      42.745  24.208  27.106  1.00  0.00     0.023 A 
ATOM     74  C   UNL A   1      42.132  22.950  27.203  1.00  0.00     0.031 A 
ATOM     75  C   UNL A   1      43.486  24.492  25.946  1.00  0.00     0.131 A 
ATOM     76  C   UNL A   1      42.310  22.003  26.182  1.00  0.00     0.055 A 
ATOM     77  C   UNL A   1      43.617  23.567  24.909  1.00  0.00     0.041 A 
ATOM     78  F   UNL A   1      44.089  25.683  25.799  1.00  0.00    -0.206 F 
ATOM     79  C   UNL A   1      43.038  22.307  25.030  1.00  0.00     0.022 A 
BRANCH  76  80
ATOM     80  S   UNL A   1      41.645  20.332  26.422  1.00  0.00     0.124 S 
ATOM     81  O   UNL A   1      42.179  19.987  27.734  1.00  0.00    -0.237 OA
ATOM     82  O   UNL A   1      40.207  20.566  26.354  1.00  0.00    -0.237 OA
ATOM     83  O   UNL A   1      42.206  19.580  25.301  1.00  0.00    -0.744 OA
ENDBRANCH  76  80
ENDBRANCH  49  73
BRANCH  61  84
ATOM     84  C   UNL A   1      46.968  25.854  32.412  1.00  0.00     0.023 A 
ATOM     85  C   UNL A   1      48.205  26.172  31.829  1.00  0.00     0.031 A 
ATOM     86  C   UNL A   1      46.956  24.953  33.492  1.00  0.00     0.131 A 
ATOM     87  C   UNL A   1      49.377  25.559  32.300  1.00  0.00     0.055 A 
ATOM     88  C   UNL A   1      48.129  24.389  33.993  1.00  0.00     0.041 A 
ATOM     89  F   UNL A   1      45.800  24.613  34.086  1.00  0.00    -0.206 F 
ATOM     90  C   UNL A   1      49.348  24.684  33.390  1.00  0.00     0.022 A 
BRANCH  87  91
ATOM     91  S   UNL A   1      50.937  25.867  31.426  1.00  0.00     0.124 S 
ATOM     92  O   UNL A   1      51.762  24.751  31.875  1.00  0.00    -0.237 OA
ATOM     93  O   UNL A   1      50.523  25.831  30.026  1.00  0.00    -0.237 OA
ATOM     94  O   UNL A   1      51.351  27.181  31.915  1.00  0.00    -0.744 OA
ENDBRANCH  87  91
ENDBRANCH  61  84
ENDBRANCH  35  36
ENDBRANCH  27  30
ENDBRANCH  25  26
ENDBRANCH  24  25
ENDBRANCH  23  24
ENDBRANCH  22  23
ENDBRANCH   1  22
TORSDOF 21
ENDMDL
