MODEL 1
REMARK VINA RESULT:     -12.8      0.000      0.000
REMARK SMILES CCC(=O)N1CCC[C@](C[C@H]2CC(c3ccc(C)cc3)=NO2)(C(=O)NCCCCCCNC(=O)c2ccc(-c3c4nc(c(-c5cc(S(=O)(=O)[O-])ccc5F)c5ccc([nH]5)c(-c5cc(S(=O)(=O)[O-])ccc5F)c5nc(c(-c6cc(S(=O)(=O)[O-])ccc6F)c6ccc3[nH]6)C=C5)C=C4)cc2)C1
REMARK SMILES IDX 28 1 27 2 26 3 25 4 23 5 24 6 9 8 5 9 6 10 98 11 7 12 8 13
REMARK SMILES IDX 3 14 4 15 2 16 1 17 10 18 11 19 12 20 22 21 13 22 21 23
REMARK SMILES IDX 14 24 15 25 20 26 16 27 19 28 17 29 18 30 29 31 30 32 31 33
REMARK SMILES IDX 32 34 33 35 34 37 35 38 36 39 97 40 37 41 96 42 38 43 39 44
REMARK SMILES IDX 40 45 90 46 41 47 95 48 89 49 91 50 42 51 94 52 88 53 87 54
REMARK SMILES IDX 43 56 75 57 55 58 74 59 56 60 59 61 73 62 92 63 57 64 58 65
REMARK SMILES IDX 72 67 93 68 60 69 44 70 45 71 53 72 46 73 52 74 54 75 51 76
REMARK SMILES IDX 47 77 48 78 49 79 50 80 76 81 77 82 85 83 78 84 84 85 86 86
REMARK SMILES IDX 83 87 79 88 80 89 81 90 82 91 61 92 62 93 70 94 63 95 69 96
REMARK SMILES IDX 71 97 68 98 64 99 65 100 66 101 67 102
REMARK H PARENT 25 7 32 36 91 55 59 66
REMARK Flexibility Score: inf
ROOT
ATOM      1  C   UNL A   1      35.632  30.425  27.448  1.00  0.00     0.002 C 
ENDROOT
BRANCH   1   2
ATOM      2  C   UNL A   1      34.828  29.128  27.506  1.00  0.00     0.021 C 
BRANCH   2   3
ATOM      3  C   UNL A   1      33.803  28.947  26.406  1.00  0.00     0.116 C 
BRANCH   3   4
ATOM      4  N   UNL A   1      34.168  28.724  25.043  1.00  0.00    -0.356 N 
ATOM      5  C   UNL A   1      33.770  27.658  24.283  1.00  0.00     0.228 C 
ATOM      6  O   UNL A   1      34.001  27.732  23.067  1.00  0.00    -0.274 OA
ATOM      7  H   UNL A   1      34.753  29.391  24.616  1.00  0.00     0.163 HD
BRANCH   5   8
ATOM      8  C   UNL A   1      33.110  26.336  24.854  1.00  0.00     0.070 C 
ATOM      9  N   UNL A   1      30.834  26.592  23.851  1.00  0.00    -0.342 N 
ATOM     10  C   UNL A   1      30.105  26.502  25.107  1.00  0.00     0.119 C 
ATOM     11  C   UNL A   1      32.102  25.853  23.776  1.00  0.00     0.136 C 
ATOM     12  C   UNL A   1      30.942  26.829  26.321  1.00  0.00     0.023 C 
ATOM     13  C   UNL A   1      32.374  26.317  26.198  1.00  0.00     0.021 C 
BRANCH   9  14
ATOM     14  C   UNL A   1      30.255  27.338  22.840  1.00  0.00     0.222 C 
ATOM     15  O   UNL A   1      30.795  27.429  21.733  1.00  0.00    -0.275 OA
BRANCH  14  16
ATOM     16  C   UNL A   1      29.140  28.316  23.185  1.00  0.00     0.097 C 
ATOM     17  C   UNL A   1      29.414  29.800  23.233  1.00  0.00     0.014 C 
ENDBRANCH  14  16
ENDBRANCH   9  14
BRANCH   8  18
ATOM     18  C   UNL A   1      34.355  25.345  24.936  1.00  0.00     0.067 C 
BRANCH  18  19
ATOM     19  C   UNL A   1      34.484  24.190  25.965  1.00  0.00     0.211 C 
ATOM     20  C   UNL A   1      33.628  22.955  25.744  1.00  0.00     0.108 C 
ATOM     21  O   UNL A   1      35.830  23.728  26.140  1.00  0.00    -0.392 OA
ATOM     22  C   UNL A   1      34.704  21.953  25.513  1.00  0.00     0.091 C 
ATOM     23  N   UNL A   1      35.901  22.349  25.808  1.00  0.00    -0.090 NA
BRANCH  22  24
ATOM     24  C   UNL A   1      34.419  20.638  24.910  1.00  0.00    -0.001 A 
ATOM     25  C   UNL A   1      35.399  19.640  24.938  1.00  0.00     0.010 A 
ATOM     26  C   UNL A   1      33.152  20.350  24.411  1.00  0.00     0.010 A 
ATOM     27  C   UNL A   1      35.109  18.348  24.506  1.00  0.00     0.004 A 
ATOM     28  C   UNL A   1      32.877  19.064  23.930  1.00  0.00     0.004 A 
ATOM     29  C   UNL A   1      33.844  18.049  23.995  1.00  0.00    -0.051 A 
ATOM     30  C   UNL A   1      33.551  16.671  23.483  1.00  0.00     0.044 C 
ENDBRANCH  22  24
ENDBRANCH  18  19
ENDBRANCH   8  18
ENDBRANCH   5   8
ENDBRANCH   3   4
ENDBRANCH   2   3
ENDBRANCH   1   2
BRANCH   1  31
ATOM     31  C   UNL A   1      35.101  31.673  28.179  1.00  0.00     0.002 C 
BRANCH  31  32
ATOM     32  C   UNL A   1      35.764  33.017  27.902  1.00  0.00     0.021 C 
BRANCH  32  33
ATOM     33  C   UNL A   1      35.959  33.947  29.094  1.00  0.00     0.116 C 
BRANCH  33  34
ATOM     34  N   UNL A   1      34.757  34.465  29.750  1.00  0.00    -0.352 N 
ATOM     35  C   UNL A   1      34.373  34.352  31.091  1.00  0.00     0.251 C 
ATOM     36  H   UNL A   1      34.136  34.961  29.170  1.00  0.00     0.163 HD
ATOM     37  O   UNL A   1      33.341  34.833  31.516  1.00  0.00    -0.269 OA
BRANCH  35  38
ATOM     38  C   UNL A   1      35.341  33.757  32.058  1.00  0.00     0.039 A 
ATOM     39  C   UNL A   1      36.401  34.580  32.458  1.00  0.00     0.014 A 
ATOM     40  C   UNL A   1      35.449  32.379  32.154  1.00  0.00     0.014 A 
ATOM     41  C   UNL A   1      37.673  34.029  32.542  1.00  0.00     0.010 A 
ATOM     42  C   UNL A   1      36.716  31.848  32.088  1.00  0.00     0.010 A 
ATOM     43  C   UNL A   1      37.822  32.692  32.186  1.00  0.00    -0.014 A 
BRANCH  43  44
ATOM     44  C   UNL A   1      39.107  32.081  31.899  1.00  0.00     0.031 A 
ATOM     45  C   UNL A   1      39.078  30.877  31.047  1.00  0.00     0.074 A 
ATOM     46  C   UNL A   1      40.256  32.623  32.368  1.00  0.00     0.049 A 
ATOM     47  N   UNL A   1      39.844  29.856  31.196  1.00  0.00    -0.248 NA
ATOM     48  C   UNL A   1      38.093  30.705  29.979  1.00  0.00     0.031 C 
ATOM     49  C   UNL A   1      41.619  32.195  32.051  1.00  0.00     0.029 A 
ATOM     50  N   UNL A   1      40.462  33.604  33.342  1.00  0.00    -0.354 N 
ATOM     51  C   UNL A   1      39.673  29.055  30.085  1.00  0.00     0.074 A 
ATOM     52  C   UNL A   1      38.493  29.556  29.430  1.00  0.00     0.031 C 
ATOM     53  C   UNL A   1      42.450  32.654  33.006  1.00  0.00     0.029 A 
ATOM     54  C   UNL A   1      41.624  33.247  34.045  1.00  0.00     0.049 A 
ATOM     55  H   UNL A   1      39.899  34.394  33.505  1.00  0.00     0.167 HD
ATOM     56  C   UNL A   1      40.658  28.178  29.745  1.00  0.00     0.034 A 
ATOM     57  C   UNL A   1      41.642  32.865  35.361  1.00  0.00     0.034 A 
ATOM     58  C   UNL A   1      41.762  28.268  30.700  1.00  0.00     0.049 A 
ATOM     59  C   UNL A   1      42.097  31.417  35.532  1.00  0.00     0.074 A 
ATOM     60  C   UNL A   1      42.945  28.988  30.666  1.00  0.00     0.029 A 
ATOM     61  N   UNL A   1      41.568  27.888  32.021  1.00  0.00    -0.354 N 
ATOM     62  N   UNL A   1      42.141  30.542  34.563  1.00  0.00    -0.248 NA
ATOM     63  C   UNL A   1      42.494  30.845  36.815  1.00  0.00     0.031 C 
ATOM     64  C   UNL A   1      43.415  29.111  31.999  1.00  0.00     0.029 A 
ATOM     65  C   UNL A   1      42.547  28.430  32.835  1.00  0.00     0.049 A 
ATOM     66  H   UNL A   1      40.834  27.311  32.337  1.00  0.00     0.167 HD
ATOM     67  C   UNL A   1      42.509  29.317  35.058  1.00  0.00     0.074 A 
ATOM     68  C   UNL A   1      42.767  29.575  36.465  1.00  0.00     0.031 C 
ATOM     69  C   UNL A   1      42.543  28.191  34.274  1.00  0.00     0.034 A 
BRANCH  56  70
ATOM     70  C   UNL A   1      40.795  27.535  28.382  1.00  0.00     0.023 A 
ATOM     71  C   UNL A   1      40.880  26.129  28.313  1.00  0.00     0.031 A 
ATOM     72  C   UNL A   1      40.894  28.204  27.147  1.00  0.00     0.131 A 
ATOM     73  C   UNL A   1      41.155  25.462  27.108  1.00  0.00     0.055 A 
ATOM     74  C   UNL A   1      41.210  27.544  25.948  1.00  0.00     0.041 A 
ATOM     75  F   UNL A   1      40.646  29.515  27.030  1.00  0.00    -0.206 F 
ATOM     76  C   UNL A   1      41.354  26.165  25.925  1.00  0.00     0.022 A 
BRANCH  73  77
ATOM     77  S   UNL A   1      41.255  23.653  27.123  1.00  0.00     0.124 S 
ATOM     78  O   UNL A   1      41.537  23.373  28.527  1.00  0.00    -0.237 OA
ATOM     79  O   UNL A   1      39.934  23.266  26.639  1.00  0.00    -0.237 OA
ATOM     80  O   UNL A   1      42.356  23.368  26.204  1.00  0.00    -0.744 OA
ENDBRANCH  73  77
ENDBRANCH  56  70
BRANCH  57  81
ATOM     81  C   UNL A   1      40.564  33.484  36.185  1.00  0.00     0.023 A 
ATOM     82  C   UNL A   1      39.469  32.693  36.592  1.00  0.00     0.031 A 
ATOM     83  C   UNL A   1      40.845  34.649  36.911  1.00  0.00     0.131 A 
ATOM     84  C   UNL A   1      38.829  32.973  37.810  1.00  0.00     0.055 A 
ATOM     85  C   UNL A   1      40.222  34.900  38.133  1.00  0.00     0.041 A 
ATOM     86  F   UNL A   1      41.831  35.473  36.530  1.00  0.00    -0.206 F 
ATOM     87  C   UNL A   1      39.267  34.018  38.624  1.00  0.00     0.022 A 
BRANCH  84  88
ATOM     88  S   UNL A   1      37.506  31.902  38.439  1.00  0.00     0.124 S 
ATOM     89  O   UNL A   1      37.958  31.627  39.797  1.00  0.00    -0.237 OA
ATOM     90  O   UNL A   1      36.318  32.742  38.333  1.00  0.00    -0.237 OA
ATOM     91  O   UNL A   1      37.558  30.768  37.519  1.00  0.00    -0.744 OA
ENDBRANCH  84  88
ENDBRANCH  57  81
BRANCH  69  92
ATOM     92  C   UNL A   1      42.689  26.771  34.789  1.00  0.00     0.023 A 
ATOM     93  C   UNL A   1      43.659  25.889  34.302  1.00  0.00     0.031 A 
ATOM     94  C   UNL A   1      41.868  26.252  35.822  1.00  0.00     0.131 A 
ATOM     95  C   UNL A   1      43.680  24.539  34.686  1.00  0.00     0.055 A 
ATOM     96  C   UNL A   1      41.974  24.941  36.296  1.00  0.00     0.041 A 
ATOM     97  F   UNL A   1      40.924  26.991  36.422  1.00  0.00    -0.206 F 
ATOM     98  C   UNL A   1      42.859  24.059  35.699  1.00  0.00     0.022 A 
BRANCH  95  99
ATOM     99  S   UNL A   1      44.703  23.408  33.711  1.00  0.00     0.124 S 
ATOM    100  O   UNL A   1      46.047  23.905  34.001  1.00  0.00    -0.237 OA
ATOM    101  O   UNL A   1      44.374  22.109  34.296  1.00  0.00    -0.237 OA
ATOM    102  O   UNL A   1      44.242  23.613  32.346  1.00  0.00    -0.744 OA
ENDBRANCH  95  99
ENDBRANCH  69  92
ENDBRANCH  43  44
ENDBRANCH  35  38
ENDBRANCH  33  34
ENDBRANCH  32  33
ENDBRANCH  31  32
ENDBRANCH   1  31
TORSDOF 21
ENDMDL
MODEL 2
REMARK VINA RESULT:     -12.4      2.660      5.660
REMARK SMILES CCC(=O)N1CCC[C@](C[C@H]2CC(c3ccc(C)cc3)=NO2)(C(=O)NCCCCCCNC(=O)c2ccc(-c3c4nc(c(-c5cc(S(=O)(=O)[O-])ccc5F)c5ccc([nH]5)c(-c5cc(S(=O)(=O)[O-])ccc5F)c5nc(c(-c6cc(S(=O)(=O)[O-])ccc6F)c6ccc3[nH]6)C=C5)C=C4)cc2)C1
REMARK SMILES IDX 28 1 27 2 26 3 25 4 23 5 24 6 9 8 5 9 6 10 98 11 7 12 8 13
REMARK SMILES IDX 3 14 4 15 2 16 1 17 10 18 11 19 12 20 22 21 13 22 21 23
REMARK SMILES IDX 14 24 15 25 20 26 16 27 19 28 17 29 18 30 29 31 30 32 31 33
REMARK SMILES IDX 32 34 33 35 34 37 35 38 36 39 97 40 37 41 96 42 38 43 39 44
REMARK SMILES IDX 40 45 90 46 41 47 95 48 89 49 91 50 42 51 94 52 88 53 87 54
REMARK SMILES IDX 43 56 75 57 55 58 74 59 56 60 59 61 73 62 92 63 57 64 58 65
REMARK SMILES IDX 72 67 93 68 60 69 44 70 45 71 53 72 46 73 52 74 54 75 51 76
REMARK SMILES IDX 47 77 48 78 49 79 50 80 76 81 77 82 85 83 78 84 84 85 86 86
REMARK SMILES IDX 83 87 79 88 80 89 81 90 82 91 61 92 62 93 70 94 63 95 69 96
REMARK SMILES IDX 71 97 68 98 64 99 65 100 66 101 67 102
REMARK H PARENT 25 7 32 36 91 55 59 66
REMARK Flexibility Score: inf
ROOT
ATOM      1  C   UNL A   1      32.200  27.598  26.649  1.00  0.00     0.002 C 
ENDROOT
BRANCH   1   2
ATOM      2  C   UNL A   1      31.241  26.412  26.559  1.00  0.00     0.021 C 
BRANCH   2   3
ATOM      3  C   UNL A   1      31.885  25.044  26.644  1.00  0.00     0.116 C 
BRANCH   3   4
ATOM      4  N   UNL A   1      31.198  23.847  26.277  1.00  0.00    -0.356 N 
ATOM      5  C   UNL A   1      31.753  22.792  25.604  1.00  0.00     0.228 C 
ATOM      6  O   UNL A   1      31.080  21.752  25.558  1.00  0.00    -0.274 OA
ATOM      7  H   UNL A   1      30.249  23.774  26.528  1.00  0.00     0.163 HD
BRANCH   5   8
ATOM      8  C   UNL A   1      33.140  22.835  24.839  1.00  0.00     0.070 C 
ATOM      9  N   UNL A   1      33.380  20.392  24.364  1.00  0.00    -0.342 N 
ATOM     10  C   UNL A   1      34.683  20.243  24.996  1.00  0.00     0.119 C 
ATOM     11  C   UNL A   1      33.084  21.705  23.776  1.00  0.00     0.136 C 
ATOM     12  C   UNL A   1      34.996  21.322  26.006  1.00  0.00     0.023 C 
ATOM     13  C   UNL A   1      34.474  22.691  25.579  1.00  0.00     0.021 C 
BRANCH   9  14
ATOM     14  C   UNL A   1      32.557  19.280  24.353  1.00  0.00     0.222 C 
ATOM     15  O   UNL A   1      32.096  18.825  25.405  1.00  0.00    -0.275 OA
BRANCH  14  16
ATOM     16  C   UNL A   1      32.492  18.418  23.100  1.00  0.00     0.097 C 
ATOM     17  C   UNL A   1      33.396  17.217  22.952  1.00  0.00     0.014 C 
ENDBRANCH  14  16
ENDBRANCH   9  14
BRANCH   8  18
ATOM     18  C   UNL A   1      33.094  24.265  24.137  1.00  0.00     0.067 C 
BRANCH  18  19
ATOM     19  C   UNL A   1      32.263  24.586  22.866  1.00  0.00     0.211 C 
ATOM     20  C   UNL A   1      30.904  25.237  23.062  1.00  0.00     0.108 C 
ATOM     21  O   UNL A   1      32.967  25.390  21.910  1.00  0.00    -0.392 OA
ATOM     22  C   UNL A   1      31.162  26.540  22.391  1.00  0.00     0.091 C 
ATOM     23  N   UNL A   1      32.251  26.597  21.692  1.00  0.00    -0.090 NA
BRANCH  22  24
ATOM     24  C   UNL A   1      30.273  27.701  22.588  1.00  0.00    -0.001 A 
ATOM     25  C   UNL A   1      28.980  27.503  23.083  1.00  0.00     0.010 A 
ATOM     26  C   UNL A   1      30.747  28.994  22.386  1.00  0.00     0.010 A 
ATOM     27  C   UNL A   1      28.173  28.588  23.413  1.00  0.00     0.004 A 
ATOM     28  C   UNL A   1      29.915  30.084  22.670  1.00  0.00     0.004 A 
ATOM     29  C   UNL A   1      28.633  29.890  23.207  1.00  0.00    -0.051 A 
ATOM     30  C   UNL A   1      27.741  31.056  23.514  1.00  0.00     0.044 C 
ENDBRANCH  22  24
ENDBRANCH  18  19
ENDBRANCH   8  18
ENDBRANCH   5   8
ENDBRANCH   3   4
ENDBRANCH   2   3
ENDBRANCH   1   2
BRANCH   1  31
ATOM     31  C   UNL A   1      31.716  28.909  27.297  1.00  0.00     0.002 C 
BRANCH  31  32
ATOM     32  C   UNL A   1      32.291  30.226  26.791  1.00  0.00     0.021 C 
BRANCH  32  33
ATOM     33  C   UNL A   1      33.786  30.448  26.996  1.00  0.00     0.116 C 
BRANCH  33  34
ATOM     34  N   UNL A   1      34.195  31.319  28.099  1.00  0.00    -0.352 N 
ATOM     35  C   UNL A   1      35.255  31.156  28.998  1.00  0.00     0.251 C 
ATOM     36  H   UNL A   1      33.651  32.129  28.226  1.00  0.00     0.163 HD
ATOM     37  O   UNL A   1      35.493  31.961  29.878  1.00  0.00    -0.269 OA
BRANCH  35  38
ATOM     38  C   UNL A   1      36.218  30.041  28.765  1.00  0.00     0.039 A 
ATOM     39  C   UNL A   1      36.485  29.215  29.864  1.00  0.00     0.014 A 
ATOM     40  C   UNL A   1      37.119  30.126  27.717  1.00  0.00     0.014 A 
ATOM     41  C   UNL A   1      37.798  28.828  30.099  1.00  0.00     0.010 A 
ATOM     42  C   UNL A   1      38.440  29.879  28.010  1.00  0.00     0.010 A 
ATOM     43  C   UNL A   1      38.779  29.319  29.242  1.00  0.00    -0.014 A 
BRANCH  43  44
ATOM     44  C   UNL A   1      40.197  29.287  29.550  1.00  0.00     0.031 A 
ATOM     45  C   UNL A   1      40.976  28.210  28.911  1.00  0.00     0.074 A 
ATOM     46  C   UNL A   1      40.757  30.223  30.353  1.00  0.00     0.049 A 
ATOM     47  N   UNL A   1      41.944  27.575  29.469  1.00  0.00    -0.248 NA
ATOM     48  C   UNL A   1      40.652  27.704  27.576  1.00  0.00     0.031 C 
ATOM     49  C   UNL A   1      42.182  30.390  30.641  1.00  0.00     0.029 A 
ATOM     50  N   UNL A   1      40.161  31.161  31.201  1.00  0.00    -0.354 N 
ATOM     51  C   UNL A   1      42.555  26.821  28.488  1.00  0.00     0.074 A 
ATOM     52  C   UNL A   1      41.645  26.836  27.372  1.00  0.00     0.031 C 
ATOM     53  C   UNL A   1      42.313  31.101  31.777  1.00  0.00     0.029 A 
ATOM     54  C   UNL A   1      40.981  31.269  32.335  1.00  0.00     0.049 A 
ATOM     55  H   UNL A   1      39.325  31.652  31.034  1.00  0.00     0.167 HD
ATOM     56  C   UNL A   1      43.847  26.427  28.665  1.00  0.00     0.034 A 
ATOM     57  C   UNL A   1      40.613  30.870  33.593  1.00  0.00     0.034 A 
ATOM     58  C   UNL A   1      44.346  26.911  29.952  1.00  0.00     0.049 A 
ATOM     59  C   UNL A   1      41.476  29.719  34.106  1.00  0.00     0.074 A 
ATOM     60  C   UNL A   1      45.069  28.045  30.286  1.00  0.00     0.029 A 
ATOM     61  N   UNL A   1      43.799  26.428  31.133  1.00  0.00    -0.354 N 
ATOM     62  N   UNL A   1      42.238  28.978  33.346  1.00  0.00    -0.248 NA
ATOM     63  C   UNL A   1      41.510  29.299  35.504  1.00  0.00     0.031 C 
ATOM     64  C   UNL A   1      44.876  28.288  31.670  1.00  0.00     0.029 A 
ATOM     65  C   UNL A   1      44.078  27.281  32.186  1.00  0.00     0.049 A 
ATOM     66  H   UNL A   1      43.283  25.593  31.212  1.00  0.00     0.167 HD
ATOM     67  C   UNL A   1      42.814  27.982  34.093  1.00  0.00     0.074 A 
ATOM     68  C   UNL A   1      42.363  28.261  35.448  1.00  0.00     0.031 C 
ATOM     69  C   UNL A   1      43.588  26.998  33.531  1.00  0.00     0.034 A 
BRANCH  56  70
ATOM     70  C   UNL A   1      44.755  25.953  27.552  1.00  0.00     0.023 A 
ATOM     71  C   UNL A   1      44.525  24.674  27.003  1.00  0.00     0.031 A 
ATOM     72  C   UNL A   1      45.860  26.645  27.019  1.00  0.00     0.131 A 
ATOM     73  C   UNL A   1      45.406  24.098  26.072  1.00  0.00     0.055 A 
ATOM     74  C   UNL A   1      46.765  26.057  26.121  1.00  0.00     0.041 A 
ATOM     75  F   UNL A   1      46.091  27.933  27.304  1.00  0.00    -0.206 F 
ATOM     76  C   UNL A   1      46.547  24.771  25.650  1.00  0.00     0.022 A 
BRANCH  73  77
ATOM     77  S   UNL A   1      45.030  22.445  25.432  1.00  0.00     0.124 S 
ATOM     78  O   UNL A   1      46.315  21.767  25.563  1.00  0.00    -0.237 OA
ATOM     79  O   UNL A   1      43.969  22.000  26.329  1.00  0.00    -0.237 OA
ATOM     80  O   UNL A   1      44.606  22.704  24.057  1.00  0.00    -0.744 OA
ENDBRANCH  73  77
ENDBRANCH  56  70
BRANCH  57  81
ATOM     81  C   UNL A   1      39.148  30.969  33.855  1.00  0.00     0.023 A 
ATOM     82  C   UNL A   1      38.586  32.227  34.156  1.00  0.00     0.031 A 
ATOM     83  C   UNL A   1      38.301  29.963  33.371  1.00  0.00     0.131 A 
ATOM     84  C   UNL A   1      37.262  32.501  33.777  1.00  0.00     0.055 A 
ATOM     85  C   UNL A   1      36.997  30.256  32.971  1.00  0.00     0.041 A 
ATOM     86  F   UNL A   1      38.766  28.730  33.130  1.00  0.00    -0.206 F 
ATOM     87  C   UNL A   1      36.500  31.548  33.101  1.00  0.00     0.022 A 
BRANCH  84  88
ATOM     88  S   UNL A   1      36.541  34.148  34.021  1.00  0.00     0.124 S 
ATOM     89  O   UNL A   1      35.938  34.412  32.720  1.00  0.00    -0.237 OA
ATOM     90  O   UNL A   1      35.600  33.942  35.116  1.00  0.00    -0.237 OA
ATOM     91  O   UNL A   1      37.714  34.957  34.344  1.00  0.00    -0.744 OA
ENDBRANCH  84  88
ENDBRANCH  57  81
BRANCH  69  92
ATOM     92  C   UNL A   1      44.046  25.736  34.235  1.00  0.00     0.023 A 
ATOM     93  C   UNL A   1      45.393  25.461  34.492  1.00  0.00     0.031 A 
ATOM     94  C   UNL A   1      43.133  24.759  34.708  1.00  0.00     0.131 A 
ATOM     95  C   UNL A   1      45.802  24.223  35.010  1.00  0.00     0.055 A 
ATOM     96  C   UNL A   1      43.536  23.579  35.342  1.00  0.00     0.041 A 
ATOM     97  F   UNL A   1      41.806  24.902  34.579  1.00  0.00    -0.206 F 
ATOM     98  C   UNL A   1      44.883  23.284  35.462  1.00  0.00     0.022 A 
BRANCH  95  99
ATOM     99  S   UNL A   1      47.566  23.825  34.929  1.00  0.00     0.124 S 
ATOM    100  O   UNL A   1      48.109  24.678  35.986  1.00  0.00    -0.237 OA
ATOM    101  O   UNL A   1      47.575  22.391  35.215  1.00  0.00    -0.237 OA
ATOM    102  O   UNL A   1      47.944  24.195  33.573  1.00  0.00    -0.744 OA
ENDBRANCH  95  99
ENDBRANCH  69  92
ENDBRANCH  43  44
ENDBRANCH  35  38
ENDBRANCH  33  34
ENDBRANCH  32  33
ENDBRANCH  31  32
ENDBRANCH   1  31
TORSDOF 21
ENDMDL
MODEL 3
REMARK VINA RESULT:     -12.4      2.840      5.864
REMARK SMILES CCC(=O)N1CCC[C@](C[C@H]2CC(c3ccc(C)cc3)=NO2)(C(=O)NCCCCCCNC(=O)c2ccc(-c3c4nc(c(-c5cc(S(=O)(=O)[O-])ccc5F)c5ccc([nH]5)c(-c5cc(S(=O)(=O)[O-])ccc5F)c5nc(c(-c6cc(S(=O)(=O)[O-])ccc6F)c6ccc3[nH]6)C=C5)C=C4)cc2)C1
REMARK SMILES IDX 28 1 27 2 26 3 25 4 23 5 24 6 9 8 5 9 6 10 98 11 7 12 8 13
REMARK SMILES IDX 3 14 4 15 2 16 1 17 10 18 11 19 12 20 22 21 13 22 21 23
REMARK SMILES IDX 14 24 15 25 20 26 16 27 19 28 17 29 18 30 29 31 30 32 31 33
REMARK SMILES IDX 32 34 33 35 34 37 35 38 36 39 97 40 37 41 96 42 38 43 39 44
REMARK SMILES IDX 40 45 90 46 41 47 95 48 89 49 91 50 42 51 94 52 88 53 87 54
REMARK SMILES IDX 43 56 75 57 55 58 74 59 56 60 59 61 73 62 92 63 57 64 58 65
REMARK SMILES IDX 72 67 93 68 60 69 44 70 45 71 53 72 46 73 52 74 54 75 51 76
REMARK SMILES IDX 47 77 48 78 49 79 50 80 76 81 77 82 85 83 78 84 84 85 86 86
REMARK SMILES IDX 83 87 79 88 80 89 81 90 82 91 61 92 62 93 70 94 63 95 69 96
REMARK SMILES IDX 71 97 68 98 64 99 65 100 66 101 67 102
REMARK H PARENT 25 7 32 36 91 55 59 66
REMARK Flexibility Score: inf
ROOT
ATOM      1  C   UNL A   1      32.256  28.214  26.527  1.00  0.00     0.002 C 
ENDROOT
BRANCH   1   2
ATOM      2  C   UNL A   1      31.392  26.960  26.651  1.00  0.00     0.021 C 
BRANCH   2   3
ATOM      3  C   UNL A   1      32.150  25.659  26.810  1.00  0.00     0.116 C 
BRANCH   3   4
ATOM      4  N   UNL A   1      31.614  24.401  26.396  1.00  0.00    -0.356 N 
ATOM      5  C   UNL A   1      32.255  23.495  25.595  1.00  0.00     0.228 C 
ATOM      6  O   UNL A   1      31.738  22.371  25.512  1.00  0.00    -0.274 OA
ATOM      7  H   UNL A   1      30.712  24.167  26.713  1.00  0.00     0.163 HD
BRANCH   5   8
ATOM      8  C   UNL A   1      33.546  23.804  24.732  1.00  0.00     0.070 C 
ATOM      9  N   UNL A   1      34.356  21.460  24.420  1.00  0.00    -0.342 N 
ATOM     10  C   UNL A   1      35.687  21.686  24.966  1.00  0.00     0.119 C 
ATOM     11  C   UNL A   1      33.717  22.606  23.760  1.00  0.00     0.136 C 
ATOM     12  C   UNL A   1      35.776  22.893  25.870  1.00  0.00     0.023 C 
ATOM     13  C   UNL A   1      34.911  24.052  25.384  1.00  0.00     0.021 C 
BRANCH   9  14
ATOM     14  C   UNL A   1      33.833  20.186  24.548  1.00  0.00     0.222 C 
ATOM     15  O   UNL A   1      34.518  19.265  25.008  1.00  0.00    -0.275 OA
BRANCH  14  16
ATOM     16  C   UNL A   1      32.545  19.835  23.817  1.00  0.00     0.097 C 
ATOM     17  C   UNL A   1      32.429  18.536  23.055  1.00  0.00     0.014 C 
ENDBRANCH  14  16
ENDBRANCH   9  14
BRANCH   8  18
ATOM     18  C   UNL A   1      33.114  25.114  23.933  1.00  0.00     0.067 C 
BRANCH  18  19
ATOM     19  C   UNL A   1      31.885  25.192  22.989  1.00  0.00     0.211 C 
ATOM     20  C   UNL A   1      30.650  25.912  23.504  1.00  0.00     0.108 C 
ATOM     21  O   UNL A   1      32.184  25.761  21.707  1.00  0.00    -0.392 OA
ATOM     22  C   UNL A   1      30.606  27.040  22.535  1.00  0.00     0.091 C 
ATOM     23  N   UNL A   1      31.386  26.919  21.508  1.00  0.00    -0.090 NA
BRANCH  22  24
ATOM     24  C   UNL A   1      29.790  28.243  22.785  1.00  0.00    -0.001 A 
ATOM     25  C   UNL A   1      28.395  28.153  22.739  1.00  0.00     0.010 A 
ATOM     26  C   UNL A   1      30.393  29.437  23.171  1.00  0.00     0.010 A 
ATOM     27  C   UNL A   1      27.600  29.233  23.110  1.00  0.00     0.004 A 
ATOM     28  C   UNL A   1      29.593  30.539  23.495  1.00  0.00     0.004 A 
ATOM     29  C   UNL A   1      28.193  30.439  23.490  1.00  0.00    -0.051 A 
ATOM     30  C   UNL A   1      27.334  31.617  23.840  1.00  0.00     0.044 C 
ENDBRANCH  22  24
ENDBRANCH  18  19
ENDBRANCH   8  18
ENDBRANCH   5   8
ENDBRANCH   3   4
ENDBRANCH   2   3
ENDBRANCH   1   2
BRANCH   1  31
ATOM     31  C   UNL A   1      31.775  29.526  27.176  1.00  0.00     0.002 C 
BRANCH  31  32
ATOM     32  C   UNL A   1      32.622  30.780  26.997  1.00  0.00     0.021 C 
BRANCH  32  33
ATOM     33  C   UNL A   1      34.112  30.652  27.292  1.00  0.00     0.116 C 
BRANCH  33  34
ATOM     34  N   UNL A   1      34.672  31.519  28.331  1.00  0.00    -0.352 N 
ATOM     35  C   UNL A   1      35.619  31.210  29.314  1.00  0.00     0.251 C 
ATOM     36  H   UNL A   1      34.338  32.444  28.337  1.00  0.00     0.163 HD
ATOM     37  O   UNL A   1      36.006  32.028  30.125  1.00  0.00    -0.269 OA
BRANCH  35  38
ATOM     38  C   UNL A   1      36.287  29.877  29.261  1.00  0.00     0.039 A 
ATOM     39  C   UNL A   1      36.964  29.478  30.420  1.00  0.00     0.014 A 
ATOM     40  C   UNL A   1      36.619  29.329  28.033  1.00  0.00     0.014 A 
ATOM     41  C   UNL A   1      38.209  28.877  30.288  1.00  0.00     0.010 A 
ATOM     42  C   UNL A   1      37.907  28.873  27.882  1.00  0.00     0.010 A 
ATOM     43  C   UNL A   1      38.727  28.741  29.003  1.00  0.00    -0.014 A 
BRANCH  43  44
ATOM     44  C   UNL A   1      40.123  28.456  28.732  1.00  0.00     0.031 A 
ATOM     45  C   UNL A   1      40.447  27.057  28.393  1.00  0.00     0.074 A 
ATOM     46  C   UNL A   1      41.054  29.439  28.761  1.00  0.00     0.049 A 
ATOM     47  N   UNL A   1      41.512  26.441  28.761  1.00  0.00    -0.248 NA
ATOM     48  C   UNL A   1      39.517  26.203  27.652  1.00  0.00     0.031 C 
ATOM     49  C   UNL A   1      42.463  29.323  28.383  1.00  0.00     0.029 A 
ATOM     50  N   UNL A   1      40.978  30.742  29.262  1.00  0.00    -0.354 N 
ATOM     51  C   UNL A   1      41.555  25.250  28.064  1.00  0.00     0.074 A 
ATOM     52  C   UNL A   1      40.243  25.094  27.493  1.00  0.00     0.031 C 
ATOM     53  C   UNL A   1      43.147  30.339  28.943  1.00  0.00     0.029 A 
ATOM     54  C   UNL A   1      42.228  31.039  29.827  1.00  0.00     0.049 A 
ATOM     55  H   UNL A   1      40.196  31.338  29.226  1.00  0.00     0.167 HD
ATOM     56  C   UNL A   1      42.755  24.627  27.894  1.00  0.00     0.034 A 
ATOM     57  C   UNL A   1      42.442  31.235  31.166  1.00  0.00     0.034 A 
ATOM     58  C   UNL A   1      43.816  25.398  28.539  1.00  0.00     0.049 A 
ATOM     59  C   UNL A   1      43.356  30.168  31.765  1.00  0.00     0.074 A 
ATOM     60  C   UNL A   1      44.694  26.346  28.037  1.00  0.00     0.029 A 
ATOM     61  N   UNL A   1      43.830  25.538  29.920  1.00  0.00    -0.354 N 
ATOM     62  N   UNL A   1      43.633  29.030  31.186  1.00  0.00    -0.248 NA
ATOM     63  C   UNL A   1      43.988  30.292  33.075  1.00  0.00     0.031 C 
ATOM     64  C   UNL A   1      45.167  27.118  29.129  1.00  0.00     0.029 A 
ATOM     65  C   UNL A   1      44.618  26.612  30.295  1.00  0.00     0.049 A 
ATOM     66  H   UNL A   1      43.345  24.955  30.548  1.00  0.00     0.167 HD
ATOM     67  C   UNL A   1      44.410  28.262  32.016  1.00  0.00     0.074 A 
ATOM     68  C   UNL A   1      44.644  29.122  33.165  1.00  0.00     0.031 C 
ATOM     69  C   UNL A   1      44.770  26.977  31.699  1.00  0.00     0.034 A 
BRANCH  56  70
ATOM     70  C   UNL A   1      43.022  23.561  26.854  1.00  0.00     0.023 A 
ATOM     71  C   UNL A   1      42.411  22.300  27.019  1.00  0.00     0.031 A 
ATOM     72  C   UNL A   1      43.869  23.676  25.735  1.00  0.00     0.131 A 
ATOM     73  C   UNL A   1      42.720  21.213  26.184  1.00  0.00     0.055 A 
ATOM     74  C   UNL A   1      44.212  22.582  24.924  1.00  0.00     0.041 A 
ATOM     75  F   UNL A   1      44.368  24.856  25.344  1.00  0.00    -0.206 F 
ATOM     76  C   UNL A   1      43.645  21.337  25.153  1.00  0.00     0.022 A 
BRANCH  73  77
ATOM     77  S   UNL A   1      41.891  19.630  26.482  1.00  0.00     0.124 S 
ATOM     78  O   UNL A   1      40.485  19.987  26.324  1.00  0.00    -0.237 OA
ATOM     79  O   UNL A   1      42.463  18.781  25.444  1.00  0.00    -0.237 OA
ATOM     80  O   UNL A   1      42.292  19.291  27.847  1.00  0.00    -0.744 OA
ENDBRANCH  73  77
ENDBRANCH  56  70
BRANCH  57  81
ATOM     81  C   UNL A   1      41.265  31.800  31.890  1.00  0.00     0.023 A 
ATOM     82  C   UNL A   1      40.461  30.944  32.670  1.00  0.00     0.031 A 
ATOM     83  C   UNL A   1      41.231  33.174  32.163  1.00  0.00     0.131 A 
ATOM     84  C   UNL A   1      39.818  31.449  33.811  1.00  0.00     0.055 A 
ATOM     85  C   UNL A   1      40.612  33.659  33.316  1.00  0.00     0.041 A 
ATOM     86  F   UNL A   1      41.922  34.042  31.412  1.00  0.00    -0.206 F 
ATOM     87  C   UNL A   1      39.971  32.785  34.185  1.00  0.00     0.022 A 
BRANCH  84  88
ATOM     88  S   UNL A   1      38.885  30.358  34.920  1.00  0.00     0.124 S 
ATOM     89  O   UNL A   1      39.930  29.854  35.802  1.00  0.00    -0.237 OA
ATOM     90  O   UNL A   1      37.921  31.259  35.543  1.00  0.00    -0.237 OA
ATOM     91  O   UNL A   1      38.321  29.379  33.992  1.00  0.00    -0.744 OA
ENDBRANCH  84  88
ENDBRANCH  57  81
BRANCH  69  92
ATOM     92  C   UNL A   1      45.403  25.985  32.657  1.00  0.00     0.023 A 
ATOM     93  C   UNL A   1      44.664  24.997  33.316  1.00  0.00     0.031 A 
ATOM     94  C   UNL A   1      46.794  25.975  32.927  1.00  0.00     0.131 A 
ATOM     95  C   UNL A   1      45.242  24.188  34.306  1.00  0.00     0.055 A 
ATOM     96  C   UNL A   1      47.393  25.082  33.822  1.00  0.00     0.041 A 
ATOM     97  F   UNL A   1      47.641  26.830  32.337  1.00  0.00    -0.206 F 
ATOM     98  C   UNL A   1      46.609  24.204  34.551  1.00  0.00     0.022 A 
BRANCH  95  99
ATOM     99  S   UNL A   1      44.125  23.233  35.363  1.00  0.00     0.124 S 
ATOM    100  O   UNL A   1      44.403  23.808  36.679  1.00  0.00    -0.237 OA
ATOM    101  O   UNL A   1      42.814  23.556  34.802  1.00  0.00    -0.237 OA
ATOM    102  O   UNL A   1      44.563  21.858  35.178  1.00  0.00    -0.744 OA
ENDBRANCH  95  99
ENDBRANCH  69  92
ENDBRANCH  43  44
ENDBRANCH  35  38
ENDBRANCH  33  34
ENDBRANCH  32  33
ENDBRANCH  31  32
ENDBRANCH   1  31
TORSDOF 21
ENDMDL
