MODEL 1
REMARK VINA RESULT:      -9.4      0.000      0.000
REMARK SMILES N#C/C(=C\c1ccc(-c2ccc(C(=O)NCCCCCCNC(=O)c3ccc(-c4c5nc(c(-c6cc(S(=O)(=O)[O-])ccc6F)c6ccc([nH]6)c(-c6cc(S(=O)(=O)[O-])ccc6F)c6nc(c(-c7cc(S(=O)(=O)[O-])ccc7F)c7ccc4[nH]7)C=C6)C=C5)cc3)cc2)o1)[C@@H]1N=c2cc(Br)cnc2=N1
REMARK SMILES IDX 18 1 17 2 16 3 15 4 13 5 14 6 12 8 9 9 10 10 89 11 11 12
REMARK SMILES IDX 88 13 8 14 5 15 6 16 90 17 7 18 4 19 3 20 2 21 1 22 91 23
REMARK SMILES IDX 92 24 100 25 93 26 99 27 94 28 98 29 95 30 97 31 96 32 19 33
REMARK SMILES IDX 20 34 21 35 22 36 23 37 24 39 25 40 26 41 87 42 27 43 86 44
REMARK SMILES IDX 28 45 29 46 30 47 80 48 31 49 85 50 79 51 81 52 32 53 84 54
REMARK SMILES IDX 78 55 77 56 33 58 65 59 45 60 64 61 46 62 49 63 63 64 82 65
REMARK SMILES IDX 47 66 48 67 62 69 83 70 50 71 34 72 35 73 43 74 36 75 42 76
REMARK SMILES IDX 44 77 41 78 37 79 38 80 39 81 40 82 66 83 67 84 75 85 68 86
REMARK SMILES IDX 74 87 76 88 73 89 69 90 70 91 71 92 72 93 51 94 52 95 60 96
REMARK SMILES IDX 53 97 59 98 61 99 58 100 54 101 55 102 56 103 57 104
REMARK H PARENT 15 7 22 38 81 57 49 68
REMARK Flexibility Score: inf
ROOT
ATOM      1  C   UNL A   1      36.063  32.109  31.382  1.00  0.00     0.002 C 
ENDROOT
BRANCH   1   2
ATOM      2  C   UNL A   1      36.034  31.789  32.881  1.00  0.00     0.021 C 
BRANCH   2   3
ATOM      3  C   UNL A   1      37.411  31.873  33.542  1.00  0.00     0.116 C 
BRANCH   3   4
ATOM      4  N   UNL A   1      37.577  33.165  34.185  1.00  0.00    -0.352 N 
ATOM      5  C   UNL A   1      38.328  34.264  33.851  1.00  0.00     0.251 C 
ATOM      6  O   UNL A   1      38.271  35.253  34.581  1.00  0.00    -0.269 OA
ATOM      7  H   UNL A   1      37.054  33.273  35.011  1.00  0.00     0.163 HD
BRANCH   5   8
ATOM      8  C   UNL A   1      39.142  34.324  32.609  1.00  0.00     0.039 A 
ATOM      9  C   UNL A   1      40.806  34.634  30.374  1.00  0.00     0.017 A 
ATOM     10  C   UNL A   1      41.368  34.445  31.639  1.00  0.00     0.013 A 
ATOM     11  C   UNL A   1      39.418  34.592  30.221  1.00  0.00     0.013 A 
ATOM     12  C   UNL A   1      40.537  34.299  32.752  1.00  0.00     0.014 A 
ATOM     13  C   UNL A   1      38.594  34.399  31.327  1.00  0.00     0.014 A 
BRANCH   9  14
ATOM     14  C   UNL A   1      41.624  34.926  29.222  1.00  0.00     0.134 A 
ATOM     15  C   UNL A   1      43.135  34.390  27.701  1.00  0.00     0.128 A 
ATOM     16  C   UNL A   1      42.599  35.631  27.363  1.00  0.00     0.051 A 
ATOM     17  O   UNL A   1      42.503  33.963  28.845  1.00  0.00    -0.457 OA
ATOM     18  C   UNL A   1      41.656  35.983  28.348  1.00  0.00     0.051 A 
BRANCH  15  19
ATOM     19  C   UNL A   1      44.131  33.617  27.039  1.00  0.00     0.066 C 
ATOM     20  C   UNL A   1      45.444  33.698  27.352  1.00  0.00     0.080 C 
BRANCH  20  21
ATOM     21  C   UNL A   1      45.826  34.554  28.549  1.00  0.00     0.099 C 
ATOM     22  N   UNL A   1      46.142  35.263  29.543  1.00  0.00    -0.193 NA
ENDBRANCH  20  21
BRANCH  20  23
ATOM     23  C   UNL A   1      46.542  32.993  26.599  1.00  0.00     0.265 C 
ATOM     24  N   UNL A   1      45.946  31.834  25.871  1.00  0.00    -0.249 NA
ATOM     25  N   UNL A   1      47.609  32.515  27.525  1.00  0.00    -0.232 NA
ATOM     26  C   UNL A   1      46.541  30.828  26.406  1.00  0.00     0.106 A 
ATOM     27  C   UNL A   1      47.544  31.234  27.413  1.00  0.00     0.175 A 
ATOM     28  C   UNL A   1      46.371  29.397  26.162  1.00  0.00     0.049 A 
ATOM     29  N   UNL A   1      48.301  30.374  28.150  1.00  0.00    -0.234 NA
ATOM     30  C   UNL A   1      47.113  28.560  26.900  1.00  0.00     0.038 A 
ATOM     31  C   UNL A   1      48.073  29.121  27.907  1.00  0.00     0.129 A 
ATOM     32  Br  UNL A   1      47.024  26.711  26.730  1.00  0.00    -0.049 Br
ENDBRANCH  20  23
ENDBRANCH  15  19
ENDBRANCH   9  14
ENDBRANCH   5   8
ENDBRANCH   3   4
ENDBRANCH   2   3
ENDBRANCH   1   2
BRANCH   1  33
ATOM     33  C   UNL A   1      34.827  32.852  30.862  1.00  0.00     0.002 C 
BRANCH  33  34
ATOM     34  C   UNL A   1      35.102  33.851  29.736  1.00  0.00     0.021 C 
BRANCH  34  35
ATOM     35  C   UNL A   1      35.545  33.207  28.426  1.00  0.00     0.116 C 
BRANCH  35  36
ATOM     36  N   UNL A   1      34.563  32.248  27.943  1.00  0.00    -0.352 N 
ATOM     37  C   UNL A   1      34.741  30.916  27.651  1.00  0.00     0.251 C 
ATOM     38  H   UNL A   1      33.653  32.599  27.807  1.00  0.00     0.163 HD
ATOM     39  O   UNL A   1      33.885  30.296  27.039  1.00  0.00    -0.269 OA
BRANCH  37  40
ATOM     40  C   UNL A   1      35.994  30.256  28.077  1.00  0.00     0.039 A 
ATOM     41  C   UNL A   1      37.140  30.383  27.287  1.00  0.00     0.014 A 
ATOM     42  C   UNL A   1      36.032  29.534  29.272  1.00  0.00     0.014 A 
ATOM     43  C   UNL A   1      38.346  29.830  27.730  1.00  0.00     0.010 A 
ATOM     44  C   UNL A   1      37.244  29.040  29.739  1.00  0.00     0.010 A 
ATOM     45  C   UNL A   1      38.414  29.181  28.973  1.00  0.00    -0.014 A 
BRANCH  45  46
ATOM     46  C   UNL A   1      39.677  28.595  29.493  1.00  0.00     0.031 A 
ATOM     47  C   UNL A   1      40.413  29.310  30.594  1.00  0.00     0.074 A 
ATOM     48  C   UNL A   1      40.204  27.494  28.923  1.00  0.00     0.049 A 
ATOM     49  N   UNL A   1      41.622  29.114  31.046  1.00  0.00    -0.248 NA
ATOM     50  C   UNL A   1      39.697  30.419  31.245  1.00  0.00     0.031 C 
ATOM     51  C   UNL A   1      39.586  26.718  27.846  1.00  0.00     0.029 A 
ATOM     52  N   UNL A   1      41.396  26.851  29.152  1.00  0.00    -0.354 N 
ATOM     53  C   UNL A   1      41.822  30.085  32.022  1.00  0.00     0.074 A 
ATOM     54  C   UNL A   1      40.628  30.901  32.053  1.00  0.00     0.031 C 
ATOM     55  C   UNL A   1      40.404  25.707  27.508  1.00  0.00     0.029 A 
ATOM     56  C   UNL A   1      41.627  25.794  28.300  1.00  0.00     0.049 A 
ATOM     57  H   UNL A   1      42.026  27.121  29.859  1.00  0.00     0.167 HD
ATOM     58  C   UNL A   1      42.895  30.265  32.831  1.00  0.00     0.034 A 
ATOM     59  C   UNL A   1      42.714  25.008  28.154  1.00  0.00     0.034 A 
ATOM     60  C   UNL A   1      44.069  29.430  32.798  1.00  0.00     0.049 A 
ATOM     61  C   UNL A   1      43.912  25.250  29.044  1.00  0.00     0.074 A 
ATOM     62  C   UNL A   1      45.213  29.518  33.573  1.00  0.00     0.029 A 
ATOM     63  N   UNL A   1      44.247  28.346  31.950  1.00  0.00    -0.354 N 
ATOM     64  N   UNL A   1      44.087  26.176  29.958  1.00  0.00    -0.248 NA
ATOM     65  C   UNL A   1      45.054  24.337  28.890  1.00  0.00     0.031 C 
ATOM     66  C   UNL A   1      46.100  28.518  33.162  1.00  0.00     0.029 A 
ATOM     67  C   UNL A   1      45.482  27.763  32.179  1.00  0.00     0.049 A 
ATOM     68  H   UNL A   1      43.592  28.037  31.283  1.00  0.00     0.167 HD
ATOM     69  C   UNL A   1      45.336  25.922  30.520  1.00  0.00     0.074 A 
ATOM     70  C   UNL A   1      45.870  24.761  29.844  1.00  0.00     0.031 C 
ATOM     71  C   UNL A   1      45.981  26.585  31.512  1.00  0.00     0.034 A 
BRANCH  58  72
ATOM     72  C   UNL A   1      42.846  31.415  33.804  1.00  0.00     0.023 A 
ATOM     73  C   UNL A   1      41.963  31.414  34.897  1.00  0.00     0.031 A 
ATOM     74  C   UNL A   1      43.680  32.534  33.632  1.00  0.00     0.131 A 
ATOM     75  C   UNL A   1      41.885  32.534  35.736  1.00  0.00     0.055 A 
ATOM     76  C   UNL A   1      43.654  33.613  34.518  1.00  0.00     0.041 A 
ATOM     77  F   UNL A   1      44.528  32.602  32.594  1.00  0.00    -0.206 F 
ATOM     78  C   UNL A   1      42.744  33.623  35.570  1.00  0.00     0.022 A 
BRANCH  75  79
ATOM     79  S   UNL A   1      40.558  32.599  36.970  1.00  0.00     0.124 S 
ATOM     80  O   UNL A   1      39.560  31.716  36.373  1.00  0.00    -0.237 OA
ATOM     81  O   UNL A   1      41.218  32.099  38.170  1.00  0.00    -0.237 OA
ATOM     82  O   UNL A   1      40.191  34.013  37.003  1.00  0.00    -0.744 OA
ENDBRANCH  75  79
ENDBRANCH  58  72
BRANCH  59  83
ATOM     83  C   UNL A   1      42.750  23.939  27.114  1.00  0.00     0.023 A 
ATOM     84  C   UNL A   1      42.087  22.717  27.312  1.00  0.00     0.031 A 
ATOM     85  C   UNL A   1      43.510  24.089  25.940  1.00  0.00     0.131 A 
ATOM     86  C   UNL A   1      42.255  21.671  26.391  1.00  0.00     0.055 A 
ATOM     87  C   UNL A   1      43.620  23.068  24.994  1.00  0.00     0.041 A 
ATOM     88  F   UNL A   1      44.164  25.237  25.696  1.00  0.00    -0.206 F 
ATOM     89  C   UNL A   1      43.005  21.843  25.227  1.00  0.00     0.022 A 
BRANCH  86  90
ATOM     90  S   UNL A   1      41.583  20.037  26.807  1.00  0.00     0.124 S 
ATOM     91  O   UNL A   1      41.536  19.396  25.498  1.00  0.00    -0.237 OA
ATOM     92  O   UNL A   1      42.583  19.528  27.739  1.00  0.00    -0.237 OA
ATOM     93  O   UNL A   1      40.281  20.347  27.397  1.00  0.00    -0.744 OA
ENDBRANCH  86  90
ENDBRANCH  59  83
BRANCH  71  94
ATOM     94  C   UNL A   1      47.292  26.015  31.990  1.00  0.00     0.023 A 
ATOM     95  C   UNL A   1      48.510  26.305  31.352  1.00  0.00     0.031 A 
ATOM     96  C   UNL A   1      47.317  25.187  33.127  1.00  0.00     0.131 A 
ATOM     97  C   UNL A   1      49.700  25.741  31.838  1.00  0.00     0.055 A 
ATOM     98  C   UNL A   1      48.508  24.670  33.633  1.00  0.00     0.041 A 
ATOM     99  F   UNL A   1      46.179  24.883  33.772  1.00  0.00    -0.206 F 
ATOM    100  C   UNL A   1      49.708  24.940  32.983  1.00  0.00     0.022 A 
BRANCH  97 101
ATOM    101  S   UNL A   1      51.240  26.028  30.922  1.00  0.00     0.124 S 
ATOM    102  O   UNL A   1      52.233  25.411  31.794  1.00  0.00    -0.237 OA
ATOM    103  O   UNL A   1      50.986  25.340  29.660  1.00  0.00    -0.237 OA
ATOM    104  O   UNL A   1      51.315  27.485  30.826  1.00  0.00    -0.744 OA
ENDBRANCH  97 101
ENDBRANCH  71  94
ENDBRANCH  45  46
ENDBRANCH  37  40
ENDBRANCH  35  36
ENDBRANCH  34  35
ENDBRANCH  33  34
ENDBRANCH   1  33
TORSDOF 20
ENDMDL
MODEL 2
REMARK VINA RESULT:      -8.8      1.982      2.610
REMARK SMILES N#C/C(=C\c1ccc(-c2ccc(C(=O)NCCCCCCNC(=O)c3ccc(-c4c5nc(c(-c6cc(S(=O)(=O)[O-])ccc6F)c6ccc([nH]6)c(-c6cc(S(=O)(=O)[O-])ccc6F)c6nc(c(-c7cc(S(=O)(=O)[O-])ccc7F)c7ccc4[nH]7)C=C6)C=C5)cc3)cc2)o1)[C@@H]1N=c2cc(Br)cnc2=N1
REMARK SMILES IDX 18 1 17 2 16 3 15 4 13 5 14 6 12 8 9 9 10 10 89 11 11 12
REMARK SMILES IDX 88 13 8 14 5 15 6 16 90 17 7 18 4 19 3 20 2 21 1 22 91 23
REMARK SMILES IDX 92 24 100 25 93 26 99 27 94 28 98 29 95 30 97 31 96 32 19 33
REMARK SMILES IDX 20 34 21 35 22 36 23 37 24 39 25 40 26 41 87 42 27 43 86 44
REMARK SMILES IDX 28 45 29 46 30 47 80 48 31 49 85 50 79 51 81 52 32 53 84 54
REMARK SMILES IDX 78 55 77 56 33 58 65 59 45 60 64 61 46 62 49 63 63 64 82 65
REMARK SMILES IDX 47 66 48 67 62 69 83 70 50 71 34 72 35 73 43 74 36 75 42 76
REMARK SMILES IDX 44 77 41 78 37 79 38 80 39 81 40 82 66 83 67 84 75 85 68 86
REMARK SMILES IDX 74 87 76 88 73 89 69 90 70 91 71 92 72 93 51 94 52 95 60 96
REMARK SMILES IDX 53 97 59 98 61 99 58 100 54 101 55 102 56 103 57 104
REMARK H PARENT 15 7 22 38 81 57 49 68
REMARK Flexibility Score: inf
ROOT
ATOM      1  C   UNL A   1      36.306  32.254  31.326  1.00  0.00     0.002 C 
ENDROOT
BRANCH   1   2
ATOM      2  C   UNL A   1      36.210  31.731  32.765  1.00  0.00     0.021 C 
BRANCH   2   3
ATOM      3  C   UNL A   1      37.529  31.834  33.533  1.00  0.00     0.116 C 
BRANCH   3   4
ATOM      4  N   UNL A   1      37.642  33.142  34.154  1.00  0.00    -0.352 N 
ATOM      5  C   UNL A   1      38.384  34.250  33.828  1.00  0.00     0.251 C 
ATOM      6  O   UNL A   1      38.277  35.252  34.534  1.00  0.00    -0.269 OA
ATOM      7  H   UNL A   1      37.082  33.256  34.956  1.00  0.00     0.163 HD
BRANCH   5   8
ATOM      8  C   UNL A   1      39.248  34.301  32.620  1.00  0.00     0.039 A 
ATOM      9  C   UNL A   1      40.995  34.602  30.448  1.00  0.00     0.017 A 
ATOM     10  C   UNL A   1      41.509  34.469  31.740  1.00  0.00     0.013 A 
ATOM     11  C   UNL A   1      39.617  34.508  30.239  1.00  0.00     0.013 A 
ATOM     12  C   UNL A   1      40.636  34.327  32.822  1.00  0.00     0.014 A 
ATOM     13  C   UNL A   1      38.753  34.320  31.315  1.00  0.00     0.014 A 
BRANCH   9  14
ATOM     14  C   UNL A   1      41.852  34.887  29.324  1.00  0.00     0.134 A 
ATOM     15  C   UNL A   1      43.799  34.848  28.279  1.00  0.00     0.128 A 
ATOM     16  C   UNL A   1      42.836  35.315  27.386  1.00  0.00     0.051 A 
ATOM     17  O   UNL A   1      43.164  34.571  29.466  1.00  0.00    -0.457 OA
ATOM     18  C   UNL A   1      41.602  35.365  28.062  1.00  0.00     0.051 A 
BRANCH  15  19
ATOM     19  C   UNL A   1      45.194  34.637  28.085  1.00  0.00     0.066 C 
ATOM     20  C   UNL A   1      45.686  33.545  27.459  1.00  0.00     0.080 C 
BRANCH  20  21
ATOM     21  C   UNL A   1      44.685  32.588  26.832  1.00  0.00     0.099 C 
ATOM     22  N   UNL A   1      43.855  31.795  26.311  1.00  0.00    -0.193 NA
ENDBRANCH  20  21
BRANCH  20  23
ATOM     23  C   UNL A   1      47.154  33.223  27.340  1.00  0.00     0.265 C 
ATOM     24  N   UNL A   1      47.914  34.152  28.227  1.00  0.00    -0.249 NA
ATOM     25  N   UNL A   1      47.624  33.369  25.931  1.00  0.00    -0.232 NA
ATOM     26  C   UNL A   1      48.644  34.804  27.394  1.00  0.00     0.106 A 
ATOM     27  C   UNL A   1      48.467  34.339  26.002  1.00  0.00     0.175 A 
ATOM     28  C   UNL A   1      49.587  35.896  27.626  1.00  0.00     0.049 A 
ATOM     29  N   UNL A   1      49.097  34.871  24.917  1.00  0.00    -0.234 NA
ATOM     30  C   UNL A   1      50.193  36.417  26.551  1.00  0.00     0.038 A 
ATOM     31  C   UNL A   1      49.892  35.857  25.192  1.00  0.00     0.129 A 
ATOM     32  Br  UNL A   1      51.417  37.812  26.656  1.00  0.00    -0.049 Br
ENDBRANCH  20  23
ENDBRANCH  15  19
ENDBRANCH   9  14
ENDBRANCH   5   8
ENDBRANCH   3   4
ENDBRANCH   2   3
ENDBRANCH   1   2
BRANCH   1  33
ATOM     33  C   UNL A   1      35.071  33.022  30.840  1.00  0.00     0.002 C 
BRANCH  33  34
ATOM     34  C   UNL A   1      35.316  33.943  29.643  1.00  0.00     0.021 C 
BRANCH  34  35
ATOM     35  C   UNL A   1      35.688  33.210  28.359  1.00  0.00     0.116 C 
BRANCH  35  36
ATOM     36  N   UNL A   1      34.663  32.252  27.974  1.00  0.00    -0.352 N 
ATOM     37  C   UNL A   1      34.795  30.902  27.750  1.00  0.00     0.251 C 
ATOM     38  H   UNL A   1      33.757  32.620  27.857  1.00  0.00     0.163 HD
ATOM     39  O   UNL A   1      33.898  30.272  27.211  1.00  0.00    -0.269 OA
BRANCH  37  40
ATOM     40  C   UNL A   1      36.049  30.233  28.159  1.00  0.00     0.039 A 
ATOM     41  C   UNL A   1      37.173  30.317  27.334  1.00  0.00     0.014 A 
ATOM     42  C   UNL A   1      36.110  29.545  29.373  1.00  0.00     0.014 A 
ATOM     43  C   UNL A   1      38.382  29.756  27.757  1.00  0.00     0.010 A 
ATOM     44  C   UNL A   1      37.327  29.043  29.819  1.00  0.00     0.010 A 
ATOM     45  C   UNL A   1      38.476  29.142  29.016  1.00  0.00    -0.014 A 
BRANCH  45  46
ATOM     46  C   UNL A   1      39.744  28.550  29.516  1.00  0.00     0.031 A 
ATOM     47  C   UNL A   1      40.515  29.274  30.586  1.00  0.00     0.074 A 
ATOM     48  C   UNL A   1      40.244  27.432  28.954  1.00  0.00     0.049 A 
ATOM     49  N   UNL A   1      41.732  29.071  31.014  1.00  0.00    -0.248 NA
ATOM     50  C   UNL A   1      39.828  30.404  31.234  1.00  0.00     0.031 C 
ATOM     51  C   UNL A   1      39.591  26.645  27.906  1.00  0.00     0.029 A 
ATOM     52  N   UNL A   1      41.433  26.778  29.166  1.00  0.00    -0.354 N 
ATOM     53  C   UNL A   1      41.967  30.057  31.966  1.00  0.00     0.074 A 
ATOM     54  C   UNL A   1      40.784  30.888  32.011  1.00  0.00     0.031 C 
ATOM     55  C   UNL A   1      40.388  25.618  27.567  1.00  0.00     0.029 A 
ATOM     56  C   UNL A   1      41.630  25.704  28.328  1.00  0.00     0.049 A 
ATOM     57  H   UNL A   1      42.083  27.052  29.853  1.00  0.00     0.167 HD
ATOM     58  C   UNL A   1      43.061  30.237  32.747  1.00  0.00     0.034 A 
ATOM     59  C   UNL A   1      42.705  24.901  28.170  1.00  0.00     0.034 A 
ATOM     60  C   UNL A   1      44.224  29.388  32.701  1.00  0.00     0.049 A 
ATOM     61  C   UNL A   1      43.926  25.144  29.027  1.00  0.00     0.074 A 
ATOM     62  C   UNL A   1      45.387  29.475  33.447  1.00  0.00     0.029 A 
ATOM     63  N   UNL A   1      44.369  28.286  31.868  1.00  0.00    -0.354 N 
ATOM     64  N   UNL A   1      44.134  26.084  29.920  1.00  0.00    -0.248 NA
ATOM     65  C   UNL A   1      45.053  24.215  28.862  1.00  0.00     0.031 C 
ATOM     66  C   UNL A   1      46.251  28.456  33.033  1.00  0.00     0.029 A 
ATOM     67  C   UNL A   1      45.601  27.692  32.079  1.00  0.00     0.049 A 
ATOM     68  H   UNL A   1      43.694  27.974  31.223  1.00  0.00     0.167 HD
ATOM     69  C   UNL A   1      45.393  25.824  30.457  1.00  0.00     0.074 A 
ATOM     70  C   UNL A   1      45.897  24.644  29.789  1.00  0.00     0.031 C 
ATOM     71  C   UNL A   1      46.070  26.497  31.421  1.00  0.00     0.034 A 
BRANCH  58  72
ATOM     72  C   UNL A   1      43.050  31.405  33.699  1.00  0.00     0.023 A 
ATOM     73  C   UNL A   1      42.212  31.422  34.828  1.00  0.00     0.031 A 
ATOM     74  C   UNL A   1      43.872  32.523  33.473  1.00  0.00     0.131 A 
ATOM     75  C   UNL A   1      42.166  32.558  35.649  1.00  0.00     0.055 A 
ATOM     76  C   UNL A   1      43.881  33.618  34.339  1.00  0.00     0.041 A 
ATOM     77  F   UNL A   1      44.676  32.573  32.399  1.00  0.00    -0.206 F 
ATOM     78  C   UNL A   1      43.014  33.645  35.428  1.00  0.00     0.022 A 
BRANCH  75  79
ATOM     79  S   UNL A   1      40.892  32.643  36.936  1.00  0.00     0.124 S 
ATOM     80  O   UNL A   1      40.838  34.078  37.200  1.00  0.00    -0.237 OA
ATOM     81  O   UNL A   1      39.729  32.071  36.267  1.00  0.00    -0.237 OA
ATOM     82  O   UNL A   1      41.447  31.836  38.020  1.00  0.00    -0.744 OA
ENDBRANCH  75  79
ENDBRANCH  58  72
BRANCH  59  83
ATOM     83  C   UNL A   1      42.702  23.814  27.149  1.00  0.00     0.023 A 
ATOM     84  C   UNL A   1      42.059  22.591  27.398  1.00  0.00     0.031 A 
ATOM     85  C   UNL A   1      43.408  23.948  25.940  1.00  0.00     0.131 A 
ATOM     86  C   UNL A   1      42.193  21.529  26.490  1.00  0.00     0.055 A 
ATOM     87  C   UNL A   1      43.485  22.911  25.008  1.00  0.00     0.041 A 
ATOM     88  F   UNL A   1      44.041  25.096  25.646  1.00  0.00    -0.206 F 
ATOM     89  C   UNL A   1      42.890  21.685  25.291  1.00  0.00     0.022 A 
BRANCH  86  90
ATOM     90  S   UNL A   1      41.553  19.899  26.965  1.00  0.00     0.124 S 
ATOM     91  O   UNL A   1      40.670  20.242  28.074  1.00  0.00    -0.237 OA
ATOM     92  O   UNL A   1      40.903  19.461  25.735  1.00  0.00    -0.237 OA
ATOM     93  O   UNL A   1      42.758  19.156  27.333  1.00  0.00    -0.744 OA
ENDBRANCH  86  90
ENDBRANCH  59  83
BRANCH  71  94
ATOM     94  C   UNL A   1      47.385  25.918  31.878  1.00  0.00     0.023 A 
ATOM     95  C   UNL A   1      47.500  25.164  33.058  1.00  0.00     0.031 A 
ATOM     96  C   UNL A   1      48.537  26.107  31.093  1.00  0.00     0.131 A 
ATOM     97  C   UNL A   1      48.752  24.655  33.436  1.00  0.00     0.055 A 
ATOM     98  C   UNL A   1      49.767  25.556  31.450  1.00  0.00     0.041 A 
ATOM     99  F   UNL A   1      48.477  26.818  29.955  1.00  0.00    -0.206 F 
ATOM    100  C   UNL A   1      49.881  24.832  32.632  1.00  0.00     0.022 A 
BRANCH  97 101
ATOM    101  S   UNL A   1      48.898  23.793  35.027  1.00  0.00     0.124 S 
ATOM    102  O   UNL A   1      48.212  24.708  35.933  1.00  0.00    -0.237 OA
ATOM    103  O   UNL A   1      48.216  22.530  34.762  1.00  0.00    -0.237 OA
ATOM    104  O   UNL A   1      50.342  23.686  35.227  1.00  0.00    -0.744 OA
ENDBRANCH  97 101
ENDBRANCH  71  94
ENDBRANCH  45  46
ENDBRANCH  37  40
ENDBRANCH  35  36
ENDBRANCH  34  35
ENDBRANCH  33  34
ENDBRANCH   1  33
TORSDOF 20
ENDMDL
MODEL 3
REMARK VINA RESULT:      -8.7      3.505      8.565
REMARK SMILES N#C/C(=C\c1ccc(-c2ccc(C(=O)NCCCCCCNC(=O)c3ccc(-c4c5nc(c(-c6cc(S(=O)(=O)[O-])ccc6F)c6ccc([nH]6)c(-c6cc(S(=O)(=O)[O-])ccc6F)c6nc(c(-c7cc(S(=O)(=O)[O-])ccc7F)c7ccc4[nH]7)C=C6)C=C5)cc3)cc2)o1)[C@@H]1N=c2cc(Br)cnc2=N1
REMARK SMILES IDX 18 1 17 2 16 3 15 4 13 5 14 6 12 8 9 9 10 10 89 11 11 12
REMARK SMILES IDX 88 13 8 14 5 15 6 16 90 17 7 18 4 19 3 20 2 21 1 22 91 23
REMARK SMILES IDX 92 24 100 25 93 26 99 27 94 28 98 29 95 30 97 31 96 32 19 33
REMARK SMILES IDX 20 34 21 35 22 36 23 37 24 39 25 40 26 41 87 42 27 43 86 44
REMARK SMILES IDX 28 45 29 46 30 47 80 48 31 49 85 50 79 51 81 52 32 53 84 54
REMARK SMILES IDX 78 55 77 56 33 58 65 59 45 60 64 61 46 62 49 63 63 64 82 65
REMARK SMILES IDX 47 66 48 67 62 69 83 70 50 71 34 72 35 73 43 74 36 75 42 76
REMARK SMILES IDX 44 77 41 78 37 79 38 80 39 81 40 82 66 83 67 84 75 85 68 86
REMARK SMILES IDX 74 87 76 88 73 89 69 90 70 91 71 92 72 93 51 94 52 95 60 96
REMARK SMILES IDX 53 97 59 98 61 99 58 100 54 101 55 102 56 103 57 104
REMARK H PARENT 15 7 22 38 81 57 49 68
REMARK Flexibility Score: inf
ROOT
ATOM      1  C   UNL A   1      36.281  33.900  32.129  1.00  0.00     0.002 C 
ENDROOT
BRANCH   1   2
ATOM      2  C   UNL A   1      36.568  32.396  32.029  1.00  0.00     0.021 C 
BRANCH   2   3
ATOM      3  C   UNL A   1      35.476  31.622  31.287  1.00  0.00     0.116 C 
BRANCH   3   4
ATOM      4  N   UNL A   1      35.435  32.031  29.894  1.00  0.00    -0.352 N 
ATOM      5  C   UNL A   1      36.199  31.676  28.812  1.00  0.00     0.251 C 
ATOM      6  O   UNL A   1      35.932  32.175  27.720  1.00  0.00    -0.269 OA
ATOM      7  H   UNL A   1      34.727  32.684  29.688  1.00  0.00     0.163 HD
BRANCH   5   8
ATOM      8  C   UNL A   1      37.281  30.661  28.902  1.00  0.00     0.039 A 
ATOM      9  C   UNL A   1      39.457  28.892  28.905  1.00  0.00     0.017 A 
ATOM     10  C   UNL A   1      39.654  30.238  29.222  1.00  0.00     0.013 A 
ATOM     11  C   UNL A   1      38.164  28.421  28.662  1.00  0.00     0.013 A 
ATOM     12  C   UNL A   1      38.570  31.119  29.212  1.00  0.00     0.014 A 
ATOM     13  C   UNL A   1      37.079  29.294  28.699  1.00  0.00     0.014 A 
BRANCH   9  14
ATOM     14  C   UNL A   1      40.566  27.980  28.770  1.00  0.00     0.134 A 
ATOM     15  C   UNL A   1      42.042  26.846  27.579  1.00  0.00     0.128 A 
ATOM     16  C   UNL A   1      42.363  26.695  28.926  1.00  0.00     0.051 A 
ATOM     17  O   UNL A   1      40.938  27.661  27.504  1.00  0.00    -0.457 OA
ATOM     18  C   UNL A   1      41.405  27.395  29.685  1.00  0.00     0.051 A 
BRANCH  15  19
ATOM     19  C   UNL A   1      42.688  26.319  26.424  1.00  0.00     0.066 C 
ATOM     20  C   UNL A   1      42.427  25.082  25.944  1.00  0.00     0.080 C 
BRANCH  20  21
ATOM     21  C   UNL A   1      41.302  24.299  26.602  1.00  0.00     0.099 C 
ATOM     22  N   UNL A   1      40.369  23.651  27.148  1.00  0.00    -0.193 NA
ENDBRANCH  20  21
BRANCH  20  23
ATOM     23  C   UNL A   1      43.172  24.439  24.802  1.00  0.00     0.265 C 
ATOM     24  N   UNL A   1      42.741  23.014  24.701  1.00  0.00    -0.249 NA
ATOM     25  N   UNL A   1      44.647  24.509  25.014  1.00  0.00    -0.232 NA
ATOM     26  C   UNL A   1      43.830  22.372  24.931  1.00  0.00     0.106 A 
ATOM     27  C   UNL A   1      44.986  23.272  25.129  1.00  0.00     0.175 A 
ATOM     28  C   UNL A   1      44.073  20.933  25.019  1.00  0.00     0.049 A 
ATOM     29  N   UNL A   1      46.253  22.862  25.413  1.00  0.00    -0.234 NA
ATOM     30  C   UNL A   1      45.321  20.542  25.309  1.00  0.00     0.038 A 
ATOM     31  C   UNL A   1      46.389  21.576  25.510  1.00  0.00     0.129 A 
ATOM     32  Br  UNL A   1      45.810  18.756  25.465  1.00  0.00    -0.049 Br
ENDBRANCH  20  23
ENDBRANCH  15  19
ENDBRANCH   9  14
ENDBRANCH   5   8
ENDBRANCH   3   4
ENDBRANCH   2   3
ENDBRANCH   1   2
BRANCH   1  33
ATOM     33  C   UNL A   1      36.951  34.602  33.316  1.00  0.00     0.002 C 
BRANCH  33  34
ATOM     34  C   UNL A   1      36.573  34.044  34.690  1.00  0.00     0.021 C 
BRANCH  34  35
ATOM     35  C   UNL A   1      37.745  33.930  35.660  1.00  0.00     0.116 C 
BRANCH  35  36
ATOM     36  N   UNL A   1      37.594  32.790  36.550  1.00  0.00    -0.352 N 
ATOM     37  C   UNL A   1      38.087  31.515  36.398  1.00  0.00     0.251 C 
ATOM     38  H   UNL A   1      37.069  32.952  37.367  1.00  0.00     0.163 HD
ATOM     39  O   UNL A   1      37.688  30.606  37.111  1.00  0.00    -0.269 OA
BRANCH  37  40
ATOM     40  C   UNL A   1      39.096  31.264  35.346  1.00  0.00     0.039 A 
ATOM     41  C   UNL A   1      40.432  31.597  35.582  1.00  0.00     0.014 A 
ATOM     42  C   UNL A   1      38.714  30.677  34.137  1.00  0.00     0.014 A 
ATOM     43  C   UNL A   1      41.400  31.285  34.622  1.00  0.00     0.010 A 
ATOM     44  C   UNL A   1      39.685  30.312  33.213  1.00  0.00     0.010 A 
ATOM     45  C   UNL A   1      41.038  30.613  33.445  1.00  0.00    -0.014 A 
BRANCH  45  46
ATOM     46  C   UNL A   1      42.034  30.243  32.405  1.00  0.00     0.031 A 
ATOM     47  C   UNL A   1      42.761  28.931  32.525  1.00  0.00     0.074 A 
ATOM     48  C   UNL A   1      42.351  31.110  31.424  1.00  0.00     0.049 A 
ATOM     49  N   UNL A   1      43.810  28.501  31.877  1.00  0.00    -0.248 NA
ATOM     50  C   UNL A   1      42.253  27.995  33.542  1.00  0.00     0.031 C 
ATOM     51  C   UNL A   1      41.719  32.413  31.208  1.00  0.00     0.029 A 
ATOM     52  N   UNL A   1      43.306  31.039  30.439  1.00  0.00    -0.354 N 
ATOM     53  C   UNL A   1      44.102  27.253  32.417  1.00  0.00     0.074 A 
ATOM     54  C   UNL A   1      43.151  27.024  33.483  1.00  0.00     0.031 C 
ATOM     55  C   UNL A   1      42.305  33.017  30.160  1.00  0.00     0.029 A 
ATOM     56  C   UNL A   1      43.389  32.174  29.665  1.00  0.00     0.049 A 
ATOM     57  H   UNL A   1      43.877  30.249  30.300  1.00  0.00     0.167 HD
ATOM     58  C   UNL A   1      45.062  26.371  32.043  1.00  0.00     0.034 A 
ATOM     59  C   UNL A   1      44.261  32.508  28.690  1.00  0.00     0.034 A 
ATOM     60  C   UNL A   1      45.990  26.610  30.967  1.00  0.00     0.049 A 
ATOM     61  C   UNL A   1      45.344  31.523  28.315  1.00  0.00     0.074 A 
ATOM     62  C   UNL A   1      47.000  25.787  30.499  1.00  0.00     0.029 A 
ATOM     63  N   UNL A   1      46.015  27.754  30.180  1.00  0.00    -0.354 N 
ATOM     64  N   UNL A   1      45.610  30.349  28.839  1.00  0.00    -0.248 NA
ATOM     65  C   UNL A   1      46.239  31.903  27.212  1.00  0.00     0.031 C 
ATOM     66  C   UNL A   1      47.665  26.452  29.464  1.00  0.00     0.029 A 
ATOM     67  C   UNL A   1      47.025  27.659  29.238  1.00  0.00     0.049 A 
ATOM     68  H   UNL A   1      45.404  28.520  30.279  1.00  0.00     0.167 HD
ATOM     69  C   UNL A   1      46.668  29.832  28.094  1.00  0.00     0.074 A 
ATOM     70  C   UNL A   1      46.992  30.820  27.088  1.00  0.00     0.031 C 
ATOM     71  C   UNL A   1      47.310  28.645  28.225  1.00  0.00     0.034 A 
BRANCH  58  72
ATOM     72  C   UNL A   1      45.160  25.082  32.817  1.00  0.00     0.023 A 
ATOM     73  C   UNL A   1      45.939  24.984  33.983  1.00  0.00     0.031 A 
ATOM     74  C   UNL A   1      44.482  23.931  32.380  1.00  0.00     0.131 A 
ATOM     75  C   UNL A   1      46.074  23.750  34.634  1.00  0.00     0.055 A 
ATOM     76  C   UNL A   1      44.556  22.723  33.078  1.00  0.00     0.041 A 
ATOM     77  F   UNL A   1      43.741  23.957  31.261  1.00  0.00    -0.206 F 
ATOM     78  C   UNL A   1      45.367  22.624  34.205  1.00  0.00     0.022 A 
BRANCH  75  79
ATOM     79  S   UNL A   1      47.287  23.608  35.974  1.00  0.00     0.124 S 
ATOM     80  O   UNL A   1      46.779  22.451  36.707  1.00  0.00    -0.237 OA
ATOM     81  O   UNL A   1      48.537  23.408  35.250  1.00  0.00    -0.237 OA
ATOM     82  O   UNL A   1      47.170  24.884  36.677  1.00  0.00    -0.744 OA
ENDBRANCH  75  79
ENDBRANCH  58  72
BRANCH  59  83
ATOM     83  C   UNL A   1      44.180  33.836  28.015  1.00  0.00     0.023 A 
ATOM     84  C   UNL A   1      44.476  35.019  28.711  1.00  0.00     0.031 A 
ATOM     85  C   UNL A   1      43.730  33.953  26.688  1.00  0.00     0.131 A 
ATOM     86  C   UNL A   1      44.251  36.265  28.106  1.00  0.00     0.055 A 
ATOM     87  C   UNL A   1      43.570  35.193  26.066  1.00  0.00     0.041 A 
ATOM     88  F   UNL A   1      43.433  32.856  25.972  1.00  0.00    -0.206 F 
ATOM     89  C   UNL A   1      43.813  36.360  26.784  1.00  0.00     0.022 A 
BRANCH  86  90
ATOM     90  S   UNL A   1      44.413  37.761  29.120  1.00  0.00     0.124 S 
ATOM     91  O   UNL A   1      45.738  38.234  28.735  1.00  0.00    -0.237 OA
ATOM     92  O   UNL A   1      43.284  38.561  28.659  1.00  0.00    -0.237 OA
ATOM     93  O   UNL A   1      44.303  37.256  30.488  1.00  0.00    -0.744 OA
ENDBRANCH  86  90
ENDBRANCH  59  83
BRANCH  71  94
ATOM     94  C   UNL A   1      48.362  28.308  27.199  1.00  0.00     0.023 A 
ATOM     95  C   UNL A   1      48.031  27.897  25.897  1.00  0.00     0.031 A 
ATOM     96  C   UNL A   1      49.723  28.432  27.533  1.00  0.00     0.131 A 
ATOM     97  C   UNL A   1      49.053  27.591  24.985  1.00  0.00     0.055 A 
ATOM     98  C   UNL A   1      50.732  28.173  26.607  1.00  0.00     0.041 A 
ATOM     99  F   UNL A   1      50.089  28.823  28.764  1.00  0.00    -0.206 F 
ATOM    100  C   UNL A   1      50.400  27.742  25.326  1.00  0.00     0.022 A 
BRANCH  97 101
ATOM    101  S   UNL A   1      48.600  26.942  23.352  1.00  0.00     0.124 S 
ATOM    102  O   UNL A   1      48.056  25.629  23.686  1.00  0.00    -0.237 OA
ATOM    103  O   UNL A   1      47.633  27.929  22.880  1.00  0.00    -0.237 OA
ATOM    104  O   UNL A   1      49.868  26.923  22.626  1.00  0.00    -0.744 OA
ENDBRANCH  97 101
ENDBRANCH  71  94
ENDBRANCH  45  46
ENDBRANCH  37  40
ENDBRANCH  35  36
ENDBRANCH  34  35
ENDBRANCH  33  34
ENDBRANCH   1  33
TORSDOF 20
ENDMDL
