MODEL 1
REMARK VINA RESULT:     -11.3      0.000      0.000
REMARK SMILES N#Cc1ccccc1S(=O)(=O)N1CCC(C(=O)NCCCCCCNC(=O)c2ccc(-c3c4nc(c(-c5cc(S(=O)(=O)[O-])ccc5F)c5ccc([nH]5)c(-c5cc(S(=O)(=O)[O-])ccc5F)c5nc(c(-c6cc(S(=O)(=O)[O-])ccc6F)c6ccc3[nH]6)C=C5)C=C4)cc2)CC1
REMARK SMILES IDX 21 1 20 2 19 3 18 4 16 5 17 6 15 8 12 9 13 10 92 11 14 12
REMARK SMILES IDX 91 13 9 14 10 15 11 16 8 17 3 18 4 19 5 20 7 21 6 22 2 23
REMARK SMILES IDX 1 24 22 25 23 26 24 27 25 28 26 29 27 31 28 32 29 33 90 34
REMARK SMILES IDX 30 35 89 36 31 37 32 38 33 39 83 40 34 41 88 42 82 43 84 44
REMARK SMILES IDX 35 45 87 46 81 47 80 48 36 50 68 51 48 52 67 53 49 54 52 55
REMARK SMILES IDX 66 56 85 57 50 58 51 59 65 61 86 62 53 63 37 64 38 65 46 66
REMARK SMILES IDX 39 67 45 68 47 69 44 70 40 71 41 72 42 73 43 74 69 75 70 76
REMARK SMILES IDX 78 77 71 78 77 79 79 80 76 81 72 82 73 83 74 84 75 85 54 86
REMARK SMILES IDX 55 87 63 88 56 89 62 90 64 91 61 92 57 93 58 94 59 95 60 96
REMARK H PARENT 18 7 25 30 84 49 52 60
REMARK Flexibility Score: inf
ROOT
ATOM      1  C   UNL A   1      32.773  29.381  25.556  1.00  0.00     0.002 C 
ENDROOT
BRANCH   1   2
ATOM      2  C   UNL A   1      33.348  29.075  24.172  1.00  0.00     0.021 C 
BRANCH   2   3
ATOM      3  C   UNL A   1      32.276  28.887  23.104  1.00  0.00     0.116 C 
BRANCH   3   4
ATOM      4  N   UNL A   1      32.751  28.011  22.047  1.00  0.00    -0.356 N 
ATOM      5  C   UNL A   1      32.971  26.670  22.042  1.00  0.00     0.223 C 
ATOM      6  O   UNL A   1      33.465  26.164  21.034  1.00  0.00    -0.275 OA
ATOM      7  H   UNL A   1      32.944  28.463  21.194  1.00  0.00     0.163 HD
BRANCH   5   8
ATOM      8  C   UNL A   1      32.588  25.816  23.239  1.00  0.00     0.081 C 
ATOM      9  N   UNL A   1      32.564  23.304  24.710  1.00  0.00    -0.198 NA
ATOM     10  C   UNL A   1      31.427  23.576  23.816  1.00  0.00     0.103 C 
ATOM     11  C   UNL A   1      33.582  24.312  25.037  1.00  0.00     0.103 C 
ATOM     12  C   UNL A   1      31.577  24.742  22.860  1.00  0.00     0.030 C 
ATOM     13  C   UNL A   1      33.843  25.314  23.940  1.00  0.00     0.030 C 
BRANCH   9  14
ATOM     14  S   UNL A   1      32.358  22.041  25.817  1.00  0.00     0.244 S 
ATOM     15  O   UNL A   1      30.957  21.670  25.777  1.00  0.00    -0.207 OA
ATOM     16  O   UNL A   1      32.994  22.434  27.057  1.00  0.00    -0.207 OA
BRANCH  14  17
ATOM     17  C   UNL A   1      33.235  20.580  25.283  1.00  0.00     0.100 A 
ATOM     18  C   UNL A   1      34.613  20.397  25.153  1.00  0.00     0.072 A 
ATOM     19  C   UNL A   1      35.100  19.165  24.668  1.00  0.00     0.021 A 
ATOM     20  C   UNL A   1      34.240  18.122  24.340  1.00  0.00     0.001 A 
ATOM     21  C   UNL A   1      32.375  19.509  24.954  1.00  0.00     0.023 A 
ATOM     22  C   UNL A   1      32.873  18.291  24.492  1.00  0.00     0.001 A 
BRANCH  18  23
ATOM     23  C   UNL A   1      35.643  21.328  25.486  1.00  0.00     0.101 C 
ATOM     24  N   UNL A   1      36.553  21.985  25.759  1.00  0.00    -0.192 NA
ENDBRANCH  18  23
ENDBRANCH  14  17
ENDBRANCH   9  14
ENDBRANCH   5   8
ENDBRANCH   3   4
ENDBRANCH   2   3
ENDBRANCH   1   2
BRANCH   1  25
ATOM     25  C   UNL A   1      31.582  30.342  25.546  1.00  0.00     0.002 C 
BRANCH  25  26
ATOM     26  C   UNL A   1      31.509  31.276  26.757  1.00  0.00     0.021 C 
BRANCH  26  27
ATOM     27  C   UNL A   1      32.835  31.934  27.113  1.00  0.00     0.116 C 
BRANCH  27  28
ATOM     28  N   UNL A   1      32.676  33.359  27.345  1.00  0.00    -0.352 N 
ATOM     29  C   UNL A   1      33.292  34.149  28.283  1.00  0.00     0.251 C 
ATOM     30  H   UNL A   1      32.041  33.820  26.751  1.00  0.00     0.163 HD
ATOM     31  O   UNL A   1      32.863  35.276  28.511  1.00  0.00    -0.269 OA
BRANCH  29  32
ATOM     32  C   UNL A   1      34.456  33.619  29.021  1.00  0.00     0.039 A 
ATOM     33  C   UNL A   1      34.254  32.629  29.983  1.00  0.00     0.014 A 
ATOM     34  C   UNL A   1      35.744  34.091  28.749  1.00  0.00     0.014 A 
ATOM     35  C   UNL A   1      35.355  32.074  30.637  1.00  0.00     0.010 A 
ATOM     36  C   UNL A   1      36.844  33.479  29.340  1.00  0.00     0.010 A 
ATOM     37  C   UNL A   1      36.660  32.471  30.298  1.00  0.00    -0.014 A 
BRANCH  37  38
ATOM     38  C   UNL A   1      37.843  31.845  30.943  1.00  0.00     0.031 A 
ATOM     39  C   UNL A   1      38.636  30.800  30.209  1.00  0.00     0.074 A 
ATOM     40  C   UNL A   1      38.169  32.183  32.206  1.00  0.00     0.049 A 
ATOM     41  N   UNL A   1      39.661  30.099  30.619  1.00  0.00    -0.248 NA
ATOM     42  C   UNL A   1      38.196  30.479  28.843  1.00  0.00     0.031 C 
ATOM     43  C   UNL A   1      37.450  33.156  33.032  1.00  0.00     0.029 A 
ATOM     44  N   UNL A   1      39.183  31.744  33.020  1.00  0.00    -0.354 N 
ATOM     45  C   UNL A   1      39.983  29.248  29.568  1.00  0.00     0.074 A 
ATOM     46  C   UNL A   1      38.998  29.472  28.531  1.00  0.00     0.031 C 
ATOM     47  C   UNL A   1      38.064  33.263  34.220  1.00  0.00     0.029 A 
ATOM     48  C   UNL A   1      39.185  32.329  34.265  1.00  0.00     0.049 A 
ATOM     49  H   UNL A   1      39.847  31.073  32.739  1.00  0.00     0.167 HD
ATOM     50  C   UNL A   1      41.020  28.378  29.466  1.00  0.00     0.034 A 
ATOM     51  C   UNL A   1      39.988  32.127  35.328  1.00  0.00     0.034 A 
ATOM     52  C   UNL A   1      41.991  28.169  30.514  1.00  0.00     0.049 A 
ATOM     53  C   UNL A   1      41.108  31.124  35.211  1.00  0.00     0.074 A 
ATOM     54  C   UNL A   1      43.109  27.354  30.502  1.00  0.00     0.029 A 
ATOM     55  N   UNL A   1      41.953  28.769  31.768  1.00  0.00    -0.354 N 
ATOM     56  N   UNL A   1      41.434  30.365  34.189  1.00  0.00    -0.248 NA
ATOM     57  C   UNL A   1      41.973  30.959  36.384  1.00  0.00     0.031 C 
ATOM     58  C   UNL A   1      43.695  27.394  31.771  1.00  0.00     0.029 A 
ATOM     59  C   UNL A   1      43.003  28.308  32.549  1.00  0.00     0.049 A 
ATOM     60  H   UNL A   1      41.279  29.424  32.059  1.00  0.00     0.167 HD
ATOM     61  C   UNL A   1      42.564  29.656  34.588  1.00  0.00     0.074 A 
ATOM     62  C   UNL A   1      42.868  30.090  35.937  1.00  0.00     0.031 C 
ATOM     63  C   UNL A   1      43.288  28.737  33.900  1.00  0.00     0.034 A 
BRANCH  50  64
ATOM     64  C   UNL A   1      41.126  27.569  28.194  1.00  0.00     0.023 A 
ATOM     65  C   UNL A   1      40.783  26.206  28.151  1.00  0.00     0.031 A 
ATOM     66  C   UNL A   1      41.614  28.157  27.013  1.00  0.00     0.131 A 
ATOM     67  C   UNL A   1      41.018  25.457  26.988  1.00  0.00     0.055 A 
ATOM     68  C   UNL A   1      41.755  27.429  25.830  1.00  0.00     0.041 A 
ATOM     69  F   UNL A   1      41.980  29.449  26.992  1.00  0.00    -0.206 F 
ATOM     70  C   UNL A   1      41.475  26.066  25.817  1.00  0.00     0.022 A 
BRANCH  67  71
ATOM     71  S   UNL A   1      40.885  23.651  27.081  1.00  0.00     0.124 S 
ATOM     72  O   UNL A   1      41.442  23.382  28.405  1.00  0.00    -0.237 OA
ATOM     73  O   UNL A   1      39.452  23.432  26.934  1.00  0.00    -0.237 OA
ATOM     74  O   UNL A   1      41.707  23.189  25.964  1.00  0.00    -0.744 OA
ENDBRANCH  67  71
ENDBRANCH  50  64
BRANCH  51  75
ATOM     75  C   UNL A   1      39.758  32.876  36.598  1.00  0.00     0.023 A 
ATOM     76  C   UNL A   1      38.862  32.402  37.568  1.00  0.00     0.031 A 
ATOM     77  C   UNL A   1      40.414  34.095  36.847  1.00  0.00     0.131 A 
ATOM     78  C   UNL A   1      38.614  33.161  38.722  1.00  0.00     0.055 A 
ATOM     79  C   UNL A   1      40.209  34.818  38.022  1.00  0.00     0.041 A 
ATOM     80  F   UNL A   1      41.284  34.592  35.952  1.00  0.00    -0.206 F 
ATOM     81  C   UNL A   1      39.294  34.358  38.963  1.00  0.00     0.022 A 
BRANCH  78  82
ATOM     82  S   UNL A   1      37.325  32.604  39.870  1.00  0.00     0.124 S 
ATOM     83  O   UNL A   1      37.339  33.668  40.869  1.00  0.00    -0.237 OA
ATOM     84  O   UNL A   1      36.151  32.549  39.006  1.00  0.00    -0.237 OA
ATOM     85  O   UNL A   1      37.818  31.308  40.332  1.00  0.00    -0.744 OA
ENDBRANCH  78  82
ENDBRANCH  51  75
BRANCH  63  86
ATOM     86  C   UNL A   1      44.513  28.173  34.582  1.00  0.00     0.023 A 
ATOM     87  C   UNL A   1      45.775  28.783  34.474  1.00  0.00     0.031 A 
ATOM     88  C   UNL A   1      44.413  26.998  35.350  1.00  0.00     0.131 A 
ATOM     89  C   UNL A   1      46.895  28.185  35.072  1.00  0.00     0.055 A 
ATOM     90  C   UNL A   1      45.517  26.448  36.002  1.00  0.00     0.041 A 
ATOM     91  F   UNL A   1      43.235  26.367  35.484  1.00  0.00    -0.206 F 
ATOM     92  C   UNL A   1      46.769  27.033  35.853  1.00  0.00     0.022 A 
BRANCH  89  93
ATOM     93  S   UNL A   1      48.538  28.874  34.731  1.00  0.00     0.124 S 
ATOM     94  O   UNL A   1      48.878  29.492  36.008  1.00  0.00    -0.237 OA
ATOM     95  O   UNL A   1      49.306  27.688  34.372  1.00  0.00    -0.237 OA
ATOM     96  O   UNL A   1      48.295  29.811  33.634  1.00  0.00    -0.744 OA
ENDBRANCH  89  93
ENDBRANCH  63  86
ENDBRANCH  37  38
ENDBRANCH  29  32
ENDBRANCH  27  28
ENDBRANCH  26  27
ENDBRANCH  25  26
ENDBRANCH   1  25
TORSDOF 19
ENDMDL
MODEL 2
REMARK VINA RESULT:     -11.0      1.863      7.810
REMARK SMILES N#Cc1ccccc1S(=O)(=O)N1CCC(C(=O)NCCCCCCNC(=O)c2ccc(-c3c4nc(c(-c5cc(S(=O)(=O)[O-])ccc5F)c5ccc([nH]5)c(-c5cc(S(=O)(=O)[O-])ccc5F)c5nc(c(-c6cc(S(=O)(=O)[O-])ccc6F)c6ccc3[nH]6)C=C5)C=C4)cc2)CC1
REMARK SMILES IDX 21 1 20 2 19 3 18 4 16 5 17 6 15 8 12 9 13 10 92 11 14 12
REMARK SMILES IDX 91 13 9 14 10 15 11 16 8 17 3 18 4 19 5 20 7 21 6 22 2 23
REMARK SMILES IDX 1 24 22 25 23 26 24 27 25 28 26 29 27 31 28 32 29 33 90 34
REMARK SMILES IDX 30 35 89 36 31 37 32 38 33 39 83 40 34 41 88 42 82 43 84 44
REMARK SMILES IDX 35 45 87 46 81 47 80 48 36 50 68 51 48 52 67 53 49 54 52 55
REMARK SMILES IDX 66 56 85 57 50 58 51 59 65 61 86 62 53 63 37 64 38 65 46 66
REMARK SMILES IDX 39 67 45 68 47 69 44 70 40 71 41 72 42 73 43 74 69 75 70 76
REMARK SMILES IDX 78 77 71 78 77 79 79 80 76 81 72 82 73 83 74 84 75 85 54 86
REMARK SMILES IDX 55 87 63 88 56 89 62 90 64 91 61 92 57 93 58 94 59 95 60 96
REMARK H PARENT 18 7 25 30 84 49 52 60
REMARK Flexibility Score: inf
ROOT
ATOM      1  C   UNL A   1      30.658  28.419  24.453  1.00  0.00     0.002 C 
ENDROOT
BRANCH   1   2
ATOM      2  C   UNL A   1      30.823  27.003  25.010  1.00  0.00     0.021 C 
BRANCH   2   3
ATOM      3  C   UNL A   1      31.288  25.996  23.963  1.00  0.00     0.116 C 
BRANCH   3   4
ATOM      4  N   UNL A   1      32.038  26.658  22.911  1.00  0.00    -0.356 N 
ATOM      5  C   UNL A   1      33.329  26.501  22.513  1.00  0.00     0.223 C 
ATOM      6  O   UNL A   1      33.765  27.253  21.640  1.00  0.00    -0.275 OA
ATOM      7  H   UNL A   1      31.530  27.329  22.401  1.00  0.00     0.163 HD
BRANCH   5   8
ATOM      8  C   UNL A   1      34.198  25.408  23.111  1.00  0.00     0.081 C 
ATOM      9  N   UNL A   1      34.589  23.034  24.750  1.00  0.00    -0.198 NA
ATOM     10  C   UNL A   1      34.795  24.342  25.392  1.00  0.00     0.103 C 
ATOM     11  C   UNL A   1      34.398  22.877  23.301  1.00  0.00     0.103 C 
ATOM     12  C   UNL A   1      34.331  25.560  24.621  1.00  0.00     0.030 C 
ATOM     13  C   UNL A   1      33.718  24.045  22.631  1.00  0.00     0.030 C 
BRANCH   9  14
ATOM     14  S   UNL A   1      35.171  21.688  25.594  1.00  0.00     0.244 S 
ATOM     15  O   UNL A   1      34.795  21.866  26.982  1.00  0.00    -0.207 OA
ATOM     16  O   UNL A   1      36.553  21.493  25.211  1.00  0.00    -0.207 OA
BRANCH  14  17
ATOM     17  C   UNL A   1      34.328  20.201  25.077  1.00  0.00     0.100 A 
ATOM     18  C   UNL A   1      32.954  19.976  24.973  1.00  0.00     0.072 A 
ATOM     19  C   UNL A   1      32.494  18.702  24.583  1.00  0.00     0.021 A 
ATOM     20  C   UNL A   1      33.377  17.672  24.275  1.00  0.00     0.001 A 
ATOM     21  C   UNL A   1      35.213  19.149  24.754  1.00  0.00     0.023 A 
ATOM     22  C   UNL A   1      34.742  17.899  24.353  1.00  0.00     0.001 A 
BRANCH  18  23
ATOM     23  C   UNL A   1      31.906  20.919  25.197  1.00  0.00     0.101 C 
ATOM     24  N   UNL A   1      30.991  21.588  25.422  1.00  0.00    -0.192 NA
ENDBRANCH  18  23
ENDBRANCH  14  17
ENDBRANCH   9  14
ENDBRANCH   5   8
ENDBRANCH   3   4
ENDBRANCH   2   3
ENDBRANCH   1   2
BRANCH   1  25
ATOM     25  C   UNL A   1      31.651  29.438  25.020  1.00  0.00     0.002 C 
BRANCH  25  26
ATOM     26  C   UNL A   1      32.759  28.832  25.884  1.00  0.00     0.021 C 
BRANCH  26  27
ATOM     27  C   UNL A   1      32.878  29.456  27.268  1.00  0.00     0.116 C 
BRANCH  27  28
ATOM     28  N   UNL A   1      32.970  30.904  27.192  1.00  0.00    -0.352 N 
ATOM     29  C   UNL A   1      33.936  31.730  27.708  1.00  0.00     0.251 C 
ATOM     30  H   UNL A   1      32.241  31.352  26.707  1.00  0.00     0.163 HD
ATOM     31  O   UNL A   1      33.736  32.939  27.774  1.00  0.00    -0.269 OA
BRANCH  29  32
ATOM     32  C   UNL A   1      35.200  31.144  28.197  1.00  0.00     0.039 A 
ATOM     33  C   UNL A   1      36.375  31.891  28.101  1.00  0.00     0.014 A 
ATOM     34  C   UNL A   1      35.218  29.865  28.764  1.00  0.00     0.014 A 
ATOM     35  C   UNL A   1      37.562  31.373  28.622  1.00  0.00     0.010 A 
ATOM     36  C   UNL A   1      36.382  29.388  29.356  1.00  0.00     0.010 A 
ATOM     37  C   UNL A   1      37.568  30.133  29.283  1.00  0.00    -0.014 A 
BRANCH  37  38
ATOM     38  C   UNL A   1      38.812  29.597  29.895  1.00  0.00     0.031 A 
ATOM     39  C   UNL A   1      39.285  30.125  31.221  1.00  0.00     0.074 A 
ATOM     40  C   UNL A   1      39.537  28.676  29.232  1.00  0.00     0.049 A 
ATOM     41  N   UNL A   1      40.369  29.829  31.891  1.00  0.00    -0.248 NA
ATOM     42  C   UNL A   1      38.441  31.143  31.864  1.00  0.00     0.031 C 
ATOM     43  C   UNL A   1      39.197  28.120  27.920  1.00  0.00     0.029 A 
ATOM     44  N   UNL A   1      40.711  28.049  29.563  1.00  0.00    -0.354 N 
ATOM     45  C   UNL A   1      40.344  30.630  33.027  1.00  0.00     0.074 A 
ATOM     46  C   UNL A   1      39.173  31.474  32.916  1.00  0.00     0.031 C 
ATOM     47  C   UNL A   1      40.123  27.212  27.576  1.00  0.00     0.029 A 
ATOM     48  C   UNL A   1      41.152  27.160  28.610  1.00  0.00     0.049 A 
ATOM     49  H   UNL A   1      41.194  28.219  30.405  1.00  0.00     0.167 HD
ATOM     50  C   UNL A   1      41.203  30.642  34.077  1.00  0.00     0.034 A 
ATOM     51  C   UNL A   1      42.264  26.400  28.567  1.00  0.00     0.034 A 
ATOM     52  C   UNL A   1      42.365  29.791  34.165  1.00  0.00     0.049 A 
ATOM     53  C   UNL A   1      43.229  26.460  29.723  1.00  0.00     0.074 A 
ATOM     54  C   UNL A   1      43.276  29.681  35.202  1.00  0.00     0.029 A 
ATOM     55  N   UNL A   1      42.789  28.912  33.174  1.00  0.00    -0.354 N 
ATOM     56  N   UNL A   1      43.164  27.184  30.818  1.00  0.00    -0.248 NA
ATOM     57  C   UNL A   1      44.411  25.595  29.643  1.00  0.00     0.031 C 
ATOM     58  C   UNL A   1      44.291  28.805  34.804  1.00  0.00     0.029 A 
ATOM     59  C   UNL A   1      43.968  28.291  33.558  1.00  0.00     0.049 A 
ATOM     60  H   UNL A   1      42.320  28.755  32.322  1.00  0.00     0.167 HD
ATOM     61  C   UNL A   1      44.281  26.833  31.572  1.00  0.00     0.074 A 
ATOM     62  C   UNL A   1      44.993  25.826  30.811  1.00  0.00     0.031 C 
ATOM     63  C   UNL A   1      44.678  27.297  32.784  1.00  0.00     0.034 A 
BRANCH  50  64
ATOM     64  C   UNL A   1      40.929  31.631  35.187  1.00  0.00     0.023 A 
ATOM     65  C   UNL A   1      39.885  31.439  36.109  1.00  0.00     0.031 A 
ATOM     66  C   UNL A   1      41.697  32.803  35.304  1.00  0.00     0.131 A 
ATOM     67  C   UNL A   1      39.580  32.441  37.043  1.00  0.00     0.055 A 
ATOM     68  C   UNL A   1      41.449  33.752  36.297  1.00  0.00     0.041 A 
ATOM     69  F   UNL A   1      42.695  33.057  34.441  1.00  0.00    -0.206 F 
ATOM     70  C   UNL A   1      40.373  33.584  37.162  1.00  0.00     0.022 A 
BRANCH  67  71
ATOM     71  S   UNL A   1      38.030  32.308  37.977  1.00  0.00     0.124 S 
ATOM     72  O   UNL A   1      37.543  30.996  37.555  1.00  0.00    -0.237 OA
ATOM     73  O   UNL A   1      38.484  32.407  39.358  1.00  0.00    -0.237 OA
ATOM     74  O   UNL A   1      37.241  33.440  37.494  1.00  0.00    -0.744 OA
ENDBRANCH  67  71
ENDBRANCH  50  64
BRANCH  51  75
ATOM     75  C   UNL A   1      42.534  25.530  27.385  1.00  0.00     0.023 A 
ATOM     76  C   UNL A   1      42.108  24.193  27.357  1.00  0.00     0.031 A 
ATOM     77  C   UNL A   1      43.247  26.018  26.275  1.00  0.00     0.131 A 
ATOM     78  C   UNL A   1      42.435  23.378  26.262  1.00  0.00     0.055 A 
ATOM     79  C   UNL A   1      43.519  25.220  25.163  1.00  0.00     0.041 A 
ATOM     80  F   UNL A   1      43.674  27.291  26.250  1.00  0.00    -0.206 F 
ATOM     81  C   UNL A   1      43.124  23.887  25.158  1.00  0.00     0.022 A 
BRANCH  78  82
ATOM     82  S   UNL A   1      42.020  21.613  26.335  1.00  0.00     0.124 S 
ATOM     83  O   UNL A   1      40.632  21.618  25.883  1.00  0.00    -0.237 OA
ATOM     84  O   UNL A   1      42.993  21.034  25.416  1.00  0.00    -0.237 OA
ATOM     85  O   UNL A   1      42.216  21.275  27.744  1.00  0.00    -0.744 OA
ENDBRANCH  78  82
ENDBRANCH  51  75
BRANCH  63  86
ATOM     86  C   UNL A   1      45.918  26.679  33.386  1.00  0.00     0.023 A 
ATOM     87  C   UNL A   1      47.192  27.249  33.219  1.00  0.00     0.031 A 
ATOM     88  C   UNL A   1      45.821  25.493  34.137  1.00  0.00     0.131 A 
ATOM     89  C   UNL A   1      48.322  26.603  33.743  1.00  0.00     0.055 A 
ATOM     90  C   UNL A   1      46.940  24.894  34.717  1.00  0.00     0.041 A 
ATOM     91  F   UNL A   1      44.632  24.898  34.326  1.00  0.00    -0.206 F 
ATOM     92  C   UNL A   1      48.201  25.441  34.509  1.00  0.00     0.022 A 
BRANCH  89  93
ATOM     93  S   UNL A   1      49.967  27.245  33.324  1.00  0.00     0.124 S 
ATOM     94  O   UNL A   1      50.741  26.018  33.174  1.00  0.00    -0.237 OA
ATOM     95  O   UNL A   1      49.708  27.990  32.096  1.00  0.00    -0.237 OA
ATOM     96  O   UNL A   1      50.320  28.064  34.483  1.00  0.00    -0.744 OA
ENDBRANCH  89  93
ENDBRANCH  63  86
ENDBRANCH  37  38
ENDBRANCH  29  32
ENDBRANCH  27  28
ENDBRANCH  26  27
ENDBRANCH  25  26
ENDBRANCH   1  25
TORSDOF 19
ENDMDL
MODEL 3
REMARK VINA RESULT:     -10.9      2.488      8.037
REMARK SMILES N#Cc1ccccc1S(=O)(=O)N1CCC(C(=O)NCCCCCCNC(=O)c2ccc(-c3c4nc(c(-c5cc(S(=O)(=O)[O-])ccc5F)c5ccc([nH]5)c(-c5cc(S(=O)(=O)[O-])ccc5F)c5nc(c(-c6cc(S(=O)(=O)[O-])ccc6F)c6ccc3[nH]6)C=C5)C=C4)cc2)CC1
REMARK SMILES IDX 21 1 20 2 19 3 18 4 16 5 17 6 15 8 12 9 13 10 92 11 14 12
REMARK SMILES IDX 91 13 9 14 10 15 11 16 8 17 3 18 4 19 5 20 7 21 6 22 2 23
REMARK SMILES IDX 1 24 22 25 23 26 24 27 25 28 26 29 27 31 28 32 29 33 90 34
REMARK SMILES IDX 30 35 89 36 31 37 32 38 33 39 83 40 34 41 88 42 82 43 84 44
REMARK SMILES IDX 35 45 87 46 81 47 80 48 36 50 68 51 48 52 67 53 49 54 52 55
REMARK SMILES IDX 66 56 85 57 50 58 51 59 65 61 86 62 53 63 37 64 38 65 46 66
REMARK SMILES IDX 39 67 45 68 47 69 44 70 40 71 41 72 42 73 43 74 69 75 70 76
REMARK SMILES IDX 78 77 71 78 77 79 79 80 76 81 72 82 73 83 74 84 75 85 54 86
REMARK SMILES IDX 55 87 63 88 56 89 62 90 64 91 61 92 57 93 58 94 59 95 60 96
REMARK H PARENT 18 7 25 30 84 49 52 60
REMARK Flexibility Score: inf
ROOT
ATOM      1  C   UNL A   1      34.856  31.922  27.792  1.00  0.00     0.002 C 
ENDROOT
BRANCH   1   2
ATOM      2  C   UNL A   1      35.721  30.721  28.179  1.00  0.00     0.021 C 
BRANCH   2   3
ATOM      3  C   UNL A   1      35.160  29.392  27.683  1.00  0.00     0.116 C 
BRANCH   3   4
ATOM      4  N   UNL A   1      33.708  29.420  27.669  1.00  0.00    -0.356 N 
ATOM      5  C   UNL A   1      32.817  28.660  26.980  1.00  0.00     0.223 C 
ATOM      6  O   UNL A   1      31.620  28.938  27.072  1.00  0.00    -0.275 OA
ATOM      7  H   UNL A   1      33.303  30.099  28.254  1.00  0.00     0.163 HD
BRANCH   5   8
ATOM      8  C   UNL A   1      33.285  27.480  26.143  1.00  0.00     0.081 C 
ATOM      9  N   UNL A   1      32.869  25.435  24.115  1.00  0.00    -0.198 NA
ATOM     10  C   UNL A   1      32.592  25.068  25.513  1.00  0.00     0.103 C 
ATOM     11  C   UNL A   1      33.524  26.694  23.734  1.00  0.00     0.103 C 
ATOM     12  C   UNL A   1      32.548  26.201  26.518  1.00  0.00     0.030 C 
ATOM     13  C   UNL A   1      33.248  27.847  24.666  1.00  0.00     0.030 C 
BRANCH   9  14
ATOM     14  S   UNL A   1      32.980  24.153  23.016  1.00  0.00     0.244 S 
ATOM     15  O   UNL A   1      34.119  24.427  22.162  1.00  0.00    -0.207 OA
ATOM     16  O   UNL A   1      31.662  23.936  22.459  1.00  0.00    -0.207 OA
BRANCH  14  17
ATOM     17  C   UNL A   1      33.391  22.631  23.854  1.00  0.00     0.100 A 
ATOM     18  C   UNL A   1      34.575  22.298  24.515  1.00  0.00     0.072 A 
ATOM     19  C   UNL A   1      34.710  21.013  25.078  1.00  0.00     0.021 A 
ATOM     20  C   UNL A   1      33.682  20.078  25.012  1.00  0.00     0.001 A 
ATOM     21  C   UNL A   1      32.352  21.675  23.802  1.00  0.00     0.023 A 
ATOM     22  C   UNL A   1      32.496  20.413  24.379  1.00  0.00     0.001 A 
BRANCH  18  23
ATOM     23  C   UNL A   1      35.710  23.138  24.726  1.00  0.00     0.101 C 
ATOM     24  N   UNL A   1      36.654  23.803  24.777  1.00  0.00    -0.192 NA
ENDBRANCH  18  23
ENDBRANCH  14  17
ENDBRANCH   9  14
ENDBRANCH   5   8
ENDBRANCH   3   4
ENDBRANCH   2   3
ENDBRANCH   1   2
BRANCH   1  25
ATOM     25  C   UNL A   1      35.548  33.278  27.960  1.00  0.00     0.002 C 
BRANCH  25  26
ATOM     26  C   UNL A   1      34.593  34.469  28.064  1.00  0.00     0.021 C 
BRANCH  26  27
ATOM     27  C   UNL A   1      33.243  34.130  28.681  1.00  0.00     0.116 C 
BRANCH  27  28
ATOM     28  N   UNL A   1      32.918  35.027  29.777  1.00  0.00    -0.352 N 
ATOM     29  C   UNL A   1      33.424  35.042  31.052  1.00  0.00     0.251 C 
ATOM     30  H   UNL A   1      32.243  35.715  29.578  1.00  0.00     0.163 HD
ATOM     31  O   UNL A   1      32.865  35.698  31.925  1.00  0.00    -0.269 OA
BRANCH  29  32
ATOM     32  C   UNL A   1      34.630  34.247  31.358  1.00  0.00     0.039 A 
ATOM     33  C   UNL A   1      35.885  34.844  31.238  1.00  0.00     0.014 A 
ATOM     34  C   UNL A   1      34.516  32.918  31.780  1.00  0.00     0.014 A 
ATOM     35  C   UNL A   1      37.025  34.122  31.591  1.00  0.00     0.010 A 
ATOM     36  C   UNL A   1      35.645  32.229  32.210  1.00  0.00     0.010 A 
ATOM     37  C   UNL A   1      36.913  32.821  32.110  1.00  0.00    -0.014 A 
BRANCH  37  38
ATOM     38  C   UNL A   1      38.114  32.063  32.546  1.00  0.00     0.031 A 
ATOM     39  C   UNL A   1      38.763  32.376  33.866  1.00  0.00     0.074 A 
ATOM     40  C   UNL A   1      38.646  31.132  31.731  1.00  0.00     0.049 A 
ATOM     41  N   UNL A   1      39.846  31.869  34.397  1.00  0.00    -0.248 NA
ATOM     42  C   UNL A   1      38.127  33.421  34.682  1.00  0.00     0.031 C 
ATOM     43  C   UNL A   1      38.125  30.770  30.411  1.00  0.00     0.029 A 
ATOM     44  N   UNL A   1      39.743  30.323  31.887  1.00  0.00    -0.354 N 
ATOM     45  C   UNL A   1      40.026  32.539  35.602  1.00  0.00     0.074 A 
ATOM     46  C   UNL A   1      38.981  33.537  35.686  1.00  0.00     0.031 C 
ATOM     47  C   UNL A   1      38.883  29.791  29.893  1.00  0.00     0.029 A 
ATOM     48  C   UNL A   1      39.974  29.492  30.815  1.00  0.00     0.049 A 
ATOM     49  H   UNL A   1      40.312  30.336  32.691  1.00  0.00     0.167 HD
ATOM     50  C   UNL A   1      40.961  32.323  36.561  1.00  0.00     0.034 A 
ATOM     51  C   UNL A   1      40.961  28.602  30.592  1.00  0.00     0.034 A 
ATOM     52  C   UNL A   1      41.995  31.321  36.456  1.00  0.00     0.049 A 
ATOM     53  C   UNL A   1      42.016  28.408  31.651  1.00  0.00     0.074 A 
ATOM     54  C   UNL A   1      42.962  30.981  37.386  1.00  0.00     0.029 A 
ATOM     55  N   UNL A   1      42.208  30.508  35.349  1.00  0.00    -0.354 N 
ATOM     56  N   UNL A   1      42.143  29.011  32.812  1.00  0.00    -0.248 NA
ATOM     57  C   UNL A   1      43.054  27.408  31.376  1.00  0.00     0.031 C 
ATOM     58  C   UNL A   1      43.808  30.028  36.809  1.00  0.00     0.029 A 
ATOM     59  C   UNL A   1      43.315  29.699  35.557  1.00  0.00     0.049 A 
ATOM     60  H   UNL A   1      41.654  30.507  34.535  1.00  0.00     0.167 HD
ATOM     61  C   UNL A   1      43.257  28.437  33.418  1.00  0.00     0.074 A 
ATOM     62  C   UNL A   1      43.755  27.433  32.499  1.00  0.00     0.031 C 
ATOM     63  C   UNL A   1      43.813  28.709  34.626  1.00  0.00     0.034 A 
BRANCH  50  64
ATOM     64  C   UNL A   1      40.921  33.213  37.782  1.00  0.00     0.023 A 
ATOM     65  C   UNL A   1      40.030  32.975  38.844  1.00  0.00     0.031 A 
ATOM     66  C   UNL A   1      41.758  34.340  37.873  1.00  0.00     0.131 A 
ATOM     67  C   UNL A   1      39.931  33.895  39.899  1.00  0.00     0.055 A 
ATOM     68  C   UNL A   1      41.722  35.200  38.972  1.00  0.00     0.041 A 
ATOM     69  F   UNL A   1      42.616  34.636  36.883  1.00  0.00    -0.206 F 
ATOM     70  C   UNL A   1      40.791  34.992  39.984  1.00  0.00     0.022 A 
BRANCH  67  71
ATOM     71  S   UNL A   1      38.546  33.733  41.060  1.00  0.00     0.124 S 
ATOM     72  O   UNL A   1      38.354  35.118  41.485  1.00  0.00    -0.237 OA
ATOM     73  O   UNL A   1      37.496  33.170  40.221  1.00  0.00    -0.237 OA
ATOM     74  O   UNL A   1      39.069  32.841  42.093  1.00  0.00    -0.744 OA
ENDBRANCH  67  71
ENDBRANCH  50  64
BRANCH  51  75
ATOM     75  C   UNL A   1      41.008  27.837  29.312  1.00  0.00     0.023 A 
ATOM     76  C   UNL A   1      41.977  28.114  28.336  1.00  0.00     0.031 A 
ATOM     77  C   UNL A   1      40.063  26.831  29.037  1.00  0.00     0.131 A 
ATOM     78  C   UNL A   1      41.955  27.425  27.113  1.00  0.00     0.055 A 
ATOM     79  C   UNL A   1      40.082  26.108  27.843  1.00  0.00     0.041 A 
ATOM     80  F   UNL A   1      39.117  26.524  29.938  1.00  0.00    -0.206 F 
ATOM     81  C   UNL A   1      41.024  26.412  26.867  1.00  0.00     0.022 A 
BRANCH  78  82
ATOM     82  S   UNL A   1      43.113  27.927  25.810  1.00  0.00     0.124 S 
ATOM     83  O   UNL A   1      43.988  26.763  25.728  1.00  0.00    -0.237 OA
ATOM     84  O   UNL A   1      42.220  28.140  24.676  1.00  0.00    -0.237 OA
ATOM     85  O   UNL A   1      43.730  29.136  26.351  1.00  0.00    -0.744 OA
ENDBRANCH  78  82
ENDBRANCH  51  75
BRANCH  63  86
ATOM     86  C   UNL A   1      44.999  27.872  35.045  1.00  0.00     0.023 A 
ATOM     87  C   UNL A   1      44.847  26.622  35.669  1.00  0.00     0.031 A 
ATOM     88  C   UNL A   1      46.306  28.340  34.817  1.00  0.00     0.131 A 
ATOM     89  C   UNL A   1      45.979  25.912  36.098  1.00  0.00     0.055 A 
ATOM     90  C   UNL A   1      47.429  27.597  35.181  1.00  0.00     0.041 A 
ATOM     91  F   UNL A   1      46.515  29.530  34.231  1.00  0.00    -0.206 F 
ATOM     92  C   UNL A   1      47.269  26.381  35.838  1.00  0.00     0.022 A 
BRANCH  89  93
ATOM     93  S   UNL A   1      45.743  24.413  37.092  1.00  0.00     0.124 S 
ATOM     94  O   UNL A   1      44.554  23.829  36.481  1.00  0.00    -0.237 OA
ATOM     95  O   UNL A   1      46.992  23.692  36.873  1.00  0.00    -0.237 OA
ATOM     96  O   UNL A   1      45.554  24.928  38.448  1.00  0.00    -0.744 OA
ENDBRANCH  89  93
ENDBRANCH  63  86
ENDBRANCH  37  38
ENDBRANCH  29  32
ENDBRANCH  27  28
ENDBRANCH  26  27
ENDBRANCH  25  26
ENDBRANCH   1  25
TORSDOF 19
ENDMDL
