MODEL 1
REMARK VINA RESULT:     -13.4      0.000      0.000
REMARK SMILES Cc1ccc(S(=O)(=O)N2c3ccc(C(=O)NCCCCCCNC(=O)c4ccc(-c5c6nc(c(-c7cc(S(=O)(=O)[O-])ccc7F)c7ccc([nH]7)c(-c7cc(S(=O)(=O)[O-])ccc7F)c7nc(c(-c8cc(S(=O)(=O)[O-])ccc8F)c8ccc5[nH]8)C=C7)C=C6)cc4)cc3C[C@H]2C)cc1
REMARK SMILES IDX 20 1 19 2 18 3 17 4 16 5 14 6 15 7 13 9 9 10 10 11 92 12
REMARK SMILES IDX 11 13 90 14 91 15 93 16 12 17 89 18 6 19 7 20 8 21 5 22 1 23
REMARK SMILES IDX 2 24 3 25 95 26 4 27 94 28 21 29 22 30 23 31 24 32 25 34
REMARK SMILES IDX 26 35 27 36 88 37 28 38 87 39 29 40 30 41 31 42 81 43 32 44
REMARK SMILES IDX 86 45 80 46 82 47 33 48 85 49 79 50 78 51 34 53 66 54 46 55
REMARK SMILES IDX 65 56 47 57 50 58 64 59 83 60 48 61 49 62 63 64 84 65 51 66
REMARK SMILES IDX 35 67 36 68 44 69 37 70 43 71 45 72 42 73 38 74 39 75 40 76
REMARK SMILES IDX 41 77 67 78 68 79 76 80 69 81 75 82 77 83 74 84 70 85 71 86
REMARK SMILES IDX 72 87 73 88 52 89 53 90 61 91 54 92 60 93 62 94 59 95 55 96
REMARK SMILES IDX 56 97 57 98 58 99
REMARK H PARENT 16 8 23 33 82 52 50 63
REMARK Flexibility Score: inf
ROOT
ATOM      1  C   UNL A   1      31.992  29.732  26.488  1.00  0.00     0.002 C 
ENDROOT
BRANCH   1   2
ATOM      2  C   UNL A   1      31.795  30.081  25.007  1.00  0.00     0.002 C 
BRANCH   2   3
ATOM      3  C   UNL A   1      30.665  29.392  24.238  1.00  0.00     0.021 C 
BRANCH   3   4
ATOM      4  C   UNL A   1      30.884  29.085  22.759  1.00  0.00     0.116 C 
BRANCH   4   5
ATOM      5  N   UNL A   1      32.266  29.051  22.323  1.00  0.00    -0.352 N 
ATOM      6  C   UNL A   1      33.141  27.991  22.273  1.00  0.00     0.251 C 
ATOM      7  O   UNL A   1      34.282  28.167  21.847  1.00  0.00    -0.269 OA
ATOM      8  H   UNL A   1      32.632  29.913  22.019  1.00  0.00     0.163 HD
BRANCH   6   9
ATOM      9  C   UNL A   1      32.769  26.637  22.780  1.00  0.00     0.040 A 
ATOM     10  N   UNL A   1      31.550  23.026  24.622  1.00  0.00    -0.263 N 
ATOM     11  C   UNL A   1      31.970  24.185  23.856  1.00  0.00     0.055 A 
ATOM     12  C   UNL A   1      31.734  23.452  26.072  1.00  0.00     0.101 C 
ATOM     13  C   UNL A   1      31.866  24.382  22.490  1.00  0.00     0.028 A 
ATOM     14  C   UNL A   1      32.517  25.173  24.671  1.00  0.00    -0.021 A 
ATOM     15  C   UNL A   1      32.670  24.680  26.068  1.00  0.00     0.063 C 
ATOM     16  C   UNL A   1      30.362  23.831  26.643  1.00  0.00     0.032 C 
ATOM     17  C   UNL A   1      32.313  25.596  21.952  1.00  0.00     0.016 A 
ATOM     18  C   UNL A   1      32.916  26.400  24.156  1.00  0.00     0.019 A 
BRANCH  10  19
ATOM     19  S   UNL A   1      32.361  21.590  24.127  1.00  0.00     0.264 S 
ATOM     20  O   UNL A   1      32.277  21.508  22.683  1.00  0.00    -0.201 OA
ATOM     21  O   UNL A   1      31.886  20.497  24.959  1.00  0.00    -0.201 OA
BRANCH  19  22
ATOM     22  C   UNL A   1      34.106  21.719  24.505  1.00  0.00     0.088 A 
ATOM     23  C   UNL A   1      38.192  22.700  25.466  1.00  0.00     0.044 C 
ATOM     24  C   UNL A   1      36.788  22.313  25.107  1.00  0.00    -0.051 A 
ATOM     25  C   UNL A   1      36.205  22.801  23.934  1.00  0.00     0.005 A 
ATOM     26  C   UNL A   1      36.042  21.466  25.932  1.00  0.00     0.005 A 
ATOM     27  C   UNL A   1      34.873  22.508  23.635  1.00  0.00     0.022 A 
ATOM     28  C   UNL A   1      34.709  21.163  25.631  1.00  0.00     0.022 A 
ENDBRANCH  19  22
ENDBRANCH  10  19
ENDBRANCH   6   9
ENDBRANCH   4   5
ENDBRANCH   3   4
ENDBRANCH   2   3
ENDBRANCH   1   2
BRANCH   1  29
ATOM     29  C   UNL A   1      32.733  30.743  27.361  1.00  0.00     0.021 C 
BRANCH  29  30
ATOM     30  C   UNL A   1      34.158  30.363  27.742  1.00  0.00     0.116 C 
BRANCH  30  31
ATOM     31  N   UNL A   1      34.815  31.314  28.625  1.00  0.00    -0.352 N 
ATOM     32  C   UNL A   1      35.996  31.178  29.341  1.00  0.00     0.251 C 
ATOM     33  H   UNL A   1      34.357  32.180  28.729  1.00  0.00     0.163 HD
ATOM     34  O   UNL A   1      36.355  32.027  30.133  1.00  0.00    -0.269 OA
BRANCH  32  35
ATOM     35  C   UNL A   1      36.893  30.032  29.033  1.00  0.00     0.039 A 
ATOM     36  C   UNL A   1      37.084  29.081  30.044  1.00  0.00     0.014 A 
ATOM     37  C   UNL A   1      37.676  29.992  27.883  1.00  0.00     0.014 A 
ATOM     38  C   UNL A   1      38.201  28.250  30.006  1.00  0.00     0.010 A 
ATOM     39  C   UNL A   1      38.834  29.240  27.886  1.00  0.00     0.010 A 
ATOM     40  C   UNL A   1      39.127  28.415  28.976  1.00  0.00    -0.014 A 
BRANCH  40  41
ATOM     41  C   UNL A   1      40.476  27.867  29.019  1.00  0.00     0.031 A 
ATOM     42  C   UNL A   1      40.749  26.485  28.583  1.00  0.00     0.074 A 
ATOM     43  C   UNL A   1      41.500  28.657  29.408  1.00  0.00     0.049 A 
ATOM     44  N   UNL A   1      41.764  25.789  28.968  1.00  0.00    -0.248 NA
ATOM     45  C   UNL A   1      39.857  25.754  27.693  1.00  0.00     0.031 C 
ATOM     46  C   UNL A   1      42.930  28.392  29.279  1.00  0.00     0.029 A 
ATOM     47  N   UNL A   1      41.425  29.765  30.246  1.00  0.00    -0.354 N 
ATOM     48  C   UNL A   1      41.826  24.662  28.182  1.00  0.00     0.074 A 
ATOM     49  C   UNL A   1      40.576  24.654  27.454  1.00  0.00     0.031 C 
ATOM     50  C   UNL A   1      43.588  29.121  30.195  1.00  0.00     0.029 A 
ATOM     51  C   UNL A   1      42.591  29.768  31.029  1.00  0.00     0.049 A 
ATOM     52  H   UNL A   1      40.693  30.422  30.283  1.00  0.00     0.167 HD
ATOM     53  C   UNL A   1      42.984  23.942  28.134  1.00  0.00     0.034 A 
ATOM     54  C   UNL A   1      42.521  29.677  32.389  1.00  0.00     0.034 A 
ATOM     55  C   UNL A   1      43.989  24.478  29.054  1.00  0.00     0.049 A 
ATOM     56  C   UNL A   1      43.235  28.467  32.949  1.00  0.00     0.074 A 
ATOM     57  C   UNL A   1      45.105  25.278  28.872  1.00  0.00     0.029 A 
ATOM     58  N   UNL A   1      43.761  24.430  30.426  1.00  0.00    -0.354 N 
ATOM     59  N   UNL A   1      43.585  27.427  32.242  1.00  0.00    -0.248 NA
ATOM     60  C   UNL A   1      43.607  28.336  34.352  1.00  0.00     0.031 C 
ATOM     61  C   UNL A   1      45.520  25.752  30.145  1.00  0.00     0.029 A 
ATOM     62  C   UNL A   1      44.675  25.215  31.102  1.00  0.00     0.049 A 
ATOM     63  H   UNL A   1      43.046  23.909  30.856  1.00  0.00     0.167 HD
ATOM     64  C   UNL A   1      44.204  26.502  33.049  1.00  0.00     0.074 A 
ATOM     65  C   UNL A   1      44.210  27.134  34.359  1.00  0.00     0.031 C 
ATOM     66  C   UNL A   1      44.649  25.303  32.559  1.00  0.00     0.034 A 
BRANCH  53  67
ATOM     67  C   UNL A   1      43.314  22.945  27.041  1.00  0.00     0.023 A 
ATOM     68  C   UNL A   1      42.744  21.655  27.087  1.00  0.00     0.031 A 
ATOM     69  C   UNL A   1      44.200  23.171  25.971  1.00  0.00     0.131 A 
ATOM     70  C   UNL A   1      43.138  20.641  26.193  1.00  0.00     0.055 A 
ATOM     71  C   UNL A   1      44.639  22.149  25.117  1.00  0.00     0.041 A 
ATOM     72  F   UNL A   1      44.634  24.400  25.664  1.00  0.00    -0.206 F 
ATOM     73  C   UNL A   1      44.120  20.870  25.235  1.00  0.00     0.022 A 
BRANCH  70  74
ATOM     74  S   UNL A   1      42.342  19.013  26.294  1.00  0.00     0.124 S 
ATOM     75  O   UNL A   1      42.439  18.707  27.717  1.00  0.00    -0.237 OA
ATOM     76  O   UNL A   1      41.006  19.290  25.781  1.00  0.00    -0.237 OA
ATOM     77  O   UNL A   1      43.172  18.176  25.427  1.00  0.00    -0.744 OA
ENDBRANCH  70  74
ENDBRANCH  53  67
BRANCH  54  78
ATOM     78  C   UNL A   1      41.295  30.318  32.952  1.00  0.00     0.023 A 
ATOM     79  C   UNL A   1      41.284  31.730  33.007  1.00  0.00     0.031 A 
ATOM     80  C   UNL A   1      40.066  29.651  33.017  1.00  0.00     0.131 A 
ATOM     81  C   UNL A   1      40.074  32.432  32.925  1.00  0.00     0.055 A 
ATOM     82  C   UNL A   1      38.856  30.359  33.024  1.00  0.00     0.041 A 
ATOM     83  F   UNL A   1      40.008  28.313  32.942  1.00  0.00    -0.206 F 
ATOM     84  C   UNL A   1      38.856  31.753  32.927  1.00  0.00     0.022 A 
BRANCH  81  85
ATOM     85  S   UNL A   1      40.119  34.204  32.508  1.00  0.00     0.124 S 
ATOM     86  O   UNL A   1      40.017  34.829  33.822  1.00  0.00    -0.237 OA
ATOM     87  O   UNL A   1      41.407  34.351  31.832  1.00  0.00    -0.237 OA
ATOM     88  O   UNL A   1      38.962  34.378  31.632  1.00  0.00    -0.744 OA
ENDBRANCH  81  85
ENDBRANCH  54  78
BRANCH  66  89
ATOM     89  C   UNL A   1      45.183  24.127  33.365  1.00  0.00     0.023 A 
ATOM     90  C   UNL A   1      46.484  24.053  33.883  1.00  0.00     0.031 A 
ATOM     91  C   UNL A   1      44.343  23.030  33.697  1.00  0.00     0.131 A 
ATOM     92  C   UNL A   1      46.925  22.930  34.611  1.00  0.00     0.055 A 
ATOM     93  C   UNL A   1      44.761  21.948  34.480  1.00  0.00     0.041 A 
ATOM     94  F   UNL A   1      43.068  22.960  33.287  1.00  0.00    -0.206 F 
ATOM     95  C   UNL A   1      46.066  21.884  34.932  1.00  0.00     0.022 A 
BRANCH  92  96
ATOM     96  S   UNL A   1      48.672  22.848  35.087  1.00  0.00     0.124 S 
ATOM     97  O   UNL A   1      49.334  23.373  33.896  1.00  0.00    -0.237 OA
ATOM     98  O   UNL A   1      48.717  23.708  36.266  1.00  0.00    -0.237 OA
ATOM     99  O   UNL A   1      48.894  21.427  35.347  1.00  0.00    -0.744 OA
ENDBRANCH  92  96
ENDBRANCH  66  89
ENDBRANCH  40  41
ENDBRANCH  32  35
ENDBRANCH  30  31
ENDBRANCH  29  30
ENDBRANCH   1  29
TORSDOF 18
ENDMDL
MODEL 2
REMARK VINA RESULT:     -13.2      2.109      2.463
REMARK SMILES Cc1ccc(S(=O)(=O)N2c3ccc(C(=O)NCCCCCCNC(=O)c4ccc(-c5c6nc(c(-c7cc(S(=O)(=O)[O-])ccc7F)c7ccc([nH]7)c(-c7cc(S(=O)(=O)[O-])ccc7F)c7nc(c(-c8cc(S(=O)(=O)[O-])ccc8F)c8ccc5[nH]8)C=C7)C=C6)cc4)cc3C[C@H]2C)cc1
REMARK SMILES IDX 20 1 19 2 18 3 17 4 16 5 14 6 15 7 13 9 9 10 10 11 92 12
REMARK SMILES IDX 11 13 90 14 91 15 93 16 12 17 89 18 6 19 7 20 8 21 5 22 1 23
REMARK SMILES IDX 2 24 3 25 95 26 4 27 94 28 21 29 22 30 23 31 24 32 25 34
REMARK SMILES IDX 26 35 27 36 88 37 28 38 87 39 29 40 30 41 31 42 81 43 32 44
REMARK SMILES IDX 86 45 80 46 82 47 33 48 85 49 79 50 78 51 34 53 66 54 46 55
REMARK SMILES IDX 65 56 47 57 50 58 64 59 83 60 48 61 49 62 63 64 84 65 51 66
REMARK SMILES IDX 35 67 36 68 44 69 37 70 43 71 45 72 42 73 38 74 39 75 40 76
REMARK SMILES IDX 41 77 67 78 68 79 76 80 69 81 75 82 77 83 74 84 70 85 71 86
REMARK SMILES IDX 72 87 73 88 52 89 53 90 61 91 54 92 60 93 62 94 59 95 55 96
REMARK SMILES IDX 56 97 57 98 58 99
REMARK H PARENT 16 8 23 33 82 52 50 63
REMARK Flexibility Score: inf
ROOT
ATOM      1  C   UNL A   1      31.644  29.935  25.869  1.00  0.00     0.002 C 
ENDROOT
BRANCH   1   2
ATOM      2  C   UNL A   1      30.767  30.468  24.727  1.00  0.00     0.002 C 
BRANCH   2   3
ATOM      3  C   UNL A   1      30.121  29.461  23.772  1.00  0.00     0.021 C 
BRANCH   3   4
ATOM      4  C   UNL A   1      30.806  29.197  22.435  1.00  0.00     0.116 C 
BRANCH   4   5
ATOM      5  N   UNL A   1      32.243  29.383  22.418  1.00  0.00    -0.352 N 
ATOM      6  C   UNL A   1      33.246  28.462  22.617  1.00  0.00     0.251 C 
ATOM      7  O   UNL A   1      34.420  28.821  22.541  1.00  0.00    -0.269 OA
ATOM      8  H   UNL A   1      32.545  30.303  22.239  1.00  0.00     0.163 HD
BRANCH   6   9
ATOM      9  C   UNL A   1      32.954  27.045  22.985  1.00  0.00     0.040 A 
ATOM     10  N   UNL A   1      32.006  23.198  24.474  1.00  0.00    -0.263 N 
ATOM     11  C   UNL A   1      32.319  24.456  23.820  1.00  0.00     0.055 A 
ATOM     12  C   UNL A   1      32.345  23.446  25.937  1.00  0.00     0.101 C 
ATOM     13  C   UNL A   1      32.059  24.819  22.511  1.00  0.00     0.028 A 
ATOM     14  C   UNL A   1      32.939  25.350  24.689  1.00  0.00    -0.021 A 
ATOM     15  C   UNL A   1      33.255  24.691  25.987  1.00  0.00     0.063 C 
ATOM     16  C   UNL A   1      31.041  23.710  26.698  1.00  0.00     0.032 C 
ATOM     17  C   UNL A   1      32.423  26.103  22.085  1.00  0.00     0.016 A 
ATOM     18  C   UNL A   1      33.258  26.643  24.295  1.00  0.00     0.019 A 
BRANCH  10  19
ATOM     19  S   UNL A   1      32.778  21.859  23.714  1.00  0.00     0.264 S 
ATOM     20  O   UNL A   1      32.813  22.118  22.289  1.00  0.00    -0.201 OA
ATOM     21  O   UNL A   1      32.176  20.642  24.231  1.00  0.00    -0.201 OA
BRANCH  19  22
ATOM     22  C   UNL A   1      34.489  21.773  24.233  1.00  0.00     0.088 A 
ATOM     23  C   UNL A   1      38.532  22.218  25.661  1.00  0.00     0.044 C 
ATOM     24  C   UNL A   1      37.142  22.023  25.133  1.00  0.00    -0.051 A 
ATOM     25  C   UNL A   1      36.694  22.776  24.043  1.00  0.00     0.005 A 
ATOM     26  C   UNL A   1      36.275  21.092  25.714  1.00  0.00     0.005 A 
ATOM     27  C   UNL A   1      35.376  22.654  23.598  1.00  0.00     0.022 A 
ATOM     28  C   UNL A   1      34.956  20.961  25.263  1.00  0.00     0.022 A 
ENDBRANCH  19  22
ENDBRANCH  10  19
ENDBRANCH   6   9
ENDBRANCH   4   5
ENDBRANCH   3   4
ENDBRANCH   2   3
ENDBRANCH   1   2
BRANCH   1  29
ATOM     29  C   UNL A   1      32.330  30.957  26.772  1.00  0.00     0.021 C 
BRANCH  29  30
ATOM     30  C   UNL A   1      33.556  30.454  27.524  1.00  0.00     0.116 C 
BRANCH  30  31
ATOM     31  N   UNL A   1      34.222  31.466  28.328  1.00  0.00    -0.352 N 
ATOM     32  C   UNL A   1      35.413  31.383  29.035  1.00  0.00     0.251 C 
ATOM     33  H   UNL A   1      33.763  32.336  28.376  1.00  0.00     0.163 HD
ATOM     34  O   UNL A   1      35.781  32.287  29.759  1.00  0.00    -0.269 OA
BRANCH  32  35
ATOM     35  C   UNL A   1      36.309  30.219  28.797  1.00  0.00     0.039 A 
ATOM     36  C   UNL A   1      36.695  29.471  29.917  1.00  0.00     0.014 A 
ATOM     37  C   UNL A   1      36.911  29.988  27.564  1.00  0.00     0.014 A 
ATOM     38  C   UNL A   1      37.833  28.670  29.853  1.00  0.00     0.010 A 
ATOM     39  C   UNL A   1      38.092  29.274  27.519  1.00  0.00     0.010 A 
ATOM     40  C   UNL A   1      38.585  28.666  28.678  1.00  0.00    -0.014 A 
BRANCH  40  41
ATOM     41  C   UNL A   1      39.950  28.163  28.606  1.00  0.00     0.031 A 
ATOM     42  C   UNL A   1      40.223  26.718  28.497  1.00  0.00     0.074 A 
ATOM     43  C   UNL A   1      40.978  29.039  28.578  1.00  0.00     0.049 A 
ATOM     44  N   UNL A   1      41.330  26.159  28.850  1.00  0.00    -0.248 NA
ATOM     45  C   UNL A   1      39.231  25.768  28.009  1.00  0.00     0.031 C 
ATOM     46  C   UNL A   1      42.375  28.765  28.255  1.00  0.00     0.029 A 
ATOM     47  N   UNL A   1      40.987  30.328  29.102  1.00  0.00    -0.354 N 
ATOM     48  C   UNL A   1      41.318  24.866  28.384  1.00  0.00     0.074 A 
ATOM     49  C   UNL A   1      39.961  24.652  27.930  1.00  0.00     0.031 C 
ATOM     50  C   UNL A   1      43.141  29.716  28.812  1.00  0.00     0.029 A 
ATOM     51  C   UNL A   1      42.273  30.550  29.624  1.00  0.00     0.049 A 
ATOM     52  H   UNL A   1      40.236  30.963  29.105  1.00  0.00     0.167 HD
ATOM     53  C   UNL A   1      42.490  24.171  28.306  1.00  0.00     0.034 A 
ATOM     54  C   UNL A   1      42.452  30.821  30.949  1.00  0.00     0.034 A 
ATOM     55  C   UNL A   1      43.609  24.941  28.851  1.00  0.00     0.049 A 
ATOM     56  C   UNL A   1      43.326  29.809  31.657  1.00  0.00     0.074 A 
ATOM     57  C   UNL A   1      44.624  25.677  28.262  1.00  0.00     0.029 A 
ATOM     58  N   UNL A   1      43.634  25.255  30.206  1.00  0.00    -0.354 N 
ATOM     59  N   UNL A   1      43.605  28.623  31.189  1.00  0.00    -0.248 NA
ATOM     60  C   UNL A   1      43.950  30.057  32.950  1.00  0.00     0.031 C 
ATOM     61  C   UNL A   1      45.231  26.475  29.268  1.00  0.00     0.029 A 
ATOM     62  C   UNL A   1      44.604  26.201  30.473  1.00  0.00     0.049 A 
ATOM     63  H   UNL A   1      43.039  24.858  30.882  1.00  0.00     0.167 HD
ATOM     64  C   UNL A   1      44.413  27.951  32.076  1.00  0.00     0.074 A 
ATOM     65  C   UNL A   1      44.615  28.906  33.153  1.00  0.00     0.031 C 
ATOM     66  C   UNL A   1      44.834  26.670  31.836  1.00  0.00     0.034 A 
BRANCH  53  67
ATOM     67  C   UNL A   1      42.678  22.924  27.464  1.00  0.00     0.023 A 
ATOM     68  C   UNL A   1      43.707  22.892  26.498  1.00  0.00     0.031 A 
ATOM     69  C   UNL A   1      41.872  21.772  27.519  1.00  0.00     0.131 A 
ATOM     70  C   UNL A   1      43.827  21.830  25.582  1.00  0.00     0.055 A 
ATOM     71  C   UNL A   1      41.950  20.742  26.571  1.00  0.00     0.041 A 
ATOM     72  F   UNL A   1      41.015  21.561  28.525  1.00  0.00    -0.206 F 
ATOM     73  C   UNL A   1      42.922  20.774  25.584  1.00  0.00     0.022 A 
BRANCH  70  74
ATOM     74  S   UNL A   1      45.192  21.842  24.385  1.00  0.00     0.124 S 
ATOM     75  O   UNL A   1      44.818  20.764  23.476  1.00  0.00    -0.237 OA
ATOM     76  O   UNL A   1      45.118  23.196  23.847  1.00  0.00    -0.237 OA
ATOM     77  O   UNL A   1      46.369  21.572  25.210  1.00  0.00    -0.744 OA
ENDBRANCH  70  74
ENDBRANCH  53  67
BRANCH  54  78
ATOM     78  C   UNL A   1      41.311  31.575  31.548  1.00  0.00     0.023 A 
ATOM     79  C   UNL A   1      40.360  30.820  32.272  1.00  0.00     0.031 A 
ATOM     80  C   UNL A   1      41.367  32.954  31.783  1.00  0.00     0.131 A 
ATOM     81  C   UNL A   1      39.646  31.404  33.326  1.00  0.00     0.055 A 
ATOM     82  C   UNL A   1      40.585  33.552  32.782  1.00  0.00     0.041 A 
ATOM     83  F   UNL A   1      42.266  33.721  31.149  1.00  0.00    -0.206 F 
ATOM     84  C   UNL A   1      39.759  32.768  33.592  1.00  0.00     0.022 A 
BRANCH  81  85
ATOM     85  S   UNL A   1      38.818  30.316  34.529  1.00  0.00     0.124 S 
ATOM     86  O   UNL A   1      38.107  29.385  33.659  1.00  0.00    -0.237 OA
ATOM     87  O   UNL A   1      39.935  29.751  35.286  1.00  0.00    -0.237 OA
ATOM     88  O   UNL A   1      37.979  31.232  35.297  1.00  0.00    -0.744 OA
ENDBRANCH  81  85
ENDBRANCH  54  78
BRANCH  66  89
ATOM     89  C   UNL A   1      45.573  25.754  32.802  1.00  0.00     0.023 A 
ATOM     90  C   UNL A   1      44.965  24.716  33.522  1.00  0.00     0.031 A 
ATOM     91  C   UNL A   1      46.977  25.867  32.985  1.00  0.00     0.131 A 
ATOM     92  C   UNL A   1      45.700  23.908  34.413  1.00  0.00     0.055 A 
ATOM     93  C   UNL A   1      47.718  25.019  33.816  1.00  0.00     0.041 A 
ATOM     94  F   UNL A   1      47.704  26.802  32.354  1.00  0.00    -0.206 F 
ATOM     95  C   UNL A   1      47.078  24.038  34.550  1.00  0.00     0.022 A 
BRANCH  92  96
ATOM     96  S   UNL A   1      44.796  22.709  35.430  1.00  0.00     0.124 S 
ATOM     97  O   UNL A   1      45.252  21.438  34.874  1.00  0.00    -0.237 OA
ATOM     98  O   UNL A   1      45.271  23.018  36.775  1.00  0.00    -0.237 OA
ATOM     99  O   UNL A   1      43.392  23.031  35.177  1.00  0.00    -0.744 OA
ENDBRANCH  92  96
ENDBRANCH  66  89
ENDBRANCH  40  41
ENDBRANCH  32  35
ENDBRANCH  30  31
ENDBRANCH  29  30
ENDBRANCH   1  29
TORSDOF 18
ENDMDL
MODEL 3
REMARK VINA RESULT:     -12.8      1.177      2.006
REMARK SMILES Cc1ccc(S(=O)(=O)N2c3ccc(C(=O)NCCCCCCNC(=O)c4ccc(-c5c6nc(c(-c7cc(S(=O)(=O)[O-])ccc7F)c7ccc([nH]7)c(-c7cc(S(=O)(=O)[O-])ccc7F)c7nc(c(-c8cc(S(=O)(=O)[O-])ccc8F)c8ccc5[nH]8)C=C7)C=C6)cc4)cc3C[C@H]2C)cc1
REMARK SMILES IDX 20 1 19 2 18 3 17 4 16 5 14 6 15 7 13 9 9 10 10 11 92 12
REMARK SMILES IDX 11 13 90 14 91 15 93 16 12 17 89 18 6 19 7 20 8 21 5 22 1 23
REMARK SMILES IDX 2 24 3 25 95 26 4 27 94 28 21 29 22 30 23 31 24 32 25 34
REMARK SMILES IDX 26 35 27 36 88 37 28 38 87 39 29 40 30 41 31 42 81 43 32 44
REMARK SMILES IDX 86 45 80 46 82 47 33 48 85 49 79 50 78 51 34 53 66 54 46 55
REMARK SMILES IDX 65 56 47 57 50 58 64 59 83 60 48 61 49 62 63 64 84 65 51 66
REMARK SMILES IDX 35 67 36 68 44 69 37 70 43 71 45 72 42 73 38 74 39 75 40 76
REMARK SMILES IDX 41 77 67 78 68 79 76 80 69 81 75 82 77 83 74 84 70 85 71 86
REMARK SMILES IDX 72 87 73 88 52 89 53 90 61 91 54 92 60 93 62 94 59 95 55 96
REMARK SMILES IDX 56 97 57 98 58 99
REMARK H PARENT 16 8 23 33 82 52 50 63
REMARK Flexibility Score: inf
ROOT
ATOM      1  C   UNL A   1      32.823  29.837  25.720  1.00  0.00     0.002 C 
ENDROOT
BRANCH   1   2
ATOM      2  C   UNL A   1      31.380  29.325  25.618  1.00  0.00     0.002 C 
BRANCH   2   3
ATOM      3  C   UNL A   1      30.691  29.350  24.252  1.00  0.00     0.021 C 
BRANCH   3   4
ATOM      4  C   UNL A   1      30.788  28.105  23.375  1.00  0.00     0.116 C 
BRANCH   4   5
ATOM      5  N   UNL A   1      31.864  28.103  22.405  1.00  0.00    -0.352 N 
ATOM      6  C   UNL A   1      32.976  27.296  22.334  1.00  0.00     0.251 C 
ATOM      7  O   UNL A   1      33.773  27.443  21.408  1.00  0.00    -0.269 OA
ATOM      8  H   UNL A   1      31.788  28.777  21.691  1.00  0.00     0.163 HD
BRANCH   6   9
ATOM      9  C   UNL A   1      33.284  26.283  23.387  1.00  0.00     0.040 A 
ATOM     10  N   UNL A   1      34.629  23.485  26.264  1.00  0.00    -0.263 N 
ATOM     11  C   UNL A   1      34.032  24.446  25.355  1.00  0.00     0.055 A 
ATOM     12  C   UNL A   1      35.910  23.056  25.563  1.00  0.00     0.101 C 
ATOM     13  C   UNL A   1      32.926  25.248  25.574  1.00  0.00     0.028 A 
ATOM     14  C   UNL A   1      34.724  24.515  24.148  1.00  0.00    -0.021 A 
ATOM     15  C   UNL A   1      35.771  23.458  24.079  1.00  0.00     0.063 C 
ATOM     16  C   UNL A   1      37.086  23.800  26.207  1.00  0.00     0.032 C 
ATOM     17  C   UNL A   1      32.528  26.134  24.564  1.00  0.00     0.016 A 
ATOM     18  C   UNL A   1      34.371  25.425  23.160  1.00  0.00     0.019 A 
BRANCH  10  19
ATOM     19  S   UNL A   1      33.530  22.234  26.704  1.00  0.00     0.264 S 
ATOM     20  O   UNL A   1      32.247  22.848  26.981  1.00  0.00    -0.201 OA
ATOM     21  O   UNL A   1      34.179  21.395  27.697  1.00  0.00    -0.201 OA
BRANCH  19  22
ATOM     22  C   UNL A   1      33.256  21.150  25.306  1.00  0.00     0.088 A 
ATOM     23  C   UNL A   1      32.270  18.137  22.385  1.00  0.00     0.044 C 
ATOM     24  C   UNL A   1      32.655  19.200  23.370  1.00  0.00    -0.051 A 
ATOM     25  C   UNL A   1      33.481  18.885  24.453  1.00  0.00     0.005 A 
ATOM     26  C   UNL A   1      32.200  20.514  23.226  1.00  0.00     0.005 A 
ATOM     27  C   UNL A   1      33.778  19.852  25.416  1.00  0.00     0.022 A 
ATOM     28  C   UNL A   1      32.503  21.488  24.185  1.00  0.00     0.022 A 
ENDBRANCH  19  22
ENDBRANCH  10  19
ENDBRANCH   6   9
ENDBRANCH   4   5
ENDBRANCH   3   4
ENDBRANCH   2   3
ENDBRANCH   1   2
BRANCH   1  29
ATOM     29  C   UNL A   1      33.243  30.519  27.021  1.00  0.00     0.021 C 
BRANCH  29  30
ATOM     30  C   UNL A   1      34.727  30.840  27.146  1.00  0.00     0.116 C 
BRANCH  30  31
ATOM     31  N   UNL A   1      35.089  31.520  28.380  1.00  0.00    -0.352 N 
ATOM     32  C   UNL A   1      35.963  31.118  29.381  1.00  0.00     0.251 C 
ATOM     33  H   UNL A   1      34.653  32.391  28.526  1.00  0.00     0.163 HD
ATOM     34  O   UNL A   1      36.071  31.749  30.414  1.00  0.00    -0.269 OA
BRANCH  32  35
ATOM     35  C   UNL A   1      36.870  29.968  29.122  1.00  0.00     0.039 A 
ATOM     36  C   UNL A   1      37.096  29.082  30.183  1.00  0.00     0.014 A 
ATOM     37  C   UNL A   1      37.628  29.871  27.959  1.00  0.00     0.014 A 
ATOM     38  C   UNL A   1      38.224  28.265  30.170  1.00  0.00     0.010 A 
ATOM     39  C   UNL A   1      38.797  29.136  27.982  1.00  0.00     0.010 A 
ATOM     40  C   UNL A   1      39.125  28.381  29.112  1.00  0.00    -0.014 A 
BRANCH  40  41
ATOM     41  C   UNL A   1      40.483  27.854  29.158  1.00  0.00     0.031 A 
ATOM     42  C   UNL A   1      40.786  26.491  28.684  1.00  0.00     0.074 A 
ATOM     43  C   UNL A   1      41.488  28.649  29.586  1.00  0.00     0.049 A 
ATOM     44  N   UNL A   1      41.807  25.800  29.062  1.00  0.00    -0.248 NA
ATOM     45  C   UNL A   1      39.919  25.773  27.759  1.00  0.00     0.031 C 
ATOM     46  C   UNL A   1      42.923  28.412  29.470  1.00  0.00     0.029 A 
ATOM     47  N   UNL A   1      41.381  29.729  30.456  1.00  0.00    -0.354 N 
ATOM     48  C   UNL A   1      41.899  24.700  28.243  1.00  0.00     0.074 A 
ATOM     49  C   UNL A   1      40.660  24.693  27.497  1.00  0.00     0.031 C 
ATOM     50  C   UNL A   1      43.556  29.123  30.417  1.00  0.00     0.029 A 
ATOM     51  C   UNL A   1      42.536  29.728  31.256  1.00  0.00     0.049 A 
ATOM     52  H   UNL A   1      40.638  30.372  30.502  1.00  0.00     0.167 HD
ATOM     53  C   UNL A   1      43.070  24.001  28.191  1.00  0.00     0.034 A 
ATOM     54  C   UNL A   1      42.448  29.594  32.612  1.00  0.00     0.034 A 
ATOM     55  C   UNL A   1      44.052  24.525  29.141  1.00  0.00     0.049 A 
ATOM     56  C   UNL A   1      43.175  28.379  33.144  1.00  0.00     0.074 A 
ATOM     57  C   UNL A   1      45.157  25.349  29.000  1.00  0.00     0.029 A 
ATOM     58  N   UNL A   1      43.806  24.431  30.507  1.00  0.00    -0.354 N 
ATOM     59  N   UNL A   1      43.552  27.367  32.411  1.00  0.00    -0.248 NA
ATOM     60  C   UNL A   1      43.529  28.211  34.548  1.00  0.00     0.031 C 
ATOM     61  C   UNL A   1      45.545  25.790  30.293  1.00  0.00     0.029 A 
ATOM     62  C   UNL A   1      44.696  25.210  31.221  1.00  0.00     0.049 A 
ATOM     63  H   UNL A   1      43.093  23.885  30.911  1.00  0.00     0.167 HD
ATOM     64  C   UNL A   1      44.176  26.428  33.199  1.00  0.00     0.074 A 
ATOM     65  C   UNL A   1      44.152  27.019  34.527  1.00  0.00     0.031 C 
ATOM     66  C   UNL A   1      44.649  25.253  32.679  1.00  0.00     0.034 A 
BRANCH  53  67
ATOM     67  C   UNL A   1      43.433  23.044  27.072  1.00  0.00     0.023 A 
ATOM     68  C   UNL A   1      42.881  21.745  27.068  1.00  0.00     0.031 A 
ATOM     69  C   UNL A   1      44.333  23.315  26.025  1.00  0.00     0.131 A 
ATOM     70  C   UNL A   1      43.304  20.766  26.150  1.00  0.00     0.055 A 
ATOM     71  C   UNL A   1      44.801  22.327  25.147  1.00  0.00     0.041 A 
ATOM     72  F   UNL A   1      44.754  24.560  25.764  1.00  0.00    -0.206 F 
ATOM     73  C   UNL A   1      44.298  21.038  25.216  1.00  0.00     0.022 A 
BRANCH  70  74
ATOM     74  S   UNL A   1      42.530  19.124  26.186  1.00  0.00     0.124 S 
ATOM     75  O   UNL A   1      43.557  18.283  25.578  1.00  0.00    -0.237 OA
ATOM     76  O   UNL A   1      42.292  18.926  27.611  1.00  0.00    -0.237 OA
ATOM     77  O   UNL A   1      41.322  19.300  25.380  1.00  0.00    -0.744 OA
ENDBRANCH  70  74
ENDBRANCH  53  67
BRANCH  54  78
ATOM     78  C   UNL A   1      41.204  30.197  33.176  1.00  0.00     0.023 A 
ATOM     79  C   UNL A   1      41.154  31.607  33.242  1.00  0.00     0.031 A 
ATOM     80  C   UNL A   1      39.993  29.496  33.231  1.00  0.00     0.131 A 
ATOM     81  C   UNL A   1      39.926  32.277  33.163  1.00  0.00     0.055 A 
ATOM     82  C   UNL A   1      38.764  30.171  33.240  1.00  0.00     0.041 A 
ATOM     83  F   UNL A   1      39.971  28.157  33.144  1.00  0.00    -0.206 F 
ATOM     84  C   UNL A   1      38.727  31.565  33.154  1.00  0.00     0.022 A 
BRANCH  81  85
ATOM     85  S   UNL A   1      39.924  34.053  32.761  1.00  0.00     0.124 S 
ATOM     86  O   UNL A   1      39.073  34.602  33.810  1.00  0.00    -0.237 OA
ATOM     87  O   UNL A   1      41.340  34.410  32.839  1.00  0.00    -0.237 OA
ATOM     88  O   UNL A   1      39.372  34.097  31.409  1.00  0.00    -0.744 OA
ENDBRANCH  81  85
ENDBRANCH  54  78
BRANCH  66  89
ATOM     89  C   UNL A   1      45.191  24.061  33.456  1.00  0.00     0.023 A 
ATOM     90  C   UNL A   1      46.507  23.963  33.929  1.00  0.00     0.031 A 
ATOM     91  C   UNL A   1      44.346  22.974  33.807  1.00  0.00     0.131 A 
ATOM     92  C   UNL A   1      46.955  22.827  34.632  1.00  0.00     0.055 A 
ATOM     93  C   UNL A   1      44.773  21.879  34.566  1.00  0.00     0.041 A 
ATOM     94  F   UNL A   1      43.056  22.928  33.440  1.00  0.00    -0.206 F 
ATOM     95  C   UNL A   1      46.091  21.791  34.974  1.00  0.00     0.022 A 
BRANCH  92  96
ATOM     96  S   UNL A   1      48.716  22.714  35.049  1.00  0.00     0.124 S 
ATOM     97  O   UNL A   1      48.669  22.352  36.462  1.00  0.00    -0.237 OA
ATOM     98  O   UNL A   1      49.186  21.670  34.144  1.00  0.00    -0.237 OA
ATOM     99  O   UNL A   1      49.225  24.056  34.767  1.00  0.00    -0.744 OA
ENDBRANCH  92  96
ENDBRANCH  66  89
ENDBRANCH  40  41
ENDBRANCH  32  35
ENDBRANCH  30  31
ENDBRANCH  29  30
ENDBRANCH   1  29
TORSDOF 18
ENDMDL
