MODEL 1
REMARK VINA RESULT:      -9.5      0.000      0.000
REMARK SMILES Cc1ccc(S(=O)(=O)n2cc(C(=O)C(=O)NCC(=O)N[C@@H](Cc3c[nH]c4ccccc34)C(=O)NCCCCCCNC(=O)c3ccc(-c4c5nc(c(-c6cc(S(=O)(=O)[O-])ccc6F)c6ccc([nH]6)c(-c6cc(S(=O)(=O)[O-])ccc6F)c6nc(c(-c7cc(S(=O)(=O)[O-])ccc7F)c7ccc4[nH]7)C=C6)C=C5)cc3)c3ccccc32)cc1
REMARK SMILES IDX 35 1 34 2 32 3 33 4 21 6 20 7 18 8 19 9 17 11 16 12 14 13
REMARK SMILES IDX 15 14 12 16 13 17 11 18 9 19 10 20 112 21 107 22 111 23
REMARK SMILES IDX 108 24 110 25 109 26 6 27 7 28 8 29 5 30 1 31 2 32 3 33
REMARK SMILES IDX 114 34 4 35 113 36 22 37 23 38 24 39 31 40 25 41 26 42 30 43
REMARK SMILES IDX 27 45 29 46 28 47 36 48 37 49 38 50 39 51 40 52 41 53 42 54
REMARK SMILES IDX 43 56 44 57 45 58 106 59 46 60 105 61 47 62 48 63 49 64
REMARK SMILES IDX 99 65 50 66 104 67 98 68 100 69 51 70 103 71 97 72 96 73
REMARK SMILES IDX 52 75 84 76 64 77 83 78 65 79 68 80 82 81 101 82 66 83 67 84
REMARK SMILES IDX 81 86 102 87 69 88 53 89 54 90 62 91 55 92 61 93 63 94 60 95
REMARK SMILES IDX 56 96 57 97 58 98 59 99 85 100 86 101 94 102 87 103 93 104
REMARK SMILES IDX 95 105 92 106 88 107 89 108 90 109 91 110 70 111 71 112
REMARK SMILES IDX 79 113 72 114 78 115 80 116 77 117 73 118 74 119 75 120
REMARK SMILES IDX 76 121
REMARK H PARENT 34 5 20 10 16 15 25 44 41 55 100 74 68 85
REMARK Flexibility Score: inf
ROOT
ATOM      1  C   UNL A   1      38.770  33.762  31.186  1.00  0.00     0.116 C 
ENDROOT
BRANCH   1   2
ATOM      2  N   UNL A   1      38.544  34.657  32.302  1.00  0.00    -0.354 N 
ATOM      3  C   UNL A   1      38.253  34.384  33.604  1.00  0.00     0.242 C 
ATOM      4  O   UNL A   1      38.526  35.259  34.437  1.00  0.00    -0.273 OA
ATOM      5  H   UNL A   1      38.612  35.615  32.085  1.00  0.00     0.163 HD
BRANCH   3   6
ATOM      6  C   UNL A   1      37.700  33.030  34.116  1.00  0.00     0.175 C 
BRANCH   6   7
ATOM      7  N   UNL A   1      37.944  32.695  35.519  1.00  0.00    -0.342 N 
ATOM      8  C   UNL A   1      39.146  32.413  36.116  1.00  0.00     0.240 C 
ATOM      9  O   UNL A   1      39.187  32.297  37.341  1.00  0.00    -0.273 OA
ATOM     10  H   UNL A   1      37.153  32.669  36.104  1.00  0.00     0.164 HD
BRANCH   8  11
ATOM     11  C   UNL A   1      40.408  32.233  35.250  1.00  0.00     0.216 C 
BRANCH  11  12
ATOM     12  N   UNL A   1      41.467  31.582  36.029  1.00  0.00    -0.340 N 
ATOM     13  C   UNL A   1      41.746  30.233  36.135  1.00  0.00     0.292 C 
ATOM     14  O   UNL A   1      42.600  29.818  36.910  1.00  0.00    -0.265 OA
ATOM     15  H   UNL A   1      42.052  32.185  36.542  1.00  0.00     0.164 HD
BRANCH  13  16
ATOM     16  C   UNL A   1      40.972  29.245  35.258  1.00  0.00     0.252 C 
ATOM     17  O   UNL A   1      40.909  28.085  35.666  1.00  0.00    -0.283 OA
BRANCH  16  18
ATOM     18  C   UNL A   1      40.467  29.635  33.935  1.00  0.00     0.054 A 
ATOM     19  N   UNL A   1      39.212  30.232  32.156  1.00  0.00    -0.240 N 
ATOM     20  C   UNL A   1      39.163  29.907  33.509  1.00  0.00     0.117 A 
ATOM     21  C   UNL A   1      40.557  30.378  31.796  1.00  0.00     0.065 A 
ATOM     22  C   UNL A   1      41.296  29.719  32.775  1.00  0.00     0.012 A 
ATOM     23  C   UNL A   1      41.150  30.814  30.597  1.00  0.00     0.028 A 
ATOM     24  C   UNL A   1      42.618  29.328  32.473  1.00  0.00     0.011 A 
ATOM     25  C   UNL A   1      42.441  30.379  30.303  1.00  0.00     0.002 A 
ATOM     26  C   UNL A   1      43.153  29.609  31.213  1.00  0.00     0.001 A 
BRANCH  19  27
ATOM     27  S   UNL A   1      38.275  29.459  30.906  1.00  0.00     0.268 S 
ATOM     28  O   UNL A   1      37.860  30.566  30.059  1.00  0.00    -0.201 OA
ATOM     29  O   UNL A   1      37.303  28.671  31.650  1.00  0.00    -0.201 OA
BRANCH  27  30
ATOM     30  C   UNL A   1      38.938  28.263  29.801  1.00  0.00     0.088 A 
ATOM     31  C   UNL A   1      40.366  25.982  26.425  1.00  0.00     0.044 C 
ATOM     32  C   UNL A   1      39.909  26.753  27.629  1.00  0.00    -0.051 A 
ATOM     33  C   UNL A   1      39.698  28.117  27.475  1.00  0.00     0.005 A 
ATOM     34  C   UNL A   1      39.636  26.156  28.880  1.00  0.00     0.005 A 
ATOM     35  C   UNL A   1      39.231  28.855  28.548  1.00  0.00     0.022 A 
ATOM     36  C   UNL A   1      39.144  26.905  29.977  1.00  0.00     0.022 A 
ENDBRANCH  27  30
ENDBRANCH  19  27
ENDBRANCH  16  18
ENDBRANCH  13  16
ENDBRANCH  11  12
ENDBRANCH   8  11
ENDBRANCH   6   7
BRANCH   6  37
ATOM     37  C   UNL A   1      36.283  32.664  33.640  1.00  0.00     0.072 C 
BRANCH  37  38
ATOM     38  C   UNL A   1      35.345  33.794  33.361  1.00  0.00    -0.020 A 
ATOM     39  C   UNL A   1      34.923  34.722  34.294  1.00  0.00     0.087 A 
ATOM     40  C   UNL A   1      34.776  34.188  32.104  1.00  0.00     0.003 A 
ATOM     41  N   UNL A   1      34.043  35.577  33.690  1.00  0.00    -0.361 N 
ATOM     42  C   UNL A   1      33.939  35.278  32.353  1.00  0.00     0.046 A 
ATOM     43  C   UNL A   1      34.889  33.728  30.775  1.00  0.00     0.010 A 
ATOM     44  H   UNL A   1      33.556  36.300  34.146  1.00  0.00     0.166 HD
ATOM     45  C   UNL A   1      33.174  35.896  31.357  1.00  0.00     0.026 A 
ATOM     46  C   UNL A   1      34.161  34.362  29.759  1.00  0.00     0.001 A 
ATOM     47  C   UNL A   1      33.306  35.421  30.050  1.00  0.00     0.002 A 
ENDBRANCH  37  38
ENDBRANCH   6  37
ENDBRANCH   3   6
ENDBRANCH   1   2
BRANCH   1  48
ATOM     48  C   UNL A   1      39.024  34.457  29.849  1.00  0.00     0.021 C 
BRANCH  48  49
ATOM     49  C   UNL A   1      40.441  34.983  29.581  1.00  0.00     0.002 C 
BRANCH  49  50
ATOM     50  C   UNL A   1      40.784  35.487  28.171  1.00  0.00     0.002 C 
BRANCH  50  51
ATOM     51  C   UNL A   1      41.747  36.668  28.064  1.00  0.00     0.021 C 
BRANCH  51  52
ATOM     52  C   UNL A   1      42.531  36.758  26.761  1.00  0.00     0.116 C 
BRANCH  52  53
ATOM     53  N   UNL A   1      43.973  36.908  26.939  1.00  0.00    -0.352 N 
ATOM     54  C   UNL A   1      44.909  35.925  27.237  1.00  0.00     0.251 C 
ATOM     55  H   UNL A   1      44.327  37.821  26.833  1.00  0.00     0.163 HD
ATOM     56  O   UNL A   1      46.087  36.172  27.400  1.00  0.00    -0.269 OA
BRANCH  54  57
ATOM     57  C   UNL A   1      44.444  34.516  27.218  1.00  0.00     0.039 A 
ATOM     58  C   UNL A   1      43.982  33.988  28.428  1.00  0.00     0.014 A 
ATOM     59  C   UNL A   1      44.750  33.684  26.146  1.00  0.00     0.014 A 
ATOM     60  C   UNL A   1      44.071  32.616  28.645  1.00  0.00     0.010 A 
ATOM     61  C   UNL A   1      44.933  32.336  26.394  1.00  0.00     0.010 A 
ATOM     62  C   UNL A   1      44.663  31.815  27.666  1.00  0.00    -0.014 A 
BRANCH  62  63
ATOM     63  C   UNL A   1      45.207  30.492  27.966  1.00  0.00     0.031 A 
ATOM     64  C   UNL A   1      44.480  29.257  27.608  1.00  0.00     0.074 A 
ATOM     65  C   UNL A   1      46.404  30.380  28.587  1.00  0.00     0.049 A 
ATOM     66  N   UNL A   1      44.575  28.153  28.270  1.00  0.00    -0.248 NA
ATOM     67  C   UNL A   1      43.551  29.178  26.486  1.00  0.00     0.031 C 
ATOM     68  C   UNL A   1      47.199  29.167  28.765  1.00  0.00     0.029 A 
ATOM     69  N   UNL A   1      47.029  31.321  29.399  1.00  0.00    -0.354 N 
ATOM     70  C   UNL A   1      43.964  27.171  27.530  1.00  0.00     0.074 A 
ATOM     71  C   UNL A   1      43.286  27.868  26.459  1.00  0.00     0.031 C 
ATOM     72  C   UNL A   1      48.035  29.342  29.798  1.00  0.00     0.029 A 
ATOM     73  C   UNL A   1      47.725  30.625  30.401  1.00  0.00     0.049 A 
ATOM     74  H   UNL A   1      46.989  32.298  29.292  1.00  0.00     0.167 HD
ATOM     75  C   UNL A   1      44.200  25.858  27.802  1.00  0.00     0.034 A 
ATOM     76  C   UNL A   1      47.477  30.841  31.724  1.00  0.00     0.034 A 
ATOM     77  C   UNL A   1      45.124  25.677  28.913  1.00  0.00     0.049 A 
ATOM     78  C   UNL A   1      47.011  29.605  32.462  1.00  0.00     0.074 A 
ATOM     79  C   UNL A   1      46.483  25.423  28.971  1.00  0.00     0.029 A 
ATOM     80  N   UNL A   1      44.733  26.026  30.200  1.00  0.00    -0.354 N 
ATOM     81  N   UNL A   1      46.595  28.518  31.871  1.00  0.00    -0.248 NA
ATOM     82  C   UNL A   1      46.952  29.501  33.916  1.00  0.00     0.031 C 
ATOM     83  C   UNL A   1      46.922  25.677  30.294  1.00  0.00     0.029 A 
ATOM     84  C   UNL A   1      45.824  26.053  31.047  1.00  0.00     0.049 A 
ATOM     85  H   UNL A   1      43.807  26.227  30.470  1.00  0.00     0.167 HD
ATOM     86  C   UNL A   1      46.196  27.603  32.812  1.00  0.00     0.074 A 
ATOM     87  C   UNL A   1      46.467  28.257  34.079  1.00  0.00     0.031 C 
ATOM     88  C   UNL A   1      45.666  26.393  32.455  1.00  0.00     0.034 A 
BRANCH  75  89
ATOM     89  C   UNL A   1      43.821  24.761  26.844  1.00  0.00     0.023 A 
ATOM     90  C   UNL A   1      42.900  23.772  27.240  1.00  0.00     0.031 A 
ATOM     91  C   UNL A   1      44.355  24.627  25.550  1.00  0.00     0.131 A 
ATOM     92  C   UNL A   1      42.619  22.667  26.418  1.00  0.00     0.055 A 
ATOM     93  C   UNL A   1      44.119  23.500  24.752  1.00  0.00     0.041 A 
ATOM     94  F   UNL A   1      45.116  25.591  25.009  1.00  0.00    -0.206 F 
ATOM     95  C   UNL A   1      43.256  22.504  25.190  1.00  0.00     0.022 A 
BRANCH  92  96
ATOM     96  S   UNL A   1      41.403  21.442  26.979  1.00  0.00     0.124 S 
ATOM     97  O   UNL A   1      42.180  20.641  27.919  1.00  0.00    -0.237 OA
ATOM     98  O   UNL A   1      40.362  22.284  27.557  1.00  0.00    -0.237 OA
ATOM     99  O   UNL A   1      41.025  20.752  25.747  1.00  0.00    -0.744 OA
ENDBRANCH  92  96
ENDBRANCH  75  89
BRANCH  76 100
ATOM    100  C   UNL A   1      47.076  32.244  32.023  1.00  0.00     0.023 A 
ATOM    101  C   UNL A   1      45.741  32.450  32.438  1.00  0.00     0.031 A 
ATOM    102  C   UNL A   1      48.012  33.247  32.304  1.00  0.00     0.131 A 
ATOM    103  C   UNL A   1      45.417  33.531  33.268  1.00  0.00     0.055 A 
ATOM    104  C   UNL A   1      47.664  34.369  33.068  1.00  0.00     0.041 A 
ATOM    105  F   UNL A   1      49.299  33.096  31.961  1.00  0.00    -0.206 F 
ATOM    106  C   UNL A   1      46.376  34.490  33.594  1.00  0.00     0.022 A 
BRANCH 103 107
ATOM    107  S   UNL A   1      43.822  33.523  34.147  1.00  0.00     0.124 S 
ATOM    108  O   UNL A   1      42.970  32.778  33.229  1.00  0.00    -0.237 OA
ATOM    109  O   UNL A   1      44.139  32.851  35.405  1.00  0.00    -0.237 OA
ATOM    110  O   UNL A   1      43.513  34.944  34.292  1.00  0.00    -0.744 OA
ENDBRANCH 103 107
ENDBRANCH  76 100
BRANCH  88 111
ATOM    111  C   UNL A   1      45.029  25.379  33.385  1.00  0.00     0.023 A 
ATOM    112  C   UNL A   1      45.707  24.266  33.903  1.00  0.00     0.031 A 
ATOM    113  C   UNL A   1      43.699  25.552  33.848  1.00  0.00     0.131 A 
ATOM    114  C   UNL A   1      45.061  23.350  34.756  1.00  0.00     0.055 A 
ATOM    115  C   UNL A   1      43.085  24.684  34.757  1.00  0.00     0.041 A 
ATOM    116  F   UNL A   1      42.937  26.578  33.444  1.00  0.00    -0.206 F 
ATOM    117  C   UNL A   1      43.761  23.562  35.207  1.00  0.00     0.022 A 
BRANCH 114 118
ATOM    118  S   UNL A   1      45.945  21.836  35.219  1.00  0.00     0.124 S 
ATOM    119  O   UNL A   1      44.955  20.807  34.908  1.00  0.00    -0.237 OA
ATOM    120  O   UNL A   1      47.112  21.875  34.346  1.00  0.00    -0.237 OA
ATOM    121  O   UNL A   1      46.223  22.019  36.641  1.00  0.00    -0.744 OA
ENDBRANCH 114 118
ENDBRANCH  88 111
ENDBRANCH  62  63
ENDBRANCH  54  57
ENDBRANCH  52  53
ENDBRANCH  51  52
ENDBRANCH  50  51
ENDBRANCH  49  50
ENDBRANCH  48  49
ENDBRANCH   1  48
TORSDOF 25
ENDMDL
MODEL 2
REMARK VINA RESULT:      -8.3      4.749      9.878
REMARK SMILES Cc1ccc(S(=O)(=O)n2cc(C(=O)C(=O)NCC(=O)N[C@@H](Cc3c[nH]c4ccccc34)C(=O)NCCCCCCNC(=O)c3ccc(-c4c5nc(c(-c6cc(S(=O)(=O)[O-])ccc6F)c6ccc([nH]6)c(-c6cc(S(=O)(=O)[O-])ccc6F)c6nc(c(-c7cc(S(=O)(=O)[O-])ccc7F)c7ccc4[nH]7)C=C6)C=C5)cc3)c3ccccc32)cc1
REMARK SMILES IDX 35 1 34 2 32 3 33 4 21 6 20 7 18 8 19 9 17 11 16 12 14 13
REMARK SMILES IDX 15 14 12 16 13 17 11 18 9 19 10 20 112 21 107 22 111 23
REMARK SMILES IDX 108 24 110 25 109 26 6 27 7 28 8 29 5 30 1 31 2 32 3 33
REMARK SMILES IDX 114 34 4 35 113 36 22 37 23 38 24 39 31 40 25 41 26 42 30 43
REMARK SMILES IDX 27 45 29 46 28 47 36 48 37 49 38 50 39 51 40 52 41 53 42 54
REMARK SMILES IDX 43 56 44 57 45 58 106 59 46 60 105 61 47 62 48 63 49 64
REMARK SMILES IDX 99 65 50 66 104 67 98 68 100 69 51 70 103 71 97 72 96 73
REMARK SMILES IDX 52 75 84 76 64 77 83 78 65 79 68 80 82 81 101 82 66 83 67 84
REMARK SMILES IDX 81 86 102 87 69 88 53 89 54 90 62 91 55 92 61 93 63 94 60 95
REMARK SMILES IDX 56 96 57 97 58 98 59 99 85 100 86 101 94 102 87 103 93 104
REMARK SMILES IDX 95 105 92 106 88 107 89 108 90 109 91 110 70 111 71 112
REMARK SMILES IDX 79 113 72 114 78 115 80 116 77 117 73 118 74 119 75 120
REMARK SMILES IDX 76 121
REMARK H PARENT 34 5 20 10 16 15 25 44 41 55 100 74 68 85
REMARK Flexibility Score: inf
ROOT
ATOM      1  C   UNL A   1      42.273  30.367  29.630  1.00  0.00     0.116 C 
ENDROOT
BRANCH   1   2
ATOM      2  N   UNL A   1      41.227  31.350  29.825  1.00  0.00    -0.354 N 
ATOM      3  C   UNL A   1      39.880  31.189  29.948  1.00  0.00     0.242 C 
ATOM      4  O   UNL A   1      39.256  32.092  30.523  1.00  0.00    -0.273 OA
ATOM      5  H   UNL A   1      41.539  32.282  29.876  1.00  0.00     0.163 HD
BRANCH   3   6
ATOM      6  C   UNL A   1      39.102  29.924  29.508  1.00  0.00     0.175 C 
BRANCH   6   7
ATOM      7  N   UNL A   1      37.866  29.614  30.228  1.00  0.00    -0.342 N 
ATOM      8  C   UNL A   1      36.583  29.935  29.867  1.00  0.00     0.240 C 
ATOM      9  O   UNL A   1      35.649  29.466  30.517  1.00  0.00    -0.273 OA
ATOM     10  H   UNL A   1      37.968  29.115  31.071  1.00  0.00     0.164 HD
BRANCH   8  11
ATOM     11  C   UNL A   1      36.338  30.883  28.677  1.00  0.00     0.216 C 
BRANCH  11  12
ATOM     12  N   UNL A   1      34.914  31.222  28.588  1.00  0.00    -0.340 N 
ATOM     13  C   UNL A   1      33.941  30.634  27.802  1.00  0.00     0.292 C 
ATOM     14  O   UNL A   1      32.804  31.090  27.746  1.00  0.00    -0.265 OA
ATOM     15  H   UNL A   1      34.613  31.964  29.161  1.00  0.00     0.164 HD
BRANCH  13  16
ATOM     16  C   UNL A   1      34.298  29.386  26.991  1.00  0.00     0.252 C 
ATOM     17  O   UNL A   1      35.482  29.259  26.676  1.00  0.00    -0.283 OA
BRANCH  16  18
ATOM     18  C   UNL A   1      33.258  28.476  26.495  1.00  0.00     0.054 A 
ATOM     19  N   UNL A   1      31.663  26.897  26.245  1.00  0.00    -0.240 N 
ATOM     20  C   UNL A   1      32.533  27.482  27.161  1.00  0.00     0.117 A 
ATOM     21  C   UNL A   1      31.687  27.667  25.076  1.00  0.00     0.065 A 
ATOM     22  C   UNL A   1      32.862  28.412  25.125  1.00  0.00     0.012 A 
ATOM     23  C   UNL A   1      30.914  27.589  23.902  1.00  0.00     0.028 A 
ATOM     24  C   UNL A   1      33.372  28.946  23.922  1.00  0.00     0.011 A 
ATOM     25  C   UNL A   1      31.459  28.086  22.720  1.00  0.00     0.002 A 
ATOM     26  C   UNL A   1      32.693  28.721  22.721  1.00  0.00     0.001 A 
BRANCH  19  27
ATOM     27  S   UNL A   1      31.562  25.191  25.909  1.00  0.00     0.268 S 
ATOM     28  O   UNL A   1      30.385  25.079  25.062  1.00  0.00    -0.201 OA
ATOM     29  O   UNL A   1      31.601  24.582  27.231  1.00  0.00    -0.201 OA
BRANCH  27  30
ATOM     30  C   UNL A   1      32.818  24.296  25.064  1.00  0.00     0.088 A 
ATOM     31  C   UNL A   1      36.456  22.827  23.262  1.00  0.00     0.044 C 
ATOM     32  C   UNL A   1      35.177  23.287  23.899  1.00  0.00    -0.051 A 
ATOM     33  C   UNL A   1      35.260  24.298  24.847  1.00  0.00     0.005 A 
ATOM     34  C   UNL A   1      33.905  22.783  23.546  1.00  0.00     0.005 A 
ATOM     35  C   UNL A   1      34.099  24.782  25.423  1.00  0.00     0.022 A 
ATOM     36  C   UNL A   1      32.713  23.286  24.123  1.00  0.00     0.022 A 
ENDBRANCH  27  30
ENDBRANCH  19  27
ENDBRANCH  16  18
ENDBRANCH  13  16
ENDBRANCH  11  12
ENDBRANCH   8  11
ENDBRANCH   6   7
BRANCH   6  37
ATOM     37  C   UNL A   1      38.995  29.699  27.990  1.00  0.00     0.072 C 
BRANCH  37  38
ATOM     38  C   UNL A   1      39.941  28.716  27.379  1.00  0.00    -0.020 A 
ATOM     39  C   UNL A   1      40.979  29.041  26.525  1.00  0.00     0.087 A 
ATOM     40  C   UNL A   1      40.024  27.301  27.604  1.00  0.00     0.003 A 
ATOM     41  N   UNL A   1      41.601  27.887  26.138  1.00  0.00    -0.361 N 
ATOM     42  C   UNL A   1      41.043  26.811  26.785  1.00  0.00     0.046 A 
ATOM     43  C   UNL A   1      39.334  26.385  28.426  1.00  0.00     0.010 A 
ATOM     44  H   UNL A   1      42.341  27.834  25.491  1.00  0.00     0.166 HD
ATOM     45  C   UNL A   1      41.372  25.452  26.707  1.00  0.00     0.026 A 
ATOM     46  C   UNL A   1      39.678  25.027  28.390  1.00  0.00     0.001 A 
ATOM     47  C   UNL A   1      40.673  24.568  27.531  1.00  0.00     0.002 A 
ENDBRANCH  37  38
ENDBRANCH   6  37
ENDBRANCH   3   6
ENDBRANCH   1   2
BRANCH   1  48
ATOM     48  C   UNL A   1      43.357  30.775  28.635  1.00  0.00     0.021 C 
BRANCH  48  49
ATOM     49  C   UNL A   1      44.819  30.639  29.082  1.00  0.00     0.002 C 
BRANCH  49  50
ATOM     50  C   UNL A   1      45.819  29.960  28.133  1.00  0.00     0.002 C 
BRANCH  50  51
ATOM     51  C   UNL A   1      46.138  28.488  28.389  1.00  0.00     0.021 C 
BRANCH  51  52
ATOM     52  C   UNL A   1      45.152  27.491  27.792  1.00  0.00     0.116 C 
BRANCH  52  53
ATOM     53  N   UNL A   1      45.755  26.530  26.872  1.00  0.00    -0.352 N 
ATOM     54  C   UNL A   1      46.334  25.302  27.169  1.00  0.00     0.251 C 
ATOM     55  H   UNL A   1      45.750  26.785  25.921  1.00  0.00     0.163 HD
ATOM     56  O   UNL A   1      46.842  24.597  26.321  1.00  0.00    -0.269 OA
BRANCH  54  57
ATOM     57  C   UNL A   1      46.192  24.803  28.560  1.00  0.00     0.039 A 
ATOM     58  C   UNL A   1      45.066  24.023  28.839  1.00  0.00     0.014 A 
ATOM     59  C   UNL A   1      46.959  25.344  29.587  1.00  0.00     0.014 A 
ATOM     60  C   UNL A   1      44.564  24.000  30.136  1.00  0.00     0.010 A 
ATOM     61  C   UNL A   1      46.407  25.404  30.854  1.00  0.00     0.010 A 
ATOM     62  C   UNL A   1      45.173  24.794  31.110  1.00  0.00    -0.014 A 
BRANCH  62  63
ATOM     63  C   UNL A   1      44.484  25.190  32.337  1.00  0.00     0.031 A 
ATOM     64  C   UNL A   1      44.217  26.608  32.651  1.00  0.00     0.074 A 
ATOM     65  C   UNL A   1      44.076  24.246  33.216  1.00  0.00     0.049 A 
ATOM     66  N   UNL A   1      44.141  27.073  33.853  1.00  0.00    -0.248 NA
ATOM     67  C   UNL A   1      44.049  27.632  31.626  1.00  0.00     0.031 C 
ATOM     68  C   UNL A   1      43.192  24.429  34.365  1.00  0.00     0.029 A 
ATOM     69  N   UNL A   1      44.585  22.961  33.377  1.00  0.00    -0.354 N 
ATOM     70  C   UNL A   1      43.653  28.353  33.773  1.00  0.00     0.074 A 
ATOM     71  C   UNL A   1      43.672  28.680  32.364  1.00  0.00     0.031 C 
ATOM     72  C   UNL A   1      43.400  23.432  35.237  1.00  0.00     0.029 A 
ATOM     73  C   UNL A   1      44.510  22.640  34.742  1.00  0.00     0.049 A 
ATOM     74  H   UNL A   1      44.936  22.382  32.663  1.00  0.00     0.167 HD
ATOM     75  C   UNL A   1      43.148  28.968  34.878  1.00  0.00     0.034 A 
ATOM     76  C   UNL A   1      45.620  22.296  35.457  1.00  0.00     0.034 A 
ATOM     77  C   UNL A   1      43.207  28.120  36.062  1.00  0.00     0.049 A 
ATOM     78  C   UNL A   1      45.899  23.219  36.622  1.00  0.00     0.074 A 
ATOM     79  C   UNL A   1      42.269  27.315  36.686  1.00  0.00     0.029 A 
ATOM     80  N   UNL A   1      44.438  27.799  36.621  1.00  0.00    -0.354 N 
ATOM     81  N   UNL A   1      45.341  24.388  36.775  1.00  0.00    -0.248 NA
ATOM     82  C   UNL A   1      46.843  22.913  37.692  1.00  0.00     0.031 C 
ATOM     83  C   UNL A   1      42.954  26.463  37.589  1.00  0.00     0.029 A 
ATOM     84  C   UNL A   1      44.301  26.774  37.536  1.00  0.00     0.049 A 
ATOM     85  H   UNL A   1      45.289  28.241  36.395  1.00  0.00     0.167 HD
ATOM     86  C   UNL A   1      45.840  24.998  37.898  1.00  0.00     0.074 A 
ATOM     87  C   UNL A   1      46.757  24.019  38.453  1.00  0.00     0.031 C 
ATOM     88  C   UNL A   1      45.458  26.261  38.259  1.00  0.00     0.034 A 
BRANCH  75  89
ATOM     89  C   UNL A   1      42.323  30.223  34.791  1.00  0.00     0.023 A 
ATOM     90  C   UNL A   1      40.918  30.138  34.764  1.00  0.00     0.031 A 
ATOM     91  C   UNL A   1      42.867  31.517  34.701  1.00  0.00     0.131 A 
ATOM     92  C   UNL A   1      40.123  31.279  34.557  1.00  0.00     0.055 A 
ATOM     93  C   UNL A   1      42.080  32.647  34.441  1.00  0.00     0.041 A 
ATOM     94  F   UNL A   1      44.180  31.732  34.875  1.00  0.00    -0.206 F 
ATOM     95  C   UNL A   1      40.700  32.530  34.354  1.00  0.00     0.022 A 
BRANCH  92  96
ATOM     96  S   UNL A   1      38.316  31.103  34.558  1.00  0.00     0.124 S 
ATOM     97  O   UNL A   1      37.869  32.487  34.667  1.00  0.00    -0.237 OA
ATOM     98  O   UNL A   1      38.070  30.445  33.280  1.00  0.00    -0.237 OA
ATOM     99  O   UNL A   1      38.059  30.277  35.736  1.00  0.00    -0.744 OA
ENDBRANCH  92  96
ENDBRANCH  75  89
BRANCH  76 100
ATOM    100  C   UNL A   1      46.640  21.576  34.643  1.00  0.00     0.023 A 
ATOM    101  C   UNL A   1      47.826  22.282  34.342  1.00  0.00     0.031 A 
ATOM    102  C   UNL A   1      46.659  20.181  34.531  1.00  0.00     0.131 A 
ATOM    103  C   UNL A   1      49.025  21.590  34.127  1.00  0.00     0.055 A 
ATOM    104  C   UNL A   1      47.845  19.495  34.238  1.00  0.00     0.041 A 
ATOM    105  F   UNL A   1      45.573  19.455  34.832  1.00  0.00    -0.206 F 
ATOM    106  C   UNL A   1      49.044  20.196  34.082  1.00  0.00     0.022 A 
BRANCH 103 107
ATOM    107  S   UNL A   1      50.597  22.505  34.194  1.00  0.00     0.124 S 
ATOM    108  O   UNL A   1      50.779  22.903  32.803  1.00  0.00    -0.237 OA
ATOM    109  O   UNL A   1      50.313  23.589  35.131  1.00  0.00    -0.237 OA
ATOM    110  O   UNL A   1      51.542  21.512  34.700  1.00  0.00    -0.744 OA
ENDBRANCH 103 107
ENDBRANCH  76 100
BRANCH  88 111
ATOM    111  C   UNL A   1      46.062  27.104  39.364  1.00  0.00     0.023 A 
ATOM    112  C   UNL A   1      45.375  27.463  40.533  1.00  0.00     0.031 A 
ATOM    113  C   UNL A   1      47.417  27.523  39.302  1.00  0.00     0.131 A 
ATOM    114  C   UNL A   1      45.984  28.257  41.524  1.00  0.00     0.055 A 
ATOM    115  C   UNL A   1      48.044  28.245  40.323  1.00  0.00     0.041 A 
ATOM    116  F   UNL A   1      48.196  27.241  38.248  1.00  0.00    -0.206 F 
ATOM    117  C   UNL A   1      47.322  28.633  41.439  1.00  0.00     0.022 A 
BRANCH 114 118
ATOM    118  S   UNL A   1      44.964  28.841  42.904  1.00  0.00     0.124 S 
ATOM    119  O   UNL A   1      45.522  30.170  43.145  1.00  0.00    -0.237 OA
ATOM    120  O   UNL A   1      43.621  28.812  42.336  1.00  0.00    -0.237 OA
ATOM    121  O   UNL A   1      45.216  27.862  43.959  1.00  0.00    -0.744 OA
ENDBRANCH 114 118
ENDBRANCH  88 111
ENDBRANCH  62  63
ENDBRANCH  54  57
ENDBRANCH  52  53
ENDBRANCH  51  52
ENDBRANCH  50  51
ENDBRANCH  49  50
ENDBRANCH  48  49
ENDBRANCH   1  48
TORSDOF 25
ENDMDL
MODEL 3
REMARK VINA RESULT:      -8.2      4.764     11.286
REMARK SMILES Cc1ccc(S(=O)(=O)n2cc(C(=O)C(=O)NCC(=O)N[C@@H](Cc3c[nH]c4ccccc34)C(=O)NCCCCCCNC(=O)c3ccc(-c4c5nc(c(-c6cc(S(=O)(=O)[O-])ccc6F)c6ccc([nH]6)c(-c6cc(S(=O)(=O)[O-])ccc6F)c6nc(c(-c7cc(S(=O)(=O)[O-])ccc7F)c7ccc4[nH]7)C=C6)C=C5)cc3)c3ccccc32)cc1
REMARK SMILES IDX 35 1 34 2 32 3 33 4 21 6 20 7 18 8 19 9 17 11 16 12 14 13
REMARK SMILES IDX 15 14 12 16 13 17 11 18 9 19 10 20 112 21 107 22 111 23
REMARK SMILES IDX 108 24 110 25 109 26 6 27 7 28 8 29 5 30 1 31 2 32 3 33
REMARK SMILES IDX 114 34 4 35 113 36 22 37 23 38 24 39 31 40 25 41 26 42 30 43
REMARK SMILES IDX 27 45 29 46 28 47 36 48 37 49 38 50 39 51 40 52 41 53 42 54
REMARK SMILES IDX 43 56 44 57 45 58 106 59 46 60 105 61 47 62 48 63 49 64
REMARK SMILES IDX 99 65 50 66 104 67 98 68 100 69 51 70 103 71 97 72 96 73
REMARK SMILES IDX 52 75 84 76 64 77 83 78 65 79 68 80 82 81 101 82 66 83 67 84
REMARK SMILES IDX 81 86 102 87 69 88 53 89 54 90 62 91 55 92 61 93 63 94 60 95
REMARK SMILES IDX 56 96 57 97 58 98 59 99 85 100 86 101 94 102 87 103 93 104
REMARK SMILES IDX 95 105 92 106 88 107 89 108 90 109 91 110 70 111 71 112
REMARK SMILES IDX 79 113 72 114 78 115 80 116 77 117 73 118 74 119 75 120
REMARK SMILES IDX 76 121
REMARK H PARENT 34 5 20 10 16 15 25 44 41 55 100 74 68 85
REMARK Flexibility Score: inf
ROOT
ATOM      1  C   UNL A   1      36.989  30.294  31.411  1.00  0.00     0.116 C 
ENDROOT
BRANCH   1   2
ATOM      2  N   UNL A   1      35.932  31.101  31.986  1.00  0.00    -0.354 N 
ATOM      3  C   UNL A   1      35.247  32.155  31.462  1.00  0.00     0.242 C 
ATOM      4  O   UNL A   1      34.133  32.398  31.946  1.00  0.00    -0.273 OA
ATOM      5  H   UNL A   1      35.666  30.847  32.899  1.00  0.00     0.163 HD
BRANCH   3   6
ATOM      6  C   UNL A   1      35.722  32.998  30.252  1.00  0.00     0.175 C 
BRANCH   6   7
ATOM      7  N   UNL A   1      34.778  33.973  29.703  1.00  0.00    -0.342 N 
ATOM      8  C   UNL A   1      33.778  33.749  28.793  1.00  0.00     0.240 C 
ATOM      9  O   UNL A   1      32.981  34.655  28.552  1.00  0.00    -0.273 OA
ATOM     10  H   UNL A   1      34.873  34.898  30.025  1.00  0.00     0.164 HD
BRANCH   8  11
ATOM     11  C   UNL A   1      33.680  32.384  28.084  1.00  0.00     0.216 C 
BRANCH  11  12
ATOM     12  N   UNL A   1      32.437  32.306  27.308  1.00  0.00    -0.340 N 
ATOM     13  C   UNL A   1      31.917  31.219  26.630  1.00  0.00     0.292 C 
ATOM     14  O   UNL A   1      30.916  31.324  25.930  1.00  0.00    -0.265 OA
ATOM     15  H   UNL A   1      31.907  33.134  27.265  1.00  0.00     0.164 HD
BRANCH  13  16
ATOM     16  C   UNL A   1      32.610  29.861  26.767  1.00  0.00     0.252 C 
ATOM     17  O   UNL A   1      33.767  29.877  27.187  1.00  0.00    -0.283 OA
BRANCH  16  18
ATOM     18  C   UNL A   1      31.974  28.630  26.280  1.00  0.00     0.054 A 
ATOM     19  N   UNL A   1      31.001  26.605  26.057  1.00  0.00    -0.240 N 
ATOM     20  C   UNL A   1      31.534  27.501  26.979  1.00  0.00     0.117 A 
ATOM     21  C   UNL A   1      30.908  27.259  24.823  1.00  0.00     0.065 A 
ATOM     22  C   UNL A   1      31.772  28.349  24.894  1.00  0.00     0.012 A 
ATOM     23  C   UNL A   1      30.335  26.855  23.603  1.00  0.00     0.028 A 
ATOM     24  C   UNL A   1      32.215  28.938  23.691  1.00  0.00     0.011 A 
ATOM     25  C   UNL A   1      30.820  27.422  22.427  1.00  0.00     0.002 A 
ATOM     26  C   UNL A   1      31.780  28.423  22.466  1.00  0.00     0.001 A 
BRANCH  19  27
ATOM     27  S   UNL A   1      31.486  24.940  25.884  1.00  0.00     0.268 S 
ATOM     28  O   UNL A   1      30.560  24.416  24.894  1.00  0.00    -0.201 OA
ATOM     29  O   UNL A   1      31.488  24.444  27.253  1.00  0.00    -0.201 OA
BRANCH  27  30
ATOM     30  C   UNL A   1      33.079  24.450  25.323  1.00  0.00     0.088 A 
ATOM     31  C   UNL A   1      36.510  22.942  23.179  1.00  0.00     0.044 C 
ATOM     32  C   UNL A   1      35.348  23.506  23.944  1.00  0.00    -0.051 A 
ATOM     33  C   UNL A   1      34.159  23.701  23.253  1.00  0.00     0.005 A 
ATOM     34  C   UNL A   1      35.391  23.793  25.327  1.00  0.00     0.005 A 
ATOM     35  C   UNL A   1      33.051  24.175  23.934  1.00  0.00     0.022 A 
ATOM     36  C   UNL A   1      34.255  24.264  26.031  1.00  0.00     0.022 A 
ENDBRANCH  27  30
ENDBRANCH  19  27
ENDBRANCH  16  18
ENDBRANCH  13  16
ENDBRANCH  11  12
ENDBRANCH   8  11
ENDBRANCH   6   7
BRANCH   6  37
ATOM     37  C   UNL A   1      37.166  33.527  30.330  1.00  0.00     0.072 C 
BRANCH  37  38
ATOM     38  C   UNL A   1      37.639  34.019  31.660  1.00  0.00    -0.020 A 
ATOM     39  C   UNL A   1      36.817  34.467  32.678  1.00  0.00     0.087 A 
ATOM     40  C   UNL A   1      38.979  34.052  32.172  1.00  0.00     0.003 A 
ATOM     41  N   UNL A   1      37.599  34.873  33.722  1.00  0.00    -0.361 N 
ATOM     42  C   UNL A   1      38.922  34.627  33.444  1.00  0.00     0.046 A 
ATOM     43  C   UNL A   1      40.239  33.648  31.682  1.00  0.00     0.010 A 
ATOM     44  H   UNL A   1      37.265  35.283  34.553  1.00  0.00     0.166 HD
ATOM     45  C   UNL A   1      40.059  34.865  34.225  1.00  0.00     0.026 A 
ATOM     46  C   UNL A   1      41.382  33.842  32.469  1.00  0.00     0.001 A 
ATOM     47  C   UNL A   1      41.293  34.454  33.716  1.00  0.00     0.002 A 
ENDBRANCH  37  38
ENDBRANCH   6  37
ENDBRANCH   3   6
ENDBRANCH   1   2
BRANCH   1  48
ATOM     48  C   UNL A   1      38.327  30.377  32.144  1.00  0.00     0.021 C 
BRANCH  48  49
ATOM     49  C   UNL A   1      38.387  29.829  33.577  1.00  0.00     0.002 C 
BRANCH  49  50
ATOM     50  C   UNL A   1      38.941  30.735  34.687  1.00  0.00     0.002 C 
BRANCH  50  51
ATOM     51  C   UNL A   1      40.407  31.150  34.586  1.00  0.00     0.021 C 
BRANCH  51  52
ATOM     52  C   UNL A   1      41.387  30.295  35.380  1.00  0.00     0.116 C 
BRANCH  52  53
ATOM     53  N   UNL A   1      41.050  28.875  35.417  1.00  0.00    -0.352 N 
ATOM     54  C   UNL A   1      41.409  27.882  34.513  1.00  0.00     0.251 C 
ATOM     55  H   UNL A   1      40.498  28.583  36.179  1.00  0.00     0.163 HD
ATOM     56  O   UNL A   1      41.037  26.732  34.624  1.00  0.00    -0.269 OA
BRANCH  54  57
ATOM     57  C   UNL A   1      42.389  28.246  33.459  1.00  0.00     0.039 A 
ATOM     58  C   UNL A   1      43.741  28.209  33.815  1.00  0.00     0.014 A 
ATOM     59  C   UNL A   1      41.973  28.889  32.298  1.00  0.00     0.014 A 
ATOM     60  C   UNL A   1      44.640  29.032  33.145  1.00  0.00     0.010 A 
ATOM     61  C   UNL A   1      42.843  29.781  31.696  1.00  0.00     0.010 A 
ATOM     62  C   UNL A   1      44.156  29.905  32.168  1.00  0.00    -0.014 A 
BRANCH  62  63
ATOM     63  C   UNL A   1      44.899  31.091  31.744  1.00  0.00     0.031 A 
ATOM     64  C   UNL A   1      44.834  32.357  32.502  1.00  0.00     0.074 A 
ATOM     65  C   UNL A   1      45.668  31.042  30.632  1.00  0.00     0.049 A 
ATOM     66  N   UNL A   1      44.970  33.522  31.962  1.00  0.00    -0.248 NA
ATOM     67  C   UNL A   1      44.570  32.413  33.935  1.00  0.00     0.031 C 
ATOM     68  C   UNL A   1      46.640  32.036  30.184  1.00  0.00     0.029 A 
ATOM     69  N   UNL A   1      45.540  30.176  29.550  1.00  0.00    -0.354 N 
ATOM     70  C   UNL A   1      45.092  34.438  32.977  1.00  0.00     0.074 A 
ATOM     71  C   UNL A   1      44.772  33.710  34.186  1.00  0.00     0.031 C 
ATOM     72  C   UNL A   1      46.835  31.892  28.865  1.00  0.00     0.029 A 
ATOM     73  C   UNL A   1      45.905  30.883  28.393  1.00  0.00     0.049 A 
ATOM     74  H   UNL A   1      45.246  29.238  29.589  1.00  0.00     0.167 HD
ATOM     75  C   UNL A   1      45.585  35.682  32.726  1.00  0.00     0.034 A 
ATOM     76  C   UNL A   1      45.046  31.025  27.342  1.00  0.00     0.034 A 
ATOM     77  C   UNL A   1      45.930  35.871  31.323  1.00  0.00     0.049 A 
ATOM     78  C   UNL A   1      44.720  32.467  27.019  1.00  0.00     0.074 A 
ATOM     79  C   UNL A   1      47.129  35.795  30.635  1.00  0.00     0.029 A 
ATOM     80  N   UNL A   1      44.926  35.913  30.364  1.00  0.00    -0.354 N 
ATOM     81  N   UNL A   1      44.972  33.467  27.817  1.00  0.00    -0.248 NA
ATOM     82  C   UNL A   1      44.064  32.894  25.787  1.00  0.00     0.031 C 
ATOM     83  C   UNL A   1      46.836  35.735  29.249  1.00  0.00     0.029 A 
ATOM     84  C   UNL A   1      45.463  35.807  29.096  1.00  0.00     0.049 A 
ATOM     85  H   UNL A   1      43.965  36.005  30.562  1.00  0.00     0.167 HD
ATOM     86  C   UNL A   1      44.511  34.633  27.260  1.00  0.00     0.074 A 
ATOM     87  C   UNL A   1      43.976  34.222  25.974  1.00  0.00     0.031 C 
ATOM     88  C   UNL A   1      44.604  35.829  27.919  1.00  0.00     0.034 A 
BRANCH  75  89
ATOM     89  C   UNL A   1      46.032  36.604  33.827  1.00  0.00     0.023 A 
ATOM     90  C   UNL A   1      45.332  37.802  34.066  1.00  0.00     0.031 A 
ATOM     91  C   UNL A   1      47.152  36.367  34.646  1.00  0.00     0.131 A 
ATOM     92  C   UNL A   1      45.797  38.743  35.002  1.00  0.00     0.055 A 
ATOM     93  C   UNL A   1      47.646  37.326  35.540  1.00  0.00     0.041 A 
ATOM     94  F   UNL A   1      47.797  35.191  34.616  1.00  0.00    -0.206 F 
ATOM     95  C   UNL A   1      46.975  38.529  35.712  1.00  0.00     0.022 A 
BRANCH  92  96
ATOM     96  S   UNL A   1      44.833  40.256  35.279  1.00  0.00     0.124 S 
ATOM     97  O   UNL A   1      44.771  40.323  36.734  1.00  0.00    -0.237 OA
ATOM     98  O   UNL A   1      45.652  41.268  34.621  1.00  0.00    -0.237 OA
ATOM     99  O   UNL A   1      43.559  39.970  34.620  1.00  0.00    -0.744 OA
ENDBRANCH  92  96
ENDBRANCH  75  89
BRANCH  76 100
ATOM    100  C   UNL A   1      44.135  29.859  27.169  1.00  0.00     0.023 A 
ATOM    101  C   UNL A   1      44.669  28.726  26.515  1.00  0.00     0.031 A 
ATOM    102  C   UNL A   1      42.985  29.686  27.948  1.00  0.00     0.131 A 
ATOM    103  C   UNL A   1      44.172  27.447  26.797  1.00  0.00     0.055 A 
ATOM    104  C   UNL A   1      42.442  28.412  28.164  1.00  0.00     0.041 A 
ATOM    105  F   UNL A   1      42.449  30.718  28.616  1.00  0.00    -0.206 F 
ATOM    106  C   UNL A   1      43.063  27.282  27.628  1.00  0.00     0.022 A 
BRANCH 103 107
ATOM    107  S   UNL A   1      45.149  25.991  26.307  1.00  0.00     0.124 S 
ATOM    108  O   UNL A   1      45.210  26.136  24.858  1.00  0.00    -0.237 OA
ATOM    109  O   UNL A   1      46.412  26.184  27.016  1.00  0.00    -0.237 OA
ATOM    110  O   UNL A   1      44.352  24.871  26.802  1.00  0.00    -0.744 OA
ENDBRANCH 103 107
ENDBRANCH  76 100
BRANCH  88 111
ATOM    111  C   UNL A   1      43.980  37.143  27.493  1.00  0.00     0.023 A 
ATOM    112  C   UNL A   1      44.708  38.208  26.944  1.00  0.00     0.031 A 
ATOM    113  C   UNL A   1      42.575  37.337  27.564  1.00  0.00     0.131 A 
ATOM    114  C   UNL A   1      44.075  39.411  26.575  1.00  0.00     0.055 A 
ATOM    115  C   UNL A   1      41.940  38.503  27.124  1.00  0.00     0.041 A 
ATOM    116  F   UNL A   1      41.755  36.399  28.058  1.00  0.00    -0.206 F 
ATOM    117  C   UNL A   1      42.692  39.559  26.639  1.00  0.00     0.022 A 
BRANCH 114 118
ATOM    118  S   UNL A   1      45.114  40.805  26.062  1.00  0.00     0.124 S 
ATOM    119  O   UNL A   1      45.761  40.271  24.865  1.00  0.00    -0.237 OA
ATOM    120  O   UNL A   1      44.133  41.860  25.833  1.00  0.00    -0.237 OA
ATOM    121  O   UNL A   1      46.000  41.015  27.204  1.00  0.00    -0.744 OA
ENDBRANCH 114 118
ENDBRANCH  88 111
ENDBRANCH  62  63
ENDBRANCH  54  57
ENDBRANCH  52  53
ENDBRANCH  51  52
ENDBRANCH  50  51
ENDBRANCH  49  50
ENDBRANCH  48  49
ENDBRANCH   1  48
TORSDOF 25
ENDMDL
