MODEL 1
REMARK VINA RESULT:     -10.1      0.000      0.000
REMARK SMILES COCC[C@H](NC(=O)c1ccc(Br)nc1)C(=O)NCCCCCCNC(=O)c1ccc(-c2c3nc(c(-c4cc(S(=O)(=O)[O-])ccc4F)c4ccc([nH]4)c(-c4cc(S(=O)(=O)[O-])ccc4F)c4nc(c(-c5cc(S(=O)(=O)[O-])ccc5F)c5ccc2[nH]5)C=C4)C=C3)cc1
REMARK SMILES IDX 21 1 20 2 19 3 18 4 16 5 17 6 5 8 4 9 3 10 2 11 1 12 6 13
REMARK SMILES IDX 7 14 8 16 9 17 10 18 15 19 11 20 14 21 12 22 13 23 22 24
REMARK SMILES IDX 23 25 24 26 25 27 26 28 27 30 28 31 29 32 90 33 30 34 89 35
REMARK SMILES IDX 31 36 32 37 33 38 83 39 34 40 88 41 82 42 84 43 35 44 87 45
REMARK SMILES IDX 81 46 80 47 36 49 68 50 48 51 67 52 49 53 52 54 66 55 85 56
REMARK SMILES IDX 50 57 51 58 65 60 86 61 53 62 37 63 38 64 46 65 39 66 45 67
REMARK SMILES IDX 47 68 44 69 40 70 41 71 42 72 43 73 69 74 70 75 78 76 71 77
REMARK SMILES IDX 77 78 79 79 76 80 72 81 73 82 74 83 75 84 54 85 55 86 63 87
REMARK SMILES IDX 56 88 62 89 64 90 61 91 57 92 58 93 59 94 60 95
REMARK H PARENT 18 7 6 15 25 29 84 48 52 59
REMARK Flexibility Score: inf
ROOT
ATOM      1  C   UNL A   1      32.638  23.323  26.853  1.00  0.00     0.002 C 
ENDROOT
BRANCH   1   2
ATOM      2  C   UNL A   1      31.444  24.200  26.464  1.00  0.00     0.021 C 
BRANCH   2   3
ATOM      3  C   UNL A   1      31.724  25.699  26.493  1.00  0.00     0.116 C 
BRANCH   3   4
ATOM      4  N   UNL A   1      30.927  26.410  25.503  1.00  0.00    -0.354 N 
ATOM      5  C   UNL A   1      31.306  27.079  24.377  1.00  0.00     0.242 C 
ATOM      6  O   UNL A   1      30.419  27.455  23.606  1.00  0.00    -0.273 OA
ATOM      7  H   UNL A   1      29.959  26.405  25.674  1.00  0.00     0.163 HD
BRANCH   5   8
ATOM      8  C   UNL A   1      32.795  27.231  24.001  1.00  0.00     0.173 C 
BRANCH   8   9
ATOM      9  C   UNL A   1      33.318  28.572  24.543  1.00  0.00     0.063 C 
BRANCH   9  10
ATOM     10  C   UNL A   1      33.950  28.450  25.931  1.00  0.00     0.162 C 
BRANCH  10  11
ATOM     11  O   UNL A   1      33.496  29.490  26.796  1.00  0.00    -0.385 OA
ATOM     12  C   UNL A   1      32.297  30.120  26.363  1.00  0.00     0.194 C 
ENDBRANCH  10  11
ENDBRANCH   9  10
ENDBRANCH   8   9
BRANCH   8  13
ATOM     13  N   UNL A   1      32.965  27.027  22.555  1.00  0.00    -0.340 N 
ATOM     14  C   UNL A   1      33.029  25.874  21.815  1.00  0.00     0.253 C 
ATOM     15  H   UNL A   1      33.046  27.856  22.031  1.00  0.00     0.164 HD
ATOM     16  O   UNL A   1      33.169  25.924  20.602  1.00  0.00    -0.269 OA
BRANCH  14  17
ATOM     17  C   UNL A   1      32.990  24.569  22.486  1.00  0.00     0.058 A 
ATOM     18  C   UNL A   1      34.140  23.850  22.805  1.00  0.00     0.018 A 
ATOM     19  C   UNL A   1      31.752  24.006  22.758  1.00  0.00     0.126 A 
ATOM     20  C   UNL A   1      34.005  22.558  23.309  1.00  0.00     0.037 A 
ATOM     21  N   UNL A   1      31.596  22.754  23.251  1.00  0.00    -0.249 NA
ATOM     22  C   UNL A   1      32.724  22.051  23.499  1.00  0.00     0.106 A 
ATOM     23  Br  UNL A   1      32.530  20.269  24.118  1.00  0.00    -0.029 Br
ENDBRANCH  14  17
ENDBRANCH   8  13
ENDBRANCH   5   8
ENDBRANCH   3   4
ENDBRANCH   2   3
ENDBRANCH   1   2
BRANCH   1  24
ATOM     24  C   UNL A   1      34.019  23.920  26.559  1.00  0.00     0.002 C 
BRANCH  24  25
ATOM     25  C   UNL A   1      35.185  22.927  26.560  1.00  0.00     0.021 C 
BRANCH  25  26
ATOM     26  C   UNL A   1      36.499  23.463  26.003  1.00  0.00     0.116 C 
BRANCH  26  27
ATOM     27  N   UNL A   1      37.574  22.493  26.083  1.00  0.00    -0.352 N 
ATOM     28  C   UNL A   1      38.897  22.693  26.388  1.00  0.00     0.251 C 
ATOM     29  H   UNL A   1      37.319  21.561  25.893  1.00  0.00     0.163 HD
ATOM     30  O   UNL A   1      39.692  21.765  26.259  1.00  0.00    -0.269 OA
BRANCH  28  31
ATOM     31  C   UNL A   1      39.368  24.024  26.837  1.00  0.00     0.039 A 
ATOM     32  C   UNL A   1      39.219  24.366  28.184  1.00  0.00     0.014 A 
ATOM     33  C   UNL A   1      39.918  24.944  25.939  1.00  0.00     0.014 A 
ATOM     34  C   UNL A   1      39.649  25.615  28.638  1.00  0.00     0.010 A 
ATOM     35  C   UNL A   1      40.400  26.167  26.404  1.00  0.00     0.010 A 
ATOM     36  C   UNL A   1      40.254  26.521  27.754  1.00  0.00    -0.014 A 
BRANCH  36  37
ATOM     37  C   UNL A   1      40.683  27.866  28.214  1.00  0.00     0.031 A 
ATOM     38  C   UNL A   1      42.143  28.233  28.188  1.00  0.00     0.074 A 
ATOM     39  C   UNL A   1      39.773  28.736  28.692  1.00  0.00     0.049 A 
ATOM     40  N   UNL A   1      42.732  29.326  28.599  1.00  0.00    -0.248 NA
ATOM     41  C   UNL A   1      43.062  27.215  27.659  1.00  0.00     0.031 C 
ATOM     42  C   UNL A   1      38.336  28.479  28.806  1.00  0.00     0.029 A 
ATOM     43  N   UNL A   1      39.924  30.009  29.179  1.00  0.00    -0.354 N 
ATOM     44  C   UNL A   1      44.094  29.122  28.396  1.00  0.00     0.074 A 
ATOM     45  C   UNL A   1      44.241  27.777  27.880  1.00  0.00     0.031 C 
ATOM     46  C   UNL A   1      37.736  29.568  29.315  1.00  0.00     0.029 A 
ATOM     47  C   UNL A   1      38.745  30.587  29.586  1.00  0.00     0.049 A 
ATOM     48  H   UNL A   1      40.794  30.466  29.232  1.00  0.00     0.167 HD
ATOM     49  C   UNL A   1      45.123  29.982  28.600  1.00  0.00     0.034 A 
ATOM     50  C   UNL A   1      38.507  31.803  30.117  1.00  0.00     0.034 A 
ATOM     51  C   UNL A   1      44.958  31.326  29.100  1.00  0.00     0.049 A 
ATOM     52  C   UNL A   1      39.658  32.757  30.301  1.00  0.00     0.074 A 
ATOM     53  C   UNL A   1      45.923  32.293  29.323  1.00  0.00     0.029 A 
ATOM     54  N   UNL A   1      43.740  31.895  29.452  1.00  0.00    -0.354 N 
ATOM     55  N   UNL A   1      40.937  32.562  30.076  1.00  0.00    -0.248 NA
ATOM     56  C   UNL A   1      39.330  34.102  30.790  1.00  0.00     0.031 C 
ATOM     57  C   UNL A   1      45.295  33.430  29.847  1.00  0.00     0.029 A 
ATOM     58  C   UNL A   1      43.930  33.196  29.895  1.00  0.00     0.049 A 
ATOM     59  H   UNL A   1      42.869  31.442  29.394  1.00  0.00     0.167 HD
ATOM     60  C   UNL A   1      41.560  33.771  30.365  1.00  0.00     0.074 A 
ATOM     61  C   UNL A   1      40.516  34.691  30.770  1.00  0.00     0.031 C 
ATOM     62  C   UNL A   1      42.877  34.098  30.295  1.00  0.00     0.034 A 
BRANCH  49  63
ATOM     63  C   UNL A   1      46.514  29.469  28.308  1.00  0.00     0.023 A 
ATOM     64  C   UNL A   1      47.280  28.819  29.293  1.00  0.00     0.031 A 
ATOM     65  C   UNL A   1      47.104  29.681  27.051  1.00  0.00     0.131 A 
ATOM     66  C   UNL A   1      48.619  28.491  29.036  1.00  0.00     0.055 A 
ATOM     67  C   UNL A   1      48.412  29.273  26.774  1.00  0.00     0.041 A 
ATOM     68  F   UNL A   1      46.431  30.312  26.077  1.00  0.00    -0.206 F 
ATOM     69  C   UNL A   1      49.184  28.691  27.775  1.00  0.00     0.022 A 
BRANCH  66  70
ATOM     70  S   UNL A   1      49.658  27.950  30.422  1.00  0.00     0.124 S 
ATOM     71  O   UNL A   1      50.936  28.579  30.093  1.00  0.00    -0.237 OA
ATOM     72  O   UNL A   1      48.954  28.494  31.576  1.00  0.00    -0.237 OA
ATOM     73  O   UNL A   1      49.644  26.492  30.312  1.00  0.00    -0.744 OA
ENDBRANCH  66  70
ENDBRANCH  49  63
BRANCH  50  74
ATOM     74  C   UNL A   1      37.123  32.199  30.497  1.00  0.00     0.023 A 
ATOM     75  C   UNL A   1      36.264  32.805  29.566  1.00  0.00     0.031 A 
ATOM     76  C   UNL A   1      36.652  32.006  31.806  1.00  0.00     0.131 A 
ATOM     77  C   UNL A   1      34.992  33.238  29.969  1.00  0.00     0.055 A 
ATOM     78  C   UNL A   1      35.370  32.401  32.192  1.00  0.00     0.041 A 
ATOM     79  F   UNL A   1      37.431  31.419  32.729  1.00  0.00    -0.206 F 
ATOM     80  C   UNL A   1      34.536  33.032  31.274  1.00  0.00     0.022 A 
BRANCH  77  81
ATOM     81  S   UNL A   1      33.962  34.134  28.776  1.00  0.00     0.124 S 
ATOM     82  O   UNL A   1      33.599  33.077  27.840  1.00  0.00    -0.237 OA
ATOM     83  O   UNL A   1      32.886  34.639  29.624  1.00  0.00    -0.237 OA
ATOM     84  O   UNL A   1      34.864  35.155  28.247  1.00  0.00    -0.744 OA
ENDBRANCH  77  81
ENDBRANCH  50  74
BRANCH  62  85
ATOM     85  C   UNL A   1      43.241  35.525  30.611  1.00  0.00     0.023 A 
ATOM     86  C   UNL A   1      43.274  36.519  29.617  1.00  0.00     0.031 A 
ATOM     87  C   UNL A   1      43.590  35.887  31.923  1.00  0.00     0.131 A 
ATOM     88  C   UNL A   1      43.704  37.814  29.941  1.00  0.00     0.055 A 
ATOM     89  C   UNL A   1      43.968  37.189  32.250  1.00  0.00     0.041 A 
ATOM     90  F   UNL A   1      43.576  34.975  32.910  1.00  0.00    -0.206 F 
ATOM     91  C   UNL A   1      44.040  38.159  31.253  1.00  0.00     0.022 A 
BRANCH  88  92
ATOM     92  S   UNL A   1      43.915  39.022  28.604  1.00  0.00     0.124 S 
ATOM     93  O   UNL A   1      45.068  38.488  27.886  1.00  0.00    -0.237 OA
ATOM     94  O   UNL A   1      42.635  38.939  27.906  1.00  0.00    -0.237 OA
ATOM     95  O   UNL A   1      44.154  40.280  29.311  1.00  0.00    -0.744 OA
ENDBRANCH  88  92
ENDBRANCH  62  85
ENDBRANCH  36  37
ENDBRANCH  28  31
ENDBRANCH  26  27
ENDBRANCH  25  26
ENDBRANCH  24  25
ENDBRANCH   1  24
TORSDOF 21
ENDMDL
MODEL 2
REMARK VINA RESULT:     -10.0      4.941      9.668
REMARK SMILES COCC[C@H](NC(=O)c1ccc(Br)nc1)C(=O)NCCCCCCNC(=O)c1ccc(-c2c3nc(c(-c4cc(S(=O)(=O)[O-])ccc4F)c4ccc([nH]4)c(-c4cc(S(=O)(=O)[O-])ccc4F)c4nc(c(-c5cc(S(=O)(=O)[O-])ccc5F)c5ccc2[nH]5)C=C4)C=C3)cc1
REMARK SMILES IDX 21 1 20 2 19 3 18 4 16 5 17 6 5 8 4 9 3 10 2 11 1 12 6 13
REMARK SMILES IDX 7 14 8 16 9 17 10 18 15 19 11 20 14 21 12 22 13 23 22 24
REMARK SMILES IDX 23 25 24 26 25 27 26 28 27 30 28 31 29 32 90 33 30 34 89 35
REMARK SMILES IDX 31 36 32 37 33 38 83 39 34 40 88 41 82 42 84 43 35 44 87 45
REMARK SMILES IDX 81 46 80 47 36 49 68 50 48 51 67 52 49 53 52 54 66 55 85 56
REMARK SMILES IDX 50 57 51 58 65 60 86 61 53 62 37 63 38 64 46 65 39 66 45 67
REMARK SMILES IDX 47 68 44 69 40 70 41 71 42 72 43 73 69 74 70 75 78 76 71 77
REMARK SMILES IDX 77 78 79 79 76 80 72 81 73 82 74 83 75 84 54 85 55 86 63 87
REMARK SMILES IDX 56 88 62 89 64 90 61 91 57 92 58 93 59 94 60 95
REMARK H PARENT 18 7 6 15 25 29 84 48 52 59
REMARK Flexibility Score: inf
ROOT
ATOM      1  C   UNL A   1      32.335  29.709  26.858  1.00  0.00     0.002 C 
ENDROOT
BRANCH   1   2
ATOM      2  C   UNL A   1      31.689  28.408  27.345  1.00  0.00     0.021 C 
BRANCH   2   3
ATOM      3  C   UNL A   1      31.731  27.265  26.335  1.00  0.00     0.116 C 
BRANCH   3   4
ATOM      4  N   UNL A   1      33.008  26.567  26.372  1.00  0.00    -0.354 N 
ATOM      5  C   UNL A   1      33.444  25.481  25.672  1.00  0.00     0.242 C 
ATOM      6  O   UNL A   1      34.638  25.181  25.761  1.00  0.00    -0.273 OA
ATOM      7  H   UNL A   1      33.663  26.941  27.004  1.00  0.00     0.163 HD
BRANCH   5   8
ATOM      8  C   UNL A   1      32.516  24.741  24.686  1.00  0.00     0.173 C 
BRANCH   8   9
ATOM      9  C   UNL A   1      32.352  23.282  25.144  1.00  0.00     0.063 C 
BRANCH   9  10
ATOM     10  C   UNL A   1      31.348  23.124  26.287  1.00  0.00     0.162 C 
BRANCH  10  11
ATOM     11  O   UNL A   1      32.007  23.109  27.553  1.00  0.00    -0.385 OA
ATOM     12  C   UNL A   1      33.188  22.317  27.580  1.00  0.00     0.194 C 
ENDBRANCH  10  11
ENDBRANCH   9  10
ENDBRANCH   8   9
BRANCH   8  13
ATOM     13  N   UNL A   1      33.009  24.919  23.312  1.00  0.00    -0.340 N 
ATOM     14  C   UNL A   1      32.743  25.891  22.384  1.00  0.00     0.253 C 
ATOM     15  H   UNL A   1      33.636  24.222  23.009  1.00  0.00     0.164 HD
ATOM     16  O   UNL A   1      33.271  25.858  21.283  1.00  0.00    -0.269 OA
BRANCH  14  17
ATOM     17  C   UNL A   1      31.771  26.949  22.688  1.00  0.00     0.058 A 
ATOM     18  C   UNL A   1      30.408  26.702  22.834  1.00  0.00     0.018 A 
ATOM     19  C   UNL A   1      32.228  28.256  22.774  1.00  0.00     0.126 A 
ATOM     20  C   UNL A   1      29.542  27.784  22.979  1.00  0.00     0.037 A 
ATOM     21  N   UNL A   1      31.405  29.323  22.919  1.00  0.00    -0.249 NA
ATOM     22  C   UNL A   1      30.081  29.066  23.000  1.00  0.00     0.106 A 
ATOM     23  Br  UNL A   1      28.904  30.548  23.126  1.00  0.00    -0.029 Br
ENDBRANCH  14  17
ENDBRANCH   8  13
ENDBRANCH   5   8
ENDBRANCH   3   4
ENDBRANCH   2   3
ENDBRANCH   1   2
BRANCH   1  24
ATOM     24  C   UNL A   1      31.417  30.643  26.062  1.00  0.00     0.002 C 
BRANCH  24  25
ATOM     25  C   UNL A   1      31.447  32.117  26.479  1.00  0.00     0.021 C 
BRANCH  25  26
ATOM     26  C   UNL A   1      32.743  32.582  27.135  1.00  0.00     0.116 C 
BRANCH  26  27
ATOM     27  N   UNL A   1      32.634  33.915  27.698  1.00  0.00    -0.352 N 
ATOM     28  C   UNL A   1      33.358  34.485  28.715  1.00  0.00     0.251 C 
ATOM     29  H   UNL A   1      31.944  34.490  27.294  1.00  0.00     0.163 HD
ATOM     30  O   UNL A   1      33.019  35.580  29.156  1.00  0.00    -0.269 OA
BRANCH  28  31
ATOM     31  C   UNL A   1      34.520  33.772  29.296  1.00  0.00     0.039 A 
ATOM     32  C   UNL A   1      35.805  34.174  28.924  1.00  0.00     0.014 A 
ATOM     33  C   UNL A   1      34.350  32.694  30.172  1.00  0.00     0.014 A 
ATOM     34  C   UNL A   1      36.921  33.519  29.451  1.00  0.00     0.010 A 
ATOM     35  C   UNL A   1      35.464  32.080  30.743  1.00  0.00     0.010 A 
ATOM     36  C   UNL A   1      36.759  32.474  30.374  1.00  0.00    -0.014 A 
BRANCH  36  37
ATOM     37  C   UNL A   1      37.934  31.746  30.916  1.00  0.00     0.031 A 
ATOM     38  C   UNL A   1      38.458  32.086  32.285  1.00  0.00     0.074 A 
ATOM     39  C   UNL A   1      38.552  30.814  30.166  1.00  0.00     0.049 A 
ATOM     40  N   UNL A   1      39.502  31.615  32.917  1.00  0.00    -0.248 NA
ATOM     41  C   UNL A   1      37.724  33.123  33.025  1.00  0.00     0.031 C 
ATOM     42  C   UNL A   1      38.163  30.426  28.808  1.00  0.00     0.029 A 
ATOM     43  N   UNL A   1      39.644  30.029  30.436  1.00  0.00    -0.354 N 
ATOM     44  C   UNL A   1      39.562  32.310  34.121  1.00  0.00     0.074 A 
ATOM     45  C   UNL A   1      38.482  33.274  34.101  1.00  0.00     0.031 C 
ATOM     46  C   UNL A   1      38.995  29.465  28.372  1.00  0.00     0.029 A 
ATOM     47  C   UNL A   1      39.988  29.187  29.405  1.00  0.00     0.049 A 
ATOM     48  H   UNL A   1      40.135  30.065  31.288  1.00  0.00     0.167 HD
ATOM     49  C   UNL A   1      40.424  32.145  35.157  1.00  0.00     0.034 A 
ATOM     50  C   UNL A   1      40.992  28.294  29.306  1.00  0.00     0.034 A 
ATOM     51  C   UNL A   1      41.485  31.168  35.169  1.00  0.00     0.049 A 
ATOM     52  C   UNL A   1      41.915  28.100  30.480  1.00  0.00     0.074 A 
ATOM     53  C   UNL A   1      42.402  30.895  36.170  1.00  0.00     0.029 A 
ATOM     54  N   UNL A   1      41.770  30.296  34.125  1.00  0.00    -0.354 N 
ATOM     55  N   UNL A   1      41.942  28.743  31.624  1.00  0.00    -0.248 NA
ATOM     56  C   UNL A   1      42.929  27.045  30.357  1.00  0.00     0.031 C 
ATOM     57  C   UNL A   1      43.264  29.889  35.716  1.00  0.00     0.029 A 
ATOM     58  C   UNL A   1      42.849  29.490  34.456  1.00  0.00     0.049 A 
ATOM     59  H   UNL A   1      41.277  30.256  33.275  1.00  0.00     0.167 HD
ATOM     60  C   UNL A   1      42.953  28.145  32.370  1.00  0.00     0.074 A 
ATOM     61  C   UNL A   1      43.505  27.086  31.549  1.00  0.00     0.031 C 
ATOM     62  C   UNL A   1      43.386  28.440  33.624  1.00  0.00     0.034 A 
BRANCH  49  63
ATOM     63  C   UNL A   1      40.259  33.072  36.339  1.00  0.00     0.023 A 
ATOM     64  C   UNL A   1      39.568  32.671  37.497  1.00  0.00     0.031 A 
ATOM     65  C   UNL A   1      40.746  34.389  36.287  1.00  0.00     0.131 A 
ATOM     66  C   UNL A   1      39.302  33.602  38.511  1.00  0.00     0.055 A 
ATOM     67  C   UNL A   1      40.552  35.287  37.340  1.00  0.00     0.041 A 
ATOM     68  F   UNL A   1      41.396  34.837  35.202  1.00  0.00    -0.206 F 
ATOM     69  C   UNL A   1      39.810  34.901  38.454  1.00  0.00     0.022 A 
BRANCH  66  70
ATOM     70  S   UNL A   1      38.146  33.136  39.830  1.00  0.00     0.124 S 
ATOM     71  O   UNL A   1      38.153  34.336  40.664  1.00  0.00    -0.237 OA
ATOM     72  O   UNL A   1      36.914  32.876  39.094  1.00  0.00    -0.237 OA
ATOM     73  O   UNL A   1      38.771  31.962  40.436  1.00  0.00    -0.744 OA
ENDBRANCH  66  70
ENDBRANCH  49  63
BRANCH  50  74
ATOM     74  C   UNL A   1      41.170  27.500  28.059  1.00  0.00     0.023 A 
ATOM     75  C   UNL A   1      40.842  26.135  28.020  1.00  0.00     0.031 A 
ATOM     76  C   UNL A   1      41.702  28.088  26.899  1.00  0.00     0.131 A 
ATOM     77  C   UNL A   1      41.091  25.391  26.856  1.00  0.00     0.055 A 
ATOM     78  C   UNL A   1      41.909  27.353  25.731  1.00  0.00     0.041 A 
ATOM     79  F   UNL A   1      42.019  29.392  26.884  1.00  0.00    -0.206 F 
ATOM     80  C   UNL A   1      41.614  25.993  25.709  1.00  0.00     0.022 A 
BRANCH  77  81
ATOM     81  S   UNL A   1      40.778  23.605  26.885  1.00  0.00     0.124 S 
ATOM     82  O   UNL A   1      41.134  23.262  28.257  1.00  0.00    -0.237 OA
ATOM     83  O   UNL A   1      39.357  23.542  26.556  1.00  0.00    -0.237 OA
ATOM     84  O   UNL A   1      41.676  23.085  25.857  1.00  0.00    -0.744 OA
ENDBRANCH  77  81
ENDBRANCH  50  74
BRANCH  62  85
ATOM     85  C   UNL A   1      44.468  27.560  34.194  1.00  0.00     0.023 A 
ATOM     86  C   UNL A   1      44.172  26.367  34.876  1.00  0.00     0.031 A 
ATOM     87  C   UNL A   1      45.816  27.940  34.076  1.00  0.00     0.131 A 
ATOM     88  C   UNL A   1      45.206  25.627  35.466  1.00  0.00     0.055 A 
ATOM     89  C   UNL A   1      46.845  27.173  34.621  1.00  0.00     0.041 A 
ATOM     90  F   UNL A   1      46.153  29.071  33.434  1.00  0.00    -0.206 F 
ATOM     91  C   UNL A   1      46.542  26.016  35.333  1.00  0.00     0.022 A 
BRANCH  88  92
ATOM     92  S   UNL A   1      44.776  24.198  36.497  1.00  0.00     0.124 S 
ATOM     93  O   UNL A   1      46.041  23.473  36.561  1.00  0.00    -0.237 OA
ATOM     94  O   UNL A   1      44.339  24.830  37.738  1.00  0.00    -0.237 OA
ATOM     95  O   UNL A   1      43.719  23.531  35.737  1.00  0.00    -0.744 OA
ENDBRANCH  88  92
ENDBRANCH  62  85
ENDBRANCH  36  37
ENDBRANCH  28  31
ENDBRANCH  26  27
ENDBRANCH  25  26
ENDBRANCH  24  25
ENDBRANCH   1  24
TORSDOF 21
ENDMDL
MODEL 3
REMARK VINA RESULT:     -10.0      3.595      8.528
REMARK SMILES COCC[C@H](NC(=O)c1ccc(Br)nc1)C(=O)NCCCCCCNC(=O)c1ccc(-c2c3nc(c(-c4cc(S(=O)(=O)[O-])ccc4F)c4ccc([nH]4)c(-c4cc(S(=O)(=O)[O-])ccc4F)c4nc(c(-c5cc(S(=O)(=O)[O-])ccc5F)c5ccc2[nH]5)C=C4)C=C3)cc1
REMARK SMILES IDX 21 1 20 2 19 3 18 4 16 5 17 6 5 8 4 9 3 10 2 11 1 12 6 13
REMARK SMILES IDX 7 14 8 16 9 17 10 18 15 19 11 20 14 21 12 22 13 23 22 24
REMARK SMILES IDX 23 25 24 26 25 27 26 28 27 30 28 31 29 32 90 33 30 34 89 35
REMARK SMILES IDX 31 36 32 37 33 38 83 39 34 40 88 41 82 42 84 43 35 44 87 45
REMARK SMILES IDX 81 46 80 47 36 49 68 50 48 51 67 52 49 53 52 54 66 55 85 56
REMARK SMILES IDX 50 57 51 58 65 60 86 61 53 62 37 63 38 64 46 65 39 66 45 67
REMARK SMILES IDX 47 68 44 69 40 70 41 71 42 72 43 73 69 74 70 75 78 76 71 77
REMARK SMILES IDX 77 78 79 79 76 80 72 81 73 82 74 83 75 84 54 85 55 86 63 87
REMARK SMILES IDX 56 88 62 89 64 90 61 91 57 92 58 93 59 94 60 95
REMARK H PARENT 18 7 6 15 25 29 84 48 52 59
REMARK Flexibility Score: inf
ROOT
ATOM      1  C   UNL A   1      37.031  22.009  24.106  1.00  0.00     0.002 C 
ENDROOT
BRANCH   1   2
ATOM      2  C   UNL A   1      36.682  23.323  24.814  1.00  0.00     0.021 C 
BRANCH   2   3
ATOM      3  C   UNL A   1      35.234  23.770  24.642  1.00  0.00     0.116 C 
BRANCH   3   4
ATOM      4  N   UNL A   1      35.002  25.072  25.249  1.00  0.00    -0.354 N 
ATOM      5  C   UNL A   1      33.850  25.787  25.399  1.00  0.00     0.242 C 
ATOM      6  O   UNL A   1      33.888  26.798  26.106  1.00  0.00    -0.273 OA
ATOM      7  H   UNL A   1      35.807  25.506  25.611  1.00  0.00     0.163 HD
BRANCH   5   8
ATOM      8  C   UNL A   1      32.512  25.272  24.830  1.00  0.00     0.173 C 
BRANCH   8   9
ATOM      9  C   UNL A   1      31.906  26.347  23.912  1.00  0.00     0.063 C 
BRANCH   9  10
ATOM     10  C   UNL A   1      30.624  26.962  24.478  1.00  0.00     0.162 C 
BRANCH  10  11
ATOM     11  O   UNL A   1      30.531  28.348  24.152  1.00  0.00    -0.385 OA
ATOM     12  C   UNL A   1      31.551  29.149  24.736  1.00  0.00     0.194 C 
ENDBRANCH  10  11
ENDBRANCH   9  10
ENDBRANCH   8   9
BRANCH   8  13
ATOM     13  N   UNL A   1      31.645  24.822  25.930  1.00  0.00    -0.340 N 
ATOM     14  C   UNL A   1      31.441  23.572  26.454  1.00  0.00     0.253 C 
ATOM     15  H   UNL A   1      31.126  25.538  26.361  1.00  0.00     0.164 HD
ATOM     16  O   UNL A   1      30.670  23.411  27.389  1.00  0.00    -0.269 OA
BRANCH  14  17
ATOM     17  C   UNL A   1      32.104  22.408  25.854  1.00  0.00     0.058 A 
ATOM     18  C   UNL A   1      31.824  21.961  24.565  1.00  0.00     0.018 A 
ATOM     19  C   UNL A   1      33.002  21.690  26.631  1.00  0.00     0.126 A 
ATOM     20  C   UNL A   1      32.393  20.766  24.130  1.00  0.00     0.037 A 
ATOM     21  N   UNL A   1      33.570  20.528  26.228  1.00  0.00    -0.249 NA
ATOM     22  C   UNL A   1      33.241  20.082  24.995  1.00  0.00     0.106 A 
ATOM     23  Br  UNL A   1      33.963  18.419  24.440  1.00  0.00    -0.029 Br
ENDBRANCH  14  17
ENDBRANCH   8  13
ENDBRANCH   5   8
ENDBRANCH   3   4
ENDBRANCH   2   3
ENDBRANCH   1   2
BRANCH   1  24
ATOM     24  C   UNL A   1      36.917  20.746  24.965  1.00  0.00     0.002 C 
BRANCH  24  25
ATOM     25  C   UNL A   1      38.164  19.857  25.005  1.00  0.00     0.021 C 
BRANCH  25  26
ATOM     26  C   UNL A   1      39.252  20.301  25.976  1.00  0.00     0.116 C 
BRANCH  26  27
ATOM     27  N   UNL A   1      40.355  19.362  26.043  1.00  0.00    -0.352 N 
ATOM     28  C   UNL A   1      41.695  19.614  26.200  1.00  0.00     0.251 C 
ATOM     29  H   UNL A   1      40.108  18.412  25.967  1.00  0.00     0.163 HD
ATOM     30  O   UNL A   1      42.499  18.692  26.083  1.00  0.00    -0.269 OA
BRANCH  28  31
ATOM     31  C   UNL A   1      42.171  20.989  26.476  1.00  0.00     0.039 A 
ATOM     32  C   UNL A   1      42.382  21.853  25.398  1.00  0.00     0.014 A 
ATOM     33  C   UNL A   1      42.443  21.418  27.780  1.00  0.00     0.014 A 
ATOM     34  C   UNL A   1      42.834  23.155  25.626  1.00  0.00     0.010 A 
ATOM     35  C   UNL A   1      42.838  22.735  28.011  1.00  0.00     0.010 A 
ATOM     36  C   UNL A   1      43.054  23.610  26.935  1.00  0.00    -0.014 A 
BRANCH  36  37
ATOM     37  C   UNL A   1      43.569  24.979  27.191  1.00  0.00     0.031 A 
ATOM     38  C   UNL A   1      42.648  26.031  27.748  1.00  0.00     0.074 A 
ATOM     39  C   UNL A   1      44.844  25.287  26.884  1.00  0.00     0.049 A 
ATOM     40  N   UNL A   1      42.880  27.297  27.987  1.00  0.00    -0.248 NA
ATOM     41  C   UNL A   1      41.273  25.605  28.042  1.00  0.00     0.031 C 
ATOM     42  C   UNL A   1      45.820  24.365  26.301  1.00  0.00     0.029 A 
ATOM     43  N   UNL A   1      45.535  26.465  27.014  1.00  0.00    -0.354 N 
ATOM     44  C   UNL A   1      41.674  27.823  28.442  1.00  0.00     0.074 A 
ATOM     45  C   UNL A   1      40.704  26.750  28.388  1.00  0.00     0.031 C 
ATOM     46  C   UNL A   1      46.989  25.008  26.138  1.00  0.00     0.029 A 
ATOM     47  C   UNL A   1      46.838  26.391  26.581  1.00  0.00     0.049 A 
ATOM     48  H   UNL A   1      45.136  27.285  27.382  1.00  0.00     0.167 HD
ATOM     49  C   UNL A   1      41.407  29.078  28.884  1.00  0.00     0.034 A 
ATOM     50  C   UNL A   1      47.800  27.333  26.546  1.00  0.00     0.034 A 
ATOM     51  C   UNL A   1      42.389  30.132  28.947  1.00  0.00     0.049 A 
ATOM     52  C   UNL A   1      47.493  28.710  27.075  1.00  0.00     0.074 A 
ATOM     53  C   UNL A   1      42.239  31.432  29.399  1.00  0.00     0.029 A 
ATOM     54  N   UNL A   1      43.715  30.004  28.548  1.00  0.00    -0.354 N 
ATOM     55  N   UNL A   1      46.358  29.185  27.531  1.00  0.00    -0.248 NA
ATOM     56  C   UNL A   1      48.605  29.669  27.105  1.00  0.00     0.031 C 
ATOM     57  C   UNL A   1      43.460  32.100  29.235  1.00  0.00     0.029 A 
ATOM     58  C   UNL A   1      44.389  31.201  28.738  1.00  0.00     0.049 A 
ATOM     59  H   UNL A   1      44.116  29.183  28.185  1.00  0.00     0.167 HD
ATOM     60  C   UNL A   1      46.628  30.489  27.934  1.00  0.00     0.074 A 
ATOM     61  C   UNL A   1      48.036  30.720  27.675  1.00  0.00     0.031 C 
ATOM     62  C   UNL A   1      45.793  31.413  28.475  1.00  0.00     0.034 A 
BRANCH  49  63
ATOM     63  C   UNL A   1      39.984  29.369  29.299  1.00  0.00     0.023 A 
ATOM     64  C   UNL A   1      39.611  29.434  30.654  1.00  0.00     0.031 A 
ATOM     65  C   UNL A   1      38.975  29.525  28.332  1.00  0.00     0.131 A 
ATOM     66  C   UNL A   1      38.258  29.555  31.003  1.00  0.00     0.055 A 
ATOM     67  C   UNL A   1      37.640  29.732  28.688  1.00  0.00     0.041 A 
ATOM     68  F   UNL A   1      39.265  29.454  27.024  1.00  0.00    -0.206 F 
ATOM     69  C   UNL A   1      37.271  29.729  30.030  1.00  0.00     0.022 A 
BRANCH  66  70
ATOM     70  S   UNL A   1      37.789  29.317  32.740  1.00  0.00     0.124 S 
ATOM     71  O   UNL A   1      37.697  27.860  32.822  1.00  0.00    -0.237 OA
ATOM     72  O   UNL A   1      38.903  29.929  33.455  1.00  0.00    -0.237 OA
ATOM     73  O   UNL A   1      36.513  30.021  32.851  1.00  0.00    -0.744 OA
ENDBRANCH  66  70
ENDBRANCH  49  63
BRANCH  50  74
ATOM     74  C   UNL A   1      49.150  27.009  26.008  1.00  0.00     0.023 A 
ATOM     75  C   UNL A   1      49.524  27.399  24.712  1.00  0.00     0.031 A 
ATOM     76  C   UNL A   1      50.073  26.275  26.771  1.00  0.00     0.131 A 
ATOM     77  C   UNL A   1      50.773  27.015  24.200  1.00  0.00     0.055 A 
ATOM     78  C   UNL A   1      51.331  25.931  26.273  1.00  0.00     0.041 A 
ATOM     79  F   UNL A   1      49.767  25.891  28.021  1.00  0.00    -0.206 F 
ATOM     80  C   UNL A   1      51.682  26.291  24.976  1.00  0.00     0.022 A 
BRANCH  77  81
ATOM     81  S   UNL A   1      51.167  27.423  22.478  1.00  0.00     0.124 S 
ATOM     82  O   UNL A   1      50.078  26.772  21.760  1.00  0.00    -0.237 OA
ATOM     83  O   UNL A   1      51.139  28.882  22.500  1.00  0.00    -0.237 OA
ATOM     84  O   UNL A   1      52.488  26.831  22.281  1.00  0.00    -0.744 OA
ENDBRANCH  77  81
ENDBRANCH  50  74
BRANCH  62  85
ATOM     85  C   UNL A   1      46.403  32.732  28.873  1.00  0.00     0.023 A 
ATOM     86  C   UNL A   1      46.465  33.819  27.985  1.00  0.00     0.031 A 
ATOM     87  C   UNL A   1      46.957  32.889  30.156  1.00  0.00     0.131 A 
ATOM     88  C   UNL A   1      47.121  34.997  28.370  1.00  0.00     0.055 A 
ATOM     89  C   UNL A   1      47.563  34.081  30.551  1.00  0.00     0.041 A 
ATOM     90  F   UNL A   1      46.924  31.880  31.042  1.00  0.00    -0.206 F 
ATOM     91  C   UNL A   1      47.660  35.139  29.653  1.00  0.00     0.022 A 
BRANCH  88  92
ATOM     92  S   UNL A   1      47.348  36.310  27.140  1.00  0.00     0.124 S 
ATOM     93  O   UNL A   1      48.758  36.163  26.791  1.00  0.00    -0.237 OA
ATOM     94  O   UNL A   1      46.392  35.934  26.104  1.00  0.00    -0.237 OA
ATOM     95  O   UNL A   1      47.017  37.531  27.874  1.00  0.00    -0.744 OA
ENDBRANCH  88  92
ENDBRANCH  62  85
ENDBRANCH  36  37
ENDBRANCH  28  31
ENDBRANCH  26  27
ENDBRANCH  25  26
ENDBRANCH  24  25
ENDBRANCH   1  24
TORSDOF 21
ENDMDL
