MODEL 1
REMARK VINA RESULT:     -10.9      0.000      0.000
REMARK SMILES NC(=O)c1cc(NC(=O)/C=C\C(=O)NCCCCCCNC(=O)c2ccc(-c3c4nc(c(-c5cc(S(=O)(=O)[O-])ccc5F)c5ccc([nH]5)c(-c5cc(S(=O)(=O)[O-])ccc5F)c5nc(c(-c6cc(S(=O)(=O)[O-])ccc6F)c6ccc3[nH]6)C=C5)C=C4)cc2)ccc1N1CCOCC1
REMARK SMILES IDX 17 1 16 2 15 3 14 4 12 5 13 6 11 8 10 9 8 10 7 11 9 13 6 14
REMARK SMILES IDX 4 15 5 16 89 17 88 18 87 19 2 20 1 21 3 24 90 25 91 26 95 27
REMARK SMILES IDX 92 28 94 29 93 30 18 31 19 32 20 33 21 34 22 35 23 37 24 38
REMARK SMILES IDX 25 39 86 40 26 41 85 42 27 43 28 44 29 45 79 46 30 47 84 48
REMARK SMILES IDX 78 49 80 50 31 51 83 52 77 53 76 54 32 56 64 57 44 58 63 59
REMARK SMILES IDX 45 60 48 61 62 62 81 63 46 64 47 65 61 67 82 68 49 69 33 70
REMARK SMILES IDX 34 71 42 72 35 73 41 74 43 75 40 76 36 77 37 78 38 79 39 80
REMARK SMILES IDX 65 81 66 82 74 83 67 84 73 85 75 86 72 87 68 88 69 89 70 90
REMARK SMILES IDX 71 91 50 92 51 93 59 94 52 95 58 96 60 97 57 98 53 99 54 100
REMARK SMILES IDX 55 101 56 102
REMARK H PARENT 14 7 7 12 1 22 1 23 21 36 80 55 48 66
REMARK Flexibility Score: inf
ROOT
ATOM      1  C   UNL A   1      32.055  27.027  23.295  1.00  0.00     0.002 C 
ENDROOT
BRANCH   1   2
ATOM      2  C   UNL A   1      31.191  25.818  23.658  1.00  0.00     0.021 C 
BRANCH   2   3
ATOM      3  C   UNL A   1      31.908  24.472  23.693  1.00  0.00     0.116 C 
BRANCH   3   4
ATOM      4  N   UNL A   1      32.642  24.199  24.911  1.00  0.00    -0.353 N 
ATOM      5  C   UNL A   1      33.959  24.397  25.158  1.00  0.00     0.244 C 
ATOM      6  O   UNL A   1      34.335  24.678  26.293  1.00  0.00    -0.270 OA
ATOM      7  H   UNL A   1      32.117  23.822  25.654  1.00  0.00     0.163 HD
BRANCH   5   8
ATOM      8  C   UNL A   1      34.956  24.320  24.077  1.00  0.00     0.077 C 
ATOM      9  C   UNL A   1      36.227  23.899  24.146  1.00  0.00     0.077 C 
BRANCH   9  10
ATOM     10  C   UNL A   1      36.988  23.233  25.229  1.00  0.00     0.248 C 
ATOM     11  N   UNL A   1      36.964  21.899  25.471  1.00  0.00    -0.322 N 
ATOM     12  H   UNL A   1      37.737  21.577  25.989  1.00  0.00     0.170 HD
ATOM     13  O   UNL A   1      37.733  23.943  25.911  1.00  0.00    -0.270 OA
BRANCH  11  14
ATOM     14  C   UNL A   1      36.059  20.889  25.131  1.00  0.00     0.042 A 
ATOM     15  C   UNL A   1      33.868  20.045  24.514  1.00  0.00     0.064 A 
ATOM     16  C   UNL A   1      34.711  21.111  24.889  1.00  0.00     0.042 A 
ATOM     17  C   UNL A   1      34.348  18.726  24.402  1.00  0.00     0.050 A 
ATOM     18  C   UNL A   1      35.719  18.543  24.662  1.00  0.00     0.029 A 
ATOM     19  C   UNL A   1      36.549  19.588  25.064  1.00  0.00     0.028 A 
BRANCH  15  20
ATOM     20  C   UNL A   1      32.448  20.424  24.373  1.00  0.00     0.250 C 
ATOM     21  N   UNL A   1      32.016  20.560  23.083  1.00  0.00    -0.366 N 
ATOM     22  H   UNL A   1      31.082  20.810  22.900  1.00  0.00     0.159 HD
ATOM     23  H   UNL A   1      32.641  20.407  22.336  1.00  0.00     0.159 HD
ATOM     24  O   UNL A   1      31.689  20.581  25.318  1.00  0.00    -0.269 OA
ENDBRANCH  15  20
BRANCH  17  25
ATOM     25  N   UNL A   1      33.612  17.581  24.151  1.00  0.00    -0.366 N 
ATOM     26  C   UNL A   1      32.347  17.231  24.812  1.00  0.00     0.145 C 
ATOM     27  C   UNL A   1      34.342  16.414  23.627  1.00  0.00     0.145 C 
ATOM     28  C   UNL A   1      32.552  16.101  25.841  1.00  0.00     0.181 C 
ATOM     29  C   UNL A   1      34.556  15.422  24.776  1.00  0.00     0.181 C 
ATOM     30  O   UNL A   1      33.293  14.983  25.303  1.00  0.00    -0.378 OA
ENDBRANCH  17  25
ENDBRANCH  11  14
ENDBRANCH   9  10
ENDBRANCH   5   8
ENDBRANCH   3   4
ENDBRANCH   2   3
ENDBRANCH   1   2
BRANCH   1  31
ATOM     31  C   UNL A   1      32.403  27.982  24.435  1.00  0.00     0.002 C 
BRANCH  31  32
ATOM     32  C   UNL A   1      33.890  28.063  24.764  1.00  0.00     0.021 C 
BRANCH  32  33
ATOM     33  C   UNL A   1      34.188  28.492  26.194  1.00  0.00     0.116 C 
BRANCH  33  34
ATOM     34  N   UNL A   1      33.745  29.851  26.463  1.00  0.00    -0.352 N 
ATOM     35  C   UNL A   1      34.286  30.731  27.371  1.00  0.00     0.251 C 
ATOM     36  H   UNL A   1      32.977  30.175  25.939  1.00  0.00     0.163 HD
ATOM     37  O   UNL A   1      33.718  31.780  27.653  1.00  0.00    -0.269 OA
BRANCH  35  38
ATOM     38  C   UNL A   1      35.560  30.354  28.018  1.00  0.00     0.039 A 
ATOM     39  C   UNL A   1      35.542  29.795  29.295  1.00  0.00     0.014 A 
ATOM     40  C   UNL A   1      36.753  30.459  27.297  1.00  0.00     0.014 A 
ATOM     41  C   UNL A   1      36.727  29.292  29.835  1.00  0.00     0.010 A 
ATOM     42  C   UNL A   1      37.915  29.892  27.808  1.00  0.00     0.010 A 
ATOM     43  C   UNL A   1      37.916  29.309  29.085  1.00  0.00    -0.014 A 
BRANCH  43  44
ATOM     44  C   UNL A   1      39.178  28.743  29.630  1.00  0.00     0.031 A 
ATOM     45  C   UNL A   1      39.805  29.363  30.850  1.00  0.00     0.074 A 
ATOM     46  C   UNL A   1      39.779  27.712  29.005  1.00  0.00     0.049 A 
ATOM     47  N   UNL A   1      40.926  29.059  31.450  1.00  0.00    -0.248 NA
ATOM     48  C   UNL A   1      39.089  30.497  31.454  1.00  0.00     0.031 C 
ATOM     49  C   UNL A   1      39.285  27.054  27.793  1.00  0.00     0.029 A 
ATOM     50  N   UNL A   1      40.938  27.036  29.297  1.00  0.00    -0.354 N 
ATOM     51  C   UNL A   1      41.054  29.968  32.495  1.00  0.00     0.074 A 
ATOM     52  C   UNL A   1      39.933  30.876  32.401  1.00  0.00     0.031 C 
ATOM     53  C   UNL A   1      40.119  26.053  27.464  1.00  0.00     0.029 A 
ATOM     54  C   UNL A   1      41.231  26.026  28.410  1.00  0.00     0.049 A 
ATOM     55  H   UNL A   1      41.508  27.254  30.070  1.00  0.00     0.167 HD
ATOM     56  C   UNL A   1      42.005  30.021  33.460  1.00  0.00     0.034 A 
ATOM     57  C   UNL A   1      42.281  25.181  28.358  1.00  0.00     0.034 A 
ATOM     58  C   UNL A   1      43.111  29.100  33.543  1.00  0.00     0.049 A 
ATOM     59  C   UNL A   1      43.344  25.280  29.425  1.00  0.00     0.074 A 
ATOM     60  C   UNL A   1      44.104  29.030  34.503  1.00  0.00     0.029 A 
ATOM     61  N   UNL A   1      43.378  28.092  32.623  1.00  0.00    -0.354 N 
ATOM     62  N   UNL A   1      43.422  26.111  30.440  1.00  0.00    -0.248 NA
ATOM     63  C   UNL A   1      44.453  24.320  29.350  1.00  0.00     0.031 C 
ATOM     64  C   UNL A   1      45.010  28.034  34.127  1.00  0.00     0.029 A 
ATOM     65  C   UNL A   1      44.536  27.419  32.978  1.00  0.00     0.049 A 
ATOM     66  H   UNL A   1      42.824  27.885  31.836  1.00  0.00     0.167 HD
ATOM     67  C   UNL A   1      44.568  25.747  31.142  1.00  0.00     0.074 A 
ATOM     68  C   UNL A   1      45.140  24.614  30.443  1.00  0.00     0.031 C 
ATOM     69  C   UNL A   1      45.097  26.293  32.268  1.00  0.00     0.034 A 
BRANCH  56  70
ATOM     70  C   UNL A   1      41.897  31.129  34.483  1.00  0.00     0.023 A 
ATOM     71  C   UNL A   1      42.579  32.348  34.326  1.00  0.00     0.031 A 
ATOM     72  C   UNL A   1      41.121  30.956  35.641  1.00  0.00     0.131 A 
ATOM     73  C   UNL A   1      42.535  33.313  35.343  1.00  0.00     0.055 A 
ATOM     74  C   UNL A   1      41.010  31.955  36.611  1.00  0.00     0.041 A 
ATOM     75  F   UNL A   1      40.465  29.804  35.859  1.00  0.00    -0.206 F 
ATOM     76  C   UNL A   1      41.732  33.136  36.473  1.00  0.00     0.022 A 
BRANCH  73  77
ATOM     77  S   UNL A   1      43.655  34.735  35.238  1.00  0.00     0.124 S 
ATOM     78  O   UNL A   1      43.017  35.536  34.195  1.00  0.00    -0.237 OA
ATOM     79  O   UNL A   1      43.599  35.282  36.588  1.00  0.00    -0.237 OA
ATOM     80  O   UNL A   1      44.933  34.137  34.858  1.00  0.00    -0.744 OA
ENDBRANCH  73  77
ENDBRANCH  56  70
BRANCH  57  81
ATOM     81  C   UNL A   1      42.394  24.173  27.263  1.00  0.00     0.023 A 
ATOM     82  C   UNL A   1      41.642  22.988  27.285  1.00  0.00     0.031 A 
ATOM     83  C   UNL A   1      43.298  24.357  26.200  1.00  0.00     0.131 A 
ATOM     84  C   UNL A   1      41.844  22.010  26.299  1.00  0.00     0.055 A 
ATOM     85  C   UNL A   1      43.452  23.407  25.188  1.00  0.00     0.041 A 
ATOM     86  F   UNL A   1      44.043  25.472  26.126  1.00  0.00    -0.206 F 
ATOM     87  C   UNL A   1      42.733  22.218  25.242  1.00  0.00     0.022 A 
BRANCH  84  88
ATOM     88  S   UNL A   1      40.999  20.413  26.472  1.00  0.00     0.124 S 
ATOM     89  O   UNL A   1      39.636  20.757  26.081  1.00  0.00    -0.237 OA
ATOM     90  O   UNL A   1      41.743  19.575  25.539  1.00  0.00    -0.237 OA
ATOM     91  O   UNL A   1      41.179  20.085  27.885  1.00  0.00    -0.744 OA
ENDBRANCH  84  88
ENDBRANCH  57  81
BRANCH  69  92
ATOM     92  C   UNL A   1      46.328  25.633  32.844  1.00  0.00     0.023 A 
ATOM     93  C   UNL A   1      46.243  24.583  33.774  1.00  0.00     0.031 A 
ATOM     94  C   UNL A   1      47.607  26.068  32.451  1.00  0.00     0.131 A 
ATOM     95  C   UNL A   1      47.415  24.040  34.321  1.00  0.00     0.055 A 
ATOM     96  C   UNL A   1      48.769  25.478  32.949  1.00  0.00     0.041 A 
ATOM     97  F   UNL A   1      47.747  27.069  31.567  1.00  0.00    -0.206 F 
ATOM     98  C   UNL A   1      48.677  24.467  33.900  1.00  0.00     0.022 A 
BRANCH  95  99
ATOM     99  S   UNL A   1      47.270  22.829  35.664  1.00  0.00     0.124 S 
ATOM    100  O   UNL A   1      48.479  23.089  36.439  1.00  0.00    -0.237 OA
ATOM    101  O   UNL A   1      46.012  23.214  36.298  1.00  0.00    -0.237 OA
ATOM    102  O   UNL A   1      47.243  21.545  34.967  1.00  0.00    -0.744 OA
ENDBRANCH  95  99
ENDBRANCH  69  92
ENDBRANCH  43  44
ENDBRANCH  35  38
ENDBRANCH  33  34
ENDBRANCH  32  33
ENDBRANCH  31  32
ENDBRANCH   1  31
TORSDOF 20
ENDMDL
MODEL 2
REMARK VINA RESULT:     -10.8      2.372      3.527
REMARK SMILES NC(=O)c1cc(NC(=O)/C=C\C(=O)NCCCCCCNC(=O)c2ccc(-c3c4nc(c(-c5cc(S(=O)(=O)[O-])ccc5F)c5ccc([nH]5)c(-c5cc(S(=O)(=O)[O-])ccc5F)c5nc(c(-c6cc(S(=O)(=O)[O-])ccc6F)c6ccc3[nH]6)C=C5)C=C4)cc2)ccc1N1CCOCC1
REMARK SMILES IDX 17 1 16 2 15 3 14 4 12 5 13 6 11 8 10 9 8 10 7 11 9 13 6 14
REMARK SMILES IDX 4 15 5 16 89 17 88 18 87 19 2 20 1 21 3 24 90 25 91 26 95 27
REMARK SMILES IDX 92 28 94 29 93 30 18 31 19 32 20 33 21 34 22 35 23 37 24 38
REMARK SMILES IDX 25 39 86 40 26 41 85 42 27 43 28 44 29 45 79 46 30 47 84 48
REMARK SMILES IDX 78 49 80 50 31 51 83 52 77 53 76 54 32 56 64 57 44 58 63 59
REMARK SMILES IDX 45 60 48 61 62 62 81 63 46 64 47 65 61 67 82 68 49 69 33 70
REMARK SMILES IDX 34 71 42 72 35 73 41 74 43 75 40 76 36 77 37 78 38 79 39 80
REMARK SMILES IDX 65 81 66 82 74 83 67 84 73 85 75 86 72 87 68 88 69 89 70 90
REMARK SMILES IDX 71 91 50 92 51 93 59 94 52 95 58 96 60 97 57 98 53 99 54 100
REMARK SMILES IDX 55 101 56 102
REMARK H PARENT 14 7 7 12 1 22 1 23 21 36 80 55 48 66
REMARK Flexibility Score: inf
ROOT
ATOM      1  C   UNL A   1      33.894  27.495  23.963  1.00  0.00     0.002 C 
ENDROOT
BRANCH   1   2
ATOM      2  C   UNL A   1      33.069  26.840  22.853  1.00  0.00     0.021 C 
BRANCH   2   3
ATOM      3  C   UNL A   1      33.189  25.324  22.739  1.00  0.00     0.116 C 
BRANCH   3   4
ATOM      4  N   UNL A   1      31.954  24.594  22.931  1.00  0.00    -0.353 N 
ATOM      5  C   UNL A   1      30.788  25.041  23.454  1.00  0.00     0.244 C 
ATOM      6  O   UNL A   1      29.721  24.577  23.060  1.00  0.00    -0.270 OA
ATOM      7  H   UNL A   1      31.964  23.651  22.644  1.00  0.00     0.163 HD
BRANCH   5   8
ATOM      8  C   UNL A   1      30.768  26.111  24.466  1.00  0.00     0.077 C 
ATOM      9  C   UNL A   1      30.292  26.062  25.718  1.00  0.00     0.077 C 
BRANCH   9  10
ATOM     10  C   UNL A   1      29.804  24.934  26.545  1.00  0.00     0.248 C 
ATOM     11  N   UNL A   1      30.521  23.814  26.810  1.00  0.00    -0.322 N 
ATOM     12  H   UNL A   1      30.208  23.323  27.604  1.00  0.00     0.170 HD
ATOM     13  O   UNL A   1      28.692  25.059  27.067  1.00  0.00    -0.270 OA
BRANCH  11  14
ATOM     14  C   UNL A   1      31.618  23.218  26.180  1.00  0.00     0.042 A 
ATOM     15  C   UNL A   1      32.681  21.541  24.783  1.00  0.00     0.064 A 
ATOM     16  C   UNL A   1      31.535  22.061  25.419  1.00  0.00     0.042 A 
ATOM     17  C   UNL A   1      33.943  22.150  24.919  1.00  0.00     0.050 A 
ATOM     18  C   UNL A   1      33.984  23.318  25.703  1.00  0.00     0.029 A 
ATOM     19  C   UNL A   1      32.861  23.817  26.360  1.00  0.00     0.028 A 
BRANCH  15  20
ATOM     20  C   UNL A   1      32.451  20.263  24.081  1.00  0.00     0.250 C 
ATOM     21  N   UNL A   1      32.117  20.386  22.761  1.00  0.00    -0.366 N 
ATOM     22  H   UNL A   1      31.946  19.583  22.218  1.00  0.00     0.159 HD
ATOM     23  H   UNL A   1      32.048  21.280  22.352  1.00  0.00     0.159 HD
ATOM     24  O   UNL A   1      32.569  19.166  24.608  1.00  0.00    -0.269 OA
ENDBRANCH  15  20
BRANCH  17  25
ATOM     25  N   UNL A   1      35.157  21.687  24.442  1.00  0.00    -0.366 N 
ATOM     26  C   UNL A   1      36.009  20.702  25.123  1.00  0.00     0.145 C 
ATOM     27  C   UNL A   1      35.898  22.568  23.523  1.00  0.00     0.145 C 
ATOM     28  C   UNL A   1      37.243  21.377  25.755  1.00  0.00     0.181 C 
ATOM     29  C   UNL A   1      37.031  23.241  24.308  1.00  0.00     0.181 C 
ATOM     30  O   UNL A   1      37.932  22.253  24.836  1.00  0.00    -0.378 OA
ENDBRANCH  17  25
ENDBRANCH  11  14
ENDBRANCH   9  10
ENDBRANCH   5   8
ENDBRANCH   3   4
ENDBRANCH   2   3
ENDBRANCH   1   2
BRANCH   1  31
ATOM     31  C   UNL A   1      33.778  29.012  24.093  1.00  0.00     0.002 C 
BRANCH  31  32
ATOM     32  C   UNL A   1      32.705  29.487  25.067  1.00  0.00     0.021 C 
BRANCH  32  33
ATOM     33  C   UNL A   1      33.226  29.795  26.464  1.00  0.00     0.116 C 
BRANCH  33  34
ATOM     34  N   UNL A   1      33.049  31.194  26.820  1.00  0.00    -0.352 N 
ATOM     35  C   UNL A   1      33.854  31.944  27.645  1.00  0.00     0.251 C 
ATOM     36  H   UNL A   1      32.270  31.653  26.429  1.00  0.00     0.163 HD
ATOM     37  O   UNL A   1      33.508  33.056  28.028  1.00  0.00    -0.269 OA
BRANCH  35  38
ATOM     38  C   UNL A   1      35.137  31.352  28.077  1.00  0.00     0.039 A 
ATOM     39  C   UNL A   1      36.298  32.123  28.029  1.00  0.00     0.014 A 
ATOM     40  C   UNL A   1      35.149  30.068  28.631  1.00  0.00     0.014 A 
ATOM     41  C   UNL A   1      37.474  31.617  28.587  1.00  0.00     0.010 A 
ATOM     42  C   UNL A   1      36.302  29.600  29.250  1.00  0.00     0.010 A 
ATOM     43  C   UNL A   1      37.479  30.365  29.228  1.00  0.00    -0.014 A 
BRANCH  43  44
ATOM     44  C   UNL A   1      38.712  29.830  29.861  1.00  0.00     0.031 A 
ATOM     45  C   UNL A   1      39.129  30.332  31.217  1.00  0.00     0.074 A 
ATOM     46  C   UNL A   1      39.476  28.937  29.200  1.00  0.00     0.049 A 
ATOM     47  N   UNL A   1      40.193  30.038  31.918  1.00  0.00    -0.248 NA
ATOM     48  C   UNL A   1      38.245  31.320  31.854  1.00  0.00     0.031 C 
ATOM     49  C   UNL A   1      39.193  28.407  27.865  1.00  0.00     0.029 A 
ATOM     50  N   UNL A   1      40.648  28.319  29.558  1.00  0.00    -0.354 N 
ATOM     51  C   UNL A   1      40.111  30.810  33.072  1.00  0.00     0.074 A 
ATOM     52  C   UNL A   1      38.931  31.635  32.941  1.00  0.00     0.031 C 
ATOM     53  C   UNL A   1      40.149  27.524  27.530  1.00  0.00     0.029 A 
ATOM     54  C   UNL A   1      41.137  27.458  28.603  1.00  0.00     0.049 A 
ATOM     55  H   UNL A   1      41.099  28.477  30.420  1.00  0.00     0.167 HD
ATOM     56  C   UNL A   1      40.931  30.810  34.152  1.00  0.00     0.034 A 
ATOM     57  C   UNL A   1      42.259  26.709  28.588  1.00  0.00     0.034 A 
ATOM     58  C   UNL A   1      42.099  29.971  34.268  1.00  0.00     0.049 A 
ATOM     59  C   UNL A   1      43.173  26.748  29.789  1.00  0.00     0.074 A 
ATOM     60  C   UNL A   1      42.972  29.853  35.334  1.00  0.00     0.029 A 
ATOM     61  N   UNL A   1      42.564  29.115  33.277  1.00  0.00    -0.354 N 
ATOM     62  N   UNL A   1      43.052  27.444  30.897  1.00  0.00    -0.248 NA
ATOM     63  C   UNL A   1      44.365  25.893  29.745  1.00  0.00     0.031 C 
ATOM     64  C   UNL A   1      44.003  28.986  34.963  1.00  0.00     0.029 A 
ATOM     65  C   UNL A   1      43.729  28.491  33.697  1.00  0.00     0.049 A 
ATOM     66  H   UNL A   1      42.131  28.971  32.405  1.00  0.00     0.167 HD
ATOM     67  C   UNL A   1      44.133  27.079  31.694  1.00  0.00     0.074 A 
ATOM     68  C   UNL A   1      44.886  26.094  30.945  1.00  0.00     0.031 C 
ATOM     69  C   UNL A   1      44.472  27.513  32.936  1.00  0.00     0.034 A 
BRANCH  56  70
ATOM     70  C   UNL A   1      40.600  31.763  35.277  1.00  0.00     0.023 A 
ATOM     71  C   UNL A   1      39.517  31.537  36.144  1.00  0.00     0.031 A 
ATOM     72  C   UNL A   1      41.365  32.926  35.472  1.00  0.00     0.131 A 
ATOM     73  C   UNL A   1      39.181  32.495  37.112  1.00  0.00     0.055 A 
ATOM     74  C   UNL A   1      41.079  33.833  36.495  1.00  0.00     0.041 A 
ATOM     75  F   UNL A   1      42.399  33.209  34.663  1.00  0.00    -0.206 F 
ATOM     76  C   UNL A   1      39.972  33.629  37.313  1.00  0.00     0.022 A 
BRANCH  73  77
ATOM     77  S   UNL A   1      37.614  32.311  38.006  1.00  0.00     0.124 S 
ATOM     78  O   UNL A   1      37.469  30.857  38.050  1.00  0.00    -0.237 OA
ATOM     79  O   UNL A   1      37.897  32.964  39.278  1.00  0.00    -0.237 OA
ATOM     80  O   UNL A   1      36.649  32.999  37.151  1.00  0.00    -0.744 OA
ENDBRANCH  73  77
ENDBRANCH  56  70
BRANCH  57  81
ATOM     81  C   UNL A   1      42.594  25.864  27.404  1.00  0.00     0.023 A 
ATOM     82  C   UNL A   1      42.184  24.523  27.329  1.00  0.00     0.031 A 
ATOM     83  C   UNL A   1      43.377  26.371  26.351  1.00  0.00     0.131 A 
ATOM     84  C   UNL A   1      42.601  23.721  26.256  1.00  0.00     0.055 A 
ATOM     85  C   UNL A   1      43.739  25.585  25.255  1.00  0.00     0.041 A 
ATOM     86  F   UNL A   1      43.797  27.647  26.368  1.00  0.00    -0.206 F 
ATOM     87  C   UNL A   1      43.363  24.247  25.210  1.00  0.00     0.022 A 
BRANCH  84  88
ATOM     88  S   UNL A   1      42.216  21.948  26.294  1.00  0.00     0.124 S 
ATOM     89  O   UNL A   1      40.766  21.957  26.131  1.00  0.00    -0.237 OA
ATOM     90  O   UNL A   1      42.988  21.447  25.162  1.00  0.00    -0.237 OA
ATOM     91  O   UNL A   1      42.694  21.526  27.609  1.00  0.00    -0.744 OA
ENDBRANCH  84  88
ENDBRANCH  57  81
BRANCH  69  92
ATOM     92  C   UNL A   1      45.679  26.879  33.585  1.00  0.00     0.023 A 
ATOM     93  C   UNL A   1      45.589  25.683  34.318  1.00  0.00     0.031 A 
ATOM     94  C   UNL A   1      46.942  27.488  33.465  1.00  0.00     0.131 A 
ATOM     95  C   UNL A   1      46.730  25.163  34.948  1.00  0.00     0.055 A 
ATOM     96  C   UNL A   1      48.085  26.929  34.038  1.00  0.00     0.041 A 
ATOM     97  F   UNL A   1      47.086  28.633  32.778  1.00  0.00    -0.206 F 
ATOM     98  C   UNL A   1      47.980  25.767  34.796  1.00  0.00     0.022 A 
BRANCH  95  99
ATOM     99  S   UNL A   1      46.542  23.734  36.049  1.00  0.00     0.124 S 
ATOM    100  O   UNL A   1      47.009  22.638  35.205  1.00  0.00    -0.237 OA
ATOM    101  O   UNL A   1      47.406  24.088  37.171  1.00  0.00    -0.237 OA
ATOM    102  O   UNL A   1      45.112  23.719  36.351  1.00  0.00    -0.744 OA
ENDBRANCH  95  99
ENDBRANCH  69  92
ENDBRANCH  43  44
ENDBRANCH  35  38
ENDBRANCH  33  34
ENDBRANCH  32  33
ENDBRANCH  31  32
ENDBRANCH   1  31
TORSDOF 20
ENDMDL
MODEL 3
REMARK VINA RESULT:     -10.5      1.486      2.890
REMARK SMILES NC(=O)c1cc(NC(=O)/C=C\C(=O)NCCCCCCNC(=O)c2ccc(-c3c4nc(c(-c5cc(S(=O)(=O)[O-])ccc5F)c5ccc([nH]5)c(-c5cc(S(=O)(=O)[O-])ccc5F)c5nc(c(-c6cc(S(=O)(=O)[O-])ccc6F)c6ccc3[nH]6)C=C5)C=C4)cc2)ccc1N1CCOCC1
REMARK SMILES IDX 17 1 16 2 15 3 14 4 12 5 13 6 11 8 10 9 8 10 7 11 9 13 6 14
REMARK SMILES IDX 4 15 5 16 89 17 88 18 87 19 2 20 1 21 3 24 90 25 91 26 95 27
REMARK SMILES IDX 92 28 94 29 93 30 18 31 19 32 20 33 21 34 22 35 23 37 24 38
REMARK SMILES IDX 25 39 86 40 26 41 85 42 27 43 28 44 29 45 79 46 30 47 84 48
REMARK SMILES IDX 78 49 80 50 31 51 83 52 77 53 76 54 32 56 64 57 44 58 63 59
REMARK SMILES IDX 45 60 48 61 62 62 81 63 46 64 47 65 61 67 82 68 49 69 33 70
REMARK SMILES IDX 34 71 42 72 35 73 41 74 43 75 40 76 36 77 37 78 38 79 39 80
REMARK SMILES IDX 65 81 66 82 74 83 67 84 73 85 75 86 72 87 68 88 69 89 70 90
REMARK SMILES IDX 71 91 50 92 51 93 59 94 52 95 58 96 60 97 57 98 53 99 54 100
REMARK SMILES IDX 55 101 56 102
REMARK H PARENT 14 7 7 12 1 22 1 23 21 36 80 55 48 66
REMARK Flexibility Score: inf
ROOT
ATOM      1  C   UNL A   1      33.576  27.238  24.234  1.00  0.00     0.002 C 
ENDROOT
BRANCH   1   2
ATOM      2  C   UNL A   1      32.960  26.743  22.924  1.00  0.00     0.021 C 
BRANCH   2   3
ATOM      3  C   UNL A   1      33.008  25.236  22.692  1.00  0.00     0.116 C 
BRANCH   3   4
ATOM      4  N   UNL A   1      31.751  24.545  22.882  1.00  0.00    -0.353 N 
ATOM      5  C   UNL A   1      30.600  25.026  23.410  1.00  0.00     0.244 C 
ATOM      6  O   UNL A   1      29.518  24.600  23.016  1.00  0.00    -0.270 OA
ATOM      7  H   UNL A   1      31.729  23.605  22.589  1.00  0.00     0.163 HD
BRANCH   5   8
ATOM      8  C   UNL A   1      30.618  26.090  24.429  1.00  0.00     0.077 C 
ATOM      9  C   UNL A   1      30.192  26.032  25.699  1.00  0.00     0.077 C 
BRANCH   9  10
ATOM     10  C   UNL A   1      29.740  24.897  26.537  1.00  0.00     0.248 C 
ATOM     11  N   UNL A   1      30.489  23.798  26.804  1.00  0.00    -0.322 N 
ATOM     12  H   UNL A   1      30.196  23.304  27.603  1.00  0.00     0.170 HD
ATOM     13  O   UNL A   1      28.631  24.997  27.069  1.00  0.00    -0.270 OA
BRANCH  11  14
ATOM     14  C   UNL A   1      31.595  23.226  26.168  1.00  0.00     0.042 A 
ATOM     15  C   UNL A   1      32.683  21.593  24.738  1.00  0.00     0.064 A 
ATOM     16  C   UNL A   1      31.528  22.088  25.378  1.00  0.00     0.042 A 
ATOM     17  C   UNL A   1      33.938  22.208  24.899  1.00  0.00     0.050 A 
ATOM     18  C   UNL A   1      33.964  23.357  25.712  1.00  0.00     0.029 A 
ATOM     19  C   UNL A   1      32.832  23.831  26.371  1.00  0.00     0.028 A 
BRANCH  15  20
ATOM     20  C   UNL A   1      32.468  20.331  24.004  1.00  0.00     0.250 C 
ATOM     21  N   UNL A   1      32.104  20.484  22.694  1.00  0.00    -0.366 N 
ATOM     22  H   UNL A   1      31.941  19.693  22.132  1.00  0.00     0.159 HD
ATOM     23  H   UNL A   1      32.005  21.388  22.314  1.00  0.00     0.159 HD
ATOM     24  O   UNL A   1      32.623  19.222  24.494  1.00  0.00    -0.269 OA
ENDBRANCH  15  20
BRANCH  17  25
ATOM     25  N   UNL A   1      35.160  21.767  24.420  1.00  0.00    -0.366 N 
ATOM     26  C   UNL A   1      36.004  20.757  25.072  1.00  0.00     0.145 C 
ATOM     27  C   UNL A   1      35.911  22.685  23.547  1.00  0.00     0.145 C 
ATOM     28  C   UNL A   1      37.228  21.408  25.747  1.00  0.00     0.181 C 
ATOM     29  C   UNL A   1      37.032  23.328  24.373  1.00  0.00     0.181 C 
ATOM     30  O   UNL A   1      37.928  22.321  24.873  1.00  0.00    -0.378 OA
ENDBRANCH  17  25
ENDBRANCH  11  14
ENDBRANCH   9  10
ENDBRANCH   5   8
ENDBRANCH   3   4
ENDBRANCH   2   3
ENDBRANCH   1   2
BRANCH   1  31
ATOM     31  C   UNL A   1      33.838  28.739  24.340  1.00  0.00     0.002 C 
BRANCH  31  32
ATOM     32  C   UNL A   1      33.035  29.450  25.423  1.00  0.00     0.021 C 
BRANCH  32  33
ATOM     33  C   UNL A   1      33.750  29.550  26.763  1.00  0.00     0.116 C 
BRANCH  33  34
ATOM     34  N   UNL A   1      33.671  30.887  27.330  1.00  0.00    -0.352 N 
ATOM     35  C   UNL A   1      34.526  31.446  28.251  1.00  0.00     0.251 C 
ATOM     36  H   UNL A   1      32.927  31.453  27.020  1.00  0.00     0.163 HD
ATOM     37  O   UNL A   1      34.259  32.507  28.802  1.00  0.00    -0.269 OA
BRANCH  35  38
ATOM     38  C   UNL A   1      35.764  30.707  28.575  1.00  0.00     0.039 A 
ATOM     39  C   UNL A   1      36.948  31.029  27.911  1.00  0.00     0.014 A 
ATOM     40  C   UNL A   1      35.756  29.777  29.618  1.00  0.00     0.014 A 
ATOM     41  C   UNL A   1      38.145  30.446  28.331  1.00  0.00     0.010 A 
ATOM     42  C   UNL A   1      36.959  29.254  30.080  1.00  0.00     0.010 A 
ATOM     43  C   UNL A   1      38.165  29.577  29.437  1.00  0.00    -0.014 A 
BRANCH  43  44
ATOM     44  C   UNL A   1      39.436  28.978  29.921  1.00  0.00     0.031 A 
ATOM     45  C   UNL A   1      40.137  29.582  31.108  1.00  0.00     0.074 A 
ATOM     46  C   UNL A   1      39.979  27.931  29.269  1.00  0.00     0.049 A 
ATOM     47  N   UNL A   1      41.278  29.249  31.653  1.00  0.00    -0.248 NA
ATOM     48  C   UNL A   1      39.481  30.735  31.743  1.00  0.00     0.031 C 
ATOM     49  C   UNL A   1      39.410  27.285  28.084  1.00  0.00     0.029 A 
ATOM     50  N   UNL A   1      41.132  27.225  29.506  1.00  0.00    -0.354 N 
ATOM     51  C   UNL A   1      41.480  30.155  32.689  1.00  0.00     0.074 A 
ATOM     52  C   UNL A   1      40.380  31.092  32.648  1.00  0.00     0.031 C 
ATOM     53  C   UNL A   1      40.200  26.263  27.717  1.00  0.00     0.029 A 
ATOM     54  C   UNL A   1      41.356  26.206  28.608  1.00  0.00     0.049 A 
ATOM     55  H   UNL A   1      41.744  27.429  30.251  1.00  0.00     0.167 HD
ATOM     56  C   UNL A   1      42.478  30.184  33.607  1.00  0.00     0.034 A 
ATOM     57  C   UNL A   1      42.379  25.334  28.507  1.00  0.00     0.034 A 
ATOM     58  C   UNL A   1      43.562  29.234  33.638  1.00  0.00     0.049 A 
ATOM     59  C   UNL A   1      43.495  25.406  29.522  1.00  0.00     0.074 A 
ATOM     60  C   UNL A   1      44.598  29.139  34.549  1.00  0.00     0.029 A 
ATOM     61  N   UNL A   1      43.757  28.218  32.709  1.00  0.00    -0.354 N 
ATOM     62  N   UNL A   1      43.644  26.236  30.530  1.00  0.00    -0.248 NA
ATOM     63  C   UNL A   1      44.572  24.417  29.395  1.00  0.00     0.031 C 
ATOM     64  C   UNL A   1      45.458  28.119  34.132  1.00  0.00     0.029 A 
ATOM     65  C   UNL A   1      44.913  27.516  33.009  1.00  0.00     0.049 A 
ATOM     66  H   UNL A   1      43.161  28.026  31.949  1.00  0.00     0.167 HD
ATOM     67  C   UNL A   1      44.812  25.841  31.177  1.00  0.00     0.074 A 
ATOM     68  C   UNL A   1      45.319  24.694  30.453  1.00  0.00     0.031 C 
ATOM     69  C   UNL A   1      45.409  26.374  32.274  1.00  0.00     0.034 A 
BRANCH  56  70
ATOM     70  C   UNL A   1      42.449  31.295  34.632  1.00  0.00     0.023 A 
ATOM     71  C   UNL A   1      43.063  32.537  34.392  1.00  0.00     0.031 A 
ATOM     72  C   UNL A   1      41.819  31.103  35.873  1.00  0.00     0.131 A 
ATOM     73  C   UNL A   1      43.102  33.507  35.405  1.00  0.00     0.055 A 
ATOM     74  C   UNL A   1      41.785  32.105  36.845  1.00  0.00     0.041 A 
ATOM     75  F   UNL A   1      41.235  29.930  36.169  1.00  0.00    -0.206 F 
ATOM     76  C   UNL A   1      42.442  33.310  36.620  1.00  0.00     0.022 A 
BRANCH  73  77
ATOM     77  S   UNL A   1      44.150  34.968  35.166  1.00  0.00     0.124 S 
ATOM     78  O   UNL A   1      44.858  34.623  33.935  1.00  0.00    -0.237 OA
ATOM     79  O   UNL A   1      43.173  36.044  35.062  1.00  0.00    -0.237 OA
ATOM     80  O   UNL A   1      44.982  34.992  36.367  1.00  0.00    -0.744 OA
ENDBRANCH  73  77
ENDBRANCH  56  70
BRANCH  57  81
ATOM     81  C   UNL A   1      42.412  24.323  27.410  1.00  0.00     0.023 A 
ATOM     82  C   UNL A   1      41.844  23.050  27.578  1.00  0.00     0.031 A 
ATOM     83  C   UNL A   1      43.061  24.597  26.192  1.00  0.00     0.131 A 
ATOM     84  C   UNL A   1      41.981  22.083  26.570  1.00  0.00     0.055 A 
ATOM     85  C   UNL A   1      43.142  23.651  25.168  1.00  0.00     0.041 A 
ATOM     86  F   UNL A   1      43.622  25.799  25.975  1.00  0.00    -0.206 F 
ATOM     87  C   UNL A   1      42.613  22.379  25.360  1.00  0.00     0.022 A 
BRANCH  84  88
ATOM     88  S   UNL A   1      41.407  20.394  26.902  1.00  0.00     0.124 S 
ATOM     89  O   UNL A   1      40.466  20.181  25.808  1.00  0.00    -0.237 OA
ATOM     90  O   UNL A   1      42.651  19.634  26.838  1.00  0.00    -0.237 OA
ATOM     91  O   UNL A   1      40.807  20.494  28.231  1.00  0.00    -0.744 OA
ENDBRANCH  84  88
ENDBRANCH  57  81
BRANCH  69  92
ATOM     92  C   UNL A   1      46.648  25.683  32.791  1.00  0.00     0.023 A 
ATOM     93  C   UNL A   1      46.586  24.678  33.772  1.00  0.00     0.031 A 
ATOM     94  C   UNL A   1      47.913  26.040  32.290  1.00  0.00     0.131 A 
ATOM     95  C   UNL A   1      47.770  24.105  34.259  1.00  0.00     0.055 A 
ATOM     96  C   UNL A   1      49.082  25.418  32.731  1.00  0.00     0.041 A 
ATOM     97  F   UNL A   1      48.032  26.996  31.354  1.00  0.00    -0.206 F 
ATOM     98  C   UNL A   1      49.015  24.454  33.731  1.00  0.00     0.022 A 
BRANCH  95  99
ATOM     99  S   UNL A   1      47.670  22.959  35.663  1.00  0.00     0.124 S 
ATOM    100  O   UNL A   1      48.494  21.845  35.204  1.00  0.00    -0.237 OA
ATOM    101  O   UNL A   1      48.223  23.754  36.755  1.00  0.00    -0.237 OA
ATOM    102  O   UNL A   1      46.241  22.672  35.769  1.00  0.00    -0.744 OA
ENDBRANCH  95  99
ENDBRANCH  69  92
ENDBRANCH  43  44
ENDBRANCH  35  38
ENDBRANCH  33  34
ENDBRANCH  32  33
ENDBRANCH  31  32
ENDBRANCH   1  31
TORSDOF 20
ENDMDL
