MODEL 1
REMARK VINA RESULT:     -11.9      0.000      0.000
REMARK SMILES Cc1nn(C)cc1C[NH+]1CCN(C(=O)Cn2ccc(C(=O)NCCCCCCNC(=O)c3ccc(-c4c5nc(c(-c6cc(S(=O)(=O)[O-])ccc6F)c6ccc([nH]6)c(-c6cc(S(=O)(=O)[O-])ccc6F)c6nc(c(-c7cc(S(=O)(=O)[O-])ccc7F)c7ccc4[nH]7)C=C6)C=C5)cc3)n2)CC1
REMARK SMILES IDX 25 1 24 2 23 3 22 4 20 5 21 6 19 8 16 9 17 10 95 11 18 12
REMARK SMILES IDX 15 13 13 14 9 15 10 16 97 17 11 19 96 20 12 21 14 22 8 23
REMARK SMILES IDX 7 24 1 25 2 26 3 27 4 28 6 29 5 30 26 31 27 32 28 33 29 34
REMARK SMILES IDX 30 35 31 37 32 38 33 39 94 40 34 41 93 42 35 43 36 44 37 45
REMARK SMILES IDX 87 46 38 47 92 48 86 49 88 50 39 51 91 52 85 53 84 54 40 56
REMARK SMILES IDX 72 57 52 58 71 59 53 60 56 61 70 62 89 63 54 64 55 65 69 67
REMARK SMILES IDX 90 68 57 69 41 70 42 71 50 72 43 73 49 74 51 75 48 76 44 77
REMARK SMILES IDX 45 78 46 79 47 80 73 81 74 82 82 83 75 84 81 85 83 86 80 87
REMARK SMILES IDX 76 88 77 89 78 90 79 91 58 92 59 93 67 94 60 95 66 96 68 97
REMARK SMILES IDX 65 98 61 99 62 100 63 101 64 102
REMARK H PARENT 22 7 9 18 29 36 88 55 56 66
REMARK Flexibility Score: inf
ROOT
ATOM      1  C   UNL A   1      32.669  29.478  24.732  1.00  0.00     0.002 C 
ENDROOT
BRANCH   1   2
ATOM      2  C   UNL A   1      33.196  29.189  23.319  1.00  0.00     0.021 C 
BRANCH   2   3
ATOM      3  C   UNL A   1      33.812  27.799  23.160  1.00  0.00     0.116 C 
BRANCH   3   4
ATOM      4  N   UNL A   1      33.200  27.086  22.061  1.00  0.00    -0.351 N 
ATOM      5  C   UNL A   1      32.049  26.346  21.949  1.00  0.00     0.271 C 
ATOM      6  O   UNL A   1      31.799  25.928  20.814  1.00  0.00    -0.267 OA
ATOM      7  H   UNL A   1      33.713  27.143  21.223  1.00  0.00     0.163 HD
BRANCH   5   8
ATOM      8  C   UNL A   1      31.149  26.087  23.097  1.00  0.00     0.150 A 
ATOM      9  N   UNL A   1      30.296  24.944  24.705  1.00  0.00    -0.263 N 
ATOM     10  C   UNL A   1      29.627  26.127  24.736  1.00  0.00     0.110 A 
ATOM     11  N   UNL A   1      31.225  24.898  23.734  1.00  0.00    -0.167 NA
ATOM     12  C   UNL A   1      30.178  26.900  23.741  1.00  0.00     0.056 A 
BRANCH   9  13
ATOM     13  C   UNL A   1      30.241  23.830  25.644  1.00  0.00     0.244 C 
BRANCH  13  14
ATOM     14  C   UNL A   1      31.476  23.716  26.516  1.00  0.00     0.244 C 
ATOM     15  N   UNL A   1      34.491  20.634  25.820  1.00  0.00    -0.328 N 
ATOM     16  C   UNL A   1      34.569  21.591  26.928  1.00  0.00     0.284 C 
ATOM     17  C   UNL A   1      33.106  20.417  25.402  1.00  0.00     0.284 C 
ATOM     18  H   UNL A   1      34.812  19.745  26.202  1.00  0.00     0.348 HD
ATOM     19  C   UNL A   1      33.755  22.886  26.768  1.00  0.00     0.181 C 
ATOM     20  C   UNL A   1      32.209  21.660  25.241  1.00  0.00     0.181 C 
ATOM     21  N   UNL A   1      32.392  22.695  26.262  1.00  0.00    -0.330 N 
ATOM     22  O   UNL A   1      31.673  24.543  27.412  1.00  0.00    -0.273 OA
BRANCH  15  23
ATOM     23  C   UNL A   1      35.482  20.785  24.746  1.00  0.00     0.302 C 
BRANCH  23  24
ATOM     24  C   UNL A   1      36.726  21.487  25.161  1.00  0.00     0.047 A 
ATOM     25  C   UNL A   1      38.504  19.547  25.211  1.00  0.00     0.069 C 
ATOM     26  C   UNL A   1      38.020  20.937  25.403  1.00  0.00     0.068 A 
ATOM     27  N   UNL A   1      38.852  21.848  25.920  1.00  0.00    -0.178 NA
ATOM     28  N   UNL A   1      38.136  22.980  25.931  1.00  0.00    -0.275 N 
ATOM     29  C   UNL A   1      36.906  22.842  25.365  1.00  0.00     0.118 A 
ATOM     30  C   UNL A   1      38.639  24.142  26.623  1.00  0.00     0.173 C 
ENDBRANCH  23  24
ENDBRANCH  15  23
ENDBRANCH  13  14
ENDBRANCH   9  13
ENDBRANCH   5   8
ENDBRANCH   3   4
ENDBRANCH   2   3
ENDBRANCH   1   2
BRANCH   1  31
ATOM     31  C   UNL A   1      33.226  28.579  25.848  1.00  0.00     0.002 C 
BRANCH  31  32
ATOM     32  C   UNL A   1      33.635  29.287  27.148  1.00  0.00     0.021 C 
BRANCH  32  33
ATOM     33  C   UNL A   1      34.711  30.347  26.959  1.00  0.00     0.116 C 
BRANCH  33  34
ATOM     34  N   UNL A   1      34.650  31.376  27.994  1.00  0.00    -0.352 N 
ATOM     35  C   UNL A   1      35.446  31.513  29.111  1.00  0.00     0.251 C 
ATOM     36  H   UNL A   1      33.952  32.061  27.878  1.00  0.00     0.163 HD
ATOM     37  O   UNL A   1      35.048  32.164  30.078  1.00  0.00    -0.269 OA
BRANCH  35  38
ATOM     38  C   UNL A   1      36.768  30.867  29.132  1.00  0.00     0.039 A 
ATOM     39  C   UNL A   1      37.919  31.578  29.477  1.00  0.00     0.014 A 
ATOM     40  C   UNL A   1      36.838  29.510  28.817  1.00  0.00     0.014 A 
ATOM     41  C   UNL A   1      39.128  30.892  29.585  1.00  0.00     0.010 A 
ATOM     42  C   UNL A   1      37.995  28.812  29.060  1.00  0.00     0.010 A 
ATOM     43  C   UNL A   1      39.156  29.501  29.397  1.00  0.00    -0.014 A 
BRANCH  43  44
ATOM     44  C   UNL A   1      40.361  28.725  29.686  1.00  0.00     0.031 A 
ATOM     45  C   UNL A   1      40.662  28.577  31.135  1.00  0.00     0.074 A 
ATOM     46  C   UNL A   1      41.011  27.993  28.754  1.00  0.00     0.049 A 
ATOM     47  N   UNL A   1      41.651  29.084  31.792  1.00  0.00    -0.248 NA
ATOM     48  C   UNL A   1      39.662  27.920  31.993  1.00  0.00     0.031 C 
ATOM     49  C   UNL A   1      40.647  27.798  27.345  1.00  0.00     0.029 A 
ATOM     50  N   UNL A   1      42.079  27.158  28.899  1.00  0.00    -0.354 N 
ATOM     51  C   UNL A   1      41.542  28.596  33.091  1.00  0.00     0.074 A 
ATOM     52  C   UNL A   1      40.200  28.090  33.203  1.00  0.00     0.031 C 
ATOM     53  C   UNL A   1      41.317  26.737  26.844  1.00  0.00     0.029 A 
ATOM     54  C   UNL A   1      42.281  26.285  27.831  1.00  0.00     0.049 A 
ATOM     55  H   UNL A   1      42.661  27.172  29.693  1.00  0.00     0.167 HD
ATOM     56  C   UNL A   1      42.646  28.419  33.870  1.00  0.00     0.034 A 
ATOM     57  C   UNL A   1      43.160  25.247  27.762  1.00  0.00     0.034 A 
ATOM     58  C   UNL A   1      43.783  29.121  33.311  1.00  0.00     0.049 A 
ATOM     59  C   UNL A   1      44.211  25.512  28.772  1.00  0.00     0.074 A 
ATOM     60  C   UNL A   1      44.036  30.439  32.975  1.00  0.00     0.029 A 
ATOM     61  N   UNL A   1      44.732  28.383  32.637  1.00  0.00    -0.354 N 
ATOM     62  N   UNL A   1      45.037  26.519  28.692  1.00  0.00    -0.248 NA
ATOM     63  C   UNL A   1      44.033  24.966  30.109  1.00  0.00     0.031 C 
ATOM     64  C   UNL A   1      44.756  30.368  31.745  1.00  0.00     0.029 A 
ATOM     65  C   UNL A   1      44.990  29.023  31.450  1.00  0.00     0.049 A 
ATOM     66  H   UNL A   1      45.149  27.548  32.951  1.00  0.00     0.167 HD
ATOM     67  C   UNL A   1      45.119  27.016  29.985  1.00  0.00     0.074 A 
ATOM     68  C   UNL A   1      44.572  25.954  30.829  1.00  0.00     0.031 C 
ATOM     69  C   UNL A   1      45.348  28.342  30.218  1.00  0.00     0.034 A 
BRANCH  56  70
ATOM     70  C   UNL A   1      42.822  27.322  34.905  1.00  0.00     0.023 A 
ATOM     71  C   UNL A   1      43.608  26.213  34.530  1.00  0.00     0.031 A 
ATOM     72  C   UNL A   1      42.056  27.153  36.080  1.00  0.00     0.131 A 
ATOM     73  C   UNL A   1      43.513  24.990  35.215  1.00  0.00     0.055 A 
ATOM     74  C   UNL A   1      42.019  25.954  36.800  1.00  0.00     0.041 A 
ATOM     75  F   UNL A   1      41.233  28.093  36.557  1.00  0.00    -0.206 F 
ATOM     76  C   UNL A   1      42.719  24.851  36.348  1.00  0.00     0.022 A 
BRANCH  73  77
ATOM     77  S   UNL A   1      44.293  23.533  34.475  1.00  0.00     0.124 S 
ATOM     78  O   UNL A   1      44.730  22.804  35.662  1.00  0.00    -0.237 OA
ATOM     79  O   UNL A   1      43.186  22.947  33.729  1.00  0.00    -0.237 OA
ATOM     80  O   UNL A   1      45.365  24.100  33.660  1.00  0.00    -0.744 OA
ENDBRANCH  73  77
ENDBRANCH  56  70
BRANCH  57  81
ATOM     81  C   UNL A   1      42.974  23.930  27.091  1.00  0.00     0.023 A 
ATOM     82  C   UNL A   1      43.819  23.462  26.061  1.00  0.00     0.031 A 
ATOM     83  C   UNL A   1      42.078  22.989  27.649  1.00  0.00     0.131 A 
ATOM     84  C   UNL A   1      43.752  22.111  25.639  1.00  0.00     0.055 A 
ATOM     85  C   UNL A   1      42.016  21.658  27.229  1.00  0.00     0.041 A 
ATOM     86  F   UNL A   1      41.291  23.311  28.687  1.00  0.00    -0.206 F 
ATOM     87  C   UNL A   1      42.863  21.209  26.229  1.00  0.00     0.022 A 
BRANCH  84  88
ATOM     88  S   UNL A   1      44.897  21.471  24.371  1.00  0.00     0.124 S 
ATOM     89  O   UNL A   1      46.202  21.785  24.942  1.00  0.00    -0.237 OA
ATOM     90  O   UNL A   1      44.538  20.059  24.305  1.00  0.00    -0.237 OA
ATOM     91  O   UNL A   1      44.550  22.243  23.176  1.00  0.00    -0.744 OA
ENDBRANCH  84  88
ENDBRANCH  57  81
BRANCH  69  92
ATOM     92  C   UNL A   1      45.819  29.209  29.064  1.00  0.00     0.023 A 
ATOM     93  C   UNL A   1      47.163  29.355  28.647  1.00  0.00     0.031 A 
ATOM     94  C   UNL A   1      44.828  29.836  28.287  1.00  0.00     0.131 A 
ATOM     95  C   UNL A   1      47.469  30.119  27.501  1.00  0.00     0.055 A 
ATOM     96  C   UNL A   1      45.132  30.568  27.141  1.00  0.00     0.041 A 
ATOM     97  F   UNL A   1      43.530  29.716  28.613  1.00  0.00    -0.206 F 
ATOM     98  C   UNL A   1      46.455  30.720  26.747  1.00  0.00     0.022 A 
BRANCH  95  99
ATOM     99  S   UNL A   1      49.197  30.374  26.980  1.00  0.00     0.124 S 
ATOM    100  O   UNL A   1      49.223  31.764  26.539  1.00  0.00    -0.237 OA
ATOM    101  O   UNL A   1      49.943  30.075  28.200  1.00  0.00    -0.237 OA
ATOM    102  O   UNL A   1      49.375  29.393  25.906  1.00  0.00    -0.744 OA
ENDBRANCH  95  99
ENDBRANCH  69  92
ENDBRANCH  43  44
ENDBRANCH  35  38
ENDBRANCH  33  34
ENDBRANCH  32  33
ENDBRANCH  31  32
ENDBRANCH   1  31
TORSDOF 20
ENDMDL
MODEL 2
REMARK VINA RESULT:     -11.9      2.052      6.864
REMARK SMILES Cc1nn(C)cc1C[NH+]1CCN(C(=O)Cn2ccc(C(=O)NCCCCCCNC(=O)c3ccc(-c4c5nc(c(-c6cc(S(=O)(=O)[O-])ccc6F)c6ccc([nH]6)c(-c6cc(S(=O)(=O)[O-])ccc6F)c6nc(c(-c7cc(S(=O)(=O)[O-])ccc7F)c7ccc4[nH]7)C=C6)C=C5)cc3)n2)CC1
REMARK SMILES IDX 25 1 24 2 23 3 22 4 20 5 21 6 19 8 16 9 17 10 95 11 18 12
REMARK SMILES IDX 15 13 13 14 9 15 10 16 97 17 11 19 96 20 12 21 14 22 8 23
REMARK SMILES IDX 7 24 1 25 2 26 3 27 4 28 6 29 5 30 26 31 27 32 28 33 29 34
REMARK SMILES IDX 30 35 31 37 32 38 33 39 94 40 34 41 93 42 35 43 36 44 37 45
REMARK SMILES IDX 87 46 38 47 92 48 86 49 88 50 39 51 91 52 85 53 84 54 40 56
REMARK SMILES IDX 72 57 52 58 71 59 53 60 56 61 70 62 89 63 54 64 55 65 69 67
REMARK SMILES IDX 90 68 57 69 41 70 42 71 50 72 43 73 49 74 51 75 48 76 44 77
REMARK SMILES IDX 45 78 46 79 47 80 73 81 74 82 82 83 75 84 81 85 83 86 80 87
REMARK SMILES IDX 76 88 77 89 78 90 79 91 58 92 59 93 67 94 60 95 66 96 68 97
REMARK SMILES IDX 65 98 61 99 62 100 63 101 64 102
REMARK H PARENT 22 7 9 18 29 36 88 55 56 66
REMARK Flexibility Score: inf
ROOT
ATOM      1  C   UNL A   1      32.983  29.118  24.725  1.00  0.00     0.002 C 
ENDROOT
BRANCH   1   2
ATOM      2  C   UNL A   1      33.297  28.927  23.234  1.00  0.00     0.021 C 
BRANCH   2   3
ATOM      3  C   UNL A   1      33.893  27.560  22.898  1.00  0.00     0.116 C 
BRANCH   3   4
ATOM      4  N   UNL A   1      33.169  26.935  21.814  1.00  0.00    -0.351 N 
ATOM      5  C   UNL A   1      31.931  26.345  21.731  1.00  0.00     0.271 C 
ATOM      6  O   UNL A   1      31.602  25.967  20.601  1.00  0.00    -0.267 OA
ATOM      7  H   UNL A   1      33.664  26.930  20.963  1.00  0.00     0.163 HD
BRANCH   5   8
ATOM      8  C   UNL A   1      31.035  26.196  22.900  1.00  0.00     0.150 A 
ATOM      9  N   UNL A   1      30.176  25.205  24.603  1.00  0.00    -0.263 N 
ATOM     10  C   UNL A   1      29.525  26.396  24.539  1.00  0.00     0.110 A 
ATOM     11  N   UNL A   1      31.099  25.064  23.635  1.00  0.00    -0.167 NA
ATOM     12  C   UNL A   1      30.080  27.074  23.480  1.00  0.00     0.056 A 
BRANCH   9  13
ATOM     13  C   UNL A   1      30.112  24.174  25.632  1.00  0.00     0.244 C 
BRANCH  13  14
ATOM     14  C   UNL A   1      31.369  24.086  26.476  1.00  0.00     0.244 C 
ATOM     15  N   UNL A   1      34.309  20.914  25.874  1.00  0.00    -0.328 N 
ATOM     16  C   UNL A   1      34.435  21.930  26.923  1.00  0.00     0.284 C 
ATOM     17  C   UNL A   1      32.910  20.700  25.506  1.00  0.00     0.284 C 
ATOM     18  H   UNL A   1      34.626  20.042  26.296  1.00  0.00     0.348 HD
ATOM     19  C   UNL A   1      33.639  23.229  26.713  1.00  0.00     0.181 C 
ATOM     20  C   UNL A   1      32.030  21.949  25.300  1.00  0.00     0.181 C 
ATOM     21  N   UNL A   1      32.260  23.036  26.255  1.00  0.00    -0.330 N 
ATOM     22  O   UNL A   1      31.605  24.958  27.318  1.00  0.00    -0.273 OA
BRANCH  15  23
ATOM     23  C   UNL A   1      35.272  20.987  24.767  1.00  0.00     0.302 C 
BRANCH  23  24
ATOM     24  C   UNL A   1      36.600  21.537  25.151  1.00  0.00     0.047 A 
ATOM     25  C   UNL A   1      38.179  19.439  24.968  1.00  0.00     0.069 C 
ATOM     26  C   UNL A   1      37.845  20.852  25.278  1.00  0.00     0.068 A 
ATOM     27  N   UNL A   1      38.789  21.642  25.802  1.00  0.00    -0.178 NA
ATOM     28  N   UNL A   1      38.189  22.833  25.929  1.00  0.00    -0.275 N 
ATOM     29  C   UNL A   1      36.923  22.852  25.430  1.00  0.00     0.118 A 
ATOM     30  C   UNL A   1      38.840  23.891  26.663  1.00  0.00     0.173 C 
ENDBRANCH  23  24
ENDBRANCH  15  23
ENDBRANCH  13  14
ENDBRANCH   9  13
ENDBRANCH   5   8
ENDBRANCH   3   4
ENDBRANCH   2   3
ENDBRANCH   1   2
BRANCH   1  31
ATOM     31  C   UNL A   1      33.562  28.054  25.671  1.00  0.00     0.002 C 
BRANCH  31  32
ATOM     32  C   UNL A   1      33.885  28.518  27.099  1.00  0.00     0.021 C 
BRANCH  32  33
ATOM     33  C   UNL A   1      35.290  29.081  27.260  1.00  0.00     0.116 C 
BRANCH  33  34
ATOM     34  N   UNL A   1      35.409  29.918  28.451  1.00  0.00    -0.352 N 
ATOM     35  C   UNL A   1      36.386  29.889  29.422  1.00  0.00     0.251 C 
ATOM     36  H   UNL A   1      34.700  30.591  28.576  1.00  0.00     0.163 HD
ATOM     37  O   UNL A   1      36.162  30.354  30.539  1.00  0.00    -0.269 OA
BRANCH  35  38
ATOM     38  C   UNL A   1      37.693  29.290  29.104  1.00  0.00     0.039 A 
ATOM     39  C   UNL A   1      38.485  29.782  28.064  1.00  0.00     0.014 A 
ATOM     40  C   UNL A   1      38.133  28.225  29.889  1.00  0.00     0.014 A 
ATOM     41  C   UNL A   1      39.758  29.249  27.877  1.00  0.00     0.010 A 
ATOM     42  C   UNL A   1      39.434  27.799  29.795  1.00  0.00     0.010 A 
ATOM     43  C   UNL A   1      40.238  28.269  28.762  1.00  0.00    -0.014 A 
BRANCH  43  44
ATOM     44  C   UNL A   1      41.630  27.825  28.712  1.00  0.00     0.031 A 
ATOM     45  C   UNL A   1      41.863  26.634  27.850  1.00  0.00     0.074 A 
ATOM     46  C   UNL A   1      42.659  28.559  29.191  1.00  0.00     0.049 A 
ATOM     47  N   UNL A   1      42.208  25.447  28.220  1.00  0.00    -0.248 NA
ATOM     48  C   UNL A   1      41.521  26.728  26.421  1.00  0.00     0.031 C 
ATOM     49  C   UNL A   1      42.609  29.898  29.791  1.00  0.00     0.029 A 
ATOM     50  N   UNL A   1      43.999  28.315  29.129  1.00  0.00    -0.354 N 
ATOM     51  C   UNL A   1      42.378  24.712  27.051  1.00  0.00     0.074 A 
ATOM     52  C   UNL A   1      41.727  25.472  26.018  1.00  0.00     0.031 C 
ATOM     53  C   UNL A   1      43.848  30.436  29.811  1.00  0.00     0.029 A 
ATOM     54  C   UNL A   1      44.802  29.425  29.390  1.00  0.00     0.049 A 
ATOM     55  H   UNL A   1      44.369  27.427  28.919  1.00  0.00     0.167 HD
ATOM     56  C   UNL A   1      43.262  23.676  26.995  1.00  0.00     0.034 A 
ATOM     57  C   UNL A   1      46.153  29.523  29.252  1.00  0.00     0.034 A 
ATOM     58  C   UNL A   1      43.657  23.269  28.328  1.00  0.00     0.049 A 
ATOM     59  C   UNL A   1      46.685  28.140  29.285  1.00  0.00     0.074 A 
ATOM     60  C   UNL A   1      42.973  22.833  29.449  1.00  0.00     0.029 A 
ATOM     61  N   UNL A   1      44.894  23.668  28.786  1.00  0.00    -0.354 N 
ATOM     62  N   UNL A   1      46.616  27.376  30.340  1.00  0.00    -0.248 NA
ATOM     63  C   UNL A   1      46.842  27.434  28.022  1.00  0.00     0.031 C 
ATOM     64  C   UNL A   1      43.625  23.475  30.544  1.00  0.00     0.029 A 
ATOM     65  C   UNL A   1      44.723  24.181  30.049  1.00  0.00     0.049 A 
ATOM     66  H   UNL A   1      45.745  23.598  28.297  1.00  0.00     0.167 HD
ATOM     67  C   UNL A   1      46.262  26.126  29.853  1.00  0.00     0.074 A 
ATOM     68  C   UNL A   1      46.527  26.196  28.416  1.00  0.00     0.031 C 
ATOM     69  C   UNL A   1      45.521  25.259  30.605  1.00  0.00     0.034 A 
BRANCH  56  70
ATOM     70  C   UNL A   1      44.069  23.278  25.772  1.00  0.00     0.023 A 
ATOM     71  C   UNL A   1      44.007  21.925  25.381  1.00  0.00     0.031 A 
ATOM     72  C   UNL A   1      45.093  24.038  25.164  1.00  0.00     0.131 A 
ATOM     73  C   UNL A   1      44.991  21.363  24.551  1.00  0.00     0.055 A 
ATOM     74  C   UNL A   1      46.029  23.489  24.282  1.00  0.00     0.041 A 
ATOM     75  F   UNL A   1      45.311  25.327  25.446  1.00  0.00    -0.206 F 
ATOM     76  C   UNL A   1      46.007  22.136  24.000  1.00  0.00     0.022 A 
BRANCH  73  77
ATOM     77  S   UNL A   1      45.029  19.561  24.369  1.00  0.00     0.124 S 
ATOM     78  O   UNL A   1      44.604  19.400  22.982  1.00  0.00    -0.237 OA
ATOM     79  O   UNL A   1      46.427  19.261  24.655  1.00  0.00    -0.237 OA
ATOM     80  O   UNL A   1      44.073  19.099  25.373  1.00  0.00    -0.744 OA
ENDBRANCH  73  77
ENDBRANCH  56  70
BRANCH  57  81
ATOM     81  C   UNL A   1      46.947  30.702  28.805  1.00  0.00     0.023 A 
ATOM     82  C   UNL A   1      47.892  31.352  29.628  1.00  0.00     0.031 A 
ATOM     83  C   UNL A   1      46.954  31.053  27.435  1.00  0.00     0.131 A 
ATOM     84  C   UNL A   1      48.792  32.297  29.075  1.00  0.00     0.055 A 
ATOM     85  C   UNL A   1      47.844  31.985  26.895  1.00  0.00     0.041 A 
ATOM     86  F   UNL A   1      46.152  30.433  26.556  1.00  0.00    -0.206 F 
ATOM     87  C   UNL A   1      48.776  32.604  27.712  1.00  0.00     0.022 A 
BRANCH  84  88
ATOM     88  S   UNL A   1      50.075  33.081  30.109  1.00  0.00     0.124 S 
ATOM     89  O   UNL A   1      51.027  33.560  29.113  1.00  0.00    -0.237 OA
ATOM     90  O   UNL A   1      49.320  34.099  30.831  1.00  0.00    -0.237 OA
ATOM     91  O   UNL A   1      50.563  31.980  30.941  1.00  0.00    -0.744 OA
ENDBRANCH  84  88
ENDBRANCH  57  81
BRANCH  69  92
ATOM     92  C   UNL A   1      45.351  25.549  32.086  1.00  0.00     0.023 A 
ATOM     93  C   UNL A   1      46.272  25.192  33.099  1.00  0.00     0.031 A 
ATOM     94  C   UNL A   1      44.239  26.322  32.465  1.00  0.00     0.131 A 
ATOM     95  C   UNL A   1      46.049  25.595  34.432  1.00  0.00     0.055 A 
ATOM     96  C   UNL A   1      44.035  26.741  33.778  1.00  0.00     0.041 A 
ATOM     97  F   UNL A   1      43.340  26.716  31.548  1.00  0.00    -0.206 F 
ATOM     98  C   UNL A   1      44.936  26.372  34.769  1.00  0.00     0.022 A 
BRANCH  95  99
ATOM     99  S   UNL A   1      47.187  25.095  35.765  1.00  0.00     0.124 S 
ATOM    100  O   UNL A   1      48.183  24.280  35.080  1.00  0.00    -0.237 OA
ATOM    101  O   UNL A   1      47.655  26.379  36.280  1.00  0.00    -0.237 OA
ATOM    102  O   UNL A   1      46.323  24.351  36.686  1.00  0.00    -0.744 OA
ENDBRANCH  95  99
ENDBRANCH  69  92
ENDBRANCH  43  44
ENDBRANCH  35  38
ENDBRANCH  33  34
ENDBRANCH  32  33
ENDBRANCH  31  32
ENDBRANCH   1  31
TORSDOF 20
ENDMDL
MODEL 3
REMARK VINA RESULT:     -11.4      3.585      9.585
REMARK SMILES Cc1nn(C)cc1C[NH+]1CCN(C(=O)Cn2ccc(C(=O)NCCCCCCNC(=O)c3ccc(-c4c5nc(c(-c6cc(S(=O)(=O)[O-])ccc6F)c6ccc([nH]6)c(-c6cc(S(=O)(=O)[O-])ccc6F)c6nc(c(-c7cc(S(=O)(=O)[O-])ccc7F)c7ccc4[nH]7)C=C6)C=C5)cc3)n2)CC1
REMARK SMILES IDX 25 1 24 2 23 3 22 4 20 5 21 6 19 8 16 9 17 10 95 11 18 12
REMARK SMILES IDX 15 13 13 14 9 15 10 16 97 17 11 19 96 20 12 21 14 22 8 23
REMARK SMILES IDX 7 24 1 25 2 26 3 27 4 28 6 29 5 30 26 31 27 32 28 33 29 34
REMARK SMILES IDX 30 35 31 37 32 38 33 39 94 40 34 41 93 42 35 43 36 44 37 45
REMARK SMILES IDX 87 46 38 47 92 48 86 49 88 50 39 51 91 52 85 53 84 54 40 56
REMARK SMILES IDX 72 57 52 58 71 59 53 60 56 61 70 62 89 63 54 64 55 65 69 67
REMARK SMILES IDX 90 68 57 69 41 70 42 71 50 72 43 73 49 74 51 75 48 76 44 77
REMARK SMILES IDX 45 78 46 79 47 80 73 81 74 82 82 83 75 84 81 85 83 86 80 87
REMARK SMILES IDX 76 88 77 89 78 90 79 91 58 92 59 93 67 94 60 95 66 96 68 97
REMARK SMILES IDX 65 98 61 99 62 100 63 101 64 102
REMARK H PARENT 22 7 9 18 29 36 88 55 56 66
REMARK Flexibility Score: inf
ROOT
ATOM      1  C   UNL A   1      37.962  23.311  25.789  1.00  0.00     0.002 C 
ENDROOT
BRANCH   1   2
ATOM      2  C   UNL A   1      36.640  23.548  25.044  1.00  0.00     0.021 C 
BRANCH   2   3
ATOM      3  C   UNL A   1      35.517  24.081  25.934  1.00  0.00     0.116 C 
BRANCH   3   4
ATOM      4  N   UNL A   1      35.056  23.061  26.849  1.00  0.00    -0.351 N 
ATOM      5  C   UNL A   1      34.117  22.063  26.745  1.00  0.00     0.271 C 
ATOM      6  O   UNL A   1      34.031  21.317  27.726  1.00  0.00    -0.267 OA
ATOM      7  H   UNL A   1      35.506  23.086  27.724  1.00  0.00     0.163 HD
BRANCH   5   8
ATOM      8  C   UNL A   1      33.284  21.871  25.536  1.00  0.00     0.150 A 
ATOM      9  N   UNL A   1      32.316  22.447  23.706  1.00  0.00    -0.263 N 
ATOM     10  C   UNL A   1      31.968  21.144  23.879  1.00  0.00     0.110 A 
ATOM     11  N   UNL A   1      33.117  22.905  24.684  1.00  0.00    -0.167 NA
ATOM     12  C   UNL A   1      32.605  20.731  25.025  1.00  0.00     0.056 A 
BRANCH   9  13
ATOM     13  C   UNL A   1      32.067  23.324  22.568  1.00  0.00     0.244 C 
BRANCH  13  14
ATOM     14  C   UNL A   1      32.838  24.628  22.632  1.00  0.00     0.244 C 
ATOM     15  N   UNL A   1      31.342  28.060  24.879  1.00  0.00    -0.328 N 
ATOM     16  C   UNL A   1      32.584  28.096  24.101  1.00  0.00     0.284 C 
ATOM     17  C   UNL A   1      30.410  27.064  24.349  1.00  0.00     0.284 C 
ATOM     18  H   UNL A   1      30.899  28.966  24.733  1.00  0.00     0.348 HD
ATOM     19  C   UNL A   1      33.232  26.736  23.790  1.00  0.00     0.181 C 
ATOM     20  C   UNL A   1      30.981  25.679  23.986  1.00  0.00     0.181 C 
ATOM     21  N   UNL A   1      32.298  25.698  23.344  1.00  0.00    -0.330 N 
ATOM     22  O   UNL A   1      33.943  24.715  22.087  1.00  0.00    -0.273 OA
BRANCH  15  23
ATOM     23  C   UNL A   1      31.478  28.114  26.341  1.00  0.00     0.302 C 
BRANCH  23  24
ATOM     24  C   UNL A   1      32.593  28.977  26.817  1.00  0.00     0.047 A 
ATOM     25  C   UNL A   1      31.598  31.403  26.583  1.00  0.00     0.069 C 
ATOM     26  C   UNL A   1      32.654  30.400  26.877  1.00  0.00     0.068 A 
ATOM     27  N   UNL A   1      33.879  30.826  27.205  1.00  0.00    -0.178 NA
ATOM     28  N   UNL A   1      34.569  29.701  27.435  1.00  0.00    -0.275 N 
ATOM     29  C   UNL A   1      33.806  28.577  27.344  1.00  0.00     0.118 A 
ATOM     30  C   UNL A   1      36.000  29.758  27.611  1.00  0.00     0.173 C 
ENDBRANCH  23  24
ENDBRANCH  15  23
ENDBRANCH  13  14
ENDBRANCH   9  13
ENDBRANCH   5   8
ENDBRANCH   3   4
ENDBRANCH   2   3
ENDBRANCH   1   2
BRANCH   1  31
ATOM     31  C   UNL A   1      38.482  21.864  25.783  1.00  0.00     0.002 C 
BRANCH  31  32
ATOM     32  C   UNL A   1      39.868  21.638  26.405  1.00  0.00     0.021 C 
BRANCH  32  33
ATOM     33  C   UNL A   1      40.585  22.923  26.792  1.00  0.00     0.116 C 
BRANCH  33  34
ATOM     34  N   UNL A   1      41.809  23.119  26.019  1.00  0.00    -0.352 N 
ATOM     35  C   UNL A   1      42.486  24.295  25.773  1.00  0.00     0.251 C 
ATOM     36  H   UNL A   1      42.201  22.307  25.623  1.00  0.00     0.163 HD
ATOM     37  O   UNL A   1      43.248  24.380  24.810  1.00  0.00    -0.269 OA
BRANCH  35  38
ATOM     38  C   UNL A   1      42.279  25.441  26.674  1.00  0.00     0.039 A 
ATOM     39  C   UNL A   1      43.003  25.572  27.861  1.00  0.00     0.014 A 
ATOM     40  C   UNL A   1      41.353  26.411  26.295  1.00  0.00     0.014 A 
ATOM     41  C   UNL A   1      42.846  26.729  28.621  1.00  0.00     0.010 A 
ATOM     42  C   UNL A   1      41.304  27.608  26.967  1.00  0.00     0.010 A 
ATOM     43  C   UNL A   1      42.009  27.757  28.157  1.00  0.00    -0.014 A 
BRANCH  43  44
ATOM     44  C   UNL A   1      41.966  29.056  28.827  1.00  0.00     0.031 A 
ATOM     45  C   UNL A   1      43.028  30.004  28.395  1.00  0.00     0.074 A 
ATOM     46  C   UNL A   1      40.923  29.464  29.583  1.00  0.00     0.049 A 
ATOM     47  N   UNL A   1      44.026  30.441  29.086  1.00  0.00    -0.248 NA
ATOM     48  C   UNL A   1      43.080  30.394  26.976  1.00  0.00     0.031 C 
ATOM     49  C   UNL A   1      39.666  28.752  29.846  1.00  0.00     0.029 A 
ATOM     50  N   UNL A   1      40.709  30.669  30.185  1.00  0.00    -0.354 N 
ATOM     51  C   UNL A   1      44.684  31.361  28.275  1.00  0.00     0.074 A 
ATOM     52  C   UNL A   1      44.203  31.116  26.942  1.00  0.00     0.031 C 
ATOM     53  C   UNL A   1      38.747  29.614  30.332  1.00  0.00     0.029 A 
ATOM     54  C   UNL A   1      39.391  30.892  30.580  1.00  0.00     0.049 A 
ATOM     55  H   UNL A   1      41.427  31.326  30.328  1.00  0.00     0.167 HD
ATOM     56  C   UNL A   1      45.368  32.409  28.814  1.00  0.00     0.034 A 
ATOM     57  C   UNL A   1      38.852  32.047  31.059  1.00  0.00     0.034 A 
ATOM     58  C   UNL A   1      45.596  32.197  30.228  1.00  0.00     0.049 A 
ATOM     59  C   UNL A   1      39.979  32.859  31.577  1.00  0.00     0.074 A 
ATOM     60  C   UNL A   1      46.213  31.207  30.972  1.00  0.00     0.029 A 
ATOM     61  N   UNL A   1      44.800  32.882  31.121  1.00  0.00    -0.354 N 
ATOM     62  N   UNL A   1      40.702  32.501  32.602  1.00  0.00    -0.248 NA
ATOM     63  C   UNL A   1      40.616  33.806  30.674  1.00  0.00     0.031 C 
ATOM     64  C   UNL A   1      45.371  31.029  32.109  1.00  0.00     0.029 A 
ATOM     65  C   UNL A   1      44.349  31.979  32.053  1.00  0.00     0.049 A 
ATOM     66  H   UNL A   1      44.592  33.844  31.096  1.00  0.00     0.167 HD
ATOM     67  C   UNL A   1      42.007  32.798  32.238  1.00  0.00     0.074 A 
ATOM     68  C   UNL A   1      41.880  33.700  31.094  1.00  0.00     0.031 C 
ATOM     69  C   UNL A   1      43.057  32.062  32.710  1.00  0.00     0.034 A 
BRANCH  56  70
ATOM     70  C   UNL A   1      45.498  33.786  28.187  1.00  0.00     0.023 A 
ATOM     71  C   UNL A   1      44.456  34.702  28.439  1.00  0.00     0.031 A 
ATOM     72  C   UNL A   1      46.390  34.152  27.154  1.00  0.00     0.131 A 
ATOM     73  C   UNL A   1      44.258  35.822  27.615  1.00  0.00     0.055 A 
ATOM     74  C   UNL A   1      46.229  35.307  26.382  1.00  0.00     0.041 A 
ATOM     75  F   UNL A   1      47.414  33.384  26.768  1.00  0.00    -0.206 F 
ATOM     76  C   UNL A   1      45.137  36.130  26.583  1.00  0.00     0.022 A 
BRANCH  73  77
ATOM     77  S   UNL A   1      42.715  36.754  27.795  1.00  0.00     0.124 S 
ATOM     78  O   UNL A   1      41.728  35.679  27.817  1.00  0.00    -0.237 OA
ATOM     79  O   UNL A   1      42.935  37.455  29.055  1.00  0.00    -0.237 OA
ATOM     80  O   UNL A   1      42.690  37.600  26.604  1.00  0.00    -0.744 OA
ENDBRANCH  73  77
ENDBRANCH  56  70
BRANCH  57  81
ATOM     81  C   UNL A   1      37.485  32.590  30.822  1.00  0.00     0.023 A 
ATOM     82  C   UNL A   1      36.676  33.123  31.850  1.00  0.00     0.031 A 
ATOM     83  C   UNL A   1      37.050  32.817  29.495  1.00  0.00     0.131 A 
ATOM     84  C   UNL A   1      35.502  33.849  31.532  1.00  0.00     0.055 A 
ATOM     85  C   UNL A   1      35.892  33.534  29.188  1.00  0.00     0.041 A 
ATOM     86  F   UNL A   1      37.789  32.423  28.446  1.00  0.00    -0.206 F 
ATOM     87  C   UNL A   1      35.117  34.064  30.207  1.00  0.00     0.022 A 
BRANCH  84  88
ATOM     88  S   UNL A   1      34.495  34.617  32.846  1.00  0.00     0.124 S 
ATOM     89  O   UNL A   1      34.669  33.685  33.955  1.00  0.00    -0.237 OA
ATOM     90  O   UNL A   1      35.116  35.928  32.994  1.00  0.00    -0.237 OA
ATOM     91  O   UNL A   1      33.148  34.641  32.274  1.00  0.00    -0.744 OA
ENDBRANCH  84  88
ENDBRANCH  57  81
BRANCH  69  92
ATOM     92  C   UNL A   1      42.812  31.116  33.872  1.00  0.00     0.023 A 
ATOM     93  C   UNL A   1      42.372  29.776  33.755  1.00  0.00     0.031 A 
ATOM     94  C   UNL A   1      43.147  31.578  35.157  1.00  0.00     0.131 A 
ATOM     95  C   UNL A   1      42.267  28.964  34.904  1.00  0.00     0.055 A 
ATOM     96  C   UNL A   1      43.067  30.765  36.286  1.00  0.00     0.041 A 
ATOM     97  F   UNL A   1      43.595  32.832  35.334  1.00  0.00    -0.206 F 
ATOM     98  C   UNL A   1      42.619  29.456  36.165  1.00  0.00     0.022 A 
BRANCH  95  99
ATOM     99  S   UNL A   1      41.644  27.255  34.788  1.00  0.00     0.124 S 
ATOM    100  O   UNL A   1      42.745  26.527  34.168  1.00  0.00    -0.237 OA
ATOM    101  O   UNL A   1      41.365  26.925  36.184  1.00  0.00    -0.237 OA
ATOM    102  O   UNL A   1      40.451  27.385  33.947  1.00  0.00    -0.744 OA
ENDBRANCH  95  99
ENDBRANCH  69  92
ENDBRANCH  43  44
ENDBRANCH  35  38
ENDBRANCH  33  34
ENDBRANCH  32  33
ENDBRANCH  31  32
ENDBRANCH   1  31
TORSDOF 20
ENDMDL
