MODEL 1
REMARK VINA RESULT:     -11.7      0.000      0.000
REMARK SMILES COC(=O)c1ccc(C)c2c1[C@H]1C=CC[C@H]1[C@@H](c1ccc(C(=O)NCCCCCCNC(=O)c3ccc(-c4c5nc(c(-c6cc(S(=O)(=O)[O-])ccc6F)c6ccc([nH]6)c(-c6cc(S(=O)(=O)[O-])ccc6F)c6nc(c(-c7cc(S(=O)(=O)[O-])ccc7F)c7ccc4[nH]7)C=C6)C=C5)cc3)cc1)N2
REMARK SMILES IDX 27 1 26 2 25 3 24 4 22 5 23 6 21 8 18 9 19 10 98 11 20 12
REMARK SMILES IDX 97 13 17 14 5 15 6 16 11 17 7 18 10 19 12 20 8 21 99 22
REMARK SMILES IDX 13 23 16 24 9 25 14 27 15 28 3 29 4 30 2 31 1 32 28 33 29 34
REMARK SMILES IDX 30 35 31 36 32 37 33 39 34 40 35 41 96 42 36 43 95 44 37 45
REMARK SMILES IDX 38 46 39 47 89 48 40 49 94 50 88 51 90 52 41 53 93 54 87 55
REMARK SMILES IDX 86 56 42 58 74 59 54 60 73 61 55 62 58 63 72 64 91 65 56 66
REMARK SMILES IDX 57 67 71 69 92 70 59 71 43 72 44 73 52 74 45 75 51 76 53 77
REMARK SMILES IDX 50 78 46 79 47 80 48 81 49 82 75 83 76 84 84 85 77 86 83 87
REMARK SMILES IDX 85 88 82 89 78 90 79 91 80 92 81 93 60 94 61 95 69 96 62 97
REMARK SMILES IDX 68 98 70 99 67 100 63 101 64 102 65 103 66 104
REMARK H PARENT 24 7 99 26 31 38 90 57 58 68
REMARK Flexibility Score: inf
ROOT
ATOM      1  C   UNL A   1      35.236  33.021  27.995  1.00  0.00     0.002 C 
ENDROOT
BRANCH   1   2
ATOM      2  C   UNL A   1      35.962  31.751  28.460  1.00  0.00     0.021 C 
BRANCH   2   3
ATOM      3  C   UNL A   1      35.241  30.480  28.006  1.00  0.00     0.116 C 
BRANCH   3   4
ATOM      4  N   UNL A   1      33.848  30.782  27.779  1.00  0.00    -0.352 N 
ATOM      5  C   UNL A   1      32.946  30.330  26.860  1.00  0.00     0.251 C 
ATOM      6  O   UNL A   1      31.829  30.855  26.880  1.00  0.00    -0.269 OA
ATOM      7  H   UNL A   1      33.477  31.441  28.409  1.00  0.00     0.163 HD
BRANCH   5   8
ATOM      8  C   UNL A   1      33.220  29.232  25.890  1.00  0.00     0.039 A 
ATOM      9  C   UNL A   1      33.694  26.948  24.258  1.00  0.00    -0.025 A 
ATOM     10  C   UNL A   1      33.682  26.862  25.658  1.00  0.00     0.006 A 
ATOM     11  C   UNL A   1      33.512  28.217  23.695  1.00  0.00     0.006 A 
ATOM     12  C   UNL A   1      33.456  27.979  26.458  1.00  0.00     0.014 A 
ATOM     13  C   UNL A   1      33.227  29.328  24.497  1.00  0.00     0.014 A 
BRANCH   9  14
ATOM     14  C   UNL A   1      33.757  25.729  23.334  1.00  0.00     0.114 C 
ATOM     15  C   UNL A   1      32.478  22.832  26.175  1.00  0.00     0.065 A 
ATOM     16  C   UNL A   1      33.420  22.364  27.097  1.00  0.00     0.016 A 
ATOM     17  C   UNL A   1      32.876  23.615  25.070  1.00  0.00    -0.003 A 
ATOM     18  C   UNL A   1      34.769  22.646  26.914  1.00  0.00     0.006 A 
ATOM     19  C   UNL A   1      34.260  23.867  24.869  1.00  0.00     0.042 A 
ATOM     20  C   UNL A   1      31.847  24.213  24.126  1.00  0.00     0.050 C 
ATOM     21  C   UNL A   1      35.205  23.390  25.807  1.00  0.00    -0.028 A 
ATOM     22  N   UNL A   1      34.663  24.716  23.847  1.00  0.00    -0.377 N 
ATOM     23  C   UNL A   1      30.880  25.203  24.739  1.00  0.00    -0.023 C 
ATOM     24  C   UNL A   1      32.420  25.050  22.962  1.00  0.00     0.031 C 
ATOM     25  C   UNL A   1      36.682  23.687  25.729  1.00  0.00     0.046 C 
ATOM     26  H   UNL A   1      35.568  24.629  23.467  1.00  0.00     0.161 HD
ATOM     27  C   UNL A   1      30.568  26.188  23.886  1.00  0.00    -0.030 C 
ATOM     28  C   UNL A   1      31.291  26.025  22.588  1.00  0.00     0.034 C 
BRANCH  15  29
ATOM     29  C   UNL A   1      31.058  22.452  26.382  1.00  0.00     0.338 C 
ATOM     30  O   UNL A   1      30.474  21.592  25.750  1.00  0.00    -0.246 OA
BRANCH  29  31
ATOM     31  O   UNL A   1      30.526  23.236  27.356  1.00  0.00    -0.465 OA
ATOM     32  C   UNL A   1      29.153  22.952  27.626  1.00  0.00     0.282 C 
ENDBRANCH  29  31
ENDBRANCH  15  29
ENDBRANCH   9  14
ENDBRANCH   5   8
ENDBRANCH   3   4
ENDBRANCH   2   3
ENDBRANCH   1   2
BRANCH   1  33
ATOM     33  C   UNL A   1      35.468  34.239  28.899  1.00  0.00     0.002 C 
BRANCH  33  34
ATOM     34  C   UNL A   1      34.263  35.178  28.998  1.00  0.00     0.021 C 
BRANCH  34  35
ATOM     35  C   UNL A   1      33.108  34.579  29.787  1.00  0.00     0.116 C 
BRANCH  35  36
ATOM     36  N   UNL A   1      32.556  35.558  30.714  1.00  0.00    -0.352 N 
ATOM     37  C   UNL A   1      32.835  35.701  32.049  1.00  0.00     0.251 C 
ATOM     38  H   UNL A   1      31.906  36.193  30.337  1.00  0.00     0.163 HD
ATOM     39  O   UNL A   1      32.107  36.360  32.782  1.00  0.00    -0.269 OA
BRANCH  37  40
ATOM     40  C   UNL A   1      34.039  35.034  32.574  1.00  0.00     0.039 A 
ATOM     41  C   UNL A   1      33.925  33.776  33.164  1.00  0.00     0.014 A 
ATOM     42  C   UNL A   1      35.286  35.649  32.410  1.00  0.00     0.014 A 
ATOM     43  C   UNL A   1      35.084  33.107  33.555  1.00  0.00     0.010 A 
ATOM     44  C   UNL A   1      36.439  34.952  32.741  1.00  0.00     0.010 A 
ATOM     45  C   UNL A   1      36.348  33.682  33.328  1.00  0.00    -0.014 A 
BRANCH  45  46
ATOM     46  C   UNL A   1      37.583  32.966  33.715  1.00  0.00     0.031 A 
ATOM     47  C   UNL A   1      38.309  33.357  34.970  1.00  0.00     0.074 A 
ATOM     48  C   UNL A   1      38.063  31.989  32.922  1.00  0.00     0.049 A 
ATOM     49  N   UNL A   1      39.385  32.831  35.488  1.00  0.00    -0.248 NA
ATOM     50  C   UNL A   1      37.768  34.495  35.734  1.00  0.00     0.031 C 
ATOM     51  C   UNL A   1      37.468  31.566  31.654  1.00  0.00     0.029 A 
ATOM     52  N   UNL A   1      39.160  31.176  33.064  1.00  0.00    -0.354 N 
ATOM     53  C   UNL A   1      39.645  33.564  36.640  1.00  0.00     0.074 A 
ATOM     54  C   UNL A   1      38.655  34.612  36.712  1.00  0.00     0.031 C 
ATOM     55  C   UNL A   1      38.190  30.553  31.148  1.00  0.00     0.029 A 
ATOM     56  C   UNL A   1      39.314  30.272  32.038  1.00  0.00     0.049 A 
ATOM     57  H   UNL A   1      39.778  31.234  33.827  1.00  0.00     0.167 HD
ATOM     58  C   UNL A   1      40.604  33.355  37.568  1.00  0.00     0.034 A 
ATOM     59  C   UNL A   1      40.250  29.321  31.843  1.00  0.00     0.034 A 
ATOM     60  C   UNL A   1      41.570  32.292  37.499  1.00  0.00     0.049 A 
ATOM     61  C   UNL A   1      41.313  29.117  32.893  1.00  0.00     0.074 A 
ATOM     62  C   UNL A   1      42.540  31.962  38.428  1.00  0.00     0.029 A 
ATOM     63  N   UNL A   1      41.691  31.389  36.453  1.00  0.00    -0.354 N 
ATOM     64  N   UNL A   1      41.475  29.745  34.033  1.00  0.00    -0.248 NA
ATOM     65  C   UNL A   1      42.313  28.071  32.638  1.00  0.00     0.031 C 
ATOM     66  C   UNL A   1      43.287  30.899  37.919  1.00  0.00     0.029 A 
ATOM     67  C   UNL A   1      42.742  30.523  36.701  1.00  0.00     0.049 A 
ATOM     68  H   UNL A   1      41.117  31.368  35.654  1.00  0.00     0.167 HD
ATOM     69  C   UNL A   1      42.578  29.153  34.643  1.00  0.00     0.074 A 
ATOM     70  C   UNL A   1      43.026  28.099  33.757  1.00  0.00     0.031 C 
ATOM     71  C   UNL A   1      43.170  29.462  35.823  1.00  0.00     0.034 A 
BRANCH  58  72
ATOM     72  C   UNL A   1      40.651  34.251  38.776  1.00  0.00     0.023 A 
ATOM     73  C   UNL A   1      39.854  33.958  39.896  1.00  0.00     0.031 A 
ATOM     74  C   UNL A   1      41.346  35.471  38.745  1.00  0.00     0.131 A 
ATOM     75  C   UNL A   1      39.728  34.905  40.920  1.00  0.00     0.055 A 
ATOM     76  C   UNL A   1      41.249  36.393  39.786  1.00  0.00     0.041 A 
ATOM     77  F   UNL A   1      42.125  35.787  37.697  1.00  0.00    -0.206 F 
ATOM     78  C   UNL A   1      40.422  36.118  40.872  1.00  0.00     0.022 A 
BRANCH  75  79
ATOM     79  S   UNL A   1      38.612  34.618  42.318  1.00  0.00     0.124 S 
ATOM     80  O   UNL A   1      37.407  35.329  41.896  1.00  0.00    -0.237 OA
ATOM     81  O   UNL A   1      38.507  33.162  42.328  1.00  0.00    -0.237 OA
ATOM     82  O   UNL A   1      39.312  35.212  43.451  1.00  0.00    -0.744 OA
ENDBRANCH  75  79
ENDBRANCH  58  72
BRANCH  59  83
ATOM     83  C   UNL A   1      40.175  28.455  30.632  1.00  0.00     0.023 A 
ATOM     84  C   UNL A   1      40.948  28.736  29.492  1.00  0.00     0.031 A 
ATOM     85  C   UNL A   1      39.278  27.375  30.575  1.00  0.00     0.131 A 
ATOM     86  C   UNL A   1      40.773  27.977  28.328  1.00  0.00     0.055 A 
ATOM     87  C   UNL A   1      39.153  26.582  29.434  1.00  0.00     0.041 A 
ATOM     88  F   UNL A   1      38.511  27.077  31.635  1.00  0.00    -0.206 F 
ATOM     89  C   UNL A   1      39.894  26.890  28.297  1.00  0.00     0.022 A 
BRANCH  86  90
ATOM     90  S   UNL A   1      41.612  28.435  26.786  1.00  0.00     0.124 S 
ATOM     91  O   UNL A   1      42.582  29.423  27.246  1.00  0.00    -0.237 OA
ATOM     92  O   UNL A   1      42.168  27.154  26.359  1.00  0.00    -0.237 OA
ATOM     93  O   UNL A   1      40.536  28.953  25.947  1.00  0.00    -0.744 OA
ENDBRANCH  86  90
ENDBRANCH  59  83
BRANCH  71  94
ATOM     94  C   UNL A   1      44.375  28.666  36.256  1.00  0.00     0.023 A 
ATOM     95  C   UNL A   1      44.232  27.623  37.192  1.00  0.00     0.031 A 
ATOM     96  C   UNL A   1      45.672  29.036  35.863  1.00  0.00     0.131 A 
ATOM     97  C   UNL A   1      45.371  27.015  37.733  1.00  0.00     0.055 A 
ATOM     98  C   UNL A   1      46.802  28.393  36.369  1.00  0.00     0.041 A 
ATOM     99  F   UNL A   1      45.858  30.032  34.981  1.00  0.00    -0.206 F 
ATOM    100  C   UNL A   1      46.655  27.387  37.319  1.00  0.00     0.022 A 
BRANCH  97 101
ATOM    101  S   UNL A   1      45.233  25.767  39.042  1.00  0.00     0.124 S 
ATOM    102  O   UNL A   1      46.575  25.781  39.619  1.00  0.00    -0.237 OA
ATOM    103  O   UNL A   1      44.184  26.328  39.890  1.00  0.00    -0.237 OA
ATOM    104  O   UNL A   1      44.878  24.544  38.329  1.00  0.00    -0.744 OA
ENDBRANCH  97 101
ENDBRANCH  71  94
ENDBRANCH  45  46
ENDBRANCH  37  40
ENDBRANCH  35  36
ENDBRANCH  34  35
ENDBRANCH  33  34
ENDBRANCH   1  33
TORSDOF 19
ENDMDL
MODEL 2
REMARK VINA RESULT:     -11.5      6.698     11.141
REMARK SMILES COC(=O)c1ccc(C)c2c1[C@H]1C=CC[C@H]1[C@@H](c1ccc(C(=O)NCCCCCCNC(=O)c3ccc(-c4c5nc(c(-c6cc(S(=O)(=O)[O-])ccc6F)c6ccc([nH]6)c(-c6cc(S(=O)(=O)[O-])ccc6F)c6nc(c(-c7cc(S(=O)(=O)[O-])ccc7F)c7ccc4[nH]7)C=C6)C=C5)cc3)cc1)N2
REMARK SMILES IDX 27 1 26 2 25 3 24 4 22 5 23 6 21 8 18 9 19 10 98 11 20 12
REMARK SMILES IDX 97 13 17 14 5 15 6 16 11 17 7 18 10 19 12 20 8 21 99 22
REMARK SMILES IDX 13 23 16 24 9 25 14 27 15 28 3 29 4 30 2 31 1 32 28 33 29 34
REMARK SMILES IDX 30 35 31 36 32 37 33 39 34 40 35 41 96 42 36 43 95 44 37 45
REMARK SMILES IDX 38 46 39 47 89 48 40 49 94 50 88 51 90 52 41 53 93 54 87 55
REMARK SMILES IDX 86 56 42 58 74 59 54 60 73 61 55 62 58 63 72 64 91 65 56 66
REMARK SMILES IDX 57 67 71 69 92 70 59 71 43 72 44 73 52 74 45 75 51 76 53 77
REMARK SMILES IDX 50 78 46 79 47 80 48 81 49 82 75 83 76 84 84 85 77 86 83 87
REMARK SMILES IDX 85 88 82 89 78 90 79 91 80 92 81 93 60 94 61 95 69 96 62 97
REMARK SMILES IDX 68 98 70 99 67 100 63 101 64 102 65 103 66 104
REMARK H PARENT 24 7 99 26 31 38 90 57 58 68
REMARK Flexibility Score: inf
ROOT
ATOM      1  C   UNL A   1      40.171  22.658  27.092  1.00  0.00     0.002 C 
ENDROOT
BRANCH   1   2
ATOM      2  C   UNL A   1      39.499  21.928  25.920  1.00  0.00     0.021 C 
BRANCH   2   3
ATOM      3  C   UNL A   1      37.994  22.196  25.865  1.00  0.00     0.116 C 
BRANCH   3   4
ATOM      4  N   UNL A   1      37.629  22.558  24.517  1.00  0.00    -0.352 N 
ATOM      5  C   UNL A   1      36.478  23.057  23.977  1.00  0.00     0.251 C 
ATOM      6  O   UNL A   1      36.456  23.187  22.750  1.00  0.00    -0.269 OA
ATOM      7  H   UNL A   1      38.347  22.419  23.859  1.00  0.00     0.163 HD
BRANCH   5   8
ATOM      8  C   UNL A   1      35.296  23.483  24.779  1.00  0.00     0.039 A 
ATOM      9  C   UNL A   1      33.028  24.537  26.141  1.00  0.00    -0.025 A 
ATOM     10  C   UNL A   1      33.821  25.337  25.305  1.00  0.00     0.006 A 
ATOM     11  C   UNL A   1      33.427  23.207  26.319  1.00  0.00     0.006 A 
ATOM     12  C   UNL A   1      34.934  24.824  24.642  1.00  0.00     0.014 A 
ATOM     13  C   UNL A   1      34.511  22.678  25.607  1.00  0.00     0.014 A 
BRANCH   9  14
ATOM     14  C   UNL A   1      31.699  24.999  26.746  1.00  0.00     0.114 C 
ATOM     15  C   UNL A   1      30.927  28.157  24.001  1.00  0.00     0.065 A 
ATOM     16  C   UNL A   1      31.604  29.367  24.193  1.00  0.00     0.016 A 
ATOM     17  C   UNL A   1      30.956  27.148  24.988  1.00  0.00    -0.003 A 
ATOM     18  C   UNL A   1      32.291  29.596  25.380  1.00  0.00     0.006 A 
ATOM     19  C   UNL A   1      31.630  27.405  26.213  1.00  0.00     0.042 A 
ATOM     20  C   UNL A   1      30.314  25.794  24.741  1.00  0.00     0.050 C 
ATOM     21  C   UNL A   1      32.311  28.631  26.398  1.00  0.00    -0.028 A 
ATOM     22  N   UNL A   1      31.754  26.392  27.154  1.00  0.00    -0.377 N 
ATOM     23  C   UNL A   1      30.895  24.983  23.602  1.00  0.00    -0.023 C 
ATOM     24  C   UNL A   1      30.422  24.785  25.903  1.00  0.00     0.031 C 
ATOM     25  C   UNL A   1      33.129  28.955  27.623  1.00  0.00     0.046 C 
ATOM     26  H   UNL A   1      31.880  26.620  28.104  1.00  0.00     0.161 HD
ATOM     27  C   UNL A   1      30.885  23.670  23.872  1.00  0.00    -0.030 C 
ATOM     28  C   UNL A   1      30.326  23.404  25.232  1.00  0.00     0.034 C 
BRANCH  15  29
ATOM     29  C   UNL A   1      30.158  27.986  22.744  1.00  0.00     0.338 C 
ATOM     30  O   UNL A   1      30.650  27.718  21.664  1.00  0.00    -0.246 OA
BRANCH  29  31
ATOM     31  O   UNL A   1      28.841  28.205  22.995  1.00  0.00    -0.465 OA
ATOM     32  C   UNL A   1      28.346  29.413  22.417  1.00  0.00     0.282 C 
ENDBRANCH  29  31
ENDBRANCH  15  29
ENDBRANCH   9  14
ENDBRANCH   5   8
ENDBRANCH   3   4
ENDBRANCH   2   3
ENDBRANCH   1   2
BRANCH   1  33
ATOM     33  C   UNL A   1      41.113  21.774  27.920  1.00  0.00     0.002 C 
BRANCH  33  34
ATOM     34  C   UNL A   1      41.085  20.295  27.527  1.00  0.00     0.021 C 
BRANCH  34  35
ATOM     35  C   UNL A   1      42.434  19.611  27.701  1.00  0.00     0.116 C 
BRANCH  35  36
ATOM     36  N   UNL A   1      42.901  19.066  26.433  1.00  0.00    -0.352 N 
ATOM     37  C   UNL A   1      43.383  19.755  25.350  1.00  0.00     0.251 C 
ATOM     38  H   UNL A   1      42.866  18.087  26.343  1.00  0.00     0.163 HD
ATOM     39  O   UNL A   1      43.472  19.224  24.249  1.00  0.00    -0.269 OA
BRANCH  37  40
ATOM     40  C   UNL A   1      43.791  21.156  25.553  1.00  0.00     0.039 A 
ATOM     41  C   UNL A   1      43.133  22.170  24.858  1.00  0.00     0.014 A 
ATOM     42  C   UNL A   1      44.787  21.447  26.491  1.00  0.00     0.014 A 
ATOM     43  C   UNL A   1      43.451  23.497  25.142  1.00  0.00     0.010 A 
ATOM     44  C   UNL A   1      45.053  22.770  26.817  1.00  0.00     0.010 A 
ATOM     45  C   UNL A   1      44.397  23.805  26.136  1.00  0.00    -0.014 A 
BRANCH  45  46
ATOM     46  C   UNL A   1      44.719  25.212  26.462  1.00  0.00     0.031 A 
ATOM     47  C   UNL A   1      43.645  26.121  26.985  1.00  0.00     0.074 A 
ATOM     48  C   UNL A   1      45.967  25.674  26.255  1.00  0.00     0.049 A 
ATOM     49  N   UNL A   1      43.739  27.370  27.352  1.00  0.00    -0.248 NA
ATOM     50  C   UNL A   1      42.286  25.563  27.097  1.00  0.00     0.031 C 
ATOM     51  C   UNL A   1      47.072  24.893  25.699  1.00  0.00     0.029 A 
ATOM     52  N   UNL A   1      46.516  26.910  26.488  1.00  0.00    -0.354 N 
ATOM     53  C   UNL A   1      42.461  27.745  27.746  1.00  0.00     0.074 A 
ATOM     54  C   UNL A   1      41.593  26.614  27.513  1.00  0.00     0.031 C 
ATOM     55  C   UNL A   1      48.175  25.659  25.661  1.00  0.00     0.029 A 
ATOM     56  C   UNL A   1      47.850  26.993  26.162  1.00  0.00     0.049 A 
ATOM     57  H   UNL A   1      46.004  27.667  26.855  1.00  0.00     0.167 HD
ATOM     58  C   UNL A   1      42.058  28.916  28.286  1.00  0.00     0.034 A 
ATOM     59  C   UNL A   1      48.713  28.024  26.262  1.00  0.00     0.034 A 
ATOM     60  C   UNL A   1      42.937  30.027  28.537  1.00  0.00     0.049 A 
ATOM     61  C   UNL A   1      48.233  29.322  26.861  1.00  0.00     0.074 A 
ATOM     62  C   UNL A   1      42.631  31.233  29.142  1.00  0.00     0.029 A 
ATOM     63  N   UNL A   1      44.282  30.074  28.204  1.00  0.00    -0.354 N 
ATOM     64  N   UNL A   1      47.047  29.621  27.335  1.00  0.00    -0.248 NA
ATOM     65  C   UNL A   1      49.207  30.419  26.950  1.00  0.00     0.031 C 
ATOM     66  C   UNL A   1      43.774  32.032  29.122  1.00  0.00     0.029 A 
ATOM     67  C   UNL A   1      44.811  31.301  28.563  1.00  0.00     0.049 A 
ATOM     68  H   UNL A   1      44.784  29.343  27.776  1.00  0.00     0.167 HD
ATOM     69  C   UNL A   1      47.140  30.930  27.801  1.00  0.00     0.074 A 
ATOM     70  C   UNL A   1      48.505  31.354  27.578  1.00  0.00     0.031 C 
ATOM     71  C   UNL A   1      46.178  31.710  28.354  1.00  0.00     0.034 A 
BRANCH  58  72
ATOM     72  C   UNL A   1      40.619  29.069  28.696  1.00  0.00     0.023 A 
ATOM     73  C   UNL A   1      40.256  28.924  30.046  1.00  0.00     0.031 A 
ATOM     74  C   UNL A   1      39.601  29.184  27.734  1.00  0.00     0.131 A 
ATOM     75  C   UNL A   1      38.903  28.842  30.392  1.00  0.00     0.055 A 
ATOM     76  C   UNL A   1      38.254  29.142  28.090  1.00  0.00     0.041 A 
ATOM     77  F   UNL A   1      39.904  29.331  26.434  1.00  0.00    -0.206 F 
ATOM     78  C   UNL A   1      37.900  28.953  29.423  1.00  0.00     0.022 A 
BRANCH  75  79
ATOM     79  S   UNL A   1      38.398  28.529  32.105  1.00  0.00     0.124 S 
ATOM     80  O   UNL A   1      37.027  29.036  32.115  1.00  0.00    -0.237 OA
ATOM     81  O   UNL A   1      38.528  27.078  32.197  1.00  0.00    -0.237 OA
ATOM     82  O   UNL A   1      39.348  29.304  32.895  1.00  0.00    -0.744 OA
ENDBRANCH  75  79
ENDBRANCH  58  72
BRANCH  59  83
ATOM     83  C   UNL A   1      50.131  27.838  25.841  1.00  0.00     0.023 A 
ATOM     84  C   UNL A   1      50.508  27.956  24.492  1.00  0.00     0.031 A 
ATOM     85  C   UNL A   1      51.116  27.472  26.775  1.00  0.00     0.131 A 
ATOM     86  C   UNL A   1      51.822  27.662  24.108  1.00  0.00     0.055 A 
ATOM     87  C   UNL A   1      52.439  27.242  26.396  1.00  0.00     0.041 A 
ATOM     88  F   UNL A   1      50.800  27.336  28.071  1.00  0.00    -0.206 F 
ATOM     89  C   UNL A   1      52.795  27.324  25.054  1.00  0.00     0.022 A 
BRANCH  86  90
ATOM     90  S   UNL A   1      52.288  27.617  22.355  1.00  0.00     0.124 S 
ATOM     91  O   UNL A   1      51.146  26.940  21.750  1.00  0.00    -0.237 OA
ATOM     92  O   UNL A   1      52.417  29.039  22.046  1.00  0.00    -0.237 OA
ATOM     93  O   UNL A   1      53.540  26.866  22.349  1.00  0.00    -0.744 OA
ENDBRANCH  86  90
ENDBRANCH  59  83
BRANCH  71  94
ATOM     94  C   UNL A   1      46.538  33.114  28.769  1.00  0.00     0.023 A 
ATOM     95  C   UNL A   1      46.904  33.384  30.102  1.00  0.00     0.031 A 
ATOM     96  C   UNL A   1      46.372  34.198  27.890  1.00  0.00     0.131 A 
ATOM     97  C   UNL A   1      47.052  34.710  30.527  1.00  0.00     0.055 A 
ATOM     98  C   UNL A   1      46.569  35.515  28.307  1.00  0.00     0.041 A 
ATOM     99  F   UNL A   1      46.013  33.990  26.613  1.00  0.00    -0.206 F 
ATOM    100  C   UNL A   1      46.897  35.776  29.634  1.00  0.00     0.022 A 
BRANCH  97 101
ATOM    101  S   UNL A   1      47.385  35.104  32.266  1.00  0.00     0.124 S 
ATOM    102  O   UNL A   1      46.967  36.501  32.346  1.00  0.00    -0.237 OA
ATOM    103  O   UNL A   1      46.523  34.154  32.965  1.00  0.00    -0.237 OA
ATOM    104  O   UNL A   1      48.819  34.877  32.411  1.00  0.00    -0.744 OA
ENDBRANCH  97 101
ENDBRANCH  71  94
ENDBRANCH  45  46
ENDBRANCH  37  40
ENDBRANCH  35  36
ENDBRANCH  34  35
ENDBRANCH  33  34
ENDBRANCH   1  33
TORSDOF 19
ENDMDL
MODEL 3
REMARK VINA RESULT:     -11.2      2.188      7.802
REMARK SMILES COC(=O)c1ccc(C)c2c1[C@H]1C=CC[C@H]1[C@@H](c1ccc(C(=O)NCCCCCCNC(=O)c3ccc(-c4c5nc(c(-c6cc(S(=O)(=O)[O-])ccc6F)c6ccc([nH]6)c(-c6cc(S(=O)(=O)[O-])ccc6F)c6nc(c(-c7cc(S(=O)(=O)[O-])ccc7F)c7ccc4[nH]7)C=C6)C=C5)cc3)cc1)N2
REMARK SMILES IDX 27 1 26 2 25 3 24 4 22 5 23 6 21 8 18 9 19 10 98 11 20 12
REMARK SMILES IDX 97 13 17 14 5 15 6 16 11 17 7 18 10 19 12 20 8 21 99 22
REMARK SMILES IDX 13 23 16 24 9 25 14 27 15 28 3 29 4 30 2 31 1 32 28 33 29 34
REMARK SMILES IDX 30 35 31 36 32 37 33 39 34 40 35 41 96 42 36 43 95 44 37 45
REMARK SMILES IDX 38 46 39 47 89 48 40 49 94 50 88 51 90 52 41 53 93 54 87 55
REMARK SMILES IDX 86 56 42 58 74 59 54 60 73 61 55 62 58 63 72 64 91 65 56 66
REMARK SMILES IDX 57 67 71 69 92 70 59 71 43 72 44 73 52 74 45 75 51 76 53 77
REMARK SMILES IDX 50 78 46 79 47 80 48 81 49 82 75 83 76 84 84 85 77 86 83 87
REMARK SMILES IDX 85 88 82 89 78 90 79 91 80 92 81 93 60 94 61 95 69 96 62 97
REMARK SMILES IDX 68 98 70 99 67 100 63 101 64 102 65 103 66 104
REMARK H PARENT 24 7 99 26 31 38 90 57 58 68
REMARK Flexibility Score: inf
ROOT
ATOM      1  C   UNL A   1      35.170  31.616  28.680  1.00  0.00     0.002 C 
ENDROOT
BRANCH   1   2
ATOM      2  C   UNL A   1      34.958  30.329  27.871  1.00  0.00     0.021 C 
BRANCH   2   3
ATOM      3  C   UNL A   1      33.713  30.406  26.987  1.00  0.00     0.116 C 
BRANCH   3   4
ATOM      4  N   UNL A   1      32.636  29.688  27.626  1.00  0.00    -0.352 N 
ATOM      5  C   UNL A   1      32.046  28.485  27.360  1.00  0.00     0.251 C 
ATOM      6  O   UNL A   1      31.074  28.182  28.058  1.00  0.00    -0.269 OA
ATOM      7  H   UNL A   1      32.252  30.154  28.402  1.00  0.00     0.163 HD
BRANCH   5   8
ATOM      8  C   UNL A   1      32.532  27.526  26.328  1.00  0.00     0.039 A 
ATOM      9  C   UNL A   1      33.375  25.891  24.154  1.00  0.00    -0.025 A 
ATOM     10  C   UNL A   1      32.509  26.978  23.964  1.00  0.00     0.006 A 
ATOM     11  C   UNL A   1      33.769  25.611  25.469  1.00  0.00     0.006 A 
ATOM     12  C   UNL A   1      32.091  27.776  25.027  1.00  0.00     0.014 A 
ATOM     13  C   UNL A   1      33.396  26.448  26.528  1.00  0.00     0.014 A 
BRANCH   9  14
ATOM     14  C   UNL A   1      34.005  25.098  23.007  1.00  0.00     0.114 C 
ATOM     15  C   UNL A   1      33.871  21.271  24.861  1.00  0.00     0.065 A 
ATOM     16  C   UNL A   1      34.859  20.971  25.806  1.00  0.00     0.016 A 
ATOM     17  C   UNL A   1      33.977  22.418  24.045  1.00  0.00    -0.003 A 
ATOM     18  C   UNL A   1      35.974  21.791  25.929  1.00  0.00     0.006 A 
ATOM     19  C   UNL A   1      35.138  23.232  24.151  1.00  0.00     0.042 A 
ATOM     20  C   UNL A   1      32.858  22.807  23.094  1.00  0.00     0.050 C 
ATOM     21  C   UNL A   1      36.131  22.919  25.109  1.00  0.00    -0.028 A 
ATOM     22  N   UNL A   1      35.216  24.416  23.431  1.00  0.00    -0.377 N 
ATOM     23  C   UNL A   1      31.527  23.134  23.735  1.00  0.00    -0.023 C 
ATOM     24  C   UNL A   1      33.105  24.085  22.265  1.00  0.00     0.031 C 
ATOM     25  C   UNL A   1      37.349  23.774  25.359  1.00  0.00     0.046 C 
ATOM     26  H   UNL A   1      36.097  24.795  23.205  1.00  0.00     0.161 HD
ATOM     27  C   UNL A   1      30.889  24.115  23.082  1.00  0.00    -0.030 C 
ATOM     28  C   UNL A   1      31.699  24.609  21.928  1.00  0.00     0.034 C 
BRANCH  15  29
ATOM     29  C   UNL A   1      32.732  20.330  24.727  1.00  0.00     0.338 C 
ATOM     30  O   UNL A   1      31.699  20.401  25.367  1.00  0.00    -0.246 OA
BRANCH  29  31
ATOM     31  O   UNL A   1      33.046  19.380  23.809  1.00  0.00    -0.465 OA
ATOM     32  C   UNL A   1      32.322  18.161  23.983  1.00  0.00     0.282 C 
ENDBRANCH  29  31
ENDBRANCH  15  29
ENDBRANCH   9  14
ENDBRANCH   5   8
ENDBRANCH   3   4
ENDBRANCH   2   3
ENDBRANCH   1   2
BRANCH   1  33
ATOM     33  C   UNL A   1      35.532  32.838  27.826  1.00  0.00     0.002 C 
BRANCH  33  34
ATOM     34  C   UNL A   1      34.510  33.975  27.901  1.00  0.00     0.021 C 
BRANCH  34  35
ATOM     35  C   UNL A   1      33.343  33.662  28.827  1.00  0.00     0.116 C 
BRANCH  35  36
ATOM     36  N   UNL A   1      33.130  34.749  29.772  1.00  0.00    -0.352 N 
ATOM     37  C   UNL A   1      33.703  34.914  31.006  1.00  0.00     0.251 C 
ATOM     38  H   UNL A   1      32.499  35.451  29.490  1.00  0.00     0.163 HD
ATOM     39  O   UNL A   1      33.237  35.701  31.822  1.00  0.00    -0.269 OA
BRANCH  37  40
ATOM     40  C   UNL A   1      34.897  34.112  31.322  1.00  0.00     0.039 A 
ATOM     41  C   UNL A   1      36.155  34.570  30.934  1.00  0.00     0.014 A 
ATOM     42  C   UNL A   1      34.752  32.936  32.068  1.00  0.00     0.014 A 
ATOM     43  C   UNL A   1      37.285  33.861  31.336  1.00  0.00     0.010 A 
ATOM     44  C   UNL A   1      35.882  32.270  32.521  1.00  0.00     0.010 A 
ATOM     45  C   UNL A   1      37.157  32.720  32.148  1.00  0.00    -0.014 A 
BRANCH  45  46
ATOM     46  C   UNL A   1      38.354  31.977  32.602  1.00  0.00     0.031 A 
ATOM     47  C   UNL A   1      38.910  30.871  31.754  1.00  0.00     0.074 A 
ATOM     48  C   UNL A   1      38.915  32.280  33.788  1.00  0.00     0.049 A 
ATOM     49  N   UNL A   1      39.964  30.129  31.967  1.00  0.00    -0.248 NA
ATOM     50  C   UNL A   1      38.185  30.542  30.514  1.00  0.00     0.031 C 
ATOM     51  C   UNL A   1      38.423  33.299  34.716  1.00  0.00     0.029 A 
ATOM     52  N   UNL A   1      40.020  31.763  34.416  1.00  0.00    -0.354 N 
ATOM     53  C   UNL A   1      40.033  29.255  30.889  1.00  0.00     0.074 A 
ATOM     54  C   UNL A   1      38.882  29.513  30.056  1.00  0.00     0.031 C 
ATOM     55  C   UNL A   1      39.239  33.352  35.781  1.00  0.00     0.029 A 
ATOM     56  C   UNL A   1      40.295  32.353  35.627  1.00  0.00     0.049 A 
ATOM     57  H   UNL A   1      40.565  31.037  34.035  1.00  0.00     0.167 HD
ATOM     58  C   UNL A   1      40.992  28.347  30.607  1.00  0.00     0.034 A 
ATOM     59  C   UNL A   1      41.289  32.122  36.509  1.00  0.00     0.034 A 
ATOM     60  C   UNL A   1      42.147  28.117  31.431  1.00  0.00     0.049 A 
ATOM     61  C   UNL A   1      42.340  31.095  36.170  1.00  0.00     0.074 A 
ATOM     62  C   UNL A   1      43.207  27.261  31.192  1.00  0.00     0.029 A 
ATOM     63  N   UNL A   1      42.400  28.739  32.645  1.00  0.00    -0.354 N 
ATOM     64  N   UNL A   1      42.453  30.358  35.091  1.00  0.00    -0.248 NA
ATOM     65  C   UNL A   1      43.404  30.874  37.159  1.00  0.00     0.031 C 
ATOM     66  C   UNL A   1      44.070  27.319  32.286  1.00  0.00     0.029 A 
ATOM     67  C   UNL A   1      43.583  28.259  33.180  1.00  0.00     0.049 A 
ATOM     68  H   UNL A   1      41.823  29.418  33.063  1.00  0.00     0.167 HD
ATOM     69  C   UNL A   1      43.613  29.606  35.260  1.00  0.00     0.074 A 
ATOM     70  C   UNL A   1      44.179  29.998  36.533  1.00  0.00     0.031 C 
ATOM     71  C   UNL A   1      44.151  28.670  34.440  1.00  0.00     0.034 A 
BRANCH  58  72
ATOM     72  C   UNL A   1      40.884  27.550  29.335  1.00  0.00     0.023 A 
ATOM     73  C   UNL A   1      41.735  27.836  28.255  1.00  0.00     0.031 A 
ATOM     74  C   UNL A   1      39.833  26.637  29.140  1.00  0.00     0.131 A 
ATOM     75  C   UNL A   1      41.486  27.254  27.006  1.00  0.00     0.055 A 
ATOM     76  C   UNL A   1      39.614  26.030  27.905  1.00  0.00     0.041 A 
ATOM     77  F   UNL A   1      39.000  26.330  30.148  1.00  0.00    -0.206 F 
ATOM     78  C   UNL A   1      40.433  26.351  26.826  1.00  0.00     0.022 A 
BRANCH  75  79
ATOM     79  S   UNL A   1      42.485  27.696  25.559  1.00  0.00     0.124 S 
ATOM     80  O   UNL A   1      43.826  27.788  26.133  1.00  0.00    -0.237 OA
ATOM     81  O   UNL A   1      42.260  26.554  24.678  1.00  0.00    -0.237 OA
ATOM     82  O   UNL A   1      41.916  28.963  25.116  1.00  0.00    -0.744 OA
ENDBRANCH  75  79
ENDBRANCH  58  72
BRANCH  59  83
ATOM     83  C   UNL A   1      41.362  32.927  37.761  1.00  0.00     0.023 A 
ATOM     84  C   UNL A   1      40.658  32.538  38.915  1.00  0.00     0.031 A 
ATOM     85  C   UNL A   1      42.082  34.133  37.800  1.00  0.00     0.131 A 
ATOM     86  C   UNL A   1      40.650  33.372  40.039  1.00  0.00     0.055 A 
ATOM     87  C   UNL A   1      42.123  34.930  38.944  1.00  0.00     0.041 A 
ATOM     88  F   UNL A   1      42.759  34.550  36.719  1.00  0.00    -0.206 F 
ATOM     89  C   UNL A   1      41.393  34.556  40.069  1.00  0.00     0.022 A 
BRANCH  86  90
ATOM     90  S   UNL A   1      39.598  32.993  41.468  1.00  0.00     0.124 S 
ATOM     91  O   UNL A   1      38.946  31.756  41.050  1.00  0.00    -0.237 OA
ATOM     92  O   UNL A   1      40.586  32.857  42.535  1.00  0.00    -0.237 OA
ATOM     93  O   UNL A   1      38.727  34.159  41.576  1.00  0.00    -0.744 OA
ENDBRANCH  86  90
ENDBRANCH  59  83
BRANCH  71  94
ATOM     94  C   UNL A   1      45.424  27.983  34.867  1.00  0.00     0.023 A 
ATOM     95  C   UNL A   1      46.669  28.457  34.411  1.00  0.00     0.031 A 
ATOM     96  C   UNL A   1      45.393  26.780  35.593  1.00  0.00     0.131 A 
ATOM     97  C   UNL A   1      47.828  27.709  34.652  1.00  0.00     0.055 A 
ATOM     98  C   UNL A   1      46.558  26.064  35.872  1.00  0.00     0.041 A 
ATOM     99  F   UNL A   1      44.228  26.284  36.040  1.00  0.00    -0.206 F 
ATOM    100  C   UNL A   1      47.780  26.521  35.389  1.00  0.00     0.022 A 
BRANCH  97 101
ATOM    101  S   UNL A   1      49.428  28.213  33.961  1.00  0.00     0.124 S 
ATOM    102  O   UNL A   1      49.145  29.570  33.501  1.00  0.00    -0.237 OA
ATOM    103  O   UNL A   1      50.306  28.118  35.124  1.00  0.00    -0.237 OA
ATOM    104  O   UNL A   1      49.678  27.240  32.903  1.00  0.00    -0.744 OA
ENDBRANCH  97 101
ENDBRANCH  71  94
ENDBRANCH  45  46
ENDBRANCH  37  40
ENDBRANCH  35  36
ENDBRANCH  34  35
ENDBRANCH  33  34
ENDBRANCH   1  33
TORSDOF 19
ENDMDL
