MODEL 1
REMARK VINA RESULT:     -11.1      0.000      0.000
REMARK SMILES [NH3+][C@H](Cc1cnc2ccccc2c1)C(=O)NCCCCCCNC(=O)c1ccc(-c2c3nc(c(-c4cc(S(=O)(=O)[O-])ccc4F)c4ccc([nH]4)c(-c4cc(S(=O)(=O)[O-])ccc4F)c4nc(c(-c5cc(S(=O)(=O)[O-])ccc5F)c5ccc2[nH]5)C=C4)C=C3)cc1
REMARK SMILES IDX 20 1 19 2 18 3 17 4 16 5 14 6 15 7 2 9 1 10 3 14 4 15 5 16
REMARK SMILES IDX 13 17 6 18 12 19 7 20 11 21 8 22 10 23 9 24 21 25 22 26
REMARK SMILES IDX 23 27 24 28 25 30 26 31 27 32 88 33 28 34 87 35 29 36 30 37
REMARK SMILES IDX 31 38 81 39 32 40 86 41 80 42 82 43 33 44 85 45 79 46 78 47
REMARK SMILES IDX 34 49 66 50 46 51 65 52 47 53 50 54 64 55 83 56 48 57 49 58
REMARK SMILES IDX 63 60 84 61 51 62 35 63 36 64 44 65 37 66 43 67 45 68 42 69
REMARK SMILES IDX 38 70 39 71 40 72 41 73 67 74 68 75 76 76 69 77 75 78 77 79
REMARK SMILES IDX 74 80 70 81 71 82 72 83 73 84 52 85 53 86 61 87 54 88 60 89
REMARK SMILES IDX 62 90 59 91 55 92 56 93 57 94 58 95
REMARK H PARENT 16 8 1 11 1 12 1 13 23 29 82 48 50 59
REMARK Flexibility Score: inf
ROOT
ATOM      1  C   UNL A   1      31.355  30.041  25.376  1.00  0.00     0.002 C 
ENDROOT
BRANCH   1   2
ATOM      2  C   UNL A   1      32.790  29.705  24.954  1.00  0.00     0.002 C 
BRANCH   2   3
ATOM      3  C   UNL A   1      33.180  28.240  25.166  1.00  0.00     0.021 C 
BRANCH   3   4
ATOM      4  C   UNL A   1      32.632  27.665  26.470  1.00  0.00     0.116 C 
BRANCH   4   5
ATOM      5  N   UNL A   1      32.829  26.233  26.514  1.00  0.00    -0.351 N 
ATOM      6  C   UNL A   1      31.935  25.212  26.367  1.00  0.00     0.278 C 
ATOM      7  O   UNL A   1      32.324  24.071  26.638  1.00  0.00    -0.268 OA
ATOM      8  H   UNL A   1      33.757  25.948  26.675  1.00  0.00     0.163 HD
BRANCH   6   9
ATOM      9  C   UNL A   1      30.512  25.461  25.811  1.00  0.00     0.275 C 
BRANCH   9  10
ATOM     10  N   UNL A   1      29.564  24.637  26.596  1.00  0.00    -0.347 N 
ATOM     11  H   UNL A   1      29.765  24.741  27.591  1.00  0.00     0.345 HD
ATOM     12  H   UNL A   1      29.665  23.657  26.331  1.00  0.00     0.345 HD
ATOM     13  H   UNL A   1      28.610  24.944  26.408  1.00  0.00     0.345 HD
ENDBRANCH   9  10
BRANCH   9  14
ATOM     14  C   UNL A   1      30.414  25.399  24.258  1.00  0.00     0.112 C 
BRANCH  14  15
ATOM     15  C   UNL A   1      29.602  26.521  23.653  1.00  0.00    -0.023 A 
ATOM     16  C   UNL A   1      28.239  26.642  23.898  1.00  0.00     0.115 A 
ATOM     17  C   UNL A   1      30.206  27.557  22.943  1.00  0.00     0.016 A 
ATOM     18  N   UNL A   1      27.506  27.739  23.623  1.00  0.00    -0.256 NA
ATOM     19  C   UNL A   1      29.466  28.701  22.609  1.00  0.00     0.000 A 
ATOM     20  C   UNL A   1      28.118  28.763  23.018  1.00  0.00     0.070 A 
ATOM     21  C   UNL A   1      30.041  29.785  21.928  1.00  0.00     0.010 A 
ATOM     22  C   UNL A   1      27.410  29.935  22.805  1.00  0.00     0.029 A 
ATOM     23  C   UNL A   1      29.302  30.946  21.706  1.00  0.00     0.001 A 
ATOM     24  C   UNL A   1      27.991  31.030  22.165  1.00  0.00     0.002 A 
ENDBRANCH  14  15
ENDBRANCH   9  14
ENDBRANCH   6   9
ENDBRANCH   4   5
ENDBRANCH   3   4
ENDBRANCH   2   3
ENDBRANCH   1   2
BRANCH   1  25
ATOM     25  C   UNL A   1      31.191  31.404  26.054  1.00  0.00     0.021 C 
BRANCH  25  26
ATOM     26  C   UNL A   1      32.329  31.773  26.999  1.00  0.00     0.116 C 
BRANCH  26  27
ATOM     27  N   UNL A   1      32.361  33.202  27.268  1.00  0.00    -0.352 N 
ATOM     28  C   UNL A   1      33.212  33.915  28.077  1.00  0.00     0.251 C 
ATOM     29  H   UNL A   1      31.676  33.734  26.803  1.00  0.00     0.163 HD
ATOM     30  O   UNL A   1      32.944  35.072  28.375  1.00  0.00    -0.269 OA
BRANCH  28  31
ATOM     31  C   UNL A   1      34.433  33.265  28.596  1.00  0.00     0.039 A 
ATOM     32  C   UNL A   1      35.659  33.919  28.459  1.00  0.00     0.014 A 
ATOM     33  C   UNL A   1      34.362  32.021  29.227  1.00  0.00     0.014 A 
ATOM     34  C   UNL A   1      36.807  33.352  29.017  1.00  0.00     0.010 A 
ATOM     35  C   UNL A   1      35.491  31.496  29.848  1.00  0.00     0.010 A 
ATOM     36  C   UNL A   1      36.725  32.158  29.753  1.00  0.00    -0.014 A 
BRANCH  36  37
ATOM     37  C   UNL A   1      37.915  31.594  30.441  1.00  0.00     0.031 A 
ATOM     38  C   UNL A   1      38.750  30.542  29.765  1.00  0.00     0.074 A 
ATOM     39  C   UNL A   1      38.199  31.982  31.699  1.00  0.00     0.049 A 
ATOM     40  N   UNL A   1      39.771  29.871  30.233  1.00  0.00    -0.248 NA
ATOM     41  C   UNL A   1      38.364  30.176  28.395  1.00  0.00     0.031 C 
ATOM     42  C   UNL A   1      37.434  32.964  32.471  1.00  0.00     0.029 A 
ATOM     43  N   UNL A   1      39.196  31.591  32.557  1.00  0.00    -0.354 N 
ATOM     44  C   UNL A   1      40.147  28.998  29.218  1.00  0.00     0.074 A 
ATOM     45  C   UNL A   1      39.197  29.179  28.139  1.00  0.00     0.031 C 
ATOM     46  C   UNL A   1      38.000  33.111  33.679  1.00  0.00     0.029 A 
ATOM     47  C   UNL A   1      39.132  32.196  33.791  1.00  0.00     0.049 A 
ATOM     48  H   UNL A   1      39.891  30.938  32.313  1.00  0.00     0.167 HD
ATOM     49  C   UNL A   1      41.200  28.142  29.181  1.00  0.00     0.034 A 
ATOM     50  C   UNL A   1      39.881  32.018  34.897  1.00  0.00     0.034 A 
ATOM     51  C   UNL A   1      42.132  27.975  30.270  1.00  0.00     0.049 A 
ATOM     52  C   UNL A   1      41.019  31.030  34.852  1.00  0.00     0.074 A 
ATOM     53  C   UNL A   1      43.263  27.179  30.322  1.00  0.00     0.029 A 
ATOM     54  N   UNL A   1      42.033  28.601  31.508  1.00  0.00    -0.354 N 
ATOM     55  N   UNL A   1      41.400  30.254  33.862  1.00  0.00    -0.248 NA
ATOM     56  C   UNL A   1      41.832  30.898  36.067  1.00  0.00     0.031 C 
ATOM     57  C   UNL A   1      43.797  27.258  31.612  1.00  0.00     0.029 A 
ATOM     58  C   UNL A   1      43.056  28.175  32.342  1.00  0.00     0.049 A 
ATOM     59  H   UNL A   1      41.338  29.252  31.756  1.00  0.00     0.167 HD
ATOM     60  C   UNL A   1      42.514  29.562  34.330  1.00  0.00     0.074 A 
ATOM     61  C   UNL A   1      42.752  30.026  35.681  1.00  0.00     0.031 C 
ATOM     62  C   UNL A   1      43.273  28.631  33.697  1.00  0.00     0.034 A 
BRANCH  49  63
ATOM     63  C   UNL A   1      41.370  27.305  27.934  1.00  0.00     0.023 A 
ATOM     64  C   UNL A   1      41.004  25.947  27.899  1.00  0.00     0.031 A 
ATOM     65  C   UNL A   1      41.939  27.858  26.773  1.00  0.00     0.131 A 
ATOM     66  C   UNL A   1      41.296  25.170  26.769  1.00  0.00     0.055 A 
ATOM     67  C   UNL A   1      42.140  27.101  25.617  1.00  0.00     0.041 A 
ATOM     68  F   UNL A   1      42.329  29.142  26.748  1.00  0.00    -0.206 F 
ATOM     69  C   UNL A   1      41.836  25.743  25.616  1.00  0.00     0.022 A 
BRANCH  66  70
ATOM     70  S   UNL A   1      41.122  23.368  26.891  1.00  0.00     0.124 S 
ATOM     71  O   UNL A   1      42.087  22.911  25.894  1.00  0.00    -0.237 OA
ATOM     72  O   UNL A   1      41.471  23.111  28.283  1.00  0.00    -0.237 OA
ATOM     73  O   UNL A   1      39.722  23.134  26.544  1.00  0.00    -0.744 OA
ENDBRANCH  66  70
ENDBRANCH  49  63
BRANCH  50  74
ATOM     74  C   UNL A   1      39.563  32.767  36.148  1.00  0.00     0.023 A 
ATOM     75  C   UNL A   1      38.661  32.258  37.094  1.00  0.00     0.031 A 
ATOM     76  C   UNL A   1      40.143  34.024  36.400  1.00  0.00     0.131 A 
ATOM     77  C   UNL A   1      38.334  33.019  38.228  1.00  0.00     0.055 A 
ATOM     78  C   UNL A   1      39.858  34.752  37.556  1.00  0.00     0.041 A 
ATOM     79  F   UNL A   1      41.014  34.558  35.528  1.00  0.00    -0.206 F 
ATOM     80  C   UNL A   1      38.938  34.254  38.473  1.00  0.00     0.022 A 
BRANCH  77  81
ATOM     81  S   UNL A   1      37.037  32.410  39.340  1.00  0.00     0.124 S 
ATOM     82  O   UNL A   1      37.246  33.237  40.522  1.00  0.00    -0.237 OA
ATOM     83  O   UNL A   1      35.827  32.683  38.571  1.00  0.00    -0.237 OA
ATOM     84  O   UNL A   1      37.363  30.994  39.500  1.00  0.00    -0.744 OA
ENDBRANCH  77  81
ENDBRANCH  50  74
BRANCH  62  85
ATOM     85  C   UNL A   1      44.460  28.080  34.453  1.00  0.00     0.023 A 
ATOM     86  C   UNL A   1      44.363  26.923  35.246  1.00  0.00     0.031 A 
ATOM     87  C   UNL A   1      45.707  28.725  34.377  1.00  0.00     0.131 A 
ATOM     88  C   UNL A   1      45.478  26.478  35.972  1.00  0.00     0.055 A 
ATOM     89  C   UNL A   1      46.829  28.240  35.049  1.00  0.00     0.041 A 
ATOM     90  F   UNL A   1      45.858  29.838  33.640  1.00  0.00    -0.206 F 
ATOM     91  C   UNL A   1      46.715  27.117  35.862  1.00  0.00     0.022 A 
BRANCH  88  92
ATOM     92  S   UNL A   1      45.267  25.105  37.138  1.00  0.00     0.124 S 
ATOM     93  O   UNL A   1      45.957  24.017  36.453  1.00  0.00    -0.237 OA
ATOM     94  O   UNL A   1      45.917  25.614  38.342  1.00  0.00    -0.237 OA
ATOM     95  O   UNL A   1      43.816  24.957  37.235  1.00  0.00    -0.744 OA
ENDBRANCH  88  92
ENDBRANCH  62  85
ENDBRANCH  36  37
ENDBRANCH  28  31
ENDBRANCH  26  27
ENDBRANCH  25  26
ENDBRANCH   1  25
TORSDOF 19
ENDMDL
MODEL 2
REMARK VINA RESULT:     -11.0      1.849      2.302
REMARK SMILES [NH3+][C@H](Cc1cnc2ccccc2c1)C(=O)NCCCCCCNC(=O)c1ccc(-c2c3nc(c(-c4cc(S(=O)(=O)[O-])ccc4F)c4ccc([nH]4)c(-c4cc(S(=O)(=O)[O-])ccc4F)c4nc(c(-c5cc(S(=O)(=O)[O-])ccc5F)c5ccc2[nH]5)C=C4)C=C3)cc1
REMARK SMILES IDX 20 1 19 2 18 3 17 4 16 5 14 6 15 7 2 9 1 10 3 14 4 15 5 16
REMARK SMILES IDX 13 17 6 18 12 19 7 20 11 21 8 22 10 23 9 24 21 25 22 26
REMARK SMILES IDX 23 27 24 28 25 30 26 31 27 32 88 33 28 34 87 35 29 36 30 37
REMARK SMILES IDX 31 38 81 39 32 40 86 41 80 42 82 43 33 44 85 45 79 46 78 47
REMARK SMILES IDX 34 49 66 50 46 51 65 52 47 53 50 54 64 55 83 56 48 57 49 58
REMARK SMILES IDX 63 60 84 61 51 62 35 63 36 64 44 65 37 66 43 67 45 68 42 69
REMARK SMILES IDX 38 70 39 71 40 72 41 73 67 74 68 75 76 76 69 77 75 78 77 79
REMARK SMILES IDX 74 80 70 81 71 82 72 83 73 84 52 85 53 86 61 87 54 88 60 89
REMARK SMILES IDX 62 90 59 91 55 92 56 93 57 94 58 95
REMARK H PARENT 16 8 1 11 1 12 1 13 23 29 82 48 50 59
REMARK Flexibility Score: inf
ROOT
ATOM      1  C   UNL A   1      32.258  27.084  26.453  1.00  0.00     0.002 C 
ENDROOT
BRANCH   1   2
ATOM      2  C   UNL A   1      33.607  26.838  25.768  1.00  0.00     0.002 C 
BRANCH   2   3
ATOM      3  C   UNL A   1      34.040  25.370  25.740  1.00  0.00     0.021 C 
BRANCH   3   4
ATOM      4  C   UNL A   1      34.111  24.801  24.325  1.00  0.00     0.116 C 
BRANCH   4   5
ATOM      5  N   UNL A   1      33.549  23.469  24.287  1.00  0.00    -0.351 N 
ATOM      6  C   UNL A   1      32.300  23.025  24.612  1.00  0.00     0.278 C 
ATOM      7  O   UNL A   1      32.128  21.803  24.674  1.00  0.00    -0.268 OA
ATOM      8  H   UNL A   1      34.167  22.769  23.975  1.00  0.00     0.163 HD
BRANCH   6   9
ATOM      9  C   UNL A   1      31.126  24.010  24.824  1.00  0.00     0.275 C 
BRANCH   9  10
ATOM     10  N   UNL A   1      30.280  23.484  25.922  1.00  0.00    -0.347 N 
ATOM     11  H   UNL A   1      29.622  22.800  25.547  1.00  0.00     0.345 HD
ATOM     12  H   UNL A   1      29.764  24.252  26.351  1.00  0.00     0.345 HD
ATOM     13  H   UNL A   1      30.871  23.037  26.622  1.00  0.00     0.345 HD
ENDBRANCH   9  10
BRANCH   9  14
ATOM     14  C   UNL A   1      30.416  24.448  23.509  1.00  0.00     0.112 C 
BRANCH  14  15
ATOM     15  C   UNL A   1      30.308  25.947  23.346  1.00  0.00    -0.023 A 
ATOM     16  C   UNL A   1      31.377  26.704  22.880  1.00  0.00     0.115 A 
ATOM     17  C   UNL A   1      29.097  26.614  23.521  1.00  0.00     0.016 A 
ATOM     18  N   UNL A   1      31.285  27.981  22.459  1.00  0.00    -0.256 NA
ATOM     19  C   UNL A   1      28.972  27.954  23.127  1.00  0.00     0.000 A 
ATOM     20  C   UNL A   1      30.094  28.585  22.551  1.00  0.00     0.070 A 
ATOM     21  C   UNL A   1      27.762  28.656  23.249  1.00  0.00     0.010 A 
ATOM     22  C   UNL A   1      29.952  29.866  22.044  1.00  0.00     0.029 A 
ATOM     23  C   UNL A   1      27.649  29.952  22.750  1.00  0.00     0.001 A 
ATOM     24  C   UNL A   1      28.739  30.551  22.127  1.00  0.00     0.002 A 
ENDBRANCH  14  15
ENDBRANCH   9  14
ENDBRANCH   6   9
ENDBRANCH   4   5
ENDBRANCH   3   4
ENDBRANCH   2   3
ENDBRANCH   1   2
BRANCH   1  25
ATOM     25  C   UNL A   1      31.871  28.558  26.593  1.00  0.00     0.021 C 
BRANCH  25  26
ATOM     26  C   UNL A   1      32.756  29.514  25.799  1.00  0.00     0.116 C 
BRANCH  26  27
ATOM     27  N   UNL A   1      32.467  30.903  26.119  1.00  0.00    -0.352 N 
ATOM     28  C   UNL A   1      33.077  31.731  27.029  1.00  0.00     0.251 C 
ATOM     29  H   UNL A   1      31.728  31.308  25.610  1.00  0.00     0.163 HD
ATOM     30  O   UNL A   1      32.550  32.791  27.340  1.00  0.00    -0.269 OA
BRANCH  28  31
ATOM     31  C   UNL A   1      34.358  31.317  27.639  1.00  0.00     0.039 A 
ATOM     32  C   UNL A   1      35.399  32.244  27.724  1.00  0.00     0.014 A 
ATOM     33  C   UNL A   1      34.523  30.022  28.137  1.00  0.00     0.014 A 
ATOM     34  C   UNL A   1      36.584  31.890  28.371  1.00  0.00     0.010 A 
ATOM     35  C   UNL A   1      35.673  29.696  28.847  1.00  0.00     0.010 A 
ATOM     36  C   UNL A   1      36.715  30.628  28.974  1.00  0.00    -0.014 A 
BRANCH  36  37
ATOM     37  C   UNL A   1      37.928  30.270  29.755  1.00  0.00     0.031 A 
ATOM     38  C   UNL A   1      38.908  29.268  29.211  1.00  0.00     0.074 A 
ATOM     39  C   UNL A   1      38.106  30.798  30.982  1.00  0.00     0.049 A 
ATOM     40  N   UNL A   1      39.975  28.765  29.776  1.00  0.00    -0.248 NA
ATOM     41  C   UNL A   1      38.632  28.740  27.868  1.00  0.00     0.031 C 
ATOM     42  C   UNL A   1      37.199  31.747  31.631  1.00  0.00     0.029 A 
ATOM     43  N   UNL A   1      39.100  30.603  31.908  1.00  0.00    -0.354 N 
ATOM     44  C   UNL A   1      40.495  27.856  28.861  1.00  0.00     0.074 A 
ATOM     45  C   UNL A   1      39.584  27.830  27.736  1.00  0.00     0.031 C 
ATOM     46  C   UNL A   1      37.687  32.065  32.840  1.00  0.00     0.029 A 
ATOM     47  C   UNL A   1      38.909  31.302  33.078  1.00  0.00     0.049 A 
ATOM     48  H   UNL A   1      39.875  30.017  31.752  1.00  0.00     0.167 HD
ATOM     49  C   UNL A   1      41.639  27.130  28.943  1.00  0.00     0.034 A 
ATOM     50  C   UNL A   1      39.620  31.311  34.223  1.00  0.00     0.034 A 
ATOM     51  C   UNL A   1      42.531  27.170  30.076  1.00  0.00     0.049 A 
ATOM     52  C   UNL A   1      40.863  30.463  34.312  1.00  0.00     0.074 A 
ATOM     53  C   UNL A   1      43.742  26.520  30.243  1.00  0.00     0.029 A 
ATOM     54  N   UNL A   1      42.304  27.886  31.246  1.00  0.00    -0.354 N 
ATOM     55  N   UNL A   1      41.377  29.654  33.412  1.00  0.00    -0.248 NA
ATOM     56  C   UNL A   1      41.628  30.535  35.562  1.00  0.00     0.031 C 
ATOM     57  C   UNL A   1      44.201  26.774  31.540  1.00  0.00     0.029 A 
ATOM     58  C   UNL A   1      43.328  27.657  32.153  1.00  0.00     0.049 A 
ATOM     59  H   UNL A   1      41.528  28.470  31.407  1.00  0.00     0.167 HD
ATOM     60  C   UNL A   1      42.539  29.140  33.983  1.00  0.00     0.074 A 
ATOM     61  C   UNL A   1      42.658  29.746  35.293  1.00  0.00     0.031 C 
ATOM     62  C   UNL A   1      43.427  28.253  33.467  1.00  0.00     0.034 A 
BRANCH  49  63
ATOM     63  C   UNL A   1      41.962  26.212  27.785  1.00  0.00     0.023 A 
ATOM     64  C   UNL A   1      41.516  24.879  27.752  1.00  0.00     0.031 A 
ATOM     65  C   UNL A   1      42.757  26.662  26.717  1.00  0.00     0.131 A 
ATOM     66  C   UNL A   1      41.943  24.020  26.729  1.00  0.00     0.055 A 
ATOM     67  C   UNL A   1      43.101  25.828  25.650  1.00  0.00     0.041 A 
ATOM     68  F   UNL A   1      43.233  27.917  26.698  1.00  0.00    -0.206 F 
ATOM     69  C   UNL A   1      42.709  24.492  25.662  1.00  0.00     0.022 A 
BRANCH  66  70
ATOM     70  S   UNL A   1      41.628  22.243  26.905  1.00  0.00     0.124 S 
ATOM     71  O   UNL A   1      40.199  22.226  27.213  1.00  0.00    -0.237 OA
ATOM     72  O   UNL A   1      42.005  21.724  25.596  1.00  0.00    -0.237 OA
ATOM     73  O   UNL A   1      42.499  21.847  28.010  1.00  0.00    -0.744 OA
ENDBRANCH  66  70
ENDBRANCH  49  63
BRANCH  50  74
ATOM     74  C   UNL A   1      39.161  32.124  35.386  1.00  0.00     0.023 A 
ATOM     75  C   UNL A   1      39.629  33.430  35.595  1.00  0.00     0.031 A 
ATOM     76  C   UNL A   1      38.260  31.589  36.326  1.00  0.00     0.131 A 
ATOM     77  C   UNL A   1      39.227  34.143  36.737  1.00  0.00     0.055 A 
ATOM     78  C   UNL A   1      37.819  32.322  37.429  1.00  0.00     0.041 A 
ATOM     79  F   UNL A   1      37.780  30.344  36.174  1.00  0.00    -0.206 F 
ATOM     80  C   UNL A   1      38.314  33.604  37.646  1.00  0.00     0.022 A 
BRANCH  77  81
ATOM     81  S   UNL A   1      39.985  35.757  37.065  1.00  0.00     0.124 S 
ATOM     82  O   UNL A   1      39.304  36.162  38.289  1.00  0.00    -0.237 OA
ATOM     83  O   UNL A   1      41.395  35.407  37.201  1.00  0.00    -0.237 OA
ATOM     84  O   UNL A   1      39.651  36.538  35.876  1.00  0.00    -0.744 OA
ENDBRANCH  77  81
ENDBRANCH  50  74
BRANCH  62  85
ATOM     85  C   UNL A   1      44.632  27.914  34.314  1.00  0.00     0.023 A 
ATOM     86  C   UNL A   1      44.629  26.827  35.207  1.00  0.00     0.031 A 
ATOM     87  C   UNL A   1      45.800  28.691  34.225  1.00  0.00     0.131 A 
ATOM     88  C   UNL A   1      45.752  26.581  36.012  1.00  0.00     0.055 A 
ATOM     89  C   UNL A   1      46.937  28.402  34.979  1.00  0.00     0.041 A 
ATOM     90  F   UNL A   1      45.858  29.745  33.394  1.00  0.00    -0.206 F 
ATOM     91  C   UNL A   1      46.913  27.349  35.889  1.00  0.00     0.022 A 
BRANCH  88  92
ATOM     92  S   UNL A   1      45.643  25.302  37.292  1.00  0.00     0.124 S 
ATOM     93  O   UNL A   1      47.047  25.093  37.633  1.00  0.00    -0.237 OA
ATOM     94  O   UNL A   1      44.828  25.950  38.315  1.00  0.00    -0.237 OA
ATOM     95  O   UNL A   1      44.999  24.183  36.606  1.00  0.00    -0.744 OA
ENDBRANCH  88  92
ENDBRANCH  62  85
ENDBRANCH  36  37
ENDBRANCH  28  31
ENDBRANCH  26  27
ENDBRANCH  25  26
ENDBRANCH   1  25
TORSDOF 19
ENDMDL
MODEL 3
REMARK VINA RESULT:     -11.0      2.095      2.493
REMARK SMILES [NH3+][C@H](Cc1cnc2ccccc2c1)C(=O)NCCCCCCNC(=O)c1ccc(-c2c3nc(c(-c4cc(S(=O)(=O)[O-])ccc4F)c4ccc([nH]4)c(-c4cc(S(=O)(=O)[O-])ccc4F)c4nc(c(-c5cc(S(=O)(=O)[O-])ccc5F)c5ccc2[nH]5)C=C4)C=C3)cc1
REMARK SMILES IDX 20 1 19 2 18 3 17 4 16 5 14 6 15 7 2 9 1 10 3 14 4 15 5 16
REMARK SMILES IDX 13 17 6 18 12 19 7 20 11 21 8 22 10 23 9 24 21 25 22 26
REMARK SMILES IDX 23 27 24 28 25 30 26 31 27 32 88 33 28 34 87 35 29 36 30 37
REMARK SMILES IDX 31 38 81 39 32 40 86 41 80 42 82 43 33 44 85 45 79 46 78 47
REMARK SMILES IDX 34 49 66 50 46 51 65 52 47 53 50 54 64 55 83 56 48 57 49 58
REMARK SMILES IDX 63 60 84 61 51 62 35 63 36 64 44 65 37 66 43 67 45 68 42 69
REMARK SMILES IDX 38 70 39 71 40 72 41 73 67 74 68 75 76 76 69 77 75 78 77 79
REMARK SMILES IDX 74 80 70 81 71 82 72 83 73 84 52 85 53 86 61 87 54 88 60 89
REMARK SMILES IDX 62 90 59 91 55 92 56 93 57 94 58 95
REMARK H PARENT 16 8 1 11 1 12 1 13 23 29 82 48 50 59
REMARK Flexibility Score: inf
ROOT
ATOM      1  C   UNL A   1      31.968  30.258  26.006  1.00  0.00     0.002 C 
ENDROOT
BRANCH   1   2
ATOM      2  C   UNL A   1      33.316  29.632  26.381  1.00  0.00     0.002 C 
BRANCH   2   3
ATOM      3  C   UNL A   1      33.204  28.342  27.198  1.00  0.00     0.021 C 
BRANCH   3   4
ATOM      4  C   UNL A   1      32.219  27.344  26.596  1.00  0.00     0.116 C 
BRANCH   4   5
ATOM      5  N   UNL A   1      32.785  26.013  26.593  1.00  0.00    -0.351 N 
ATOM      6  C   UNL A   1      32.302  24.847  26.072  1.00  0.00     0.278 C 
ATOM      7  O   UNL A   1      32.891  23.803  26.371  1.00  0.00    -0.268 OA
ATOM      8  H   UNL A   1      33.659  25.935  27.038  1.00  0.00     0.163 HD
BRANCH   6   9
ATOM      9  C   UNL A   1      31.109  24.838  25.087  1.00  0.00     0.275 C 
BRANCH   9  10
ATOM     10  N   UNL A   1      30.573  23.458  25.030  1.00  0.00    -0.347 N 
ATOM     11  H   UNL A   1      30.318  23.230  24.069  1.00  0.00     0.345 HD
ATOM     12  H   UNL A   1      29.747  23.390  25.625  1.00  0.00     0.345 HD
ATOM     13  H   UNL A   1      31.283  22.804  25.358  1.00  0.00     0.345 HD
ENDBRANCH   9  10
BRANCH   9  14
ATOM     14  C   UNL A   1      31.392  25.562  23.737  1.00  0.00     0.112 C 
BRANCH  14  15
ATOM     15  C   UNL A   1      30.316  26.545  23.336  1.00  0.00    -0.023 A 
ATOM     16  C   UNL A   1      29.002  26.396  23.765  1.00  0.00     0.115 A 
ATOM     17  C   UNL A   1      30.619  27.713  22.639  1.00  0.00     0.016 A 
ATOM     18  N   UNL A   1      28.055  27.351  23.679  1.00  0.00    -0.256 NA
ATOM     19  C   UNL A   1      29.648  28.715  22.498  1.00  0.00     0.000 A 
ATOM     20  C   UNL A   1      28.383  28.503  23.083  1.00  0.00     0.070 A 
ATOM     21  C   UNL A   1      29.918  29.924  21.836  1.00  0.00     0.010 A 
ATOM     22  C   UNL A   1      27.455  29.532  23.060  1.00  0.00     0.029 A 
ATOM     23  C   UNL A   1      28.962  30.938  21.807  1.00  0.00     0.001 A 
ATOM     24  C   UNL A   1      27.736  30.750  22.439  1.00  0.00     0.002 A 
ENDBRANCH  14  15
ENDBRANCH   9  14
ENDBRANCH   6   9
ENDBRANCH   4   5
ENDBRANCH   3   4
ENDBRANCH   2   3
ENDBRANCH   1   2
BRANCH   1  25
ATOM     25  C   UNL A   1      31.646  31.566  26.733  1.00  0.00     0.021 C 
BRANCH  25  26
ATOM     26  C   UNL A   1      32.855  32.235  27.380  1.00  0.00     0.116 C 
BRANCH  26  27
ATOM     27  N   UNL A   1      32.629  33.654  27.600  1.00  0.00    -0.352 N 
ATOM     28  C   UNL A   1      33.173  34.484  28.549  1.00  0.00     0.251 C 
ATOM     29  H   UNL A   1      31.996  34.082  26.979  1.00  0.00     0.163 HD
ATOM     30  O   UNL A   1      32.688  35.592  28.742  1.00  0.00    -0.269 OA
BRANCH  28  31
ATOM     31  C   UNL A   1      34.328  34.017  29.344  1.00  0.00     0.039 A 
ATOM     32  C   UNL A   1      34.102  33.198  30.452  1.00  0.00     0.014 A 
ATOM     33  C   UNL A   1      35.629  34.378  28.985  1.00  0.00     0.014 A 
ATOM     34  C   UNL A   1      35.189  32.686  31.161  1.00  0.00     0.010 A 
ATOM     35  C   UNL A   1      36.711  33.805  29.645  1.00  0.00     0.010 A 
ATOM     36  C   UNL A   1      36.503  32.950  30.739  1.00  0.00    -0.014 A 
BRANCH  36  37
ATOM     37  C   UNL A   1      37.670  32.330  31.418  1.00  0.00     0.031 A 
ATOM     38  C   UNL A   1      38.420  31.207  30.757  1.00  0.00     0.074 A 
ATOM     39  C   UNL A   1      38.007  32.735  32.658  1.00  0.00     0.049 A 
ATOM     40  N   UNL A   1      39.406  30.485  31.223  1.00  0.00    -0.248 NA
ATOM     41  C   UNL A   1      37.980  30.828  29.407  1.00  0.00     0.031 C 
ATOM     42  C   UNL A   1      37.325  33.786  33.416  1.00  0.00     0.029 A 
ATOM     43  N   UNL A   1      38.996  32.305  33.506  1.00  0.00    -0.354 N 
ATOM     44  C   UNL A   1      39.702  29.561  30.227  1.00  0.00     0.074 A 
ATOM     45  C   UNL A   1      38.741  29.773  29.164  1.00  0.00     0.031 C 
ATOM     46  C   UNL A   1      37.926  33.930  34.607  1.00  0.00     0.029 A 
ATOM     47  C   UNL A   1      38.999  32.947  34.723  1.00  0.00     0.049 A 
ATOM     48  H   UNL A   1      39.642  31.601  33.267  1.00  0.00     0.167 HD
ATOM     49  C   UNL A   1      40.697  28.638  30.194  1.00  0.00     0.034 A 
ATOM     50  C   UNL A   1      39.760  32.753  35.818  1.00  0.00     0.034 A 
ATOM     51  C   UNL A   1      41.640  28.442  31.267  1.00  0.00     0.049 A 
ATOM     52  C   UNL A   1      40.831  31.692  35.779  1.00  0.00     0.074 A 
ATOM     53  C   UNL A   1      42.719  27.576  31.319  1.00  0.00     0.029 A 
ATOM     54  N   UNL A   1      41.611  29.108  32.488  1.00  0.00    -0.354 N 
ATOM     55  N   UNL A   1      41.139  30.865  34.805  1.00  0.00    -0.248 NA
ATOM     56  C   UNL A   1      41.662  31.543  36.979  1.00  0.00     0.031 C 
ATOM     57  C   UNL A   1      43.286  27.657  32.595  1.00  0.00     0.029 A 
ATOM     58  C   UNL A   1      42.623  28.640  33.313  1.00  0.00     0.049 A 
ATOM     59  H   UNL A   1      40.964  29.810  32.731  1.00  0.00     0.167 HD
ATOM     60  C   UNL A   1      42.217  30.116  35.269  1.00  0.00     0.074 A 
ATOM     61  C   UNL A   1      42.515  30.602  36.601  1.00  0.00     0.031 C 
ATOM     62  C   UNL A   1      42.899  29.120  34.649  1.00  0.00     0.034 A 
BRANCH  49  63
ATOM     63  C   UNL A   1      40.784  27.756  28.969  1.00  0.00     0.023 A 
ATOM     64  C   UNL A   1      41.747  27.976  27.967  1.00  0.00     0.031 A 
ATOM     65  C   UNL A   1      39.870  26.705  28.778  1.00  0.00     0.131 A 
ATOM     66  C   UNL A   1      41.715  27.221  26.785  1.00  0.00     0.055 A 
ATOM     67  C   UNL A   1      39.904  25.895  27.641  1.00  0.00     0.041 A 
ATOM     68  F   UNL A   1      38.914  26.456  29.686  1.00  0.00    -0.206 F 
ATOM     69  C   UNL A   1      40.819  26.163  26.626  1.00  0.00     0.022 A 
BRANCH  66  70
ATOM     70  S   UNL A   1      42.744  27.756  25.391  1.00  0.00     0.124 S 
ATOM     71  O   UNL A   1      42.911  26.507  24.651  1.00  0.00    -0.237 OA
ATOM     72  O   UNL A   1      41.912  28.770  24.754  1.00  0.00    -0.237 OA
ATOM     73  O   UNL A   1      43.958  28.257  26.033  1.00  0.00    -0.744 OA
ENDBRANCH  66  70
ENDBRANCH  49  63
BRANCH  50  74
ATOM     74  C   UNL A   1      39.520  33.556  37.052  1.00  0.00     0.023 A 
ATOM     75  C   UNL A   1      40.220  34.747  37.296  1.00  0.00     0.031 A 
ATOM     76  C   UNL A   1      38.598  33.122  38.023  1.00  0.00     0.131 A 
ATOM     77  C   UNL A   1      40.018  35.443  38.499  1.00  0.00     0.055 A 
ATOM     78  C   UNL A   1      38.359  33.847  39.192  1.00  0.00     0.041 A 
ATOM     79  F   UNL A   1      37.901  31.990  37.840  1.00  0.00    -0.206 F 
ATOM     80  C   UNL A   1      39.081  35.010  39.440  1.00  0.00     0.022 A 
BRANCH  77  81
ATOM     81  S   UNL A   1      41.063  36.881  38.858  1.00  0.00     0.124 S 
ATOM     82  O   UNL A   1      41.890  36.953  37.659  1.00  0.00    -0.237 OA
ATOM     83  O   UNL A   1      40.073  37.941  39.020  1.00  0.00    -0.237 OA
ATOM     84  O   UNL A   1      41.765  36.495  40.080  1.00  0.00    -0.744 OA
ENDBRANCH  77  81
ENDBRANCH  50  74
BRANCH  62  85
ATOM     85  C   UNL A   1      44.065  28.515  35.395  1.00  0.00     0.023 A 
ATOM     86  C   UNL A   1      43.894  27.461  36.311  1.00  0.00     0.031 A 
ATOM     87  C   UNL A   1      45.368  29.002  35.186  1.00  0.00     0.131 A 
ATOM     88  C   UNL A   1      44.999  26.966  37.021  1.00  0.00     0.055 A 
ATOM     89  C   UNL A   1      46.471  28.462  35.846  1.00  0.00     0.041 A 
ATOM     90  F   UNL A   1      45.591  30.012  34.329  1.00  0.00    -0.206 F 
ATOM     91  C   UNL A   1      46.289  27.446  36.779  1.00  0.00     0.022 A 
BRANCH  88  92
ATOM     92  S   UNL A   1      44.716  25.750  38.336  1.00  0.00     0.124 S 
ATOM     93  O   UNL A   1      43.965  26.531  39.314  1.00  0.00    -0.237 OA
ATOM     94  O   UNL A   1      43.967  24.707  37.643  1.00  0.00    -0.237 OA
ATOM     95  O   UNL A   1      46.066  25.371  38.750  1.00  0.00    -0.744 OA
ENDBRANCH  88  92
ENDBRANCH  62  85
ENDBRANCH  36  37
ENDBRANCH  28  31
ENDBRANCH  26  27
ENDBRANCH  25  26
ENDBRANCH   1  25
TORSDOF 19
ENDMDL
