MODEL 1
REMARK VINA RESULT:     -11.1      0.000      0.000
REMARK SMILES CC(C)[C@H](NC(=O)CCC1=c2ccccc2=NC1)C(=O)NCCCCCCNC(=O)c1ccc(-c2c3nc(c(-c4cc(S(=O)(=O)[O-])ccc4F)c4ccc([nH]4)c(-c4cc(S(=O)(=O)[O-])ccc4F)c4nc(c(-c5cc(S(=O)(=O)[O-])ccc5F)c5ccc2[nH]5)C=C4)C=C3)cc1
REMARK SMILES IDX 24 1 23 2 22 3 21 4 19 5 20 6 4 8 2 9 1 10 3 11 5 12 6 13
REMARK SMILES IDX 7 15 8 16 9 17 10 18 11 19 18 20 12 21 16 22 17 23 13 24
REMARK SMILES IDX 15 25 14 26 25 27 26 28 27 29 28 30 29 31 30 33 31 34 32 35
REMARK SMILES IDX 93 36 33 37 92 38 34 39 35 40 36 41 86 42 37 43 91 44 85 45
REMARK SMILES IDX 87 46 38 47 90 48 84 49 83 50 39 52 71 53 51 54 70 55 52 56
REMARK SMILES IDX 55 57 69 58 88 59 53 60 54 61 68 63 89 64 56 65 40 66 41 67
REMARK SMILES IDX 49 68 42 69 48 70 50 71 47 72 43 73 44 74 45 75 46 76 72 77
REMARK SMILES IDX 73 78 81 79 74 80 80 81 82 82 79 83 75 84 76 85 77 86 78 87
REMARK SMILES IDX 57 88 58 89 66 90 59 91 65 92 67 93 64 94 60 95 61 96 62 97
REMARK SMILES IDX 63 98
REMARK H PARENT 21 7 5 14 28 32 87 51 55 62
REMARK Flexibility Score: inf
ROOT
ATOM      1  C   UNL A   1      38.028  24.049  26.446  1.00  0.00     0.002 C 
ENDROOT
BRANCH   1   2
ATOM      2  C   UNL A   1      36.997  23.302  25.596  1.00  0.00     0.021 C 
BRANCH   2   3
ATOM      3  C   UNL A   1      35.757  22.796  26.360  1.00  0.00     0.116 C 
BRANCH   3   4
ATOM      4  N   UNL A   1      34.928  21.530  25.608  1.00  0.00    -0.354 N 
ATOM      5  C   UNL A   1      33.142  20.834  25.298  1.00  0.00     0.242 C 
ATOM      6  O   UNL A   1      32.609  19.712  25.581  1.00  0.00    -0.273 OA
ATOM      7  H   UNL A   1      35.581  20.937  25.173  1.00  0.00     0.163 HD
BRANCH   5   8
ATOM      8  C   UNL A   1      31.981  21.632  24.517  1.00  0.00     0.173 C 
BRANCH   8   9
ATOM      9  C   UNL A   1      32.545  22.119  23.096  1.00  0.00     0.015 C 
ATOM     10  C   UNL A   1      34.514  23.132  22.838  1.00  0.00     0.010 C 
ATOM     11  C   UNL A   1      31.894  20.818  22.108  1.00  0.00     0.010 C 
ENDBRANCH   8   9
BRANCH   8  12
ATOM     12  N   UNL A   1      31.150  22.504  25.400  1.00  0.00    -0.344 N 
ATOM     13  C   UNL A   1      31.410  23.324  26.456  1.00  0.00     0.220 C 
ATOM     14  H   UNL A   1      30.195  22.480  25.165  1.00  0.00     0.164 HD
ATOM     15  O   UNL A   1      30.535  23.438  27.318  1.00  0.00    -0.275 OA
BRANCH  13  16
ATOM     16  C   UNL A   1      32.682  24.148  26.546  1.00  0.00     0.104 C 
BRANCH  16  17
ATOM     17  C   UNL A   1      33.000  24.997  25.322  1.00  0.00     0.043 C 
BRANCH  17  18
ATOM     18  C   UNL A   1      32.102  26.175  25.262  1.00  0.00    -0.039 C 
ATOM     19  C   UNL A   1      32.322  27.563  25.982  1.00  0.00     0.001 A 
ATOM     20  C   UNL A   1      30.739  26.350  23.754  1.00  0.00     0.174 C 
ATOM     21  C   UNL A   1      33.598  28.341  27.162  1.00  0.00     0.010 A 
ATOM     22  C   UNL A   1      31.109  28.982  25.023  1.00  0.00     0.065 A 
ATOM     23  N   UNL A   1      30.272  28.332  23.822  1.00  0.00    -0.280 NA
ATOM     24  C   UNL A   1      33.590  29.923  27.536  1.00  0.00     0.001 A 
ATOM     25  C   UNL A   1      31.348  30.825  25.601  1.00  0.00     0.028 A 
ATOM     26  C   UNL A   1      32.407  31.203  26.762  1.00  0.00     0.002 A 
ENDBRANCH  17  18
ENDBRANCH  16  17
ENDBRANCH  13  16
ENDBRANCH   8  12
ENDBRANCH   5   8
ENDBRANCH   3   4
ENDBRANCH   2   3
ENDBRANCH   1   2
BRANCH   1  27
ATOM     27  C   UNL A   1      39.398  23.374  26.582  1.00  0.00     0.002 C 
BRANCH  27  28
ATOM     28  C   UNL A   1      39.455  21.899  26.185  1.00  0.00     0.021 C 
BRANCH  28  29
ATOM     29  C   UNL A   1      40.356  21.029  27.050  1.00  0.00     0.116 C 
BRANCH  29  30
ATOM     30  N   UNL A   1      41.146  20.088  26.277  1.00  0.00    -0.352 N 
ATOM     31  C   UNL A   1      42.402  20.273  25.746  1.00  0.00     0.251 C 
ATOM     32  H   UNL A   1      40.733  19.211  26.113  1.00  0.00     0.163 HD
ATOM     33  O   UNL A   1      42.898  19.430  25.008  1.00  0.00    -0.269 OA
BRANCH  31  34
ATOM     34  C   UNL A   1      43.110  21.535  26.045  1.00  0.00     0.039 A 
ATOM     35  C   UNL A   1      43.681  21.737  27.306  1.00  0.00     0.014 A 
ATOM     36  C   UNL A   1      43.084  22.561  25.101  1.00  0.00     0.014 A 
ATOM     37  C   UNL A   1      44.060  23.021  27.685  1.00  0.00     0.010 A 
ATOM     38  C   UNL A   1      43.549  23.827  25.458  1.00  0.00     0.010 A 
ATOM     39  C   UNL A   1      43.981  24.083  26.770  1.00  0.00    -0.014 A 
BRANCH  39  40
ATOM     40  C   UNL A   1      44.311  25.469  27.194  1.00  0.00     0.031 A 
ATOM     41  C   UNL A   1      43.229  26.378  27.716  1.00  0.00     0.074 A 
ATOM     42  C   UNL A   1      45.583  25.906  27.116  1.00  0.00     0.049 A 
ATOM     43  N   UNL A   1      43.297  27.645  28.030  1.00  0.00    -0.248 NA
ATOM     44  C   UNL A   1      41.893  25.787  27.907  1.00  0.00     0.031 C 
ATOM     45  C   UNL A   1      46.717  25.100  26.669  1.00  0.00     0.029 A 
ATOM     46  N   UNL A   1      46.137  27.129  27.405  1.00  0.00    -0.354 N 
ATOM     47  C   UNL A   1      42.013  28.012  28.422  1.00  0.00     0.074 A 
ATOM     48  C   UNL A   1      41.179  26.840  28.283  1.00  0.00     0.031 C 
ATOM     49  C   UNL A   1      47.833  25.838  26.734  1.00  0.00     0.029 A 
ATOM     50  C   UNL A   1      47.485  27.197  27.141  1.00  0.00     0.049 A 
ATOM     51  H   UNL A   1      45.618  27.884  27.766  1.00  0.00     0.167 HD
ATOM     52  C   UNL A   1      41.580  29.214  28.868  1.00  0.00     0.034 A 
ATOM     53  C   UNL A   1      48.340  28.239  27.179  1.00  0.00     0.034 A 
ATOM     54  C   UNL A   1      42.441  30.359  29.029  1.00  0.00     0.049 A 
ATOM     55  C   UNL A   1      47.822  29.586  27.614  1.00  0.00     0.074 A 
ATOM     56  C   UNL A   1      42.106  31.614  29.505  1.00  0.00     0.029 A 
ATOM     57  N   UNL A   1      43.795  30.393  28.726  1.00  0.00    -0.354 N 
ATOM     58  N   UNL A   1      46.613  29.911  28.009  1.00  0.00    -0.248 NA
ATOM     59  C   UNL A   1      48.770  30.709  27.611  1.00  0.00     0.031 C 
ATOM     60  C   UNL A   1      43.234  32.427  29.415  1.00  0.00     0.029 A 
ATOM     61  C   UNL A   1      44.300  31.658  28.973  1.00  0.00     0.049 A 
ATOM     62  H   UNL A   1      44.318  29.632  28.385  1.00  0.00     0.167 HD
ATOM     63  C   UNL A   1      46.664  31.265  28.330  1.00  0.00     0.074 A 
ATOM     64  C   UNL A   1      48.027  31.695  28.096  1.00  0.00     0.031 C 
ATOM     65  C   UNL A   1      45.670  32.072  28.775  1.00  0.00     0.034 A 
BRANCH  52  66
ATOM     66  C   UNL A   1      40.124  29.388  29.229  1.00  0.00     0.023 A 
ATOM     67  C   UNL A   1      39.735  29.388  30.584  1.00  0.00     0.031 A 
ATOM     68  C   UNL A   1      39.116  29.391  28.250  1.00  0.00     0.131 A 
ATOM     69  C   UNL A   1      38.377  29.342  30.919  1.00  0.00     0.055 A 
ATOM     70  C   UNL A   1      37.762  29.396  28.591  1.00  0.00     0.041 A 
ATOM     71  F   UNL A   1      39.431  29.389  26.945  1.00  0.00    -0.206 F 
ATOM     72  C   UNL A   1      37.388  29.354  29.931  1.00  0.00     0.022 A 
BRANCH  69  73
ATOM     73  S   UNL A   1      37.842  29.178  32.646  1.00  0.00     0.124 S 
ATOM     74  O   UNL A   1      38.934  29.836  33.360  1.00  0.00    -0.237 OA
ATOM     75  O   UNL A   1      36.574  29.901  32.641  1.00  0.00    -0.237 OA
ATOM     76  O   UNL A   1      37.748  27.736  32.850  1.00  0.00    -0.744 OA
ENDBRANCH  69  73
ENDBRANCH  52  66
BRANCH  53  77
ATOM     77  C   UNL A   1      49.770  28.017  26.810  1.00  0.00     0.023 A 
ATOM     78  C   UNL A   1      50.193  28.106  25.470  1.00  0.00     0.031 A 
ATOM     79  C   UNL A   1      50.703  27.592  27.769  1.00  0.00     0.131 A 
ATOM     80  C   UNL A   1      51.483  27.691  25.115  1.00  0.00     0.055 A 
ATOM     81  C   UNL A   1      52.013  27.257  27.422  1.00  0.00     0.041 A 
ATOM     82  F   UNL A   1      50.346  27.479  29.057  1.00  0.00    -0.206 F 
ATOM     83  C   UNL A   1      52.402  27.285  26.087  1.00  0.00     0.022 A 
BRANCH  80  84
ATOM     84  S   UNL A   1      51.958  27.519  23.372  1.00  0.00     0.124 S 
ATOM     85  O   UNL A   1      52.927  26.430  23.427  1.00  0.00    -0.237 OA
ATOM     86  O   UNL A   1      50.678  27.195  22.747  1.00  0.00    -0.237 OA
ATOM     87  O   UNL A   1      52.499  28.830  23.032  1.00  0.00    -0.744 OA
ENDBRANCH  80  84
ENDBRANCH  53  77
BRANCH  65  88
ATOM     88  C   UNL A   1      45.974  33.519  29.081  1.00  0.00     0.023 A 
ATOM     89  C   UNL A   1      45.852  34.481  28.059  1.00  0.00     0.031 A 
ATOM     90  C   UNL A   1      46.592  33.898  30.283  1.00  0.00     0.131 A 
ATOM     91  C   UNL A   1      46.416  35.750  28.227  1.00  0.00     0.055 A 
ATOM     92  C   UNL A   1      47.099  35.185  30.468  1.00  0.00     0.041 A 
ATOM     93  F   UNL A   1      46.740  33.013  31.282  1.00  0.00    -0.206 F 
ATOM     94  C   UNL A   1      47.034  36.111  29.429  1.00  0.00     0.022 A 
BRANCH  91  95
ATOM     95  S   UNL A   1      46.480  36.932  26.852  1.00  0.00     0.124 S 
ATOM     96  O   UNL A   1      46.704  36.055  25.705  1.00  0.00    -0.237 OA
ATOM     97  O   UNL A   1      45.157  37.548  26.917  1.00  0.00    -0.237 OA
ATOM     98  O   UNL A   1      47.598  37.807  27.190  1.00  0.00    -0.744 OA
ENDBRANCH  91  95
ENDBRANCH  65  88
ENDBRANCH  39  40
ENDBRANCH  31  34
ENDBRANCH  29  30
ENDBRANCH  28  29
ENDBRANCH  27  28
ENDBRANCH   1  27
TORSDOF 21
ENDMDL
MODEL 2
REMARK VINA RESULT:     -11.0      1.144      7.731
REMARK SMILES CC(C)[C@H](NC(=O)CCC1=c2ccccc2=NC1)C(=O)NCCCCCCNC(=O)c1ccc(-c2c3nc(c(-c4cc(S(=O)(=O)[O-])ccc4F)c4ccc([nH]4)c(-c4cc(S(=O)(=O)[O-])ccc4F)c4nc(c(-c5cc(S(=O)(=O)[O-])ccc5F)c5ccc2[nH]5)C=C4)C=C3)cc1
REMARK SMILES IDX 24 1 23 2 22 3 21 4 19 5 20 6 4 8 2 9 1 10 3 11 5 12 6 13
REMARK SMILES IDX 7 15 8 16 9 17 10 18 11 19 18 20 12 21 16 22 17 23 13 24
REMARK SMILES IDX 15 25 14 26 25 27 26 28 27 29 28 30 29 31 30 33 31 34 32 35
REMARK SMILES IDX 93 36 33 37 92 38 34 39 35 40 36 41 86 42 37 43 91 44 85 45
REMARK SMILES IDX 87 46 38 47 90 48 84 49 83 50 39 52 71 53 51 54 70 55 52 56
REMARK SMILES IDX 55 57 69 58 88 59 53 60 54 61 68 63 89 64 56 65 40 66 41 67
REMARK SMILES IDX 49 68 42 69 48 70 50 71 47 72 43 73 44 74 45 75 46 76 72 77
REMARK SMILES IDX 73 78 81 79 74 80 80 81 82 82 79 83 75 84 76 85 77 86 78 87
REMARK SMILES IDX 57 88 58 89 66 90 59 91 65 92 67 93 64 94 60 95 61 96 62 97
REMARK SMILES IDX 63 98
REMARK H PARENT 21 7 5 14 28 32 87 51 55 62
REMARK Flexibility Score: inf
ROOT
ATOM      1  C   UNL A   1      38.402  24.015  26.121  1.00  0.00     0.002 C 
ENDROOT
BRANCH   1   2
ATOM      2  C   UNL A   1      37.338  23.301  25.283  1.00  0.00     0.021 C 
BRANCH   2   3
ATOM      3  C   UNL A   1      36.092  22.835  26.062  1.00  0.00     0.116 C 
BRANCH   3   4
ATOM      4  N   UNL A   1      35.323  21.474  25.420  1.00  0.00    -0.354 N 
ATOM      5  C   UNL A   1      33.623  20.536  25.402  1.00  0.00     0.242 C 
ATOM      6  O   UNL A   1      33.308  19.346  25.733  1.00  0.00    -0.273 OA
ATOM      7  H   UNL A   1      35.963  20.984  24.856  1.00  0.00     0.163 HD
BRANCH   5   8
ATOM      8  C   UNL A   1      32.243  21.171  24.867  1.00  0.00     0.173 C 
BRANCH   8   9
ATOM      9  C   UNL A   1      32.469  21.739  23.383  1.00  0.00     0.015 C 
ATOM     10  C   UNL A   1      34.003  23.276  22.878  1.00  0.00     0.010 C 
ATOM     11  C   UNL A   1      32.128  20.262  22.493  1.00  0.00     0.010 C 
ENDBRANCH   8   9
BRANCH   8  12
ATOM     12  N   UNL A   1      31.476  21.915  25.910  1.00  0.00    -0.344 N 
ATOM     13  C   UNL A   1      31.448  23.207  26.340  1.00  0.00     0.220 C 
ATOM     14  H   UNL A   1      30.846  21.339  26.400  1.00  0.00     0.164 HD
ATOM     15  O   UNL A   1      31.191  23.406  27.530  1.00  0.00    -0.275 OA
BRANCH  13  16
ATOM     16  C   UNL A   1      31.633  24.378  25.392  1.00  0.00     0.104 C 
BRANCH  16  17
ATOM     17  C   UNL A   1      30.442  24.690  24.496  1.00  0.00     0.043 C 
BRANCH  17  18
ATOM     18  C   UNL A   1      30.653  25.972  23.782  1.00  0.00    -0.039 C 
ATOM     19  C   UNL A   1      29.552  27.056  23.451  1.00  0.00     0.001 A 
ATOM     20  C   UNL A   1      32.524  26.773  23.641  1.00  0.00     0.174 C 
ATOM     21  C   UNL A   1      27.675  27.261  23.688  1.00  0.00     0.010 A 
ATOM     22  C   UNL A   1      30.537  28.862  23.037  1.00  0.00     0.065 A 
ATOM     23  N   UNL A   1      32.127  28.710  23.152  1.00  0.00    -0.280 NA
ATOM     24  C   UNL A   1      26.904  28.660  23.384  1.00  0.00     0.001 A 
ATOM     25  C   UNL A   1      29.386  30.413  22.790  1.00  0.00     0.028 A 
ATOM     26  C   UNL A   1      27.779  30.280  22.884  1.00  0.00     0.002 A 
ENDBRANCH  17  18
ENDBRANCH  16  17
ENDBRANCH  13  16
ENDBRANCH   8  12
ENDBRANCH   5   8
ENDBRANCH   3   4
ENDBRANCH   2   3
ENDBRANCH   1   2
BRANCH   1  27
ATOM     27  C   UNL A   1      39.396  23.107  26.854  1.00  0.00     0.002 C 
BRANCH  27  28
ATOM     28  C   UNL A   1      39.643  21.739  26.217  1.00  0.00     0.021 C 
BRANCH  28  29
ATOM     29  C   UNL A   1      40.441  20.762  27.068  1.00  0.00     0.116 C 
BRANCH  29  30
ATOM     30  N   UNL A   1      41.225  19.831  26.276  1.00  0.00    -0.352 N 
ATOM     31  C   UNL A   1      42.442  20.049  25.674  1.00  0.00     0.251 C 
ATOM     32  H   UNL A   1      40.838  18.935  26.156  1.00  0.00     0.163 HD
ATOM     33  O   UNL A   1      42.930  19.206  24.930  1.00  0.00    -0.269 OA
BRANCH  31  34
ATOM     34  C   UNL A   1      43.116  21.343  25.903  1.00  0.00     0.039 A 
ATOM     35  C   UNL A   1      43.626  21.655  27.168  1.00  0.00     0.014 A 
ATOM     36  C   UNL A   1      43.117  22.292  24.880  1.00  0.00     0.014 A 
ATOM     37  C   UNL A   1      43.967  22.971  27.460  1.00  0.00     0.010 A 
ATOM     38  C   UNL A   1      43.545  23.591  25.156  1.00  0.00     0.010 A 
ATOM     39  C   UNL A   1      43.913  23.957  26.462  1.00  0.00    -0.014 A 
BRANCH  39  40
ATOM     40  C   UNL A   1      44.201  25.379  26.790  1.00  0.00     0.031 A 
ATOM     41  C   UNL A   1      45.584  25.937  26.584  1.00  0.00     0.074 A 
ATOM     42  C   UNL A   1      43.216  26.166  27.264  1.00  0.00     0.049 A 
ATOM     43  N   UNL A   1      46.056  27.111  26.911  1.00  0.00    -0.248 NA
ATOM     44  C   UNL A   1      46.570  25.059  25.930  1.00  0.00     0.031 C 
ATOM     45  C   UNL A   1      41.831  25.744  27.460  1.00  0.00     0.029 A 
ATOM     46  N   UNL A   1      43.226  27.478  27.670  1.00  0.00    -0.354 N 
ATOM     47  C   UNL A   1      47.396  27.104  26.535  1.00  0.00     0.074 A 
ATOM     48  C   UNL A   1      47.670  25.799  25.978  1.00  0.00     0.031 C 
ATOM     49  C   UNL A   1      41.118  26.780  27.925  1.00  0.00     0.029 A 
ATOM     50  C   UNL A   1      42.011  27.914  28.146  1.00  0.00     0.049 A 
ATOM     51  H   UNL A   1      44.025  28.051  27.623  1.00  0.00     0.167 HD
ATOM     52  C   UNL A   1      48.305  28.102  26.635  1.00  0.00     0.034 A 
ATOM     53  C   UNL A   1      41.660  29.076  28.734  1.00  0.00     0.034 A 
ATOM     54  C   UNL A   1      47.996  29.406  27.165  1.00  0.00     0.049 A 
ATOM     55  C   UNL A   1      42.705  30.150  28.898  1.00  0.00     0.074 A 
ATOM     56  C   UNL A   1      48.838  30.498  27.280  1.00  0.00     0.029 A 
ATOM     57  N   UNL A   1      46.761  29.799  27.661  1.00  0.00    -0.354 N 
ATOM     58  N   UNL A   1      43.959  30.140  28.512  1.00  0.00    -0.248 NA
ATOM     59  C   UNL A   1      42.299  31.390  29.573  1.00  0.00     0.031 C 
ATOM     60  C   UNL A   1      48.138  31.521  27.917  1.00  0.00     0.029 A 
ATOM     61  C   UNL A   1      46.830  31.105  28.115  1.00  0.00     0.049 A 
ATOM     62  H   UNL A   1      45.956  29.233  27.688  1.00  0.00     0.167 HD
ATOM     63  C   UNL A   1      44.482  31.380  28.870  1.00  0.00     0.074 A 
ATOM     64  C   UNL A   1      43.404  32.120  29.491  1.00  0.00     0.031 C 
ATOM     65  C   UNL A   1      45.741  31.853  28.698  1.00  0.00     0.034 A 
BRANCH  52  66
ATOM     66  C   UNL A   1      49.720  27.862  26.170  1.00  0.00     0.023 A 
ATOM     67  C   UNL A   1      50.101  28.240  24.866  1.00  0.00     0.031 A 
ATOM     68  C   UNL A   1      50.637  27.126  26.940  1.00  0.00     0.131 A 
ATOM     69  C   UNL A   1      51.341  27.839  24.357  1.00  0.00     0.055 A 
ATOM     70  C   UNL A   1      51.894  26.772  26.445  1.00  0.00     0.041 A 
ATOM     71  F   UNL A   1      50.325  26.739  28.187  1.00  0.00    -0.206 F 
ATOM     72  C   UNL A   1      52.244  27.114  25.142  1.00  0.00     0.022 A 
BRANCH  69  73
ATOM     73  S   UNL A   1      51.799  28.168  22.632  1.00  0.00     0.124 S 
ATOM     74  O   UNL A   1      53.212  27.795  22.622  1.00  0.00    -0.237 OA
ATOM     75  O   UNL A   1      50.911  27.265  21.905  1.00  0.00    -0.237 OA
ATOM     76  O   UNL A   1      51.532  29.592  22.463  1.00  0.00    -0.744 OA
ENDBRANCH  69  73
ENDBRANCH  52  66
BRANCH  53  77
ATOM     77  C   UNL A   1      40.247  29.264  29.181  1.00  0.00     0.023 A 
ATOM     78  C   UNL A   1      39.899  29.159  30.541  1.00  0.00     0.031 A 
ATOM     79  C   UNL A   1      39.213  29.426  28.246  1.00  0.00     0.131 A 
ATOM     80  C   UNL A   1      38.550  29.127  30.916  1.00  0.00     0.055 A 
ATOM     81  C   UNL A   1      37.873  29.476  28.634  1.00  0.00     0.041 A 
ATOM     82  F   UNL A   1      39.492  29.519  26.936  1.00  0.00    -0.206 F 
ATOM     83  C   UNL A   1      37.534  29.305  29.972  1.00  0.00     0.022 A 
BRANCH  80  84
ATOM     84  S   UNL A   1      38.067  28.703  32.614  1.00  0.00     0.124 S 
ATOM     85  O   UNL A   1      39.048  29.441  33.402  1.00  0.00    -0.237 OA
ATOM     86  O   UNL A   1      36.699  29.212  32.668  1.00  0.00    -0.237 OA
ATOM     87  O   UNL A   1      38.190  27.250  32.653  1.00  0.00    -0.744 OA
ENDBRANCH  80  84
ENDBRANCH  53  77
BRANCH  65  88
ATOM     88  C   UNL A   1      46.070  33.255  29.152  1.00  0.00     0.023 A 
ATOM     89  C   UNL A   1      46.088  34.300  28.208  1.00  0.00     0.031 A 
ATOM     90  C   UNL A   1      46.579  33.508  30.436  1.00  0.00     0.131 A 
ATOM     91  C   UNL A   1      46.683  35.524  28.534  1.00  0.00     0.055 A 
ATOM     92  C   UNL A   1      47.117  34.750  30.775  1.00  0.00     0.041 A 
ATOM     93  F   UNL A   1      46.592  32.541  31.367  1.00  0.00    -0.206 F 
ATOM     94  C   UNL A   1      47.192  35.758  29.816  1.00  0.00     0.022 A 
BRANCH  91  95
ATOM     95  S   UNL A   1      46.930  36.807  27.275  1.00  0.00     0.124 S 
ATOM     96  O   UNL A   1      48.387  36.884  27.201  1.00  0.00    -0.237 OA
ATOM     97  O   UNL A   1      46.276  36.221  26.109  1.00  0.00    -0.237 OA
ATOM     98  O   UNL A   1      46.276  37.984  27.839  1.00  0.00    -0.744 OA
ENDBRANCH  91  95
ENDBRANCH  65  88
ENDBRANCH  39  40
ENDBRANCH  31  34
ENDBRANCH  29  30
ENDBRANCH  28  29
ENDBRANCH  27  28
ENDBRANCH   1  27
TORSDOF 21
ENDMDL
MODEL 3
REMARK VINA RESULT:     -10.6      1.763      2.322
REMARK SMILES CC(C)[C@H](NC(=O)CCC1=c2ccccc2=NC1)C(=O)NCCCCCCNC(=O)c1ccc(-c2c3nc(c(-c4cc(S(=O)(=O)[O-])ccc4F)c4ccc([nH]4)c(-c4cc(S(=O)(=O)[O-])ccc4F)c4nc(c(-c5cc(S(=O)(=O)[O-])ccc5F)c5ccc2[nH]5)C=C4)C=C3)cc1
REMARK SMILES IDX 24 1 23 2 22 3 21 4 19 5 20 6 4 8 2 9 1 10 3 11 5 12 6 13
REMARK SMILES IDX 7 15 8 16 9 17 10 18 11 19 18 20 12 21 16 22 17 23 13 24
REMARK SMILES IDX 15 25 14 26 25 27 26 28 27 29 28 30 29 31 30 33 31 34 32 35
REMARK SMILES IDX 93 36 33 37 92 38 34 39 35 40 36 41 86 42 37 43 91 44 85 45
REMARK SMILES IDX 87 46 38 47 90 48 84 49 83 50 39 52 71 53 51 54 70 55 52 56
REMARK SMILES IDX 55 57 69 58 88 59 53 60 54 61 68 63 89 64 56 65 40 66 41 67
REMARK SMILES IDX 49 68 42 69 48 70 50 71 47 72 43 73 44 74 45 75 46 76 72 77
REMARK SMILES IDX 73 78 81 79 74 80 80 81 82 82 79 83 75 84 76 85 77 86 78 87
REMARK SMILES IDX 57 88 58 89 66 90 59 91 65 92 67 93 64 94 60 95 61 96 62 97
REMARK SMILES IDX 63 98
REMARK H PARENT 21 7 5 14 28 32 87 51 55 62
REMARK Flexibility Score: inf
ROOT
ATOM      1  C   UNL A   1      40.001  22.464  26.558  1.00  0.00     0.002 C 
ENDROOT
BRANCH   1   2
ATOM      2  C   UNL A   1      38.665  22.313  25.828  1.00  0.00     0.021 C 
BRANCH   2   3
ATOM      3  C   UNL A   1      37.721  23.528  25.926  1.00  0.00     0.116 C 
BRANCH   3   4
ATOM      4  N   UNL A   1      36.134  23.160  26.375  1.00  0.00    -0.354 N 
ATOM      5  C   UNL A   1      34.302  23.234  25.738  1.00  0.00     0.242 C 
ATOM      6  O   UNL A   1      33.263  23.803  26.209  1.00  0.00    -0.273 OA
ATOM      7  H   UNL A   1      36.143  22.769  27.278  1.00  0.00     0.163 HD
BRANCH   5   8
ATOM      8  C   UNL A   1      33.766  22.471  24.425  1.00  0.00     0.173 C 
BRANCH   8   9
ATOM      9  C   UNL A   1      34.078  20.903  24.568  1.00  0.00     0.015 C 
ATOM     10  C   UNL A   1      36.115  20.087  24.963  1.00  0.00     0.010 C 
ATOM     11  C   UNL A   1      32.581  20.419  25.352  1.00  0.00     0.010 C 
ENDBRANCH   8   9
BRANCH   8  12
ATOM     12  N   UNL A   1      33.985  23.227  23.156  1.00  0.00    -0.344 N 
ATOM     13  C   UNL A   1      33.198  23.982  22.342  1.00  0.00     0.220 C 
ATOM     14  H   UNL A   1      34.913  23.165  22.834  1.00  0.00     0.164 HD
ATOM     15  O   UNL A   1      33.458  23.982  21.136  1.00  0.00    -0.275 OA
BRANCH  13  16
ATOM     16  C   UNL A   1      32.092  24.870  22.883  1.00  0.00     0.104 C 
BRANCH  16  17
ATOM     17  C   UNL A   1      31.895  26.191  22.152  1.00  0.00     0.043 C 
BRANCH  17  18
ATOM     18  C   UNL A   1      31.361  27.220  23.076  1.00  0.00    -0.039 C 
ATOM     19  C   UNL A   1      32.066  27.773  24.377  1.00  0.00     0.001 A 
ATOM     20  C   UNL A   1      29.883  28.485  22.460  1.00  0.00     0.174 C 
ATOM     21  C   UNL A   1      33.674  27.448  25.342  1.00  0.00     0.010 A 
ATOM     22  C   UNL A   1      31.161  29.601  24.868  1.00  0.00     0.065 A 
ATOM     23  N   UNL A   1      30.001  29.986  23.833  1.00  0.00    -0.280 NA
ATOM     24  C   UNL A   1      34.164  28.397  26.568  1.00  0.00     0.001 A 
ATOM     25  C   UNL A   1      31.988  30.587  26.329  1.00  0.00     0.028 A 
ATOM     26  C   UNL A   1      33.277  29.997  27.106  1.00  0.00     0.002 A 
ENDBRANCH  17  18
ENDBRANCH  16  17
ENDBRANCH  13  16
ENDBRANCH   8  12
ENDBRANCH   5   8
ENDBRANCH   3   4
ENDBRANCH   2   3
ENDBRANCH   1   2
BRANCH   1  27
ATOM     27  C   UNL A   1      40.557  21.191  27.207  1.00  0.00     0.002 C 
BRANCH  27  28
ATOM     28  C   UNL A   1      40.879  20.043  26.250  1.00  0.00     0.021 C 
BRANCH  28  29
ATOM     29  C   UNL A   1      42.119  19.234  26.602  1.00  0.00     0.116 C 
BRANCH  29  30
ATOM     30  N   UNL A   1      43.044  19.105  25.490  1.00  0.00    -0.352 N 
ATOM     31  C   UNL A   1      43.800  20.091  24.899  1.00  0.00     0.251 C 
ATOM     32  H   UNL A   1      43.143  18.201  25.114  1.00  0.00     0.163 HD
ATOM     33  O   UNL A   1      44.448  19.858  23.885  1.00  0.00    -0.269 OA
BRANCH  31  34
ATOM     34  C   UNL A   1      43.767  21.446  25.486  1.00  0.00     0.039 A 
ATOM     35  C   UNL A   1      43.396  22.542  24.700  1.00  0.00     0.014 A 
ATOM     36  C   UNL A   1      44.235  21.628  26.788  1.00  0.00     0.014 A 
ATOM     37  C   UNL A   1      43.667  23.829  25.153  1.00  0.00     0.010 A 
ATOM     38  C   UNL A   1      44.422  22.924  27.270  1.00  0.00     0.010 A 
ATOM     39  C   UNL A   1      44.200  24.033  26.436  1.00  0.00    -0.014 A 
BRANCH  39  40
ATOM     40  C   UNL A   1      44.564  25.400  26.893  1.00  0.00     0.031 A 
ATOM     41  C   UNL A   1      43.510  26.314  27.459  1.00  0.00     0.074 A 
ATOM     42  C   UNL A   1      45.843  25.814  26.804  1.00  0.00     0.049 A 
ATOM     43  N   UNL A   1      43.608  27.570  27.807  1.00  0.00    -0.248 NA
ATOM     44  C   UNL A   1      42.165  25.744  27.657  1.00  0.00     0.031 C 
ATOM     45  C   UNL A   1      46.953  24.999  26.314  1.00  0.00     0.029 A 
ATOM     46  N   UNL A   1      46.426  27.017  27.117  1.00  0.00    -0.354 N 
ATOM     47  C   UNL A   1      42.339  27.950  28.232  1.00  0.00     0.074 A 
ATOM     48  C   UNL A   1      41.479  26.799  28.075  1.00  0.00     0.031 C 
ATOM     49  C   UNL A   1      48.084  25.713  26.380  1.00  0.00     0.029 A 
ATOM     50  C   UNL A   1      47.770  27.066  26.831  1.00  0.00     0.049 A 
ATOM     51  H   UNL A   1      45.929  27.772  27.509  1.00  0.00     0.167 HD
ATOM     52  C   UNL A   1      41.937  29.148  28.720  1.00  0.00     0.034 A 
ATOM     53  C   UNL A   1      48.646  28.091  26.884  1.00  0.00     0.034 A 
ATOM     54  C   UNL A   1      42.823  30.271  28.897  1.00  0.00     0.049 A 
ATOM     55  C   UNL A   1      48.163  29.434  27.366  1.00  0.00     0.074 A 
ATOM     56  C   UNL A   1      42.522  31.517  29.414  1.00  0.00     0.029 A 
ATOM     57  N   UNL A   1      44.172  30.287  28.571  1.00  0.00    -0.354 N 
ATOM     58  N   UNL A   1      46.968  29.771  27.791  1.00  0.00    -0.248 NA
ATOM     59  C   UNL A   1      49.133  30.538  27.378  1.00  0.00     0.031 C 
ATOM     60  C   UNL A   1      43.664  32.311  29.327  1.00  0.00     0.029 A 
ATOM     61  C   UNL A   1      44.706  31.535  28.845  1.00  0.00     0.049 A 
ATOM     62  H   UNL A   1      44.674  29.526  28.200  1.00  0.00     0.167 HD
ATOM     63  C   UNL A   1      47.051  31.114  28.149  1.00  0.00     0.074 A 
ATOM     64  C   UNL A   1      48.418  31.524  27.903  1.00  0.00     0.031 C 
ATOM     65  C   UNL A   1      46.081  31.927  28.634  1.00  0.00     0.034 A 
BRANCH  52  66
ATOM     66  C   UNL A   1      40.492  29.339  29.111  1.00  0.00     0.023 A 
ATOM     67  C   UNL A   1      40.117  29.250  30.467  1.00  0.00     0.031 A 
ATOM     68  C   UNL A   1      39.474  29.447  28.148  1.00  0.00     0.131 A 
ATOM     69  C   UNL A   1      38.762  29.221  30.816  1.00  0.00     0.055 A 
ATOM     70  C   UNL A   1      38.124  29.469  28.506  1.00  0.00     0.041 A 
ATOM     71  F   UNL A   1      39.775  29.533  26.843  1.00  0.00    -0.206 F 
ATOM     72  C   UNL A   1      37.763  29.338  29.844  1.00  0.00     0.022 A 
BRANCH  69  73
ATOM     73  S   UNL A   1      38.240  28.945  32.532  1.00  0.00     0.124 S 
ATOM     74  O   UNL A   1      36.786  29.042  32.421  1.00  0.00    -0.237 OA
ATOM     75  O   UNL A   1      38.756  27.605  32.795  1.00  0.00    -0.237 OA
ATOM     76  O   UNL A   1      38.879  30.027  33.272  1.00  0.00    -0.744 OA
ENDBRANCH  69  73
ENDBRANCH  52  66
BRANCH  53  77
ATOM     77  C   UNL A   1      50.065  27.852  26.483  1.00  0.00     0.023 A 
ATOM     78  C   UNL A   1      51.070  27.670  27.452  1.00  0.00     0.031 A 
ATOM     79  C   UNL A   1      50.455  27.927  25.136  1.00  0.00     0.131 A 
ATOM     80  C   UNL A   1      52.417  27.658  27.069  1.00  0.00     0.055 A 
ATOM     81  C   UNL A   1      51.793  27.832  24.752  1.00  0.00     0.041 A 
ATOM     82  F   UNL A   1      49.537  28.112  24.175  1.00  0.00    -0.206 F 
ATOM     83  C   UNL A   1      52.784  27.719  25.722  1.00  0.00     0.022 A 
BRANCH  80  84
ATOM     84  S   UNL A   1      53.737  27.718  28.313  1.00  0.00     0.124 S 
ATOM     85  O   UNL A   1      54.319  26.384  28.203  1.00  0.00    -0.237 OA
ATOM     86  O   UNL A   1      54.566  28.812  27.813  1.00  0.00    -0.237 OA
ATOM     87  O   UNL A   1      53.027  27.997  29.556  1.00  0.00    -0.744 OA
ENDBRANCH  80  84
ENDBRANCH  53  77
BRANCH  65  88
ATOM     88  C   UNL A   1      46.419  33.358  28.975  1.00  0.00     0.023 A 
ATOM     89  C   UNL A   1      46.413  34.331  27.956  1.00  0.00     0.031 A 
ATOM     90  C   UNL A   1      46.958  33.705  30.224  1.00  0.00     0.131 A 
ATOM     91  C   UNL A   1      47.014  35.575  28.177  1.00  0.00     0.055 A 
ATOM     92  C   UNL A   1      47.502  34.969  30.459  1.00  0.00     0.041 A 
ATOM     93  F   UNL A   1      46.994  32.809  31.223  1.00  0.00    -0.206 F 
ATOM     94  C   UNL A   1      47.553  35.903  29.426  1.00  0.00     0.022 A 
BRANCH  91  95
ATOM     95  S   UNL A   1      47.229  36.762  26.822  1.00  0.00     0.124 S 
ATOM     96  O   UNL A   1      46.457  36.141  25.748  1.00  0.00    -0.237 OA
ATOM     97  O   UNL A   1      46.650  37.978  27.385  1.00  0.00    -0.237 OA
ATOM     98  O   UNL A   1      48.673  36.794  26.607  1.00  0.00    -0.744 OA
ENDBRANCH  91  95
ENDBRANCH  65  88
ENDBRANCH  39  40
ENDBRANCH  31  34
ENDBRANCH  29  30
ENDBRANCH  28  29
ENDBRANCH  27  28
ENDBRANCH   1  27
TORSDOF 21
ENDMDL
