MODEL 1
REMARK VINA RESULT:     -13.6      0.000      0.000
REMARK SMILES Cc1ccccc1-c1c(Cl)ccc2c1C=C(C(=O)NCCCCCCNC(=O)c1ccc(-c3c4nc(c(-c5cc(S(=O)(=O)[O-])ccc5F)c5ccc([nH]5)c(-c5cc(S(=O)(=O)[O-])ccc5F)c5nc(c(-c6cc(S(=O)(=O)[O-])ccc6F)c6ccc3[nH]6)C=C5)C=C4)cc1)[C@@H](C(F)(F)F)O2
REMARK SMILES IDX 23 1 22 2 21 3 20 4 19 5 17 6 18 7 16 9 8 10 9 11 14 12
REMARK SMILES IDX 10 13 11 14 13 15 15 16 12 17 97 18 92 19 7 20 1 21 2 22
REMARK SMILES IDX 3 23 4 24 6 25 5 26 93 27 94 28 95 29 96 30 24 31 25 32
REMARK SMILES IDX 26 33 27 34 28 36 29 37 30 38 91 39 31 40 90 41 32 42 33 43
REMARK SMILES IDX 34 44 84 45 35 46 89 47 83 48 85 49 36 50 88 51 82 52 81 53
REMARK SMILES IDX 37 55 69 56 49 57 68 58 50 59 53 60 67 61 86 62 51 63 52 64
REMARK SMILES IDX 66 66 87 67 54 68 38 69 39 70 47 71 40 72 46 73 48 74 45 75
REMARK SMILES IDX 41 76 42 77 43 78 44 79 70 80 71 81 79 82 72 83 78 84 80 85
REMARK SMILES IDX 77 86 73 87 74 88 75 89 76 90 55 91 56 92 64 93 57 94 63 95
REMARK SMILES IDX 65 96 62 97 58 98 59 99 60 100 61 101
REMARK H PARENT 19 8 26 35 85 54 53 65
REMARK Flexibility Score: inf
ROOT
ATOM      1  C   UNL A   1      34.627  32.125  28.554  1.00  0.00     0.002 C 
ENDROOT
BRANCH   1   2
ATOM      2  C   UNL A   1      35.421  30.996  27.877  1.00  0.00     0.002 C 
BRANCH   2   3
ATOM      3  C   UNL A   1      34.629  29.791  27.344  1.00  0.00     0.021 C 
BRANCH   3   4
ATOM      4  C   UNL A   1      33.123  29.986  27.182  1.00  0.00     0.116 C 
BRANCH   4   5
ATOM      5  N   UNL A   1      32.376  28.780  27.432  1.00  0.00    -0.352 N 
ATOM      6  C   UNL A   1      32.202  27.657  26.707  1.00  0.00     0.251 C 
ATOM      7  O   UNL A   1      31.494  26.774  27.198  1.00  0.00    -0.270 OA
ATOM      8  H   UNL A   1      31.905  28.774  28.297  1.00  0.00     0.163 HD
BRANCH   6   9
ATOM      9  C   UNL A   1      32.833  27.403  25.369  1.00  0.00     0.067 C 
ATOM     10  C   UNL A   1      33.100  23.866  24.304  1.00  0.00     0.012 A 
ATOM     11  C   UNL A   1      32.124  22.938  23.847  1.00  0.00     0.049 A 
ATOM     12  C   UNL A   1      32.721  25.233  24.390  1.00  0.00     0.027 A 
ATOM     13  Cl  UNL A   1      32.434  21.229  23.777  1.00  0.00    -0.084 Cl
ATOM     14  C   UNL A   1      30.856  23.347  23.421  1.00  0.00     0.025 A 
ATOM     15  C   UNL A   1      31.459  25.625  23.880  1.00  0.00     0.128 A 
ATOM     16  C   UNL A   1      33.497  26.249  25.163  1.00  0.00     0.026 C 
ATOM     17  C   UNL A   1      30.537  24.696  23.410  1.00  0.00     0.049 A 
ATOM     18  O   UNL A   1      31.017  26.926  23.827  1.00  0.00    -0.475 OA
ATOM     19  C   UNL A   1      31.979  27.919  24.235  1.00  0.00     0.314 C 
BRANCH  10  20
ATOM     20  C   UNL A   1      34.501  23.418  24.508  1.00  0.00    -0.013 A 
ATOM     21  C   UNL A   1      34.326  23.003  27.044  1.00  0.00     0.045 C 
ATOM     22  C   UNL A   1      35.069  23.022  25.737  1.00  0.00    -0.043 A 
ATOM     23  C   UNL A   1      36.426  22.638  25.781  1.00  0.00     0.004 A 
ATOM     24  C   UNL A   1      37.207  22.598  24.628  1.00  0.00     0.000 A 
ATOM     25  C   UNL A   1      35.321  23.368  23.356  1.00  0.00     0.009 A 
ATOM     26  C   UNL A   1      36.650  22.952  23.409  1.00  0.00     0.001 A 
ENDBRANCH  10  20
BRANCH  19  27
ATOM     27  C   UNL A   1      32.813  28.425  23.048  1.00  0.00     0.429 C 
ATOM     28  F   UNL A   1      32.124  29.339  22.320  1.00  0.00    -0.167 F 
ATOM     29  F   UNL A   1      33.950  29.036  23.464  1.00  0.00    -0.167 F 
ATOM     30  F   UNL A   1      33.181  27.441  22.192  1.00  0.00    -0.167 F 
ENDBRANCH  19  27
ENDBRANCH   6   9
ENDBRANCH   4   5
ENDBRANCH   3   4
ENDBRANCH   2   3
ENDBRANCH   1   2
BRANCH   1  31
ATOM     31  C   UNL A   1      34.829  33.536  28.003  1.00  0.00     0.021 C 
BRANCH  31  32
ATOM     32  C   UNL A   1      35.190  34.583  29.056  1.00  0.00     0.116 C 
BRANCH  32  33
ATOM     33  N   UNL A   1      34.092  34.935  29.953  1.00  0.00    -0.352 N 
ATOM     34  C   UNL A   1      33.960  34.658  31.309  1.00  0.00     0.251 C 
ATOM     35  H   UNL A   1      33.347  35.432  29.544  1.00  0.00     0.163 HD
ATOM     36  O   UNL A   1      32.997  35.018  31.953  1.00  0.00    -0.269 OA
BRANCH  34  37
ATOM     37  C   UNL A   1      35.109  34.011  31.995  1.00  0.00     0.039 A 
ATOM     38  C   UNL A   1      36.241  34.799  32.228  1.00  0.00     0.014 A 
ATOM     39  C   UNL A   1      35.162  32.630  32.141  1.00  0.00     0.014 A 
ATOM     40  C   UNL A   1      37.482  34.180  32.356  1.00  0.00     0.010 A 
ATOM     41  C   UNL A   1      36.403  32.017  32.172  1.00  0.00     0.010 A 
ATOM     42  C   UNL A   1      37.567  32.794  32.206  1.00  0.00    -0.014 A 
BRANCH  42  43
ATOM     43  C   UNL A   1      38.822  32.113  31.901  1.00  0.00     0.031 A 
ATOM     44  C   UNL A   1      38.850  30.814  31.204  1.00  0.00     0.074 A 
ATOM     45  C   UNL A   1      40.004  32.661  32.263  1.00  0.00     0.049 A 
ATOM     46  N   UNL A   1      39.766  29.923  31.394  1.00  0.00    -0.248 NA
ATOM     47  C   UNL A   1      37.826  30.402  30.250  1.00  0.00     0.031 C 
ATOM     48  C   UNL A   1      41.339  32.228  31.858  1.00  0.00     0.029 A 
ATOM     49  N   UNL A   1      40.234  33.571  33.289  1.00  0.00    -0.354 N 
ATOM     50  C   UNL A   1      39.629  28.980  30.411  1.00  0.00     0.074 A 
ATOM     51  C   UNL A   1      38.365  29.277  29.770  1.00  0.00     0.031 C 
ATOM     52  C   UNL A   1      42.225  32.642  32.775  1.00  0.00     0.029 A 
ATOM     53  C   UNL A   1      41.483  33.254  33.859  1.00  0.00     0.049 A 
ATOM     54  H   UNL A   1      39.635  34.301  33.566  1.00  0.00     0.167 HD
ATOM     55  C   UNL A   1      40.646  28.123  30.125  1.00  0.00     0.034 A 
ATOM     56  C   UNL A   1      41.596  32.954  35.186  1.00  0.00     0.034 A 
ATOM     57  C   UNL A   1      41.831  28.339  30.949  1.00  0.00     0.049 A 
ATOM     58  C   UNL A   1      42.132  31.565  35.467  1.00  0.00     0.074 A 
ATOM     59  C   UNL A   1      43.063  28.936  30.734  1.00  0.00     0.029 A 
ATOM     60  N   UNL A   1      41.754  28.114  32.311  1.00  0.00    -0.354 N 
ATOM     61  N   UNL A   1      42.486  30.705  34.549  1.00  0.00    -0.248 NA
ATOM     62  C   UNL A   1      42.209  30.995  36.812  1.00  0.00     0.031 C 
ATOM     63  C   UNL A   1      43.728  29.053  31.989  1.00  0.00     0.029 A 
ATOM     64  C   UNL A   1      42.906  28.515  32.960  1.00  0.00     0.049 A 
ATOM     65  H   UNL A   1      40.973  27.719  32.763  1.00  0.00     0.167 HD
ATOM     66  C   UNL A   1      42.725  29.486  35.134  1.00  0.00     0.074 A 
ATOM     67  C   UNL A   1      42.552  29.723  36.555  1.00  0.00     0.031 C 
ATOM     68  C   UNL A   1      42.983  28.359  34.404  1.00  0.00     0.034 A 
BRANCH  55  69
ATOM     69  C   UNL A   1      40.625  27.258  28.897  1.00  0.00     0.023 A 
ATOM     70  C   UNL A   1      41.582  27.454  27.885  1.00  0.00     0.031 A 
ATOM     71  C   UNL A   1      39.670  26.252  28.663  1.00  0.00     0.131 A 
ATOM     72  C   UNL A   1      41.510  26.748  26.674  1.00  0.00     0.055 A 
ATOM     73  C   UNL A   1      39.562  25.588  27.435  1.00  0.00     0.041 A 
ATOM     74  F   UNL A   1      38.811  25.873  29.623  1.00  0.00    -0.206 F 
ATOM     75  C   UNL A   1      40.479  25.846  26.425  1.00  0.00     0.022 A 
BRANCH  72  76
ATOM     76  S   UNL A   1      42.792  27.031  25.424  1.00  0.00     0.124 S 
ATOM     77  O   UNL A   1      43.966  27.322  26.241  1.00  0.00    -0.237 OA
ATOM     78  O   UNL A   1      42.806  25.762  24.705  1.00  0.00    -0.237 OA
ATOM     79  O   UNL A   1      42.276  28.168  24.662  1.00  0.00    -0.744 OA
ENDBRANCH  72  76
ENDBRANCH  55  69
BRANCH  56  80
ATOM     80  C   UNL A   1      40.608  33.698  36.022  1.00  0.00     0.023 A 
ATOM     81  C   UNL A   1      39.418  33.015  36.353  1.00  0.00     0.031 A 
ATOM     82  C   UNL A   1      40.970  34.803  36.804  1.00  0.00     0.131 A 
ATOM     83  C   UNL A   1      38.749  33.307  37.549  1.00  0.00     0.055 A 
ATOM     84  C   UNL A   1      40.238  35.155  37.944  1.00  0.00     0.041 A 
ATOM     85  F   UNL A   1      42.106  35.472  36.563  1.00  0.00    -0.206 F 
ATOM     86  C   UNL A   1      39.154  34.374  38.351  1.00  0.00     0.022 A 
BRANCH  83  87
ATOM     87  S   UNL A   1      37.571  32.081  38.197  1.00  0.00     0.124 S 
ATOM     88  O   UNL A   1      36.308  32.806  38.134  1.00  0.00    -0.237 OA
ATOM     89  O   UNL A   1      37.717  30.971  37.257  1.00  0.00    -0.237 OA
ATOM     90  O   UNL A   1      38.072  31.797  39.539  1.00  0.00    -0.744 OA
ENDBRANCH  83  87
ENDBRANCH  56  80
BRANCH  68  91
ATOM     91  C   UNL A   1      43.274  27.003  35.005  1.00  0.00     0.023 A 
ATOM     92  C   UNL A   1      44.568  26.612  35.387  1.00  0.00     0.031 A 
ATOM     93  C   UNL A   1      42.266  26.019  35.153  1.00  0.00     0.131 A 
ATOM     94  C   UNL A   1      44.802  25.355  35.976  1.00  0.00     0.055 A 
ATOM     95  C   UNL A   1      42.516  24.744  35.667  1.00  0.00     0.041 A 
ATOM     96  F   UNL A   1      40.988  26.260  34.830  1.00  0.00    -0.206 F 
ATOM     97  C   UNL A   1      43.786  24.410  36.102  1.00  0.00     0.022 A 
BRANCH  94  98
ATOM     98  S   UNL A   1      46.449  25.007  36.643  1.00  0.00     0.124 S 
ATOM     99  O   UNL A   1      47.147  26.272  36.439  1.00  0.00    -0.237 OA
ATOM    100  O   UNL A   1      46.142  24.669  38.030  1.00  0.00    -0.237 OA
ATOM    101  O   UNL A   1      46.925  23.894  35.824  1.00  0.00    -0.744 OA
ENDBRANCH  94  98
ENDBRANCH  68  91
ENDBRANCH  42  43
ENDBRANCH  34  37
ENDBRANCH  32  33
ENDBRANCH  31  32
ENDBRANCH   1  31
TORSDOF 18
ENDMDL
MODEL 2
REMARK VINA RESULT:     -13.5      4.496      9.746
REMARK SMILES Cc1ccccc1-c1c(Cl)ccc2c1C=C(C(=O)NCCCCCCNC(=O)c1ccc(-c3c4nc(c(-c5cc(S(=O)(=O)[O-])ccc5F)c5ccc([nH]5)c(-c5cc(S(=O)(=O)[O-])ccc5F)c5nc(c(-c6cc(S(=O)(=O)[O-])ccc6F)c6ccc3[nH]6)C=C5)C=C4)cc1)[C@@H](C(F)(F)F)O2
REMARK SMILES IDX 23 1 22 2 21 3 20 4 19 5 17 6 18 7 16 9 8 10 9 11 14 12
REMARK SMILES IDX 10 13 11 14 13 15 15 16 12 17 97 18 92 19 7 20 1 21 2 22
REMARK SMILES IDX 3 23 4 24 6 25 5 26 93 27 94 28 95 29 96 30 24 31 25 32
REMARK SMILES IDX 26 33 27 34 28 36 29 37 30 38 91 39 31 40 90 41 32 42 33 43
REMARK SMILES IDX 34 44 84 45 35 46 89 47 83 48 85 49 36 50 88 51 82 52 81 53
REMARK SMILES IDX 37 55 69 56 49 57 68 58 50 59 53 60 67 61 86 62 51 63 52 64
REMARK SMILES IDX 66 66 87 67 54 68 38 69 39 70 47 71 40 72 46 73 48 74 45 75
REMARK SMILES IDX 41 76 42 77 43 78 44 79 70 80 71 81 79 82 72 83 78 84 80 85
REMARK SMILES IDX 77 86 73 87 74 88 75 89 76 90 55 91 56 92 64 93 57 94 63 95
REMARK SMILES IDX 65 96 62 97 58 98 59 99 60 100 61 101
REMARK H PARENT 19 8 26 35 85 54 53 65
REMARK Flexibility Score: inf
ROOT
ATOM      1  C   UNL A   1      37.128  21.683  24.706  1.00  0.00     0.002 C 
ENDROOT
BRANCH   1   2
ATOM      2  C   UNL A   1      36.037  20.641  25.000  1.00  0.00     0.002 C 
BRANCH   2   3
ATOM      3  C   UNL A   1      34.643  21.161  25.385  1.00  0.00     0.021 C 
BRANCH   3   4
ATOM      4  C   UNL A   1      33.572  21.104  24.296  1.00  0.00     0.116 C 
BRANCH   4   5
ATOM      5  N   UNL A   1      33.614  22.243  23.416  1.00  0.00    -0.352 N 
ATOM      6  C   UNL A   1      33.125  23.494  23.531  1.00  0.00     0.251 C 
ATOM      7  O   UNL A   1      33.328  24.266  22.591  1.00  0.00    -0.270 OA
ATOM      8  H   UNL A   1      34.089  22.077  22.569  1.00  0.00     0.163 HD
BRANCH   6   9
ATOM      9  C   UNL A   1      32.388  24.011  24.732  1.00  0.00     0.067 C 
ATOM     10  C   UNL A   1      31.326  27.557  24.630  1.00  0.00     0.012 A 
ATOM     11  C   UNL A   1      30.295  28.217  23.905  1.00  0.00     0.049 A 
ATOM     12  C   UNL A   1      31.313  26.136  24.649  1.00  0.00     0.027 A 
ATOM     13  Cl  UNL A   1      30.246  29.946  23.734  1.00  0.00    -0.084 Cl
ATOM     14  C   UNL A   1      29.255  27.512  23.290  1.00  0.00     0.025 A 
ATOM     15  C   UNL A   1      30.206  25.455  24.083  1.00  0.00     0.128 A 
ATOM     16  C   UNL A   1      32.491  25.314  25.058  1.00  0.00     0.026 C 
ATOM     17  C   UNL A   1      29.197  26.133  23.407  1.00  0.00     0.049 A 
ATOM     18  O   UNL A   1      30.038  24.092  24.117  1.00  0.00    -0.475 OA
ATOM     19  C   UNL A   1      31.028  23.369  24.877  1.00  0.00     0.314 C 
BRANCH  10  20
ATOM     20  C   UNL A   1      32.261  28.352  25.467  1.00  0.00    -0.013 A 
ATOM     21  C   UNL A   1      34.190  28.454  23.763  1.00  0.00     0.045 C 
ATOM     22  C   UNL A   1      33.554  28.768  25.089  1.00  0.00    -0.043 A 
ATOM     23  C   UNL A   1      34.338  29.504  26.002  1.00  0.00     0.004 A 
ATOM     24  C   UNL A   1      33.846  29.870  27.253  1.00  0.00     0.000 A 
ATOM     25  C   UNL A   1      31.790  28.738  26.744  1.00  0.00     0.009 A 
ATOM     26  C   UNL A   1      32.563  29.496  27.621  1.00  0.00     0.001 A 
ENDBRANCH  10  20
BRANCH  19  27
ATOM     27  C   UNL A   1      30.606  23.200  26.345  1.00  0.00     0.429 C 
ATOM     28  F   UNL A   1      29.919  22.044  26.527  1.00  0.00    -0.167 F 
ATOM     29  F   UNL A   1      31.682  23.146  27.168  1.00  0.00    -0.167 F 
ATOM     30  F   UNL A   1      29.811  24.201  26.794  1.00  0.00    -0.167 F 
ENDBRANCH  19  27
ENDBRANCH   6   9
ENDBRANCH   4   5
ENDBRANCH   3   4
ENDBRANCH   2   3
ENDBRANCH   1   2
BRANCH   1  31
ATOM     31  C   UNL A   1      38.457  21.518  25.443  1.00  0.00     0.021 C 
BRANCH  31  32
ATOM     32  C   UNL A   1      38.910  22.754  26.218  1.00  0.00     0.116 C 
BRANCH  32  33
ATOM     33  N   UNL A   1      40.359  22.913  26.300  1.00  0.00    -0.352 N 
ATOM     34  C   UNL A   1      41.089  24.063  26.579  1.00  0.00     0.251 C 
ATOM     35  H   UNL A   1      40.890  22.100  26.136  1.00  0.00     0.163 HD
ATOM     36  O   UNL A   1      42.301  24.064  26.630  1.00  0.00    -0.269 OA
BRANCH  34  37
ATOM     37  C   UNL A   1      40.332  25.288  26.946  1.00  0.00     0.039 A 
ATOM     38  C   UNL A   1      40.686  26.476  26.298  1.00  0.00     0.014 A 
ATOM     39  C   UNL A   1      39.516  25.307  28.071  1.00  0.00     0.014 A 
ATOM     40  C   UNL A   1      40.431  27.692  26.927  1.00  0.00     0.010 A 
ATOM     41  C   UNL A   1      39.346  26.506  28.742  1.00  0.00     0.010 A 
ATOM     42  C   UNL A   1      39.868  27.689  28.205  1.00  0.00    -0.014 A 
BRANCH  42  43
ATOM     43  C   UNL A   1      39.953  28.838  29.103  1.00  0.00     0.031 A 
ATOM     44  C   UNL A   1      38.899  29.869  29.144  1.00  0.00     0.074 A 
ATOM     45  C   UNL A   1      41.018  28.990  29.923  1.00  0.00     0.049 A 
ATOM     46  N   UNL A   1      39.127  31.108  29.428  1.00  0.00    -0.248 NA
ATOM     47  C   UNL A   1      37.500  29.588  28.840  1.00  0.00     0.031 C 
ATOM     48  C   UNL A   1      41.160  29.949  31.016  1.00  0.00     0.029 A 
ATOM     49  N   UNL A   1      42.295  28.467  29.753  1.00  0.00    -0.354 N 
ATOM     50  C   UNL A   1      37.913  31.710  29.630  1.00  0.00     0.074 A 
ATOM     51  C   UNL A   1      36.929  30.749  29.179  1.00  0.00     0.031 C 
ATOM     52  C   UNL A   1      42.465  30.155  31.242  1.00  0.00     0.029 A 
ATOM     53  C   UNL A   1      43.207  29.429  30.230  1.00  0.00     0.049 A 
ATOM     54  H   UNL A   1      42.520  27.589  29.370  1.00  0.00     0.167 HD
ATOM     55  C   UNL A   1      37.829  32.899  30.287  1.00  0.00     0.034 A 
ATOM     56  C   UNL A   1      44.181  29.939  29.420  1.00  0.00     0.034 A 
ATOM     57  C   UNL A   1      39.123  33.407  30.728  1.00  0.00     0.049 A 
ATOM     58  C   UNL A   1      44.099  31.439  29.217  1.00  0.00     0.074 A 
ATOM     59  C   UNL A   1      39.780  33.455  31.948  1.00  0.00     0.029 A 
ATOM     60  N   UNL A   1      40.065  33.766  29.780  1.00  0.00    -0.354 N 
ATOM     61  N   UNL A   1      43.204  32.215  29.766  1.00  0.00    -0.248 NA
ATOM     62  C   UNL A   1      44.962  32.167  28.286  1.00  0.00     0.031 C 
ATOM     63  C   UNL A   1      41.125  33.862  31.716  1.00  0.00     0.029 A 
ATOM     64  C   UNL A   1      41.281  34.073  30.359  1.00  0.00     0.049 A 
ATOM     65  H   UNL A   1      39.889  33.797  28.811  1.00  0.00     0.167 HD
ATOM     66  C   UNL A   1      43.287  33.470  29.214  1.00  0.00     0.074 A 
ATOM     67  C   UNL A   1      44.414  33.393  28.302  1.00  0.00     0.031 C 
ATOM     68  C   UNL A   1      42.387  34.459  29.497  1.00  0.00     0.034 A 
BRANCH  55  69
ATOM     69  C   UNL A   1      36.510  33.453  30.746  1.00  0.00     0.023 A 
ATOM     70  C   UNL A   1      35.661  34.094  29.827  1.00  0.00     0.031 A 
ATOM     71  C   UNL A   1      36.058  33.399  32.078  1.00  0.00     0.131 A 
ATOM     72  C   UNL A   1      34.483  34.729  30.250  1.00  0.00     0.055 A 
ATOM     73  C   UNL A   1      34.914  34.080  32.511  1.00  0.00     0.041 A 
ATOM     74  F   UNL A   1      36.710  32.677  33.003  1.00  0.00    -0.206 F 
ATOM     75  C   UNL A   1      34.126  34.764  31.596  1.00  0.00     0.022 A 
BRANCH  72  76
ATOM     76  S   UNL A   1      33.422  35.515  29.008  1.00  0.00     0.124 S 
ATOM     77  O   UNL A   1      32.711  34.374  28.439  1.00  0.00    -0.237 OA
ATOM     78  O   UNL A   1      32.628  36.431  29.818  1.00  0.00    -0.237 OA
ATOM     79  O   UNL A   1      34.377  36.157  28.105  1.00  0.00    -0.744 OA
ENDBRANCH  72  76
ENDBRANCH  55  69
BRANCH  56  80
ATOM     80  C   UNL A   1      44.665  28.944  28.419  1.00  0.00     0.023 A 
ATOM     81  C   UNL A   1      45.511  27.922  28.902  1.00  0.00     0.031 A 
ATOM     82  C   UNL A   1      44.016  28.735  27.196  1.00  0.00     0.131 A 
ATOM     83  C   UNL A   1      45.523  26.667  28.279  1.00  0.00     0.055 A 
ATOM     84  C   UNL A   1      44.112  27.511  26.523  1.00  0.00     0.041 A 
ATOM     85  F   UNL A   1      43.171  29.652  26.701  1.00  0.00    -0.206 F 
ATOM     86  C   UNL A   1      44.824  26.452  27.091  1.00  0.00     0.022 A 
BRANCH  83  87
ATOM     87  S   UNL A   1      46.181  25.250  29.213  1.00  0.00     0.124 S 
ATOM     88  O   UNL A   1      45.939  25.653  30.593  1.00  0.00    -0.237 OA
ATOM     89  O   UNL A   1      45.369  24.139  28.721  1.00  0.00    -0.237 OA
ATOM     90  O   UNL A   1      47.583  25.190  28.807  1.00  0.00    -0.744 OA
ENDBRANCH  83  87
ENDBRANCH  56  80
BRANCH  68  91
ATOM     91  C   UNL A   1      42.453  35.859  28.930  1.00  0.00     0.023 A 
ATOM     92  C   UNL A   1      43.015  36.931  29.641  1.00  0.00     0.031 A 
ATOM     93  C   UNL A   1      41.884  36.184  27.675  1.00  0.00     0.131 A 
ATOM     94  C   UNL A   1      43.094  38.217  29.073  1.00  0.00     0.055 A 
ATOM     95  C   UNL A   1      41.894  37.478  27.146  1.00  0.00     0.041 A 
ATOM     96  F   UNL A   1      41.317  35.256  26.891  1.00  0.00    -0.206 F 
ATOM     97  C   UNL A   1      42.520  38.502  27.836  1.00  0.00     0.022 A 
BRANCH  94  98
ATOM     98  S   UNL A   1      44.027  39.495  29.953  1.00  0.00     0.124 S 
ATOM     99  O   UNL A   1      43.029  40.543  30.141  1.00  0.00    -0.237 OA
ATOM    100  O   UNL A   1      44.436  38.784  31.161  1.00  0.00    -0.237 OA
ATOM    101  O   UNL A   1      45.112  39.827  29.032  1.00  0.00    -0.744 OA
ENDBRANCH  94  98
ENDBRANCH  68  91
ENDBRANCH  42  43
ENDBRANCH  34  37
ENDBRANCH  32  33
ENDBRANCH  31  32
ENDBRANCH   1  31
TORSDOF 18
ENDMDL
MODEL 3
REMARK VINA RESULT:     -12.9      4.582      9.595
REMARK SMILES Cc1ccccc1-c1c(Cl)ccc2c1C=C(C(=O)NCCCCCCNC(=O)c1ccc(-c3c4nc(c(-c5cc(S(=O)(=O)[O-])ccc5F)c5ccc([nH]5)c(-c5cc(S(=O)(=O)[O-])ccc5F)c5nc(c(-c6cc(S(=O)(=O)[O-])ccc6F)c6ccc3[nH]6)C=C5)C=C4)cc1)[C@@H](C(F)(F)F)O2
REMARK SMILES IDX 23 1 22 2 21 3 20 4 19 5 17 6 18 7 16 9 8 10 9 11 14 12
REMARK SMILES IDX 10 13 11 14 13 15 15 16 12 17 97 18 92 19 7 20 1 21 2 22
REMARK SMILES IDX 3 23 4 24 6 25 5 26 93 27 94 28 95 29 96 30 24 31 25 32
REMARK SMILES IDX 26 33 27 34 28 36 29 37 30 38 91 39 31 40 90 41 32 42 33 43
REMARK SMILES IDX 34 44 84 45 35 46 89 47 83 48 85 49 36 50 88 51 82 52 81 53
REMARK SMILES IDX 37 55 69 56 49 57 68 58 50 59 53 60 67 61 86 62 51 63 52 64
REMARK SMILES IDX 66 66 87 67 54 68 38 69 39 70 47 71 40 72 46 73 48 74 45 75
REMARK SMILES IDX 41 76 42 77 43 78 44 79 70 80 71 81 79 82 72 83 78 84 80 85
REMARK SMILES IDX 77 86 73 87 74 88 75 89 76 90 55 91 56 92 64 93 57 94 63 95
REMARK SMILES IDX 65 96 62 97 58 98 59 99 60 100 61 101
REMARK H PARENT 19 8 26 35 85 54 53 65
REMARK Flexibility Score: inf
ROOT
ATOM      1  C   UNL A   1      37.391  21.224  24.637  1.00  0.00     0.002 C 
ENDROOT
BRANCH   1   2
ATOM      2  C   UNL A   1      36.190  20.380  25.091  1.00  0.00     0.002 C 
BRANCH   2   3
ATOM      3  C   UNL A   1      34.847  21.102  25.288  1.00  0.00     0.021 C 
BRANCH   3   4
ATOM      4  C   UNL A   1      33.862  21.035  24.123  1.00  0.00     0.116 C 
BRANCH   4   5
ATOM      5  N   UNL A   1      33.906  22.210  23.291  1.00  0.00    -0.352 N 
ATOM      6  C   UNL A   1      33.410  23.453  23.454  1.00  0.00     0.251 C 
ATOM      7  O   UNL A   1      33.617  24.264  22.549  1.00  0.00    -0.270 OA
ATOM      8  H   UNL A   1      34.389  22.081  22.442  1.00  0.00     0.163 HD
BRANCH   6   9
ATOM      9  C   UNL A   1      32.660  23.915  24.670  1.00  0.00     0.067 C 
ATOM     10  C   UNL A   1      31.430  27.408  24.633  1.00  0.00     0.012 A 
ATOM     11  C   UNL A   1      30.362  28.030  23.928  1.00  0.00     0.049 A 
ATOM     12  C   UNL A   1      31.485  25.988  24.629  1.00  0.00     0.027 A 
ATOM     13  Cl  UNL A   1      30.230  29.756  23.785  1.00  0.00    -0.084 Cl
ATOM     14  C   UNL A   1      29.351  27.285  23.311  1.00  0.00     0.025 A 
ATOM     15  C   UNL A   1      30.406  25.264  24.063  1.00  0.00     0.128 A 
ATOM     16  C   UNL A   1      32.704  25.216  25.015  1.00  0.00     0.026 C 
ATOM     17  C   UNL A   1      29.359  25.903  23.407  1.00  0.00     0.049 A 
ATOM     18  O   UNL A   1      30.304  23.894  24.077  1.00  0.00    -0.475 OA
ATOM     19  C   UNL A   1      31.334  23.207  24.817  1.00  0.00     0.314 C 
BRANCH  10  20
ATOM     20  C   UNL A   1      32.335  28.234  25.474  1.00  0.00    -0.013 A 
ATOM     21  C   UNL A   1      34.222  28.488  23.740  1.00  0.00     0.045 C 
ATOM     22  C   UNL A   1      33.595  28.732  25.085  1.00  0.00    -0.043 A 
ATOM     23  C   UNL A   1      34.353  29.489  26.002  1.00  0.00     0.004 A 
ATOM     24  C   UNL A   1      33.865  29.794  27.271  1.00  0.00     0.000 A 
ATOM     25  C   UNL A   1      31.867  28.560  26.768  1.00  0.00     0.009 A 
ATOM     26  C   UNL A   1      32.612  29.339  27.652  1.00  0.00     0.001 A 
ENDBRANCH  10  20
BRANCH  19  27
ATOM     27  C   UNL A   1      30.935  22.996  26.286  1.00  0.00     0.429 C 
ATOM     28  F   UNL A   1      31.987  22.556  27.020  1.00  0.00    -0.167 F 
ATOM     29  F   UNL A   1      30.516  24.152  26.858  1.00  0.00    -0.167 F 
ATOM     30  F   UNL A   1      29.940  22.090  26.447  1.00  0.00    -0.167 F 
ENDBRANCH  19  27
ENDBRANCH   6   9
ENDBRANCH   4   5
ENDBRANCH   3   4
ENDBRANCH   2   3
ENDBRANCH   1   2
BRANCH   1  31
ATOM     31  C   UNL A   1      38.720  20.971  25.348  1.00  0.00     0.021 C 
BRANCH  31  32
ATOM     32  C   UNL A   1      39.217  22.139  26.199  1.00  0.00     0.116 C 
BRANCH  32  33
ATOM     33  N   UNL A   1      40.651  22.395  26.086  1.00  0.00    -0.352 N 
ATOM     34  C   UNL A   1      41.329  23.600  26.234  1.00  0.00     0.251 C 
ATOM     35  H   UNL A   1      41.211  21.613  25.879  1.00  0.00     0.163 HD
ATOM     36  O   UNL A   1      42.534  23.683  26.127  1.00  0.00    -0.269 OA
BRANCH  34  37
ATOM     37  C   UNL A   1      40.541  24.786  26.660  1.00  0.00     0.039 A 
ATOM     38  C   UNL A   1      40.961  26.035  26.189  1.00  0.00     0.014 A 
ATOM     39  C   UNL A   1      39.616  24.690  27.693  1.00  0.00     0.014 A 
ATOM     40  C   UNL A   1      40.646  27.176  26.923  1.00  0.00     0.010 A 
ATOM     41  C   UNL A   1      39.383  25.808  28.475  1.00  0.00     0.010 A 
ATOM     42  C   UNL A   1      39.958  27.037  28.130  1.00  0.00    -0.014 A 
BRANCH  42  43
ATOM     43  C   UNL A   1      39.954  28.077  29.156  1.00  0.00     0.031 A 
ATOM     44  C   UNL A   1      39.009  29.208  29.110  1.00  0.00     0.074 A 
ATOM     45  C   UNL A   1      40.835  28.031  30.181  1.00  0.00     0.049 A 
ATOM     46  N   UNL A   1      39.280  30.381  29.578  1.00  0.00    -0.248 NA
ATOM     47  C   UNL A   1      37.685  29.112  28.506  1.00  0.00     0.031 C 
ATOM     48  C   UNL A   1      40.831  28.857  31.386  1.00  0.00     0.029 A 
ATOM     49  N   UNL A   1      42.070  27.391  30.205  1.00  0.00    -0.354 N 
ATOM     50  C   UNL A   1      38.107  31.089  29.606  1.00  0.00     0.074 A 
ATOM     51  C   UNL A   1      37.159  30.289  28.861  1.00  0.00     0.031 C 
ATOM     52  C   UNL A   1      42.074  28.896  31.887  1.00  0.00     0.029 A 
ATOM     53  C   UNL A   1      42.943  28.196  30.962  1.00  0.00     0.049 A 
ATOM     54  H   UNL A   1      42.292  26.535  29.773  1.00  0.00     0.167 HD
ATOM     55  C   UNL A   1      37.993  32.210  30.369  1.00  0.00     0.034 A 
ATOM     56  C   UNL A   1      44.104  28.674  30.425  1.00  0.00     0.034 A 
ATOM     57  C   UNL A   1      39.207  32.529  31.113  1.00  0.00     0.049 A 
ATOM     58  C   UNL A   1      44.197  30.186  30.388  1.00  0.00     0.074 A 
ATOM     59  C   UNL A   1      39.598  32.385  32.435  1.00  0.00     0.029 A 
ATOM     60  N   UNL A   1      40.352  32.873  30.417  1.00  0.00    -0.354 N 
ATOM     61  N   UNL A   1      43.279  30.998  30.838  1.00  0.00    -0.248 NA
ATOM     62  C   UNL A   1      45.294  30.903  29.737  1.00  0.00     0.031 C 
ATOM     63  C   UNL A   1      40.993  32.663  32.521  1.00  0.00     0.029 A 
ATOM     64  C   UNL A   1      41.443  32.988  31.256  1.00  0.00     0.049 A 
ATOM     65  H   UNL A   1      40.384  33.018  29.443  1.00  0.00     0.167 HD
ATOM     66  C   UNL A   1      43.583  32.284  30.464  1.00  0.00     0.074 A 
ATOM     67  C   UNL A   1      44.863  32.174  29.789  1.00  0.00     0.031 C 
ATOM     68  C   UNL A   1      42.734  33.333  30.679  1.00  0.00     0.034 A 
BRANCH  55  69
ATOM     69  C   UNL A   1      36.661  32.857  30.622  1.00  0.00     0.023 A 
ATOM     70  C   UNL A   1      35.986  33.505  29.573  1.00  0.00     0.031 A 
ATOM     71  C   UNL A   1      36.030  32.886  31.880  1.00  0.00     0.131 A 
ATOM     72  C   UNL A   1      34.803  34.223  29.807  1.00  0.00     0.055 A 
ATOM     73  C   UNL A   1      34.882  33.649  32.127  1.00  0.00     0.041 A 
ATOM     74  F   UNL A   1      36.504  32.169  32.911  1.00  0.00    -0.206 F 
ATOM     75  C   UNL A   1      34.270  34.337  31.088  1.00  0.00     0.022 A 
BRANCH  72  76
ATOM     76  S   UNL A   1      33.971  35.013  28.403  1.00  0.00     0.124 S 
ATOM     77  O   UNL A   1      34.045  36.429  28.753  1.00  0.00    -0.237 OA
ATOM     78  O   UNL A   1      34.794  34.584  27.278  1.00  0.00    -0.237 OA
ATOM     79  O   UNL A   1      32.626  34.440  28.440  1.00  0.00    -0.744 OA
ENDBRANCH  72  76
ENDBRANCH  55  69
BRANCH  56  80
ATOM     80  C   UNL A   1      44.697  27.734  29.428  1.00  0.00     0.023 A 
ATOM     81  C   UNL A   1      44.764  28.189  28.093  1.00  0.00     0.031 A 
ATOM     82  C   UNL A   1      45.530  26.673  29.802  1.00  0.00     0.131 A 
ATOM     83  C   UNL A   1      45.781  27.732  27.245  1.00  0.00     0.055 A 
ATOM     84  C   UNL A   1      46.479  26.148  28.916  1.00  0.00     0.041 A 
ATOM     85  F   UNL A   1      45.539  26.218  31.064  1.00  0.00    -0.206 F 
ATOM     86  C   UNL A   1      46.644  26.713  27.650  1.00  0.00     0.022 A 
BRANCH  83  87
ATOM     87  S   UNL A   1      46.164  28.708  25.758  1.00  0.00     0.124 S 
ATOM     88  O   UNL A   1      45.494  29.971  26.039  1.00  0.00    -0.237 OA
ATOM     89  O   UNL A   1      47.626  28.745  25.768  1.00  0.00    -0.237 OA
ATOM     90  O   UNL A   1      45.596  27.917  24.670  1.00  0.00    -0.744 OA
ENDBRANCH  83  87
ENDBRANCH  56  80
BRANCH  68  91
ATOM     91  C   UNL A   1      43.037  34.766  30.305  1.00  0.00     0.023 A 
ATOM     92  C   UNL A   1      42.990  35.221  28.978  1.00  0.00     0.031 A 
ATOM     93  C   UNL A   1      43.456  35.717  31.267  1.00  0.00     0.131 A 
ATOM     94  C   UNL A   1      43.243  36.570  28.664  1.00  0.00     0.055 A 
ATOM     95  C   UNL A   1      43.782  37.036  30.942  1.00  0.00     0.041 A 
ATOM     96  F   UNL A   1      43.542  35.416  32.571  1.00  0.00    -0.206 F 
ATOM     97  C   UNL A   1      43.657  37.478  29.636  1.00  0.00     0.022 A 
BRANCH  94  98
ATOM     98  S   UNL A   1      42.950  37.133  26.968  1.00  0.00     0.124 S 
ATOM     99  O   UNL A   1      41.781  37.993  27.117  1.00  0.00    -0.237 OA
ATOM    100  O   UNL A   1      44.204  37.814  26.660  1.00  0.00    -0.237 OA
ATOM    101  O   UNL A   1      42.720  35.893  26.228  1.00  0.00    -0.744 OA
ENDBRANCH  94  98
ENDBRANCH  68  91
ENDBRANCH  42  43
ENDBRANCH  34  37
ENDBRANCH  32  33
ENDBRANCH  31  32
ENDBRANCH   1  31
TORSDOF 18
ENDMDL
