MODEL 1
REMARK VINA RESULT:     -12.8      0.000      0.000
REMARK SMILES COc1ccc(NC(=O)c2nn(C)cc2C(=O)NCCCCCCNC(=O)c2ccc(-c3c4nc(c(-c5cc(S(=O)(=O)[O-])ccc5F)c5ccc([nH]5)c(-c5cc(S(=O)(=O)[O-])ccc5F)c5nc(c(-c6cc(S(=O)(=O)[O-])ccc6F)c6ccc3[nH]6)C=C5)C=C4)cc2)c(C)c1
REMARK SMILES IDX 21 1 20 2 19 3 18 4 16 5 17 6 15 8 10 9 11 10 12 11 14 12
REMARK SMILES IDX 13 13 8 14 7 15 9 17 6 18 3 19 4 20 93 21 5 22 91 23 92 24
REMARK SMILES IDX 2 25 1 26 22 27 23 28 24 29 25 30 26 31 27 33 28 34 29 35
REMARK SMILES IDX 90 36 30 37 89 38 31 39 32 40 33 41 83 42 34 43 88 44 82 45
REMARK SMILES IDX 84 46 35 47 87 48 81 49 80 50 36 52 68 53 48 54 67 55 49 56
REMARK SMILES IDX 52 57 66 58 85 59 50 60 51 61 65 63 86 64 53 65 37 66 38 67
REMARK SMILES IDX 46 68 39 69 45 70 47 71 44 72 40 73 41 74 42 75 43 76 69 77
REMARK SMILES IDX 70 78 78 79 71 80 77 81 79 82 76 83 72 84 73 85 74 86 75 87
REMARK SMILES IDX 54 88 55 89 63 90 56 91 62 92 64 93 61 94 57 95 58 96 59 97
REMARK SMILES IDX 60 98
REMARK H PARENT 18 7 7 16 25 32 84 51 52 62
REMARK Flexibility Score: inf
ROOT
ATOM      1  C   UNL A   1      32.647  27.938  26.795  1.00  0.00     0.002 C 
ENDROOT
BRANCH   1   2
ATOM      2  C   UNL A   1      32.035  27.219  25.589  1.00  0.00     0.021 C 
BRANCH   2   3
ATOM      3  C   UNL A   1      32.484  25.789  25.301  1.00  0.00     0.116 C 
BRANCH   3   4
ATOM      4  N   UNL A   1      31.953  24.789  26.204  1.00  0.00    -0.352 N 
ATOM      5  C   UNL A   1      32.442  23.564  26.613  1.00  0.00     0.255 C 
ATOM      6  O   UNL A   1      31.806  22.940  27.444  1.00  0.00    -0.269 OA
ATOM      7  H   UNL A   1      31.082  25.025  26.598  1.00  0.00     0.163 HD
BRANCH   5   8
ATOM      8  C   UNL A   1      33.663  23.015  26.030  1.00  0.00     0.090 A 
ATOM      9  C   UNL A   1      33.778  22.417  24.728  1.00  0.00     0.163 A 
ATOM     10  N   UNL A   1      35.051  22.051  24.470  1.00  0.00    -0.167 NA
ATOM     11  N   UNL A   1      35.730  22.435  25.555  1.00  0.00    -0.274 N 
ATOM     12  C   UNL A   1      34.935  22.900  26.558  1.00  0.00     0.123 A 
ATOM     13  C   UNL A   1      37.171  22.396  25.534  1.00  0.00     0.173 C 
BRANCH   9  14
ATOM     14  C   UNL A   1      32.736  22.207  23.717  1.00  0.00     0.277 C 
ATOM     15  N   UNL A   1      32.249  20.945  23.437  1.00  0.00    -0.320 N 
ATOM     16  H   UNL A   1      31.622  20.927  22.679  1.00  0.00     0.170 HD
ATOM     17  O   UNL A   1      32.268  23.151  23.071  1.00  0.00    -0.267 OA
BRANCH  15  18
ATOM     18  C   UNL A   1      32.466  19.678  24.014  1.00  0.00     0.044 A 
ATOM     19  C   UNL A   1      33.177  17.174  25.123  1.00  0.00     0.119 A 
ATOM     20  C   UNL A   1      32.929  18.258  25.950  1.00  0.00     0.048 A 
ATOM     21  C   UNL A   1      32.979  17.321  23.751  1.00  0.00     0.052 A 
ATOM     22  C   UNL A   1      32.558  19.489  25.398  1.00  0.00     0.030 A 
ATOM     23  C   UNL A   1      32.599  18.552  23.178  1.00  0.00    -0.024 A 
ATOM     24  C   UNL A   1      32.330  18.537  21.696  1.00  0.00     0.047 C 
BRANCH  19  25
ATOM     25  O   UNL A   1      33.586  15.933  25.516  1.00  0.00    -0.497 OA
ATOM     26  C   UNL A   1      32.616  14.892  25.506  1.00  0.00     0.278 C 
ENDBRANCH  19  25
ENDBRANCH  15  18
ENDBRANCH   9  14
ENDBRANCH   5   8
ENDBRANCH   3   4
ENDBRANCH   2   3
ENDBRANCH   1   2
BRANCH   1  27
ATOM     27  C   UNL A   1      32.019  29.270  27.226  1.00  0.00     0.002 C 
BRANCH  27  28
ATOM     28  C   UNL A   1      32.918  30.501  27.179  1.00  0.00     0.021 C 
BRANCH  28  29
ATOM     29  C   UNL A   1      34.405  30.215  27.036  1.00  0.00     0.116 C 
BRANCH  29  30
ATOM     30  N   UNL A   1      35.277  31.254  27.566  1.00  0.00    -0.352 N 
ATOM     31  C   UNL A   1      36.445  31.136  28.302  1.00  0.00     0.251 C 
ATOM     32  H   UNL A   1      34.995  32.177  27.373  1.00  0.00     0.163 HD
ATOM     33  O   UNL A   1      36.941  32.113  28.856  1.00  0.00    -0.269 OA
BRANCH  31  34
ATOM     34  C   UNL A   1      37.193  29.855  28.285  1.00  0.00     0.039 A 
ATOM     35  C   UNL A   1      37.188  29.098  29.467  1.00  0.00     0.014 A 
ATOM     36  C   UNL A   1      38.103  29.569  27.278  1.00  0.00     0.014 A 
ATOM     37  C   UNL A   1      38.269  28.271  29.752  1.00  0.00     0.010 A 
ATOM     38  C   UNL A   1      39.241  28.883  27.614  1.00  0.00     0.010 A 
ATOM     39  C   UNL A   1      39.343  28.290  28.875  1.00  0.00    -0.014 A 
BRANCH  39  40
ATOM     40  C   UNL A   1      40.650  27.728  29.146  1.00  0.00     0.031 A 
ATOM     41  C   UNL A   1      40.891  26.330  28.762  1.00  0.00     0.074 A 
ATOM     42  C   UNL A   1      41.646  28.565  29.508  1.00  0.00     0.049 A 
ATOM     43  N   UNL A   1      41.946  25.666  29.063  1.00  0.00    -0.248 NA
ATOM     44  C   UNL A   1      39.909  25.539  28.026  1.00  0.00     0.031 C 
ATOM     45  C   UNL A   1      43.085  28.330  29.457  1.00  0.00     0.029 A 
ATOM     46  N   UNL A   1      41.511  29.732  30.258  1.00  0.00    -0.354 N 
ATOM     47  C   UNL A   1      41.934  24.503  28.329  1.00  0.00     0.074 A 
ATOM     48  C   UNL A   1      40.603  24.424  27.787  1.00  0.00     0.031 C 
ATOM     49  C   UNL A   1      43.685  29.132  30.353  1.00  0.00     0.029 A 
ATOM     50  C   UNL A   1      42.630  29.778  31.112  1.00  0.00     0.049 A 
ATOM     51  H   UNL A   1      40.782  30.391  30.201  1.00  0.00     0.167 HD
ATOM     52  C   UNL A   1      43.114  23.842  28.174  1.00  0.00     0.034 A 
ATOM     53  C   UNL A   1      42.455  29.651  32.462  1.00  0.00     0.034 A 
ATOM     54  C   UNL A   1      44.117  24.394  29.092  1.00  0.00     0.049 A 
ATOM     55  C   UNL A   1      43.126  28.415  33.023  1.00  0.00     0.074 A 
ATOM     56  C   UNL A   1      45.192  25.254  28.932  1.00  0.00     0.029 A 
ATOM     57  N   UNL A   1      43.870  24.328  30.461  1.00  0.00    -0.354 N 
ATOM     58  N   UNL A   1      43.440  27.359  32.319  1.00  0.00    -0.248 NA
ATOM     59  C   UNL A   1      43.548  28.304  34.412  1.00  0.00     0.031 C 
ATOM     60  C   UNL A   1      45.527  25.773  30.217  1.00  0.00     0.029 A 
ATOM     61  C   UNL A   1      44.690  25.193  31.157  1.00  0.00     0.049 A 
ATOM     62  H   UNL A   1      43.198  23.742  30.877  1.00  0.00     0.167 HD
ATOM     63  C   UNL A   1      44.122  26.460  33.104  1.00  0.00     0.074 A 
ATOM     64  C   UNL A   1      44.162  27.107  34.407  1.00  0.00     0.031 C 
ATOM     65  C   UNL A   1      44.607  25.275  32.612  1.00  0.00     0.034 A 
BRANCH  52  66
ATOM     66  C   UNL A   1      43.455  22.881  27.053  1.00  0.00     0.023 A 
ATOM     67  C   UNL A   1      42.829  21.615  27.050  1.00  0.00     0.031 A 
ATOM     68  C   UNL A   1      44.418  23.064  26.039  1.00  0.00     0.131 A 
ATOM     69  C   UNL A   1      43.199  20.605  26.140  1.00  0.00     0.055 A 
ATOM     70  C   UNL A   1      44.786  22.061  25.131  1.00  0.00     0.041 A 
ATOM     71  F   UNL A   1      45.063  24.217  25.852  1.00  0.00    -0.206 F 
ATOM     72  C   UNL A   1      44.183  20.819  25.183  1.00  0.00     0.022 A 
BRANCH  69  73
ATOM     73  S   UNL A   1      42.401  18.982  26.256  1.00  0.00     0.124 S 
ATOM     74  O   UNL A   1      42.519  18.686  27.680  1.00  0.00    -0.237 OA
ATOM     75  O   UNL A   1      41.059  19.260  25.760  1.00  0.00    -0.237 OA
ATOM     76  O   UNL A   1      43.220  18.141  25.384  1.00  0.00    -0.744 OA
ENDBRANCH  69  73
ENDBRANCH  52  66
BRANCH  53  77
ATOM     77  C   UNL A   1      41.177  30.281  32.924  1.00  0.00     0.023 A 
ATOM     78  C   UNL A   1      41.148  31.694  32.912  1.00  0.00     0.031 A 
ATOM     79  C   UNL A   1      39.951  29.605  32.874  1.00  0.00     0.131 A 
ATOM     80  C   UNL A   1      39.960  32.373  32.603  1.00  0.00     0.055 A 
ATOM     81  C   UNL A   1      38.746  30.302  32.679  1.00  0.00     0.041 A 
ATOM     82  F   UNL A   1      39.906  28.264  32.862  1.00  0.00    -0.206 F 
ATOM     83  C   UNL A   1      38.755  31.686  32.479  1.00  0.00     0.022 A 
BRANCH  80  84
ATOM     84  S   UNL A   1      40.101  34.101  32.047  1.00  0.00     0.124 S 
ATOM     85  O   UNL A   1      38.757  34.611  32.291  1.00  0.00    -0.237 OA
ATOM     86  O   UNL A   1      41.152  34.621  32.921  1.00  0.00    -0.237 OA
ATOM     87  O   UNL A   1      40.485  33.988  30.642  1.00  0.00    -0.744 OA
ENDBRANCH  80  84
ENDBRANCH  53  77
BRANCH  65  88
ATOM     88  C   UNL A   1      45.128  24.096  33.426  1.00  0.00     0.023 A 
ATOM     89  C   UNL A   1      46.412  24.040  33.980  1.00  0.00     0.031 A 
ATOM     90  C   UNL A   1      44.296  22.985  33.737  1.00  0.00     0.131 A 
ATOM     91  C   UNL A   1      46.853  22.922  34.713  1.00  0.00     0.055 A 
ATOM     92  C   UNL A   1      44.706  21.914  34.537  1.00  0.00     0.041 A 
ATOM     93  F   UNL A   1      43.036  22.888  33.294  1.00  0.00    -0.206 F 
ATOM     94  C   UNL A   1      46.000  21.867  35.020  1.00  0.00     0.022 A 
BRANCH  91  95
ATOM     95  S   UNL A   1      48.596  22.860  35.198  1.00  0.00     0.124 S 
ATOM     96  O   UNL A   1      49.224  22.338  33.987  1.00  0.00    -0.237 OA
ATOM     97  O   UNL A   1      48.884  24.257  35.508  1.00  0.00    -0.237 OA
ATOM     98  O   UNL A   1      48.605  21.953  36.343  1.00  0.00    -0.744 OA
ENDBRANCH  91  95
ENDBRANCH  65  88
ENDBRANCH  39  40
ENDBRANCH  31  34
ENDBRANCH  29  30
ENDBRANCH  28  29
ENDBRANCH  27  28
ENDBRANCH   1  27
TORSDOF 19
ENDMDL
MODEL 2
REMARK VINA RESULT:     -12.3      1.575      3.416
REMARK SMILES COc1ccc(NC(=O)c2nn(C)cc2C(=O)NCCCCCCNC(=O)c2ccc(-c3c4nc(c(-c5cc(S(=O)(=O)[O-])ccc5F)c5ccc([nH]5)c(-c5cc(S(=O)(=O)[O-])ccc5F)c5nc(c(-c6cc(S(=O)(=O)[O-])ccc6F)c6ccc3[nH]6)C=C5)C=C4)cc2)c(C)c1
REMARK SMILES IDX 21 1 20 2 19 3 18 4 16 5 17 6 15 8 10 9 11 10 12 11 14 12
REMARK SMILES IDX 13 13 8 14 7 15 9 17 6 18 3 19 4 20 93 21 5 22 91 23 92 24
REMARK SMILES IDX 2 25 1 26 22 27 23 28 24 29 25 30 26 31 27 33 28 34 29 35
REMARK SMILES IDX 90 36 30 37 89 38 31 39 32 40 33 41 83 42 34 43 88 44 82 45
REMARK SMILES IDX 84 46 35 47 87 48 81 49 80 50 36 52 68 53 48 54 67 55 49 56
REMARK SMILES IDX 52 57 66 58 85 59 50 60 51 61 65 63 86 64 53 65 37 66 38 67
REMARK SMILES IDX 46 68 39 69 45 70 47 71 44 72 40 73 41 74 42 75 43 76 69 77
REMARK SMILES IDX 70 78 78 79 71 80 77 81 79 82 76 83 72 84 73 85 74 86 75 87
REMARK SMILES IDX 54 88 55 89 63 90 56 91 62 92 64 93 61 94 57 95 58 96 59 97
REMARK SMILES IDX 60 98
REMARK H PARENT 18 7 7 16 25 32 84 51 52 62
REMARK Flexibility Score: inf
ROOT
ATOM      1  C   UNL A   1      32.339  28.340  27.185  1.00  0.00     0.002 C 
ENDROOT
BRANCH   1   2
ATOM      2  C   UNL A   1      31.290  27.268  26.874  1.00  0.00     0.021 C 
BRANCH   2   3
ATOM      3  C   UNL A   1      31.779  25.892  26.429  1.00  0.00     0.116 C 
BRANCH   3   4
ATOM      4  N   UNL A   1      33.216  25.763  26.314  1.00  0.00    -0.352 N 
ATOM      5  C   UNL A   1      34.012  24.777  25.766  1.00  0.00     0.255 C 
ATOM      6  O   UNL A   1      35.218  24.954  25.749  1.00  0.00    -0.269 OA
ATOM      7  H   UNL A   1      33.720  26.517  26.697  1.00  0.00     0.163 HD
BRANCH   5   8
ATOM      8  C   UNL A   1      33.426  23.538  25.263  1.00  0.00     0.090 A 
ATOM      9  C   UNL A   1      33.415  23.109  23.890  1.00  0.00     0.163 A 
ATOM     10  N   UNL A   1      32.837  21.897  23.762  1.00  0.00    -0.167 NA
ATOM     11  N   UNL A   1      32.524  21.548  25.013  1.00  0.00    -0.274 N 
ATOM     12  C   UNL A   1      32.740  22.536  25.924  1.00  0.00     0.123 A 
ATOM     13  C   UNL A   1      32.082  20.201  25.279  1.00  0.00     0.173 C 
BRANCH   9  14
ATOM     14  C   UNL A   1      33.953  23.793  22.709  1.00  0.00     0.277 C 
ATOM     15  N   UNL A   1      33.373  24.949  22.221  1.00  0.00    -0.320 N 
ATOM     16  H   UNL A   1      33.770  25.257  21.375  1.00  0.00     0.170 HD
ATOM     17  O   UNL A   1      34.934  23.351  22.102  1.00  0.00    -0.267 OA
BRANCH  15  18
ATOM     18  C   UNL A   1      32.331  25.776  22.685  1.00  0.00     0.044 A 
ATOM     19  C   UNL A   1      30.211  27.528  23.348  1.00  0.00     0.119 A 
ATOM     20  C   UNL A   1      29.967  26.176  23.164  1.00  0.00     0.048 A 
ATOM     21  C   UNL A   1      31.527  27.984  23.292  1.00  0.00     0.052 A 
ATOM     22  C   UNL A   1      31.022  25.310  22.855  1.00  0.00     0.030 A 
ATOM     23  C   UNL A   1      32.604  27.124  22.989  1.00  0.00    -0.024 A 
ATOM     24  C   UNL A   1      33.978  27.736  23.057  1.00  0.00     0.047 C 
BRANCH  19  25
ATOM     25  O   UNL A   1      29.279  28.490  23.609  1.00  0.00    -0.497 OA
ATOM     26  C   UNL A   1      27.938  28.224  23.214  1.00  0.00     0.278 C 
ENDBRANCH  19  25
ENDBRANCH  15  18
ENDBRANCH   9  14
ENDBRANCH   5   8
ENDBRANCH   3   4
ENDBRANCH   2   3
ENDBRANCH   1   2
BRANCH   1  27
ATOM     27  C   UNL A   1      31.915  29.809  27.061  1.00  0.00     0.002 C 
BRANCH  27  28
ATOM     28  C   UNL A   1      33.028  30.831  26.849  1.00  0.00     0.021 C 
BRANCH  28  29
ATOM     29  C   UNL A   1      34.430  30.341  27.178  1.00  0.00     0.116 C 
BRANCH  29  30
ATOM     30  N   UNL A   1      35.338  31.376  27.653  1.00  0.00    -0.352 N 
ATOM     31  C   UNL A   1      36.535  31.254  28.341  1.00  0.00     0.251 C 
ATOM     32  H   UNL A   1      35.061  32.300  27.457  1.00  0.00     0.163 HD
ATOM     33  O   UNL A   1      37.068  32.232  28.856  1.00  0.00    -0.269 OA
BRANCH  31  34
ATOM     34  C   UNL A   1      37.264  29.961  28.313  1.00  0.00     0.039 A 
ATOM     35  C   UNL A   1      37.238  29.189  29.485  1.00  0.00     0.014 A 
ATOM     36  C   UNL A   1      38.178  29.675  27.310  1.00  0.00     0.014 A 
ATOM     37  C   UNL A   1      38.304  28.343  29.768  1.00  0.00     0.010 A 
ATOM     38  C   UNL A   1      39.303  28.968  27.646  1.00  0.00     0.010 A 
ATOM     39  C   UNL A   1      39.386  28.357  28.900  1.00  0.00    -0.014 A 
BRANCH  39  40
ATOM     40  C   UNL A   1      40.682  27.773  29.175  1.00  0.00     0.031 A 
ATOM     41  C   UNL A   1      40.905  26.376  28.777  1.00  0.00     0.074 A 
ATOM     42  C   UNL A   1      41.687  28.590  29.554  1.00  0.00     0.049 A 
ATOM     43  N   UNL A   1      41.947  25.692  29.078  1.00  0.00    -0.248 NA
ATOM     44  C   UNL A   1      39.917  25.608  28.024  1.00  0.00     0.031 C 
ATOM     45  C   UNL A   1      43.123  28.334  29.512  1.00  0.00     0.029 A 
ATOM     46  N   UNL A   1      41.564  29.750  30.317  1.00  0.00    -0.354 N 
ATOM     47  C   UNL A   1      41.923  24.538  28.330  1.00  0.00     0.074 A 
ATOM     48  C   UNL A   1      40.596  24.485  27.777  1.00  0.00     0.031 C 
ATOM     49  C   UNL A   1      43.728  29.117  30.422  1.00  0.00     0.029 A 
ATOM     50  C   UNL A   1      42.677  29.770  31.180  1.00  0.00     0.049 A 
ATOM     51  H   UNL A   1      40.846  30.420  30.262  1.00  0.00     0.167 HD
ATOM     52  C   UNL A   1      43.094  23.861  28.177  1.00  0.00     0.034 A 
ATOM     53  C   UNL A   1      42.489  29.629  32.527  1.00  0.00     0.034 A 
ATOM     54  C   UNL A   1      44.099  24.387  29.109  1.00  0.00     0.049 A 
ATOM     55  C   UNL A   1      43.137  28.377  33.078  1.00  0.00     0.074 A 
ATOM     56  C   UNL A   1      45.187  25.233  28.967  1.00  0.00     0.029 A 
ATOM     57  N   UNL A   1      43.840  24.309  30.475  1.00  0.00    -0.354 N 
ATOM     58  N   UNL A   1      43.441  27.325  32.365  1.00  0.00    -0.248 NA
ATOM     59  C   UNL A   1      43.547  28.243  34.469  1.00  0.00     0.031 C 
ATOM     60  C   UNL A   1      45.520  25.731  30.261  1.00  0.00     0.029 A 
ATOM     61  C   UNL A   1      44.667  25.153  31.187  1.00  0.00     0.049 A 
ATOM     62  H   UNL A   1      43.156  23.728  30.879  1.00  0.00     0.167 HD
ATOM     63  C   UNL A   1      44.103  26.406  33.145  1.00  0.00     0.074 A 
ATOM     64  C   UNL A   1      44.142  27.038  34.455  1.00  0.00     0.031 C 
ATOM     65  C   UNL A   1      44.574  25.220  32.642  1.00  0.00     0.034 A 
BRANCH  52  66
ATOM     66  C   UNL A   1      43.430  22.908  27.047  1.00  0.00     0.023 A 
ATOM     67  C   UNL A   1      42.813  21.637  27.045  1.00  0.00     0.031 A 
ATOM     68  C   UNL A   1      44.380  23.103  26.023  1.00  0.00     0.131 A 
ATOM     69  C   UNL A   1      43.180  20.635  26.127  1.00  0.00     0.055 A 
ATOM     70  C   UNL A   1      44.744  22.108  25.106  1.00  0.00     0.041 A 
ATOM     71  F   UNL A   1      45.014  24.262  25.834  1.00  0.00    -0.206 F 
ATOM     72  C   UNL A   1      44.151  20.860  25.159  1.00  0.00     0.022 A 
BRANCH  69  73
ATOM     73  S   UNL A   1      42.397  19.005  26.244  1.00  0.00     0.124 S 
ATOM     74  O   UNL A   1      43.244  18.196  25.373  1.00  0.00    -0.237 OA
ATOM     75  O   UNL A   1      42.478  18.724  27.672  1.00  0.00    -0.237 OA
ATOM     76  O   UNL A   1      41.046  19.243  25.737  1.00  0.00    -0.744 OA
ENDBRANCH  69  73
ENDBRANCH  52  66
BRANCH  53  77
ATOM     77  C   UNL A   1      41.217  30.273  32.986  1.00  0.00     0.023 A 
ATOM     78  C   UNL A   1      41.193  31.686  32.944  1.00  0.00     0.031 A 
ATOM     79  C   UNL A   1      39.989  29.601  32.961  1.00  0.00     0.131 A 
ATOM     80  C   UNL A   1      40.005  32.362  32.632  1.00  0.00     0.055 A 
ATOM     81  C   UNL A   1      38.784  30.297  32.762  1.00  0.00     0.041 A 
ATOM     82  F   UNL A   1      39.939  28.260  32.978  1.00  0.00    -0.206 F 
ATOM     83  C   UNL A   1      38.796  31.676  32.533  1.00  0.00     0.022 A 
BRANCH  80  84
ATOM     84  S   UNL A   1      40.146  34.077  32.037  1.00  0.00     0.124 S 
ATOM     85  O   UNL A   1      38.863  34.645  32.436  1.00  0.00    -0.237 OA
ATOM     86  O   UNL A   1      41.316  34.561  32.770  1.00  0.00    -0.237 OA
ATOM     87  O   UNL A   1      40.352  33.936  30.598  1.00  0.00    -0.744 OA
ENDBRANCH  80  84
ENDBRANCH  53  77
BRANCH  65  88
ATOM     88  C   UNL A   1      45.071  24.024  33.446  1.00  0.00     0.023 A 
ATOM     89  C   UNL A   1      46.392  23.873  33.882  1.00  0.00     0.031 A 
ATOM     90  C   UNL A   1      44.184  22.997  33.872  1.00  0.00     0.131 A 
ATOM     91  C   UNL A   1      46.807  22.743  34.611  1.00  0.00     0.055 A 
ATOM     92  C   UNL A   1      44.577  21.917  34.669  1.00  0.00     0.041 A 
ATOM     93  F   UNL A   1      42.883  22.996  33.551  1.00  0.00    -0.206 F 
ATOM     94  C   UNL A   1      45.903  21.774  35.032  1.00  0.00     0.022 A 
BRANCH  91  95
ATOM     95  S   UNL A   1      48.577  22.545  34.936  1.00  0.00     0.124 S 
ATOM     96  O   UNL A   1      48.805  21.165  34.517  1.00  0.00    -0.237 OA
ATOM     97  O   UNL A   1      49.168  23.571  34.080  1.00  0.00    -0.237 OA
ATOM     98  O   UNL A   1      48.695  22.787  36.371  1.00  0.00    -0.744 OA
ENDBRANCH  91  95
ENDBRANCH  65  88
ENDBRANCH  39  40
ENDBRANCH  31  34
ENDBRANCH  29  30
ENDBRANCH  28  29
ENDBRANCH  27  28
ENDBRANCH   1  27
TORSDOF 19
ENDMDL
MODEL 3
REMARK VINA RESULT:     -12.0      4.104     10.716
REMARK SMILES COc1ccc(NC(=O)c2nn(C)cc2C(=O)NCCCCCCNC(=O)c2ccc(-c3c4nc(c(-c5cc(S(=O)(=O)[O-])ccc5F)c5ccc([nH]5)c(-c5cc(S(=O)(=O)[O-])ccc5F)c5nc(c(-c6cc(S(=O)(=O)[O-])ccc6F)c6ccc3[nH]6)C=C5)C=C4)cc2)c(C)c1
REMARK SMILES IDX 21 1 20 2 19 3 18 4 16 5 17 6 15 8 10 9 11 10 12 11 14 12
REMARK SMILES IDX 13 13 8 14 7 15 9 17 6 18 3 19 4 20 93 21 5 22 91 23 92 24
REMARK SMILES IDX 2 25 1 26 22 27 23 28 24 29 25 30 26 31 27 33 28 34 29 35
REMARK SMILES IDX 90 36 30 37 89 38 31 39 32 40 33 41 83 42 34 43 88 44 82 45
REMARK SMILES IDX 84 46 35 47 87 48 81 49 80 50 36 52 68 53 48 54 67 55 49 56
REMARK SMILES IDX 52 57 66 58 85 59 50 60 51 61 65 63 86 64 53 65 37 66 38 67
REMARK SMILES IDX 46 68 39 69 45 70 47 71 44 72 40 73 41 74 42 75 43 76 69 77
REMARK SMILES IDX 70 78 78 79 71 80 77 81 79 82 76 83 72 84 73 85 74 86 75 87
REMARK SMILES IDX 54 88 55 89 63 90 56 91 62 92 64 93 61 94 57 95 58 96 59 97
REMARK SMILES IDX 60 98
REMARK H PARENT 18 7 7 16 25 32 84 51 52 62
REMARK Flexibility Score: inf
ROOT
ATOM      1  C   UNL A   1      35.683  20.831  25.020  1.00  0.00     0.002 C 
ENDROOT
BRANCH   1   2
ATOM      2  C   UNL A   1      34.770  21.560  26.010  1.00  0.00     0.021 C 
BRANCH   2   3
ATOM      3  C   UNL A   1      33.517  22.242  25.464  1.00  0.00     0.116 C 
BRANCH   3   4
ATOM      4  N   UNL A   1      33.081  21.769  24.167  1.00  0.00    -0.352 N 
ATOM      5  C   UNL A   1      32.291  22.347  23.194  1.00  0.00     0.255 C 
ATOM      6  O   UNL A   1      32.129  21.740  22.149  1.00  0.00    -0.269 OA
ATOM      7  H   UNL A   1      33.407  20.869  23.937  1.00  0.00     0.163 HD
BRANCH   5   8
ATOM      8  C   UNL A   1      31.633  23.629  23.429  1.00  0.00     0.090 A 
ATOM      9  C   UNL A   1      32.282  24.911  23.478  1.00  0.00     0.163 A 
ATOM     10  N   UNL A   1      31.389  25.904  23.667  1.00  0.00    -0.167 NA
ATOM     11  N   UNL A   1      30.207  25.280  23.701  1.00  0.00    -0.274 N 
ATOM     12  C   UNL A   1      30.307  23.923  23.687  1.00  0.00     0.123 A 
ATOM     13  C   UNL A   1      28.996  26.064  23.672  1.00  0.00     0.173 C 
BRANCH   9  14
ATOM     14  C   UNL A   1      33.707  25.227  23.326  1.00  0.00     0.277 C 
ATOM     15  N   UNL A   1      34.258  26.355  23.902  1.00  0.00    -0.320 N 
ATOM     16  H   UNL A   1      35.199  26.502  23.651  1.00  0.00     0.170 HD
ATOM     17  O   UNL A   1      34.459  24.502  22.667  1.00  0.00    -0.267 OA
BRANCH  15  18
ATOM     18  C   UNL A   1      33.752  27.339  24.774  1.00  0.00     0.044 A 
ATOM     19  C   UNL A   1      32.477  29.223  26.455  1.00  0.00     0.119 A 
ATOM     20  C   UNL A   1      32.996  28.054  26.987  1.00  0.00     0.048 A 
ATOM     21  C   UNL A   1      32.677  29.490  25.102  1.00  0.00     0.052 A 
ATOM     22  C   UNL A   1      33.644  27.134  26.155  1.00  0.00     0.030 A 
ATOM     23  C   UNL A   1      33.334  28.577  24.250  1.00  0.00    -0.024 A 
ATOM     24  C   UNL A   1      33.562  29.041  22.835  1.00  0.00     0.047 C 
BRANCH  19  25
ATOM     25  O   UNL A   1      31.786  30.184  27.135  1.00  0.00    -0.497 OA
ATOM     26  C   UNL A   1      31.712  31.477  26.543  1.00  0.00     0.278 C 
ENDBRANCH  19  25
ENDBRANCH  15  18
ENDBRANCH   9  14
ENDBRANCH   5   8
ENDBRANCH   3   4
ENDBRANCH   2   3
ENDBRANCH   1   2
BRANCH   1  27
ATOM     27  C   UNL A   1      37.161  20.669  25.399  1.00  0.00     0.002 C 
BRANCH  27  28
ATOM     28  C   UNL A   1      38.082  21.847  25.098  1.00  0.00     0.021 C 
BRANCH  28  29
ATOM     29  C   UNL A   1      38.231  22.859  26.224  1.00  0.00     0.116 C 
BRANCH  29  30
ATOM     30  N   UNL A   1      39.495  22.786  26.942  1.00  0.00    -0.352 N 
ATOM     31  C   UNL A   1      40.328  23.807  27.370  1.00  0.00     0.251 C 
ATOM     32  H   UNL A   1      39.804  21.877  27.157  1.00  0.00     0.163 HD
ATOM     33  O   UNL A   1      41.463  23.567  27.771  1.00  0.00    -0.269 OA
BRANCH  31  34
ATOM     34  C   UNL A   1      39.789  25.183  27.501  1.00  0.00     0.039 A 
ATOM     35  C   UNL A   1      40.289  26.152  26.616  1.00  0.00     0.014 A 
ATOM     36  C   UNL A   1      39.075  25.570  28.625  1.00  0.00     0.014 A 
ATOM     37  C   UNL A   1      40.329  27.483  27.013  1.00  0.00     0.010 A 
ATOM     38  C   UNL A   1      39.249  26.847  29.092  1.00  0.00     0.010 A 
ATOM     39  C   UNL A   1      39.932  27.781  28.308  1.00  0.00    -0.014 A 
BRANCH  39  40
ATOM     40  C   UNL A   1      40.169  29.040  28.984  1.00  0.00     0.031 A 
ATOM     41  C   UNL A   1      39.118  30.065  28.917  1.00  0.00     0.074 A 
ATOM     42  C   UNL A   1      41.217  29.127  29.830  1.00  0.00     0.049 A 
ATOM     43  N   UNL A   1      39.247  31.266  29.348  1.00  0.00    -0.248 NA
ATOM     44  C   UNL A   1      37.819  29.816  28.300  1.00  0.00     0.031 C 
ATOM     45  C   UNL A   1      41.442  30.103  30.891  1.00  0.00     0.029 A 
ATOM     46  N   UNL A   1      42.437  28.466  29.703  1.00  0.00    -0.354 N 
ATOM     47  C   UNL A   1      38.000  31.846  29.355  1.00  0.00     0.074 A 
ATOM     48  C   UNL A   1      37.171  30.946  28.597  1.00  0.00     0.031 C 
ATOM     49  C   UNL A   1      42.762  30.183  31.131  1.00  0.00     0.029 A 
ATOM     50  C   UNL A   1      43.423  29.383  30.116  1.00  0.00     0.049 A 
ATOM     51  H   UNL A   1      42.581  27.544  29.389  1.00  0.00     0.167 HD
ATOM     52  C   UNL A   1      37.821  32.950  30.131  1.00  0.00     0.034 A 
ATOM     53  C   UNL A   1      44.318  29.869  29.204  1.00  0.00     0.034 A 
ATOM     54  C   UNL A   1      39.123  33.453  30.588  1.00  0.00     0.049 A 
ATOM     55  C   UNL A   1      44.197  31.365  29.010  1.00  0.00     0.074 A 
ATOM     56  C   UNL A   1      39.812  33.376  31.787  1.00  0.00     0.029 A 
ATOM     57  N   UNL A   1      40.049  33.859  29.630  1.00  0.00    -0.354 N 
ATOM     58  N   UNL A   1      43.128  32.064  29.287  1.00  0.00    -0.248 NA
ATOM     59  C   UNL A   1      45.299  32.195  28.543  1.00  0.00     0.031 C 
ATOM     60  C   UNL A   1      41.183  33.655  31.517  1.00  0.00     0.029 A 
ATOM     61  C   UNL A   1      41.316  33.946  30.169  1.00  0.00     0.049 A 
ATOM     62  H   UNL A   1      39.827  34.058  28.692  1.00  0.00     0.167 HD
ATOM     63  C   UNL A   1      43.379  33.401  29.089  1.00  0.00     0.074 A 
ATOM     64  C   UNL A   1      44.758  33.423  28.624  1.00  0.00     0.031 C 
ATOM     65  C   UNL A   1      42.440  34.369  29.340  1.00  0.00     0.034 A 
BRANCH  52  66
ATOM     66  C   UNL A   1      36.500  33.442  30.688  1.00  0.00     0.023 A 
ATOM     67  C   UNL A   1      35.582  34.035  29.793  1.00  0.00     0.031 A 
ATOM     68  C   UNL A   1      36.103  33.468  32.041  1.00  0.00     0.131 A 
ATOM     69  C   UNL A   1      34.402  34.658  30.243  1.00  0.00     0.055 A 
ATOM     70  C   UNL A   1      34.928  34.085  32.491  1.00  0.00     0.041 A 
ATOM     71  F   UNL A   1      36.816  32.900  33.016  1.00  0.00    -0.206 F 
ATOM     72  C   UNL A   1      34.072  34.694  31.592  1.00  0.00     0.022 A 
BRANCH  69  73
ATOM     73  S   UNL A   1      33.318  35.465  29.036  1.00  0.00     0.124 S 
ATOM     74  O   UNL A   1      32.737  34.323  28.337  1.00  0.00    -0.237 OA
ATOM     75  O   UNL A   1      32.417  36.230  29.891  1.00  0.00    -0.237 OA
ATOM     76  O   UNL A   1      34.242  36.269  28.237  1.00  0.00    -0.744 OA
ENDBRANCH  69  73
ENDBRANCH  52  66
BRANCH  53  77
ATOM     77  C   UNL A   1      44.683  28.844  28.175  1.00  0.00     0.023 A 
ATOM     78  C   UNL A   1      45.504  27.784  28.626  1.00  0.00     0.031 A 
ATOM     79  C   UNL A   1      43.901  28.620  27.034  1.00  0.00     0.131 A 
ATOM     80  C   UNL A   1      45.342  26.494  28.101  1.00  0.00     0.055 A 
ATOM     81  C   UNL A   1      43.830  27.348  26.441  1.00  0.00     0.041 A 
ATOM     82  F   UNL A   1      43.084  29.575  26.565  1.00  0.00    -0.206 F 
ATOM     83  C   UNL A   1      44.503  26.264  27.013  1.00  0.00     0.022 A 
BRANCH  80  84
ATOM     84  S   UNL A   1      45.986  25.103  29.083  1.00  0.00     0.124 S 
ATOM     85  O   UNL A   1      44.820  24.231  29.178  1.00  0.00    -0.237 OA
ATOM     86  O   UNL A   1      47.082  24.616  28.245  1.00  0.00    -0.237 OA
ATOM     87  O   UNL A   1      46.412  25.721  30.335  1.00  0.00    -0.744 OA
ENDBRANCH  80  84
ENDBRANCH  53  77
BRANCH  65  88
ATOM     88  C   UNL A   1      42.502  35.830  28.911  1.00  0.00     0.023 A 
ATOM     89  C   UNL A   1      43.185  36.823  29.622  1.00  0.00     0.031 A 
ATOM     90  C   UNL A   1      41.913  36.271  27.693  1.00  0.00     0.131 A 
ATOM     91  C   UNL A   1      43.202  38.163  29.192  1.00  0.00     0.055 A 
ATOM     92  C   UNL A   1      42.002  37.585  27.222  1.00  0.00     0.041 A 
ATOM     93  F   UNL A   1      41.232  35.445  26.888  1.00  0.00    -0.206 F 
ATOM     94  C   UNL A   1      42.638  38.549  27.981  1.00  0.00     0.022 A 
BRANCH  91  95
ATOM     95  S   UNL A   1      43.930  39.400  30.297  1.00  0.00     0.124 S 
ATOM     96  O   UNL A   1      43.947  38.687  31.572  1.00  0.00    -0.237 OA
ATOM     97  O   UNL A   1      45.236  39.634  29.687  1.00  0.00    -0.237 OA
ATOM     98  O   UNL A   1      42.997  40.521  30.224  1.00  0.00    -0.744 OA
ENDBRANCH  91  95
ENDBRANCH  65  88
ENDBRANCH  39  40
ENDBRANCH  31  34
ENDBRANCH  29  30
ENDBRANCH  28  29
ENDBRANCH  27  28
ENDBRANCH   1  27
TORSDOF 19
ENDMDL
