MODEL 1
REMARK VINA RESULT:     -10.1      0.000      0.000
REMARK SMILES CCc1cccc(CC)c1N1/C(=[NH+]/C(=O)CCCC(=O)NCCCCCCNC(=O)c2ccc(-c3c4nc(c(-c5cc(S(=O)(=O)[O-])ccc5F)c5ccc([nH]5)c(-c5cc(S(=O)(=O)[O-])ccc5F)c5nc(c(-c6cc(S(=O)(=O)[O-])ccc6F)c6ccc3[nH]6)C=C5)C=C4)cc2)S[C@@H]2CS(=O)(=O)C[C@@H]21
REMARK SMILES IDX 23 1 22 2 21 3 19 4 20 5 18 7 17 8 16 9 14 10 11 11 12 12
REMARK SMILES IDX 101 13 13 14 94 15 95 16 100 17 96 19 97 20 15 21 98 22
REMARK SMILES IDX 99 23 10 24 3 25 4 26 5 27 7 28 6 29 2 30 1 31 8 32 9 33
REMARK SMILES IDX 24 34 25 35 26 36 27 37 28 38 29 39 30 41 31 42 32 43 93 44
REMARK SMILES IDX 33 45 92 46 34 47 35 48 36 49 86 50 37 51 91 52 85 53 87 54
REMARK SMILES IDX 38 55 90 56 84 57 83 58 39 60 71 61 51 62 70 63 52 64 55 65
REMARK SMILES IDX 69 66 88 67 53 68 54 69 68 71 89 72 56 73 40 74 41 75 49 76
REMARK SMILES IDX 42 77 48 78 50 79 47 80 43 81 44 82 45 83 46 84 72 85 73 86
REMARK SMILES IDX 81 87 74 88 80 89 82 90 79 91 75 92 76 93 77 94 78 95 57 96
REMARK SMILES IDX 58 97 66 98 59 99 65 100 67 101 64 102 60 103 61 104 62 105
REMARK SMILES IDX 63 106
REMARK H PARENT 21 6 13 18 28 40 87 59 55 70
REMARK Flexibility Score: inf
ROOT
ATOM      1  C   UNL A   1      42.558  19.811  26.212  1.00  0.00     0.021 C 
ENDROOT
BRANCH   1   2
ATOM      2  C   UNL A   1      43.109  18.409  25.956  1.00  0.00     0.116 C 
BRANCH   2   3
ATOM      3  N   UNL A   1      44.537  18.403  26.177  1.00  0.00    -0.356 N 
ATOM      4  C   UNL A   1      45.535  18.654  25.286  1.00  0.00     0.220 C 
ATOM      5  O   UNL A   1      46.696  18.401  25.612  1.00  0.00    -0.275 OA
ATOM      6  H   UNL A   1      44.827  18.186  27.092  1.00  0.00     0.163 HD
BRANCH   4   7
ATOM      7  C   UNL A   1      45.215  19.317  23.962  1.00  0.00     0.100 C 
BRANCH   7   8
ATOM      8  C   UNL A   1      45.388  20.826  23.850  1.00  0.00     0.022 C 
BRANCH   8   9
ATOM      9  C   UNL A   1      46.044  21.534  25.042  1.00  0.00     0.128 C 
BRANCH   9  10
ATOM     10  C   UNL A   1      46.099  23.060  24.975  1.00  0.00     0.307 C 
ATOM     11  N   UNL A   1      45.943  25.832  27.342  1.00  0.00    -0.216 N 
ATOM     12  C   UNL A   1      45.657  24.835  26.404  1.00  0.00     0.319 C 
ATOM     13  C   UNL A   1      45.349  27.163  27.053  1.00  0.00     0.212 C 
ATOM     14  N   UNL A   1      46.292  23.733  26.168  1.00  0.00    -0.204 N 
ATOM     15  S   UNL A   1      44.237  25.373  25.469  1.00  0.00    -0.029 SA
ATOM     16  C   UNL A   1      44.776  27.094  25.626  1.00  0.00     0.120 C 
ATOM     17  C   UNL A   1      46.321  28.338  27.097  1.00  0.00     0.188 C 
ATOM     18  H   UNL A   1      46.916  23.374  26.839  1.00  0.00     0.316 HD
ATOM     19  C   UNL A   1      45.902  27.368  24.640  1.00  0.00     0.156 C 
ATOM     20  S   UNL A   1      46.875  28.617  25.432  1.00  0.00     0.155 S 
ATOM     21  O   UNL A   1      46.091  23.616  23.877  1.00  0.00    -0.247 OA
ATOM     22  O   UNL A   1      48.278  28.257  25.338  1.00  0.00    -0.229 OA
ATOM     23  O   UNL A   1      46.388  29.910  25.011  1.00  0.00    -0.229 OA
BRANCH  11  24
ATOM     24  C   UNL A   1      46.706  25.701  28.527  1.00  0.00     0.134 A 
ATOM     25  C   UNL A   1      48.113  25.900  28.514  1.00  0.00    -0.001 A 
ATOM     26  C   UNL A   1      48.845  25.902  29.722  1.00  0.00     0.008 A 
ATOM     27  C   UNL A   1      48.219  25.718  30.942  1.00  0.00     0.001 A 
ATOM     28  C   UNL A   1      46.074  25.497  29.794  1.00  0.00    -0.001 A 
ATOM     29  C   UNL A   1      46.846  25.530  30.976  1.00  0.00     0.008 A 
BRANCH  25  30
ATOM     30  C   UNL A   1      48.913  26.166  27.255  1.00  0.00     0.036 C 
ATOM     31  C   UNL A   1      49.894  25.036  26.981  1.00  0.00     0.009 C 
ENDBRANCH  25  30
BRANCH  28  32
ATOM     32  C   UNL A   1      44.572  25.319  29.959  1.00  0.00     0.036 C 
ATOM     33  C   UNL A   1      44.142  24.224  30.932  1.00  0.00     0.009 C 
ENDBRANCH  28  32
ENDBRANCH  11  24
ENDBRANCH   9  10
ENDBRANCH   8   9
ENDBRANCH   7   8
ENDBRANCH   4   7
ENDBRANCH   2   3
ENDBRANCH   1   2
BRANCH   1  34
ATOM     34  C   UNL A   1      41.240  19.777  26.978  1.00  0.00     0.002 C 
BRANCH  34  35
ATOM     35  C   UNL A   1      40.896  21.110  27.654  1.00  0.00     0.002 C 
BRANCH  35  36
ATOM     36  C   UNL A   1      42.028  22.142  27.657  1.00  0.00     0.021 C 
BRANCH  36  37
ATOM     37  C   UNL A   1      41.730  23.402  26.850  1.00  0.00     0.116 C 
BRANCH  37  38
ATOM     38  N   UNL A   1      40.379  23.377  26.308  1.00  0.00    -0.352 N 
ATOM     39  C   UNL A   1      39.319  24.194  26.605  1.00  0.00     0.251 C 
ATOM     40  H   UNL A   1      40.203  22.678  25.638  1.00  0.00     0.163 HD
ATOM     41  O   UNL A   1      38.183  23.882  26.265  1.00  0.00    -0.269 OA
BRANCH  39  42
ATOM     42  C   UNL A   1      39.569  25.444  27.349  1.00  0.00     0.039 A 
ATOM     43  C   UNL A   1      39.246  25.514  28.706  1.00  0.00     0.014 A 
ATOM     44  C   UNL A   1      40.138  26.541  26.696  1.00  0.00     0.014 A 
ATOM     45  C   UNL A   1      39.540  26.675  29.424  1.00  0.00     0.010 A 
ATOM     46  C   UNL A   1      40.497  27.666  27.428  1.00  0.00     0.010 A 
ATOM     47  C   UNL A   1      40.192  27.748  28.796  1.00  0.00    -0.014 A 
BRANCH  47  48
ATOM     48  C   UNL A   1      40.529  28.996  29.524  1.00  0.00     0.031 A 
ATOM     49  C   UNL A   1      41.958  29.252  29.918  1.00  0.00     0.074 A 
ATOM     50  C   UNL A   1      39.553  29.837  29.913  1.00  0.00     0.049 A 
ATOM     51  N   UNL A   1      42.453  30.177  30.698  1.00  0.00    -0.248 NA
ATOM     52  C   UNL A   1      42.957  28.309  29.392  1.00  0.00     0.031 C 
ATOM     53  C   UNL A   1      38.129  29.680  29.610  1.00  0.00     0.029 A 
ATOM     54  N   UNL A   1      39.607  30.982  30.667  1.00  0.00    -0.354 N 
ATOM     55  C   UNL A   1      43.815  29.911  30.780  1.00  0.00     0.074 A 
ATOM     56  C   UNL A   1      44.052  28.701  30.022  1.00  0.00     0.031 C 
ATOM     57  C   UNL A   1      37.447  30.693  30.166  1.00  0.00     0.029 A 
ATOM     58  C   UNL A   1      38.374  31.542  30.910  1.00  0.00     0.049 A 
ATOM     59  H   UNL A   1      40.448  31.366  31.004  1.00  0.00     0.167 HD
ATOM     60  C   UNL A   1      44.780  30.622  31.414  1.00  0.00     0.034 A 
ATOM     61  C   UNL A   1      38.028  32.602  31.668  1.00  0.00     0.034 A 
ATOM     62  C   UNL A   1      44.519  31.833  32.154  1.00  0.00     0.049 A 
ATOM     63  C   UNL A   1      39.110  33.365  32.390  1.00  0.00     0.074 A 
ATOM     64  C   UNL A   1      45.420  32.664  32.793  1.00  0.00     0.029 A 
ATOM     65  N   UNL A   1      43.258  32.380  32.361  1.00  0.00    -0.354 N 
ATOM     66  N   UNL A   1      40.400  33.125  32.434  1.00  0.00    -0.248 NA
ATOM     67  C   UNL A   1      38.692  34.547  33.153  1.00  0.00     0.031 C 
ATOM     68  C   UNL A   1      44.701  33.670  33.448  1.00  0.00     0.029 A 
ATOM     69  C   UNL A   1      43.357  33.521  33.143  1.00  0.00     0.049 A 
ATOM     70  H   UNL A   1      42.417  32.011  32.005  1.00  0.00     0.167 HD
ATOM     71  C   UNL A   1      40.952  34.149  33.198  1.00  0.00     0.074 A 
ATOM     72  C   UNL A   1      39.855  35.008  33.594  1.00  0.00     0.031 C 
ATOM     73  C   UNL A   1      42.251  34.368  33.529  1.00  0.00     0.034 A 
BRANCH  60  74
ATOM     74  C   UNL A   1      46.190  30.078  31.359  1.00  0.00     0.023 A 
ATOM     75  C   UNL A   1      46.735  29.327  32.417  1.00  0.00     0.031 A 
ATOM     76  C   UNL A   1      47.021  30.360  30.261  1.00  0.00     0.131 A 
ATOM     77  C   UNL A   1      48.094  28.977  32.401  1.00  0.00     0.055 A 
ATOM     78  C   UNL A   1      48.347  29.922  30.207  1.00  0.00     0.041 A 
ATOM     79  F   UNL A   1      46.569  31.089  29.229  1.00  0.00    -0.206 F 
ATOM     80  C   UNL A   1      48.896  29.244  31.291  1.00  0.00     0.022 A 
BRANCH  77  81
ATOM     81  S   UNL A   1      48.836  28.336  33.928  1.00  0.00     0.124 S 
ATOM     82  O   UNL A   1      47.683  27.712  34.575  1.00  0.00    -0.237 OA
ATOM     83  O   UNL A   1      49.856  27.425  33.424  1.00  0.00    -0.237 OA
ATOM     84  O   UNL A   1      49.340  29.535  34.593  1.00  0.00    -0.744 OA
ENDBRANCH  77  81
ENDBRANCH  60  74
BRANCH  61  85
ATOM     85  C   UNL A   1      36.596  32.994  31.794  1.00  0.00     0.023 A 
ATOM     86  C   UNL A   1      35.921  33.626  30.738  1.00  0.00     0.031 A 
ATOM     87  C   UNL A   1      35.880  32.751  32.981  1.00  0.00     0.131 A 
ATOM     88  C   UNL A   1      34.586  34.027  30.900  1.00  0.00     0.055 A 
ATOM     89  C   UNL A   1      34.538  33.108  33.121  1.00  0.00     0.041 A 
ATOM     90  F   UNL A   1      36.474  32.140  34.018  1.00  0.00    -0.206 F 
ATOM     91  C   UNL A   1      33.886  33.759  32.079  1.00  0.00     0.022 A 
BRANCH  88  92
ATOM     92  S   UNL A   1      33.790  34.963  29.566  1.00  0.00     0.124 S 
ATOM     93  O   UNL A   1      32.922  33.952  28.972  1.00  0.00    -0.237 OA
ATOM     94  O   UNL A   1      33.122  36.031  30.303  1.00  0.00    -0.237 OA
ATOM     95  O   UNL A   1      34.913  35.390  28.735  1.00  0.00    -0.744 OA
ENDBRANCH  88  92
ENDBRANCH  61  85
BRANCH  73  96
ATOM     96  C   UNL A   1      42.569  35.625  34.300  1.00  0.00     0.023 A 
ATOM     97  C   UNL A   1      42.905  36.832  33.663  1.00  0.00     0.031 A 
ATOM     98  C   UNL A   1      42.505  35.614  35.706  1.00  0.00     0.131 A 
ATOM     99  C   UNL A   1      43.202  37.968  34.434  1.00  0.00     0.055 A 
ATOM    100  C   UNL A   1      42.745  36.761  36.464  1.00  0.00     0.041 A 
ATOM    101  F   UNL A   1      42.192  34.487  36.367  1.00  0.00    -0.206 F 
ATOM    102  C   UNL A   1      43.104  37.945  35.827  1.00  0.00     0.022 A 
BRANCH  99 103
ATOM    103  S   UNL A   1      43.789  39.464  33.594  1.00  0.00     0.124 S 
ATOM    104  O   UNL A   1      44.861  39.908  34.478  1.00  0.00    -0.237 OA
ATOM    105  O   UNL A   1      44.205  38.950  32.294  1.00  0.00    -0.237 OA
ATOM    106  O   UNL A   1      42.610  40.329  33.568  1.00  0.00    -0.744 OA
ENDBRANCH  99 103
ENDBRANCH  73  96
ENDBRANCH  47  48
ENDBRANCH  39  42
ENDBRANCH  37  38
ENDBRANCH  36  37
ENDBRANCH  35  36
ENDBRANCH  34  35
ENDBRANCH   1  34
TORSDOF 22
ENDMDL
MODEL 2
REMARK VINA RESULT:      -9.7      1.433      2.106
REMARK SMILES CCc1cccc(CC)c1N1/C(=[NH+]/C(=O)CCCC(=O)NCCCCCCNC(=O)c2ccc(-c3c4nc(c(-c5cc(S(=O)(=O)[O-])ccc5F)c5ccc([nH]5)c(-c5cc(S(=O)(=O)[O-])ccc5F)c5nc(c(-c6cc(S(=O)(=O)[O-])ccc6F)c6ccc3[nH]6)C=C5)C=C4)cc2)S[C@@H]2CS(=O)(=O)C[C@@H]21
REMARK SMILES IDX 23 1 22 2 21 3 19 4 20 5 18 7 17 8 16 9 14 10 11 11 12 12
REMARK SMILES IDX 101 13 13 14 94 15 95 16 100 17 96 19 97 20 15 21 98 22
REMARK SMILES IDX 99 23 10 24 3 25 4 26 5 27 7 28 6 29 2 30 1 31 8 32 9 33
REMARK SMILES IDX 24 34 25 35 26 36 27 37 28 38 29 39 30 41 31 42 32 43 93 44
REMARK SMILES IDX 33 45 92 46 34 47 35 48 36 49 86 50 37 51 91 52 85 53 87 54
REMARK SMILES IDX 38 55 90 56 84 57 83 58 39 60 71 61 51 62 70 63 52 64 55 65
REMARK SMILES IDX 69 66 88 67 53 68 54 69 68 71 89 72 56 73 40 74 41 75 49 76
REMARK SMILES IDX 42 77 48 78 50 79 47 80 43 81 44 82 45 83 46 84 72 85 73 86
REMARK SMILES IDX 81 87 74 88 80 89 82 90 79 91 75 92 76 93 77 94 78 95 57 96
REMARK SMILES IDX 58 97 66 98 59 99 65 100 67 101 64 102 60 103 61 104 62 105
REMARK SMILES IDX 63 106
REMARK H PARENT 21 6 13 18 28 40 87 59 55 70
REMARK Flexibility Score: inf
ROOT
ATOM      1  C   UNL A   1      42.642  19.841  26.421  1.00  0.00     0.021 C 
ENDROOT
BRANCH   1   2
ATOM      2  C   UNL A   1      43.156  18.431  26.135  1.00  0.00     0.116 C 
BRANCH   2   3
ATOM      3  N   UNL A   1      44.594  18.402  26.283  1.00  0.00    -0.356 N 
ATOM      4  C   UNL A   1      45.548  18.695  25.358  1.00  0.00     0.220 C 
ATOM      5  O   UNL A   1      46.721  18.416  25.611  1.00  0.00    -0.275 OA
ATOM      6  H   UNL A   1      44.927  18.132  27.169  1.00  0.00     0.163 HD
BRANCH   4   7
ATOM      7  C   UNL A   1      45.169  19.434  24.091  1.00  0.00     0.100 C 
BRANCH   7   8
ATOM      8  C   UNL A   1      45.554  20.903  23.970  1.00  0.00     0.022 C 
BRANCH   8   9
ATOM      9  C   UNL A   1      45.861  21.644  25.277  1.00  0.00     0.128 C 
BRANCH   9  10
ATOM     10  C   UNL A   1      45.905  23.170  25.194  1.00  0.00     0.307 C 
ATOM     11  N   UNL A   1      46.519  25.941  27.487  1.00  0.00    -0.216 N 
ATOM     12  C   UNL A   1      45.946  24.947  26.686  1.00  0.00     0.319 C 
ATOM     13  C   UNL A   1      45.876  27.277  27.395  1.00  0.00     0.212 C 
ATOM     14  N   UNL A   1      46.467  23.840  26.266  1.00  0.00    -0.204 N 
ATOM     15  S   UNL A   1      44.310  25.500  26.239  1.00  0.00    -0.029 SA
ATOM     16  C   UNL A   1      44.886  27.215  26.218  1.00  0.00     0.120 C 
ATOM     17  C   UNL A   1      46.824  28.443  27.132  1.00  0.00     0.188 C 
ATOM     18  H   UNL A   1      47.265  23.474  26.710  1.00  0.00     0.316 HD
ATOM     19  C   UNL A   1      45.652  27.480  24.929  1.00  0.00     0.156 C 
ATOM     20  S   UNL A   1      46.834  28.720  25.376  1.00  0.00     0.155 S 
ATOM     21  O   UNL A   1      45.560  23.727  24.152  1.00  0.00    -0.247 OA
ATOM     22  O   UNL A   1      48.135  28.347  24.851  1.00  0.00    -0.229 OA
ATOM     23  O   UNL A   1      46.252  30.017  25.126  1.00  0.00    -0.229 OA
BRANCH  11  24
ATOM     24  C   UNL A   1      47.612  25.801  28.375  1.00  0.00     0.134 A 
ATOM     25  C   UNL A   1      47.407  25.741  29.780  1.00  0.00    -0.001 A 
ATOM     26  C   UNL A   1      48.486  25.465  30.648  1.00  0.00     0.008 A 
ATOM     27  C   UNL A   1      49.762  25.242  30.161  1.00  0.00     0.001 A 
ATOM     28  C   UNL A   1      48.939  25.583  27.886  1.00  0.00    -0.001 A 
ATOM     29  C   UNL A   1      49.981  25.289  28.793  1.00  0.00     0.008 A 
BRANCH  25  30
ATOM     30  C   UNL A   1      46.054  25.913  30.440  1.00  0.00     0.036 C 
ATOM     31  C   UNL A   1      46.130  25.616  31.930  1.00  0.00     0.009 C 
ENDBRANCH  25  30
BRANCH  28  32
ATOM     32  C   UNL A   1      49.292  25.572  26.406  1.00  0.00     0.036 C 
ATOM     33  C   UNL A   1      50.588  26.287  26.034  1.00  0.00     0.009 C 
ENDBRANCH  28  32
ENDBRANCH  11  24
ENDBRANCH   9  10
ENDBRANCH   8   9
ENDBRANCH   7   8
ENDBRANCH   4   7
ENDBRANCH   2   3
ENDBRANCH   1   2
BRANCH   1  34
ATOM     34  C   UNL A   1      41.258  19.825  27.064  1.00  0.00     0.002 C 
BRANCH  34  35
ATOM     35  C   UNL A   1      40.767  21.217  27.482  1.00  0.00     0.002 C 
BRANCH  35  36
ATOM     36  C   UNL A   1      41.876  22.244  27.730  1.00  0.00     0.021 C 
BRANCH  36  37
ATOM     37  C   UNL A   1      41.606  23.618  27.125  1.00  0.00     0.116 C 
BRANCH  37  38
ATOM     38  N   UNL A   1      40.293  23.673  26.500  1.00  0.00    -0.352 N 
ATOM     39  C   UNL A   1      39.266  24.550  26.735  1.00  0.00     0.251 C 
ATOM     40  H   UNL A   1      40.119  22.987  25.816  1.00  0.00     0.163 HD
ATOM     41  O   UNL A   1      38.137  24.305  26.323  1.00  0.00    -0.269 OA
BRANCH  39  42
ATOM     42  C   UNL A   1      39.541  25.781  27.500  1.00  0.00     0.039 A 
ATOM     43  C   UNL A   1      39.269  25.816  28.869  1.00  0.00     0.014 A 
ATOM     44  C   UNL A   1      40.081  26.897  26.853  1.00  0.00     0.014 A 
ATOM     45  C   UNL A   1      39.588  26.959  29.605  1.00  0.00     0.010 A 
ATOM     46  C   UNL A   1      40.465  28.004  27.599  1.00  0.00     0.010 A 
ATOM     47  C   UNL A   1      40.212  28.050  28.980  1.00  0.00    -0.014 A 
BRANCH  47  48
ATOM     48  C   UNL A   1      40.573  29.281  29.726  1.00  0.00     0.031 A 
ATOM     49  C   UNL A   1      42.018  29.542  30.054  1.00  0.00     0.074 A 
ATOM     50  C   UNL A   1      39.610  30.100  30.188  1.00  0.00     0.049 A 
ATOM     51  N   UNL A   1      42.543  30.450  30.834  1.00  0.00    -0.248 NA
ATOM     52  C   UNL A   1      42.998  28.626  29.451  1.00  0.00     0.031 C 
ATOM     53  C   UNL A   1      38.175  29.934  29.953  1.00  0.00     0.029 A 
ATOM     54  N   UNL A   1      39.691  31.223  30.972  1.00  0.00    -0.354 N 
ATOM     55  C   UNL A   1      43.910  30.197  30.840  1.00  0.00     0.074 A 
ATOM     56  C   UNL A   1      44.120  29.012  30.035  1.00  0.00     0.031 C 
ATOM     57  C   UNL A   1      37.512  30.924  30.572  1.00  0.00     0.029 A 
ATOM     58  C   UNL A   1      38.467  31.761  31.293  1.00  0.00     0.049 A 
ATOM     59  H   UNL A   1      40.545  31.607  31.276  1.00  0.00     0.167 HD
ATOM     60  C   UNL A   1      44.899  30.901  31.444  1.00  0.00     0.034 A 
ATOM     61  C   UNL A   1      38.149  32.795  32.098  1.00  0.00     0.034 A 
ATOM     62  C   UNL A   1      44.664  32.087  32.232  1.00  0.00     0.049 A 
ATOM     63  C   UNL A   1      39.259  33.550  32.785  1.00  0.00     0.074 A 
ATOM     64  C   UNL A   1      45.588  32.910  32.848  1.00  0.00     0.029 A 
ATOM     65  N   UNL A   1      43.410  32.614  32.518  1.00  0.00    -0.354 N 
ATOM     66  N   UNL A   1      40.552  33.323  32.758  1.00  0.00    -0.248 NA
ATOM     67  C   UNL A   1      38.869  34.705  33.603  1.00  0.00     0.031 C 
ATOM     68  C   UNL A   1      44.893  33.889  33.567  1.00  0.00     0.029 A 
ATOM     69  C   UNL A   1      43.537  33.733  33.327  1.00  0.00     0.049 A 
ATOM     70  H   UNL A   1      42.555  32.246  32.194  1.00  0.00     0.167 HD
ATOM     71  C   UNL A   1      41.132  34.332  33.522  1.00  0.00     0.074 A 
ATOM     72  C   UNL A   1      40.048  35.166  33.998  1.00  0.00     0.031 C 
ATOM     73  C   UNL A   1      42.443  34.556  33.793  1.00  0.00     0.034 A 
BRANCH  60  74
ATOM     74  C   UNL A   1      46.309  30.375  31.303  1.00  0.00     0.023 A 
ATOM     75  C   UNL A   1      47.193  30.878  30.331  1.00  0.00     0.031 A 
ATOM     76  C   UNL A   1      46.760  29.316  32.111  1.00  0.00     0.131 A 
ATOM     77  C   UNL A   1      48.435  30.258  30.123  1.00  0.00     0.055 A 
ATOM     78  C   UNL A   1      48.037  28.768  31.965  1.00  0.00     0.041 A 
ATOM     79  F   UNL A   1      45.959  28.776  33.042  1.00  0.00    -0.206 F 
ATOM     80  C   UNL A   1      48.874  29.225  30.951  1.00  0.00     0.022 A 
BRANCH  77  81
ATOM     81  S   UNL A   1      49.380  30.699  28.638  1.00  0.00     0.124 S 
ATOM     82  O   UNL A   1      50.472  31.485  29.208  1.00  0.00    -0.237 OA
ATOM     83  O   UNL A   1      49.745  29.395  28.098  1.00  0.00    -0.237 OA
ATOM     84  O   UNL A   1      48.424  31.463  27.839  1.00  0.00    -0.744 OA
ENDBRANCH  77  81
ENDBRANCH  60  74
BRANCH  61  85
ATOM     85  C   UNL A   1      36.721  33.167  32.308  1.00  0.00     0.023 A 
ATOM     86  C   UNL A   1      35.958  33.727  31.271  1.00  0.00     0.031 A 
ATOM     87  C   UNL A   1      36.100  32.978  33.555  1.00  0.00     0.131 A 
ATOM     88  C   UNL A   1      34.629  34.111  31.509  1.00  0.00     0.055 A 
ATOM     89  C   UNL A   1      34.763  33.317  33.775  1.00  0.00     0.041 A 
ATOM     90  F   UNL A   1      36.781  32.437  34.578  1.00  0.00    -0.206 F 
ATOM     91  C   UNL A   1      34.023  33.897  32.750  1.00  0.00     0.022 A 
BRANCH  88  92
ATOM     92  S   UNL A   1      33.717  34.956  30.189  1.00  0.00     0.124 S 
ATOM     93  O   UNL A   1      34.415  36.235  30.118  1.00  0.00    -0.237 OA
ATOM     94  O   UNL A   1      33.913  34.053  29.060  1.00  0.00    -0.237 OA
ATOM     95  O   UNL A   1      32.352  35.017  30.706  1.00  0.00    -0.744 OA
ENDBRANCH  88  92
ENDBRANCH  61  85
BRANCH  73  96
ATOM     96  C   UNL A   1      42.788  35.794  34.583  1.00  0.00     0.023 A 
ATOM     97  C   UNL A   1      43.052  37.029  33.967  1.00  0.00     0.031 A 
ATOM     98  C   UNL A   1      42.824  35.735  35.989  1.00  0.00     0.131 A 
ATOM     99  C   UNL A   1      43.377  38.145  34.753  1.00  0.00     0.055 A 
ATOM    100  C   UNL A   1      43.092  36.861  36.768  1.00  0.00     0.041 A 
ATOM    101  F   UNL A   1      42.583  34.579  36.630  1.00  0.00    -0.206 F 
ATOM    102  C   UNL A   1      43.379  38.074  36.149  1.00  0.00     0.022 A 
BRANCH  99 103
ATOM    103  S   UNL A   1      43.871  39.683  33.927  1.00  0.00     0.124 S 
ATOM    104  O   UNL A   1      44.228  40.534  35.057  1.00  0.00    -0.237 OA
ATOM    105  O   UNL A   1      44.978  39.243  33.084  1.00  0.00    -0.237 OA
ATOM    106  O   UNL A   1      42.665  40.087  33.204  1.00  0.00    -0.744 OA
ENDBRANCH  99 103
ENDBRANCH  73  96
ENDBRANCH  47  48
ENDBRANCH  39  42
ENDBRANCH  37  38
ENDBRANCH  36  37
ENDBRANCH  35  36
ENDBRANCH  34  35
ENDBRANCH   1  34
TORSDOF 22
ENDMDL
MODEL 3
REMARK VINA RESULT:      -9.1      3.698      9.826
REMARK SMILES CCc1cccc(CC)c1N1/C(=[NH+]/C(=O)CCCC(=O)NCCCCCCNC(=O)c2ccc(-c3c4nc(c(-c5cc(S(=O)(=O)[O-])ccc5F)c5ccc([nH]5)c(-c5cc(S(=O)(=O)[O-])ccc5F)c5nc(c(-c6cc(S(=O)(=O)[O-])ccc6F)c6ccc3[nH]6)C=C5)C=C4)cc2)S[C@@H]2CS(=O)(=O)C[C@@H]21
REMARK SMILES IDX 23 1 22 2 21 3 19 4 20 5 18 7 17 8 16 9 14 10 11 11 12 12
REMARK SMILES IDX 101 13 13 14 94 15 95 16 100 17 96 19 97 20 15 21 98 22
REMARK SMILES IDX 99 23 10 24 3 25 4 26 5 27 7 28 6 29 2 30 1 31 8 32 9 33
REMARK SMILES IDX 24 34 25 35 26 36 27 37 28 38 29 39 30 41 31 42 32 43 93 44
REMARK SMILES IDX 33 45 92 46 34 47 35 48 36 49 86 50 37 51 91 52 85 53 87 54
REMARK SMILES IDX 38 55 90 56 84 57 83 58 39 60 71 61 51 62 70 63 52 64 55 65
REMARK SMILES IDX 69 66 88 67 53 68 54 69 68 71 89 72 56 73 40 74 41 75 49 76
REMARK SMILES IDX 42 77 48 78 50 79 47 80 43 81 44 82 45 83 46 84 72 85 73 86
REMARK SMILES IDX 81 87 74 88 80 89 82 90 79 91 75 92 76 93 77 94 78 95 57 96
REMARK SMILES IDX 58 97 66 98 59 99 65 100 67 101 64 102 60 103 61 104 62 105
REMARK SMILES IDX 63 106
REMARK H PARENT 21 6 13 18 28 40 87 59 55 70
REMARK Flexibility Score: inf
ROOT
ATOM      1  C   UNL A   1      38.067  32.224  29.448  1.00  0.00     0.021 C 
ENDROOT
BRANCH   1   2
ATOM      2  C   UNL A   1      37.557  30.893  28.898  1.00  0.00     0.116 C 
BRANCH   2   3
ATOM      3  N   UNL A   1      37.870  29.833  29.830  1.00  0.00    -0.356 N 
ATOM      4  C   UNL A   1      38.340  28.583  29.566  1.00  0.00     0.220 C 
ATOM      5  O   UNL A   1      38.352  27.753  30.476  1.00  0.00    -0.275 OA
ATOM      6  H   UNL A   1      37.723  30.042  30.780  1.00  0.00     0.163 HD
BRANCH   4   7
ATOM      7  C   UNL A   1      38.915  28.265  28.201  1.00  0.00     0.100 C 
BRANCH   7   8
ATOM      8  C   UNL A   1      40.337  28.719  27.895  1.00  0.00     0.022 C 
BRANCH   8   9
ATOM      9  C   UNL A   1      40.731  28.799  26.415  1.00  0.00     0.128 C 
BRANCH   9  10
ATOM     10  C   UNL A   1      42.084  28.194  26.042  1.00  0.00     0.307 C 
ATOM     11  N   UNL A   1      44.495  25.924  27.572  1.00  0.00    -0.216 N 
ATOM     12  C   UNL A   1      43.781  27.040  27.126  1.00  0.00     0.319 C 
ATOM     13  C   UNL A   1      45.967  25.996  27.386  1.00  0.00     0.212 C 
ATOM     14  N   UNL A   1      42.531  27.134  26.810  1.00  0.00    -0.204 N 
ATOM     15  S   UNL A   1      44.940  28.389  26.976  1.00  0.00    -0.029 SA
ATOM     16  C   UNL A   1      46.243  27.227  26.503  1.00  0.00     0.120 C 
ATOM     17  C   UNL A   1      46.600  24.791  26.697  1.00  0.00     0.188 C 
ATOM     18  H   UNL A   1      41.895  26.448  27.117  1.00  0.00     0.316 HD
ATOM     19  C   UNL A   1      46.065  26.825  25.045  1.00  0.00     0.156 C 
ATOM     20  S   UNL A   1      46.717  25.181  24.967  1.00  0.00     0.155 S 
ATOM     21  O   UNL A   1      42.657  28.581  25.024  1.00  0.00    -0.247 OA
ATOM     22  O   UNL A   1      45.791  24.337  24.233  1.00  0.00    -0.229 OA
ATOM     23  O   UNL A   1      48.117  25.261  24.622  1.00  0.00    -0.229 OA
BRANCH  11  24
ATOM     24  C   UNL A   1      43.972  24.763  28.193  1.00  0.00     0.134 A 
ATOM     25  C   UNL A   1      44.056  24.589  29.601  1.00  0.00    -0.001 A 
ATOM     26  C   UNL A   1      43.412  23.497  30.224  1.00  0.00     0.008 A 
ATOM     27  C   UNL A   1      42.683  22.578  29.491  1.00  0.00     0.001 A 
ATOM     28  C   UNL A   1      43.227  23.798  27.445  1.00  0.00    -0.001 A 
ATOM     29  C   UNL A   1      42.582  22.736  28.118  1.00  0.00     0.008 A 
BRANCH  25  30
ATOM     30  C   UNL A   1      44.776  25.549  30.525  1.00  0.00     0.036 C 
ATOM     31  C   UNL A   1      45.103  24.886  31.855  1.00  0.00     0.009 C 
ENDBRANCH  25  30
BRANCH  28  32
ATOM     32  C   UNL A   1      43.016  23.888  25.941  1.00  0.00     0.036 C 
ATOM     33  C   UNL A   1      43.049  22.559  25.191  1.00  0.00     0.009 C 
ENDBRANCH  28  32
ENDBRANCH  11  24
ENDBRANCH   9  10
ENDBRANCH   8   9
ENDBRANCH   7   8
ENDBRANCH   4   7
ENDBRANCH   2   3
ENDBRANCH   1   2
BRANCH   1  34
ATOM     34  C   UNL A   1      37.113  33.374  29.140  1.00  0.00     0.002 C 
BRANCH  34  35
ATOM     35  C   UNL A   1      36.504  34.010  30.395  1.00  0.00     0.002 C 
BRANCH  35  36
ATOM     36  C   UNL A   1      35.040  33.645  30.657  1.00  0.00     0.021 C 
BRANCH  36  37
ATOM     37  C   UNL A   1      34.842  32.570  31.721  1.00  0.00     0.116 C 
BRANCH  37  38
ATOM     38  N   UNL A   1      34.764  33.151  33.054  1.00  0.00    -0.352 N 
ATOM     39  C   UNL A   1      35.712  33.159  34.043  1.00  0.00     0.251 C 
ATOM     40  H   UNL A   1      33.915  33.598  33.273  1.00  0.00     0.163 HD
ATOM     41  O   UNL A   1      35.403  33.453  35.193  1.00  0.00    -0.269 OA
BRANCH  39  42
ATOM     42  C   UNL A   1      37.102  32.799  33.703  1.00  0.00     0.039 A 
ATOM     43  C   UNL A   1      38.142  33.666  34.044  1.00  0.00     0.014 A 
ATOM     44  C   UNL A   1      37.368  31.589  33.055  1.00  0.00     0.014 A 
ATOM     45  C   UNL A   1      39.461  33.296  33.779  1.00  0.00     0.010 A 
ATOM     46  C   UNL A   1      38.685  31.190  32.859  1.00  0.00     0.010 A 
ATOM     47  C   UNL A   1      39.743  32.044  33.209  1.00  0.00    -0.014 A 
BRANCH  47  48
ATOM     48  C   UNL A   1      41.132  31.609  32.917  1.00  0.00     0.031 A 
ATOM     49  C   UNL A   1      41.839  32.175  31.717  1.00  0.00     0.074 A 
ATOM     50  C   UNL A   1      41.711  30.649  33.661  1.00  0.00     0.049 A 
ATOM     51  N   UNL A   1      42.976  31.818  31.176  1.00  0.00    -0.248 NA
ATOM     52  C   UNL A   1      41.150  33.263  31.008  1.00  0.00     0.031 C 
ATOM     53  C   UNL A   1      41.111  30.010  34.834  1.00  0.00     0.029 A 
ATOM     54  N   UNL A   1      42.925  30.025  33.528  1.00  0.00    -0.354 N 
ATOM     55  C   UNL A   1      43.123  32.617  30.047  1.00  0.00     0.074 A 
ATOM     56  C   UNL A   1      41.928  33.429  29.950  1.00  0.00     0.031 C 
ATOM     57  C   UNL A   1      41.962  29.091  35.316  1.00  0.00     0.029 A 
ATOM     58  C   UNL A   1      43.142  29.035  34.458  1.00  0.00     0.049 A 
ATOM     59  H   UNL A   1      43.579  30.262  32.831  1.00  0.00     0.167 HD
ATOM     60  C   UNL A   1      44.167  32.679  29.185  1.00  0.00     0.034 A 
ATOM     61  C   UNL A   1      44.163  28.164  34.588  1.00  0.00     0.034 A 
ATOM     62  C   UNL A   1      45.352  31.866  29.311  1.00  0.00     0.049 A 
ATOM     63  C   UNL A   1      45.304  28.228  33.603  1.00  0.00     0.074 A 
ATOM     64  C   UNL A   1      46.493  31.877  28.530  1.00  0.00     0.029 A 
ATOM     65  N   UNL A   1      45.544  30.888  30.280  1.00  0.00    -0.354 N 
ATOM     66  N   UNL A   1      45.449  29.009  32.558  1.00  0.00    -0.248 NA
ATOM     67  C   UNL A   1      46.421  27.301  33.821  1.00  0.00     0.031 C 
ATOM     68  C   UNL A   1      47.341  30.858  28.977  1.00  0.00     0.029 A 
ATOM     69  C   UNL A   1      46.772  30.270  30.096  1.00  0.00     0.049 A 
ATOM     70  H   UNL A   1      44.902  30.665  30.993  1.00  0.00     0.167 HD
ATOM     71  C   UNL A   1      46.693  28.694  32.017  1.00  0.00     0.074 A 
ATOM     72  C   UNL A   1      47.255  27.652  32.851  1.00  0.00     0.031 C 
ATOM     73  C   UNL A   1      47.319  29.230  30.938  1.00  0.00     0.034 A 
BRANCH  60  74
ATOM     74  C   UNL A   1      44.043  33.630  28.016  1.00  0.00     0.023 A 
ATOM     75  C   UNL A   1      44.065  35.026  28.192  1.00  0.00     0.031 A 
ATOM     76  C   UNL A   1      43.844  33.139  26.714  1.00  0.00     0.131 A 
ATOM     77  C   UNL A   1      43.788  35.874  27.109  1.00  0.00     0.055 A 
ATOM     78  C   UNL A   1      43.667  33.992  25.622  1.00  0.00     0.041 A 
ATOM     79  F   UNL A   1      43.792  31.818  26.481  1.00  0.00    -0.206 F 
ATOM     80  C   UNL A   1      43.617  35.368  25.820  1.00  0.00     0.022 A 
BRANCH  77  81
ATOM     81  S   UNL A   1      43.469  37.628  27.449  1.00  0.00     0.124 S 
ATOM     82  O   UNL A   1      44.776  38.222  27.180  1.00  0.00    -0.237 OA
ATOM     83  O   UNL A   1      42.413  37.947  26.496  1.00  0.00    -0.237 OA
ATOM     84  O   UNL A   1      43.067  37.636  28.854  1.00  0.00    -0.744 OA
ENDBRANCH  77  81
ENDBRANCH  60  74
BRANCH  61  85
ATOM     85  C   UNL A   1      44.148  27.152  35.682  1.00  0.00     0.023 A 
ATOM     86  C   UNL A   1      44.708  27.433  36.937  1.00  0.00     0.031 A 
ATOM     87  C   UNL A   1      43.579  25.881  35.483  1.00  0.00     0.131 A 
ATOM     88  C   UNL A   1      44.721  26.445  37.935  1.00  0.00     0.055 A 
ATOM     89  C   UNL A   1      43.551  24.917  36.493  1.00  0.00     0.041 A 
ATOM     90  F   UNL A   1      43.020  25.564  34.304  1.00  0.00    -0.206 F 
ATOM     91  C   UNL A   1      44.135  25.195  37.725  1.00  0.00     0.022 A 
BRANCH  88  92
ATOM     92  S   UNL A   1      45.575  26.795  39.496  1.00  0.00     0.124 S 
ATOM     93  O   UNL A   1      44.522  27.444  40.270  1.00  0.00    -0.237 OA
ATOM     94  O   UNL A   1      45.965  25.460  39.934  1.00  0.00    -0.237 OA
ATOM     95  O   UNL A   1      46.679  27.663  39.091  1.00  0.00    -0.744 OA
ENDBRANCH  88  92
ENDBRANCH  61  85
BRANCH  73  96
ATOM     96  C   UNL A   1      48.718  28.750  30.637  1.00  0.00     0.023 A 
ATOM     97  C   UNL A   1      48.988  27.806  29.632  1.00  0.00     0.031 A 
ATOM     98  C   UNL A   1      49.805  29.276  31.361  1.00  0.00     0.131 A 
ATOM     99  C   UNL A   1      50.309  27.389  29.404  1.00  0.00     0.055 A 
ATOM    100  C   UNL A   1      51.120  28.901  31.091  1.00  0.00     0.041 A 
ATOM    101  F   UNL A   1      49.603  30.179  32.335  1.00  0.00    -0.206 F 
ATOM    102  C   UNL A   1      51.377  27.946  30.113  1.00  0.00     0.022 A 
BRANCH  99 103
ATOM    103  S   UNL A   1      50.611  26.054  28.215  1.00  0.00     0.124 S 
ATOM    104  O   UNL A   1      49.980  26.574  27.007  1.00  0.00    -0.237 OA
ATOM    105  O   UNL A   1      52.067  25.979  28.193  1.00  0.00    -0.237 OA
ATOM    106  O   UNL A   1      49.941  24.901  28.816  1.00  0.00    -0.744 OA
ENDBRANCH  99 103
ENDBRANCH  73  96
ENDBRANCH  47  48
ENDBRANCH  39  42
ENDBRANCH  37  38
ENDBRANCH  36  37
ENDBRANCH  35  36
ENDBRANCH  34  35
ENDBRANCH   1  34
TORSDOF 22
ENDMDL
