MODEL 1
REMARK VINA RESULT:     -10.0      0.000      0.000
REMARK SMILES CC[C@H](O)C[C@@H](Cc1ccccc1OC)C(=O)NCCCCCCNC(=O)c1ccc(-c2c3nc(c(-c4cc(S(=O)(=O)[O-])ccc4F)c4ccc([nH]4)c(-c4cc(S(=O)(=O)[O-])ccc4F)c4nc(c(-c5cc(S(=O)(=O)[O-])ccc5F)c5ccc2[nH]5)C=C4)C=C3)cc1
REMARK SMILES IDX 21 1 20 2 19 3 18 4 16 5 17 6 6 8 5 9 3 10 2 11 1 12 4 13
REMARK SMILES IDX 7 15 8 16 9 17 13 18 10 19 12 20 11 21 14 22 15 23 22 24
REMARK SMILES IDX 23 25 24 26 25 27 26 28 27 30 28 31 29 32 90 33 30 34 89 35
REMARK SMILES IDX 31 36 32 37 33 38 83 39 34 40 88 41 82 42 84 43 35 44 87 45
REMARK SMILES IDX 81 46 80 47 36 49 68 50 48 51 67 52 49 53 52 54 66 55 85 56
REMARK SMILES IDX 50 57 51 58 65 60 86 61 53 62 37 63 38 64 46 65 39 66 45 67
REMARK SMILES IDX 47 68 44 69 40 70 41 71 42 72 43 73 69 74 70 75 78 76 71 77
REMARK SMILES IDX 77 78 79 79 76 80 72 81 73 82 74 83 75 84 54 85 55 86 63 87
REMARK SMILES IDX 56 88 62 89 64 90 61 91 57 92 58 93 59 94 60 95
REMARK H PARENT 18 7 4 14 25 29 84 48 52 59
REMARK Flexibility Score: inf
ROOT
ATOM      1  C   UNL A   1      35.535  21.053  25.054  1.00  0.00     0.002 C 
ENDROOT
BRANCH   1   2
ATOM      2  C   UNL A   1      34.396  21.121  26.074  1.00  0.00     0.021 C 
BRANCH   2   3
ATOM      3  C   UNL A   1      34.306  22.433  26.840  1.00  0.00     0.116 C 
BRANCH   3   4
ATOM      4  N   UNL A   1      32.992  22.709  27.375  1.00  0.00    -0.356 N 
ATOM      5  C   UNL A   1      31.973  23.446  26.855  1.00  0.00     0.223 C 
ATOM      6  O   UNL A   1      30.862  23.315  27.381  1.00  0.00    -0.275 OA
ATOM      7  H   UNL A   1      32.805  22.301  28.252  1.00  0.00     0.163 HD
BRANCH   5   8
ATOM      8  C   UNL A   1      32.150  24.420  25.683  1.00  0.00     0.085 C 
BRANCH   8   9
ATOM      9  C   UNL A   1      31.576  23.898  24.354  1.00  0.00     0.045 C 
BRANCH   9  10
ATOM     10  C   UNL A   1      32.558  23.066  23.514  1.00  0.00     0.115 C 
BRANCH  10  11
ATOM     11  C   UNL A   1      33.571  23.998  22.831  1.00  0.00     0.028 C 
ATOM     12  C   UNL A   1      32.941  25.058  21.944  1.00  0.00     0.006 C 
ENDBRANCH  10  11
BRANCH  10  13
ATOM     13  O   UNL A   1      31.820  22.315  22.560  1.00  0.00    -0.393 OA
ATOM     14  H   UNL A   1      32.396  21.640  22.165  1.00  0.00     0.210 HD
ENDBRANCH  10  13
ENDBRANCH   9  10
ENDBRANCH   8   9
BRANCH   8  15
ATOM     15  C   UNL A   1      31.892  25.894  26.054  1.00  0.00     0.053 C 
BRANCH  15  16
ATOM     16  C   UNL A   1      31.711  26.928  24.966  1.00  0.00    -0.005 A 
ATOM     17  C   UNL A   1      32.837  27.653  24.524  1.00  0.00     0.007 A 
ATOM     18  C   UNL A   1      30.479  27.187  24.338  1.00  0.00     0.122 A 
ATOM     19  C   UNL A   1      32.758  28.537  23.446  1.00  0.00     0.001 A 
ATOM     20  C   UNL A   1      30.403  28.085  23.264  1.00  0.00     0.047 A 
ATOM     21  C   UNL A   1      31.541  28.753  22.813  1.00  0.00     0.004 A 
BRANCH  18  22
ATOM     22  O   UNL A   1      29.330  26.485  24.589  1.00  0.00    -0.496 OA
ATOM     23  C   UNL A   1      28.214  26.878  23.795  1.00  0.00     0.278 C 
ENDBRANCH  18  22
ENDBRANCH  15  16
ENDBRANCH   8  15
ENDBRANCH   5   8
ENDBRANCH   3   4
ENDBRANCH   2   3
ENDBRANCH   1   2
BRANCH   1  24
ATOM     24  C   UNL A   1      36.321  19.737  25.009  1.00  0.00     0.002 C 
BRANCH  24  25
ATOM     25  C   UNL A   1      37.813  19.846  24.672  1.00  0.00     0.021 C 
BRANCH  25  26
ATOM     26  C   UNL A   1      38.728  20.252  25.823  1.00  0.00     0.116 C 
BRANCH  26  27
ATOM     27  N   UNL A   1      39.843  19.337  25.996  1.00  0.00    -0.352 N 
ATOM     28  C   UNL A   1      41.169  19.581  26.232  1.00  0.00     0.251 C 
ATOM     29  H   UNL A   1      39.605  18.384  25.932  1.00  0.00     0.163 HD
ATOM     30  O   UNL A   1      41.964  18.639  26.165  1.00  0.00    -0.269 OA
BRANCH  28  31
ATOM     31  C   UNL A   1      41.667  20.942  26.538  1.00  0.00     0.039 A 
ATOM     32  C   UNL A   1      41.882  21.825  25.474  1.00  0.00     0.014 A 
ATOM     33  C   UNL A   1      41.975  21.345  27.841  1.00  0.00     0.014 A 
ATOM     34  C   UNL A   1      42.349  23.118  25.720  1.00  0.00     0.010 A 
ATOM     35  C   UNL A   1      42.377  22.660  28.092  1.00  0.00     0.010 A 
ATOM     36  C   UNL A   1      42.571  23.560  27.034  1.00  0.00    -0.014 A 
BRANCH  36  37
ATOM     37  C   UNL A   1      42.995  24.962  27.300  1.00  0.00     0.031 A 
ATOM     38  C   UNL A   1      42.051  25.942  27.943  1.00  0.00     0.074 A 
ATOM     39  C   UNL A   1      44.230  25.358  26.931  1.00  0.00     0.049 A 
ATOM     40  N   UNL A   1      42.245  27.202  28.243  1.00  0.00    -0.248 NA
ATOM     41  C   UNL A   1      40.705  25.448  28.266  1.00  0.00     0.031 C 
ATOM     42  C   UNL A   1      45.220  24.513  26.259  1.00  0.00     0.029 A 
ATOM     43  N   UNL A   1      44.866  26.567  27.067  1.00  0.00    -0.354 N 
ATOM     44  C   UNL A   1      41.046  27.653  28.788  1.00  0.00     0.074 A 
ATOM     45  C   UNL A   1      40.115  26.547  28.715  1.00  0.00     0.031 C 
ATOM     46  C   UNL A   1      46.346  25.219  26.071  1.00  0.00     0.029 A 
ATOM     47  C   UNL A   1      46.148  26.576  26.569  1.00  0.00     0.049 A 
ATOM     48  H   UNL A   1      44.443  27.353  27.482  1.00  0.00     0.167 HD
ATOM     49  C   UNL A   1      40.757  28.868  29.317  1.00  0.00     0.034 A 
ATOM     50  C   UNL A   1      47.062  27.565  26.517  1.00  0.00     0.034 A 
ATOM     51  C   UNL A   1      41.701  29.960  29.389  1.00  0.00     0.049 A 
ATOM     52  C   UNL A   1      46.713  28.911  27.098  1.00  0.00     0.074 A 
ATOM     53  C   UNL A   1      41.531  31.211  29.958  1.00  0.00     0.029 A 
ATOM     54  N   UNL A   1      42.987  29.937  28.866  1.00  0.00    -0.354 N 
ATOM     55  N   UNL A   1      45.595  29.302  27.664  1.00  0.00    -0.248 NA
ATOM     56  C   UNL A   1      47.756  29.944  27.046  1.00  0.00     0.031 C 
ATOM     57  C   UNL A   1      42.687  31.965  29.718  1.00  0.00     0.029 A 
ATOM     58  C   UNL A   1      43.609  31.162  29.067  1.00  0.00     0.049 A 
ATOM     59  H   UNL A   1      43.400  29.163  28.417  1.00  0.00     0.167 HD
ATOM     60  C   UNL A   1      45.809  30.620  28.054  1.00  0.00     0.074 A 
ATOM     61  C   UNL A   1      47.170  30.947  27.682  1.00  0.00     0.031 C 
ATOM     62  C   UNL A   1      44.960  31.484  28.668  1.00  0.00     0.034 A 
BRANCH  49  63
ATOM     63  C   UNL A   1      39.355  29.085  29.838  1.00  0.00     0.023 A 
ATOM     64  C   UNL A   1      38.396  29.807  29.104  1.00  0.00     0.031 A 
ATOM     65  C   UNL A   1      38.974  28.582  31.095  1.00  0.00     0.131 A 
ATOM     66  C   UNL A   1      37.136  30.070  29.662  1.00  0.00     0.055 A 
ATOM     67  C   UNL A   1      37.690  28.776  31.610  1.00  0.00     0.041 A 
ATOM     68  F   UNL A   1      39.849  27.901  31.852  1.00  0.00    -0.206 F 
ATOM     69  C   UNL A   1      36.767  29.538  30.899  1.00  0.00     0.022 A 
BRANCH  66  70
ATOM     70  S   UNL A   1      36.039  31.237  28.812  1.00  0.00     0.124 S 
ATOM     71  O   UNL A   1      35.083  31.566  29.866  1.00  0.00    -0.237 OA
ATOM     72  O   UNL A   1      36.954  32.304  28.422  1.00  0.00    -0.237 OA
ATOM     73  O   UNL A   1      35.491  30.451  27.708  1.00  0.00    -0.744 OA
ENDBRANCH  66  70
ENDBRANCH  49  63
BRANCH  50  74
ATOM     74  C   UNL A   1      48.394  27.329  25.887  1.00  0.00     0.023 A 
ATOM     75  C   UNL A   1      48.586  27.511  24.509  1.00  0.00     0.031 A 
ATOM     76  C   UNL A   1      49.485  26.879  26.653  1.00  0.00     0.131 A 
ATOM     77  C   UNL A   1      49.827  27.201  23.930  1.00  0.00     0.055 A 
ATOM     78  C   UNL A   1      50.732  26.623  26.081  1.00  0.00     0.041 A 
ATOM     79  F   UNL A   1      49.355  26.694  27.976  1.00  0.00    -0.206 F 
ATOM     80  C   UNL A   1      50.904  26.771  24.708  1.00  0.00     0.022 A 
BRANCH  77  81
ATOM     81  S   UNL A   1      49.989  27.291  22.126  1.00  0.00     0.124 S 
ATOM     82  O   UNL A   1      51.363  26.842  21.928  1.00  0.00    -0.237 OA
ATOM     83  O   UNL A   1      48.944  26.374  21.682  1.00  0.00    -0.237 OA
ATOM     84  O   UNL A   1      49.744  28.701  21.832  1.00  0.00    -0.744 OA
ENDBRANCH  77  81
ENDBRANCH  50  74
BRANCH  62  85
ATOM     85  C   UNL A   1      45.500  32.856  28.992  1.00  0.00     0.023 A 
ATOM     86  C   UNL A   1      45.464  33.904  28.056  1.00  0.00     0.031 A 
ATOM     87  C   UNL A   1      46.090  33.109  30.244  1.00  0.00     0.131 A 
ATOM     88  C   UNL A   1      46.063  35.135  28.359  1.00  0.00     0.055 A 
ATOM     89  C   UNL A   1      46.627  34.357  30.564  1.00  0.00     0.041 A 
ATOM     90  F   UNL A   1      46.155  32.146  31.177  1.00  0.00    -0.206 F 
ATOM     91  C   UNL A   1      46.630  35.373  29.613  1.00  0.00     0.022 A 
BRANCH  88  92
ATOM     92  S   UNL A   1      46.187  36.387  27.053  1.00  0.00     0.124 S 
ATOM     93  O   UNL A   1      47.421  37.080  27.412  1.00  0.00    -0.237 OA
ATOM     94  O   UNL A   1      46.242  35.573  25.843  1.00  0.00    -0.237 OA
ATOM     95  O   UNL A   1      44.966  37.175  27.215  1.00  0.00    -0.744 OA
ENDBRANCH  88  92
ENDBRANCH  62  85
ENDBRANCH  36  37
ENDBRANCH  28  31
ENDBRANCH  26  27
ENDBRANCH  25  26
ENDBRANCH  24  25
ENDBRANCH   1  24
TORSDOF 23
ENDMDL
MODEL 2
REMARK VINA RESULT:     -10.0      6.243      9.895
REMARK SMILES CC[C@H](O)C[C@@H](Cc1ccccc1OC)C(=O)NCCCCCCNC(=O)c1ccc(-c2c3nc(c(-c4cc(S(=O)(=O)[O-])ccc4F)c4ccc([nH]4)c(-c4cc(S(=O)(=O)[O-])ccc4F)c4nc(c(-c5cc(S(=O)(=O)[O-])ccc5F)c5ccc2[nH]5)C=C4)C=C3)cc1
REMARK SMILES IDX 21 1 20 2 19 3 18 4 16 5 17 6 6 8 5 9 3 10 2 11 1 12 4 13
REMARK SMILES IDX 7 15 8 16 9 17 13 18 10 19 12 20 11 21 14 22 15 23 22 24
REMARK SMILES IDX 23 25 24 26 25 27 26 28 27 30 28 31 29 32 90 33 30 34 89 35
REMARK SMILES IDX 31 36 32 37 33 38 83 39 34 40 88 41 82 42 84 43 35 44 87 45
REMARK SMILES IDX 81 46 80 47 36 49 68 50 48 51 67 52 49 53 52 54 66 55 85 56
REMARK SMILES IDX 50 57 51 58 65 60 86 61 53 62 37 63 38 64 46 65 39 66 45 67
REMARK SMILES IDX 47 68 44 69 40 70 41 71 42 72 43 73 69 74 70 75 78 76 71 77
REMARK SMILES IDX 77 78 79 79 76 80 72 81 73 82 74 83 75 84 54 85 55 86 63 87
REMARK SMILES IDX 56 88 62 89 64 90 61 91 57 92 58 93 59 94 60 95
REMARK H PARENT 18 7 4 14 25 29 84 48 52 59
REMARK Flexibility Score: inf
ROOT
ATOM      1  C   UNL A   1      34.901  30.993  28.610  1.00  0.00     0.002 C 
ENDROOT
BRANCH   1   2
ATOM      2  C   UNL A   1      35.440  29.778  27.854  1.00  0.00     0.021 C 
BRANCH   2   3
ATOM      3  C   UNL A   1      34.408  29.047  27.006  1.00  0.00     0.116 C 
BRANCH   3   4
ATOM      4  N   UNL A   1      33.125  28.892  27.651  1.00  0.00    -0.356 N 
ATOM      5  C   UNL A   1      31.990  28.286  27.205  1.00  0.00     0.223 C 
ATOM      6  O   UNL A   1      31.111  28.059  28.044  1.00  0.00    -0.275 OA
ATOM      7  H   UNL A   1      33.060  29.285  28.551  1.00  0.00     0.163 HD
BRANCH   5   8
ATOM      8  C   UNL A   1      31.760  27.902  25.738  1.00  0.00     0.085 C 
BRANCH   8   9
ATOM      9  C   UNL A   1      31.615  29.112  24.799  1.00  0.00     0.045 C 
BRANCH   9  10
ATOM     10  C   UNL A   1      30.284  29.176  24.034  1.00  0.00     0.115 C 
BRANCH  10  11
ATOM     11  C   UNL A   1      30.118  27.913  23.177  1.00  0.00     0.028 C 
ATOM     12  C   UNL A   1      29.004  26.989  23.638  1.00  0.00     0.006 C 
ENDBRANCH  10  11
BRANCH  10  13
ATOM     13  O   UNL A   1      30.271  30.351  23.235  1.00  0.00    -0.393 OA
ATOM     14  H   UNL A   1      29.783  31.052  23.697  1.00  0.00     0.210 HD
ENDBRANCH  10  13
ENDBRANCH   9  10
ENDBRANCH   8   9
BRANCH   8  15
ATOM     15  C   UNL A   1      32.619  26.713  25.263  1.00  0.00     0.053 C 
BRANCH  15  16
ATOM     16  C   UNL A   1      32.075  25.305  25.347  1.00  0.00    -0.005 A 
ATOM     17  C   UNL A   1      31.799  24.759  26.617  1.00  0.00     0.007 A 
ATOM     18  C   UNL A   1      31.794  24.512  24.219  1.00  0.00     0.122 A 
ATOM     19  C   UNL A   1      31.189  23.510  26.758  1.00  0.00     0.001 A 
ATOM     20  C   UNL A   1      31.193  23.254  24.366  1.00  0.00     0.047 A 
ATOM     21  C   UNL A   1      30.885  22.756  25.631  1.00  0.00     0.004 A 
BRANCH  18  22
ATOM     22  O   UNL A   1      31.911  24.952  22.927  1.00  0.00    -0.496 OA
ATOM     23  C   UNL A   1      33.209  24.783  22.363  1.00  0.00     0.278 C 
ENDBRANCH  18  22
ENDBRANCH  15  16
ENDBRANCH   8  15
ENDBRANCH   5   8
ENDBRANCH   3   4
ENDBRANCH   2   3
ENDBRANCH   1   2
BRANCH   1  24
ATOM     24  C   UNL A   1      34.847  32.308  27.821  1.00  0.00     0.002 C 
BRANCH  24  25
ATOM     25  C   UNL A   1      33.564  33.135  27.965  1.00  0.00     0.021 C 
BRANCH  25  26
ATOM     26  C   UNL A   1      33.757  34.642  28.114  1.00  0.00     0.116 C 
BRANCH  26  27
ATOM     27  N   UNL A   1      33.152  35.162  29.327  1.00  0.00    -0.352 N 
ATOM     28  C   UNL A   1      33.433  34.912  30.643  1.00  0.00     0.251 C 
ATOM     29  H   UNL A   1      32.417  35.801  29.177  1.00  0.00     0.163 HD
ATOM     30  O   UNL A   1      32.660  35.342  31.504  1.00  0.00    -0.269 OA
BRANCH  28  31
ATOM     31  C   UNL A   1      34.620  34.124  31.048  1.00  0.00     0.039 A 
ATOM     32  C   UNL A   1      35.884  34.583  30.662  1.00  0.00     0.014 A 
ATOM     33  C   UNL A   1      34.508  32.922  31.753  1.00  0.00     0.014 A 
ATOM     34  C   UNL A   1      37.029  33.870  31.026  1.00  0.00     0.010 A 
ATOM     35  C   UNL A   1      35.657  32.246  32.174  1.00  0.00     0.010 A 
ATOM     36  C   UNL A   1      36.930  32.712  31.813  1.00  0.00    -0.014 A 
BRANCH  36  37
ATOM     37  C   UNL A   1      38.154  31.997  32.264  1.00  0.00     0.031 A 
ATOM     38  C   UNL A   1      38.799  32.332  33.582  1.00  0.00     0.074 A 
ATOM     39  C   UNL A   1      38.703  31.060  31.465  1.00  0.00     0.049 A 
ATOM     40  N   UNL A   1      39.871  31.819  34.133  1.00  0.00    -0.248 NA
ATOM     41  C   UNL A   1      38.173  33.402  34.371  1.00  0.00     0.031 C 
ATOM     42  C   UNL A   1      38.196  30.678  30.144  1.00  0.00     0.029 A 
ATOM     43  N   UNL A   1      39.802  30.257  31.641  1.00  0.00    -0.354 N 
ATOM     44  C   UNL A   1      40.049  32.505  35.331  1.00  0.00     0.074 A 
ATOM     45  C   UNL A   1      39.011  33.512  35.391  1.00  0.00     0.031 C 
ATOM     46  C   UNL A   1      38.964  29.695  29.646  1.00  0.00     0.029 A 
ATOM     47  C   UNL A   1      40.039  29.404  30.588  1.00  0.00     0.049 A 
ATOM     48  H   UNL A   1      40.369  30.290  32.445  1.00  0.00     0.167 HD
ATOM     49  C   UNL A   1      40.979  32.298  36.298  1.00  0.00     0.034 A 
ATOM     50  C   UNL A   1      41.013  28.491  30.399  1.00  0.00     0.034 A 
ATOM     51  C   UNL A   1      42.004  31.283  36.226  1.00  0.00     0.049 A 
ATOM     52  C   UNL A   1      42.043  28.291  31.481  1.00  0.00     0.074 A 
ATOM     53  C   UNL A   1      42.956  30.950  37.174  1.00  0.00     0.029 A 
ATOM     54  N   UNL A   1      42.220  30.444  35.140  1.00  0.00    -0.354 N 
ATOM     55  N   UNL A   1      42.160  28.907  32.634  1.00  0.00    -0.248 NA
ATOM     56  C   UNL A   1      43.062  27.261  31.240  1.00  0.00     0.031 C 
ATOM     57  C   UNL A   1      43.788  29.961  36.635  1.00  0.00     0.029 A 
ATOM     58  C   UNL A   1      43.310  29.619  35.381  1.00  0.00     0.049 A 
ATOM     59  H   UNL A   1      41.677  30.435  34.318  1.00  0.00     0.167 HD
ATOM     60  C   UNL A   1      43.254  28.322  33.265  1.00  0.00     0.074 A 
ATOM     61  C   UNL A   1      43.744  27.290  32.375  1.00  0.00     0.031 C 
ATOM     62  C   UNL A   1      43.805  28.610  34.473  1.00  0.00     0.034 A 
BRANCH  49  63
ATOM     63  C   UNL A   1      40.940  33.207  37.506  1.00  0.00     0.023 A 
ATOM     64  C   UNL A   1      40.194  32.882  38.653  1.00  0.00     0.031 A 
ATOM     65  C   UNL A   1      41.642  34.426  37.505  1.00  0.00     0.131 A 
ATOM     66  C   UNL A   1      40.104  33.795  39.715  1.00  0.00     0.055 A 
ATOM     67  C   UNL A   1      41.616  35.293  38.600  1.00  0.00     0.041 A 
ATOM     68  F   UNL A   1      42.357  34.801  36.433  1.00  0.00    -0.206 F 
ATOM     69  C   UNL A   1      40.831  34.987  39.707  1.00  0.00     0.022 A 
BRANCH  66  70
ATOM     70  S   UNL A   1      38.912  33.466  41.041  1.00  0.00     0.124 S 
ATOM     71  O   UNL A   1      39.220  34.536  41.987  1.00  0.00    -0.237 OA
ATOM     72  O   UNL A   1      37.632  33.572  40.349  1.00  0.00    -0.237 OA
ATOM     73  O   UNL A   1      39.266  32.123  41.495  1.00  0.00    -0.744 OA
ENDBRANCH  66  70
ENDBRANCH  49  63
BRANCH  50  74
ATOM     74  C   UNL A   1      41.070  27.700  29.136  1.00  0.00     0.023 A 
ATOM     75  C   UNL A   1      42.046  27.961  28.162  1.00  0.00     0.031 A 
ATOM     76  C   UNL A   1      40.122  26.696  28.870  1.00  0.00     0.131 A 
ATOM     77  C   UNL A   1      42.026  27.257  26.946  1.00  0.00     0.055 A 
ATOM     78  C   UNL A   1      40.139  25.962  27.682  1.00  0.00     0.041 A 
ATOM     79  F   UNL A   1      39.172  26.403  29.771  1.00  0.00    -0.206 F 
ATOM     80  C   UNL A   1      41.087  26.252  26.705  1.00  0.00     0.022 A 
BRANCH  77  81
ATOM     81  S   UNL A   1      43.197  27.735  25.647  1.00  0.00     0.124 S 
ATOM     82  O   UNL A   1      43.912  26.484  25.416  1.00  0.00    -0.237 OA
ATOM     83  O   UNL A   1      42.304  28.170  24.579  1.00  0.00    -0.237 OA
ATOM     84  O   UNL A   1      43.982  28.797  26.271  1.00  0.00    -0.744 OA
ENDBRANCH  77  81
ENDBRANCH  50  74
BRANCH  62  85
ATOM     85  C   UNL A   1      44.985  27.771  34.901  1.00  0.00     0.023 A 
ATOM     86  C   UNL A   1      44.815  26.516  35.511  1.00  0.00     0.031 A 
ATOM     87  C   UNL A   1      46.296  28.248  34.726  1.00  0.00     0.131 A 
ATOM     88  C   UNL A   1      45.932  25.809  35.983  1.00  0.00     0.055 A 
ATOM     89  C   UNL A   1      47.407  27.511  35.140  1.00  0.00     0.041 A 
ATOM     90  F   UNL A   1      46.519  29.441  34.152  1.00  0.00    -0.206 F 
ATOM     91  C   UNL A   1      47.227  26.292  35.786  1.00  0.00     0.022 A 
BRANCH  88  92
ATOM     92  S   UNL A   1      45.661  24.301  36.953  1.00  0.00     0.124 S 
ATOM     93  O   UNL A   1      44.565  23.666  36.227  1.00  0.00    -0.237 OA
ATOM     94  O   UNL A   1      46.956  23.635  36.862  1.00  0.00    -0.237 OA
ATOM     95  O   UNL A   1      45.315  24.804  38.281  1.00  0.00    -0.744 OA
ENDBRANCH  88  92
ENDBRANCH  62  85
ENDBRANCH  36  37
ENDBRANCH  28  31
ENDBRANCH  26  27
ENDBRANCH  25  26
ENDBRANCH  24  25
ENDBRANCH   1  24
TORSDOF 23
ENDMDL
MODEL 3
REMARK VINA RESULT:     -10.0      6.032      9.656
REMARK SMILES CC[C@H](O)C[C@@H](Cc1ccccc1OC)C(=O)NCCCCCCNC(=O)c1ccc(-c2c3nc(c(-c4cc(S(=O)(=O)[O-])ccc4F)c4ccc([nH]4)c(-c4cc(S(=O)(=O)[O-])ccc4F)c4nc(c(-c5cc(S(=O)(=O)[O-])ccc5F)c5ccc2[nH]5)C=C4)C=C3)cc1
REMARK SMILES IDX 21 1 20 2 19 3 18 4 16 5 17 6 6 8 5 9 3 10 2 11 1 12 4 13
REMARK SMILES IDX 7 15 8 16 9 17 13 18 10 19 12 20 11 21 14 22 15 23 22 24
REMARK SMILES IDX 23 25 24 26 25 27 26 28 27 30 28 31 29 32 90 33 30 34 89 35
REMARK SMILES IDX 31 36 32 37 33 38 83 39 34 40 88 41 82 42 84 43 35 44 87 45
REMARK SMILES IDX 81 46 80 47 36 49 68 50 48 51 67 52 49 53 52 54 66 55 85 56
REMARK SMILES IDX 50 57 51 58 65 60 86 61 53 62 37 63 38 64 46 65 39 66 45 67
REMARK SMILES IDX 47 68 44 69 40 70 41 71 42 72 43 73 69 74 70 75 78 76 71 77
REMARK SMILES IDX 77 78 79 79 76 80 72 81 73 82 74 83 75 84 54 85 55 86 63 87
REMARK SMILES IDX 56 88 62 89 64 90 61 91 57 92 58 93 59 94 60 95
REMARK H PARENT 18 7 4 14 25 29 84 48 52 59
REMARK Flexibility Score: inf
ROOT
ATOM      1  C   UNL A   1      32.900  30.215  26.774  1.00  0.00     0.002 C 
ENDROOT
BRANCH   1   2
ATOM      2  C   UNL A   1      32.760  28.770  27.259  1.00  0.00     0.021 C 
BRANCH   2   3
ATOM      3  C   UNL A   1      32.073  27.833  26.275  1.00  0.00     0.116 C 
BRANCH   3   4
ATOM      4  N   UNL A   1      32.563  27.944  24.921  1.00  0.00    -0.356 N 
ATOM      5  C   UNL A   1      32.910  26.971  24.034  1.00  0.00     0.223 C 
ATOM      6  O   UNL A   1      33.051  27.314  22.855  1.00  0.00    -0.275 OA
ATOM      7  H   UNL A   1      32.662  28.866  24.588  1.00  0.00     0.163 HD
BRANCH   5   8
ATOM      8  C   UNL A   1      33.144  25.509  24.435  1.00  0.00     0.085 C 
BRANCH   8   9
ATOM      9  C   UNL A   1      32.525  24.495  23.457  1.00  0.00     0.045 C 
BRANCH   9  10
ATOM     10  C   UNL A   1      31.329  23.710  24.018  1.00  0.00     0.115 C 
BRANCH  10  11
ATOM     11  C   UNL A   1      31.765  22.278  24.361  1.00  0.00     0.028 C 
ATOM     12  C   UNL A   1      32.511  21.571  23.242  1.00  0.00     0.006 C 
ENDBRANCH  10  11
BRANCH  10  13
ATOM     13  O   UNL A   1      30.285  23.717  23.054  1.00  0.00    -0.393 OA
ATOM     14  H   UNL A   1      30.494  23.088  22.345  1.00  0.00     0.210 HD
ENDBRANCH  10  13
ENDBRANCH   9  10
ENDBRANCH   8   9
BRANCH   8  15
ATOM     15  C   UNL A   1      34.564  25.229  24.967  1.00  0.00     0.053 C 
BRANCH  15  16
ATOM     16  C   UNL A   1      35.089  23.812  25.009  1.00  0.00    -0.005 A 
ATOM     17  C   UNL A   1      35.959  23.381  23.986  1.00  0.00     0.007 A 
ATOM     18  C   UNL A   1      34.786  22.900  26.037  1.00  0.00     0.122 A 
ATOM     19  C   UNL A   1      36.569  22.124  24.028  1.00  0.00     0.001 A 
ATOM     20  C   UNL A   1      35.391  21.636  26.068  1.00  0.00     0.047 A 
ATOM     21  C   UNL A   1      36.286  21.251  25.071  1.00  0.00     0.004 A 
BRANCH  18  22
ATOM     22  O   UNL A   1      34.045  23.217  27.145  1.00  0.00    -0.496 OA
ATOM     23  C   UNL A   1      33.450  22.096  27.795  1.00  0.00     0.278 C 
ENDBRANCH  18  22
ENDBRANCH  15  16
ENDBRANCH   8  15
ENDBRANCH   5   8
ENDBRANCH   3   4
ENDBRANCH   2   3
ENDBRANCH   1   2
BRANCH   1  24
ATOM     24  C   UNL A   1      31.589  30.971  26.523  1.00  0.00     0.002 C 
BRANCH  24  25
ATOM     25  C   UNL A   1      31.591  32.466  26.861  1.00  0.00     0.021 C 
BRANCH  25  26
ATOM     26  C   UNL A   1      32.932  33.049  27.296  1.00  0.00     0.116 C 
BRANCH  26  27
ATOM     27  N   UNL A   1      32.783  34.257  28.088  1.00  0.00    -0.352 N 
ATOM     28  C   UNL A   1      33.405  34.649  29.243  1.00  0.00     0.251 C 
ATOM     29  H   UNL A   1      32.125  34.900  27.736  1.00  0.00     0.163 HD
ATOM     30  O   UNL A   1      32.982  35.648  29.831  1.00  0.00    -0.269 OA
BRANCH  28  31
ATOM     31  C   UNL A   1      34.547  33.894  29.807  1.00  0.00     0.039 A 
ATOM     32  C   UNL A   1      35.833  34.194  29.346  1.00  0.00     0.014 A 
ATOM     33  C   UNL A   1      34.371  32.865  30.737  1.00  0.00     0.014 A 
ATOM     34  C   UNL A   1      36.939  33.506  29.853  1.00  0.00     0.010 A 
ATOM     35  C   UNL A   1      35.481  32.224  31.293  1.00  0.00     0.010 A 
ATOM     36  C   UNL A   1      36.777  32.536  30.855  1.00  0.00    -0.014 A 
BRANCH  36  37
ATOM     37  C   UNL A   1      37.961  31.858  31.450  1.00  0.00     0.031 A 
ATOM     38  C   UNL A   1      38.486  32.270  32.799  1.00  0.00     0.074 A 
ATOM     39  C   UNL A   1      38.583  30.886  30.753  1.00  0.00     0.049 A 
ATOM     40  N   UNL A   1      39.508  31.798  33.469  1.00  0.00    -0.248 NA
ATOM     41  C   UNL A   1      37.787  33.374  33.472  1.00  0.00     0.031 C 
ATOM     42  C   UNL A   1      38.196  30.429  29.416  1.00  0.00     0.029 A 
ATOM     43  N   UNL A   1      39.667  30.105  31.068  1.00  0.00    -0.354 N 
ATOM     44  C   UNL A   1      39.577  32.548  34.639  1.00  0.00     0.074 A 
ATOM     45  C   UNL A   1      38.532  33.546  34.554  1.00  0.00     0.031 C 
ATOM     46  C   UNL A   1      39.010  29.429  29.040  1.00  0.00     0.029 A 
ATOM     47  C   UNL A   1      40.000  29.199  30.087  1.00  0.00     0.049 A 
ATOM     48  H   UNL A   1      40.161  30.186  31.916  1.00  0.00     0.167 HD
ATOM     49  C   UNL A   1      40.419  32.403  35.693  1.00  0.00     0.034 A 
ATOM     50  C   UNL A   1      40.992  28.288  30.033  1.00  0.00     0.034 A 
ATOM     51  C   UNL A   1      41.452  31.396  35.766  1.00  0.00     0.049 A 
ATOM     52  C   UNL A   1      41.924  28.156  31.211  1.00  0.00     0.074 A 
ATOM     53  C   UNL A   1      42.319  31.124  36.810  1.00  0.00     0.029 A 
ATOM     54  N   UNL A   1      41.767  30.503  34.750  1.00  0.00    -0.354 N 
ATOM     55  N   UNL A   1      41.936  28.834  32.335  1.00  0.00    -0.248 NA
ATOM     56  C   UNL A   1      42.965  27.126  31.115  1.00  0.00     0.031 C 
ATOM     57  C   UNL A   1      43.200  30.116  36.400  1.00  0.00     0.029 A 
ATOM     58  C   UNL A   1      42.836  29.703  35.129  1.00  0.00     0.049 A 
ATOM     59  H   UNL A   1      41.299  30.444  33.886  1.00  0.00     0.167 HD
ATOM     60  C   UNL A   1      42.974  28.295  33.090  1.00  0.00     0.074 A 
ATOM     61  C   UNL A   1      43.545  27.221  32.303  1.00  0.00     0.031 C 
ATOM     62  C   UNL A   1      43.414  28.652  34.324  1.00  0.00     0.034 A 
BRANCH  49  63
ATOM     63  C   UNL A   1      40.269  33.374  36.842  1.00  0.00     0.023 A 
ATOM     64  C   UNL A   1      41.134  34.472  37.001  1.00  0.00     0.031 A 
ATOM     65  C   UNL A   1      39.261  33.191  37.805  1.00  0.00     0.131 A 
ATOM     66  C   UNL A   1      41.025  35.295  38.131  1.00  0.00     0.055 A 
ATOM     67  C   UNL A   1      39.104  34.064  38.885  1.00  0.00     0.041 A 
ATOM     68  F   UNL A   1      38.415  32.152  37.720  1.00  0.00    -0.206 F 
ATOM     69  C   UNL A   1      40.000  35.114  39.062  1.00  0.00     0.022 A 
BRANCH  66  70
ATOM     70  S   UNL A   1      42.329  36.517  38.443  1.00  0.00     0.124 S 
ATOM     71  O   UNL A   1      41.549  37.691  38.825  1.00  0.00    -0.237 OA
ATOM     72  O   UNL A   1      43.102  35.888  39.509  1.00  0.00    -0.237 OA
ATOM     73  O   UNL A   1      43.013  36.624  37.156  1.00  0.00    -0.744 OA
ENDBRANCH  66  70
ENDBRANCH  49  63
BRANCH  50  74
ATOM     74  C   UNL A   1      41.164  27.431  28.825  1.00  0.00     0.023 A 
ATOM     75  C   UNL A   1      42.141  27.726  27.862  1.00  0.00     0.031 A 
ATOM     76  C   UNL A   1      40.325  26.326  28.598  1.00  0.00     0.131 A 
ATOM     77  C   UNL A   1      42.226  26.952  26.693  1.00  0.00     0.055 A 
ATOM     78  C   UNL A   1      40.449  25.527  27.460  1.00  0.00     0.041 A 
ATOM     79  F   UNL A   1      39.378  25.997  29.492  1.00  0.00    -0.206 F 
ATOM     80  C   UNL A   1      41.396  25.847  26.492  1.00  0.00     0.022 A 
BRANCH  77  81
ATOM     81  S   UNL A   1      43.388  27.461  25.397  1.00  0.00     0.124 S 
ATOM     82  O   UNL A   1      43.927  26.179  24.959  1.00  0.00    -0.237 OA
ATOM     83  O   UNL A   1      42.508  28.143  24.453  1.00  0.00    -0.237 OA
ATOM     84  O   UNL A   1      44.328  28.327  26.105  1.00  0.00    -0.744 OA
ENDBRANCH  77  81
ENDBRANCH  50  74
BRANCH  62  85
ATOM     85  C   UNL A   1      44.557  27.849  34.898  1.00  0.00     0.023 A 
ATOM     86  C   UNL A   1      44.341  26.629  35.563  1.00  0.00     0.031 A 
ATOM     87  C   UNL A   1      45.876  28.327  34.807  1.00  0.00     0.131 A 
ATOM     88  C   UNL A   1      45.416  25.961  36.167  1.00  0.00     0.055 A 
ATOM     89  C   UNL A   1      46.951  27.624  35.355  1.00  0.00     0.041 A 
ATOM     90  F   UNL A   1      46.143  29.487  34.186  1.00  0.00    -0.206 F 
ATOM     91  C   UNL A   1      46.721  26.443  36.053  1.00  0.00     0.022 A 
BRANCH  88  92
ATOM     92  S   UNL A   1      45.069  24.508  37.196  1.00  0.00     0.124 S 
ATOM     93  O   UNL A   1      46.368  24.257  37.815  1.00  0.00    -0.237 OA
ATOM     94  O   UNL A   1      44.024  24.999  38.087  1.00  0.00    -0.237 OA
ATOM     95  O   UNL A   1      44.638  23.498  36.231  1.00  0.00    -0.744 OA
ENDBRANCH  88  92
ENDBRANCH  62  85
ENDBRANCH  36  37
ENDBRANCH  28  31
ENDBRANCH  26  27
ENDBRANCH  25  26
ENDBRANCH  24  25
ENDBRANCH   1  24
TORSDOF 23
ENDMDL
