MODEL 1
REMARK VINA RESULT:     -12.9      0.000      0.000
REMARK SMILES Cc1ccc(N2C(=O)C[C@H](Sc3ccccc3C(=O)NCCCCCCNC(=O)c3ccc(-c4c5nc(c(-c6cc(S(=O)(=O)[O-])ccc6F)c6ccc([nH]6)c(-c6cc(S(=O)(=O)[O-])ccc6F)c6nc(c(-c7cc(S(=O)(=O)[O-])ccc7F)c7ccc4[nH]7)C=C6)C=C5)cc3)C2=O)cc1
REMARK SMILES IDX 23 1 22 2 21 3 20 4 18 5 19 6 17 8 12 9 13 10 14 11 16 12
REMARK SMILES IDX 15 13 11 14 10 15 6 16 7 17 93 18 8 19 9 20 94 21 5 22 1 23
REMARK SMILES IDX 2 24 3 25 96 26 4 27 95 28 24 29 25 30 26 31 27 32 28 33
REMARK SMILES IDX 29 35 30 36 31 37 92 38 32 39 91 40 33 41 34 42 35 43 85 44
REMARK SMILES IDX 36 45 90 46 84 47 86 48 37 49 89 50 83 51 82 52 38 54 70 55
REMARK SMILES IDX 50 56 69 57 51 58 54 59 68 60 87 61 52 62 53 63 67 65 88 66
REMARK SMILES IDX 55 67 39 68 40 69 48 70 41 71 47 72 49 73 46 74 42 75 43 76
REMARK SMILES IDX 44 77 45 78 71 79 72 80 80 81 73 82 79 83 81 84 78 85 74 86
REMARK SMILES IDX 75 87 76 88 77 89 56 90 57 91 65 92 58 93 64 94 66 95 63 96
REMARK SMILES IDX 59 97 60 98 61 99 62 100
REMARK H PARENT 20 7 27 34 86 53 54 64
REMARK Flexibility Score: inf
ROOT
ATOM      1  C   UNL A   1      33.467  28.455  27.202  1.00  0.00     0.002 C 
ENDROOT
BRANCH   1   2
ATOM      2  C   UNL A   1      32.321  29.443  26.971  1.00  0.00     0.021 C 
BRANCH   2   3
ATOM      3  C   UNL A   1      32.300  30.250  25.676  1.00  0.00     0.116 C 
BRANCH   3   4
ATOM      4  N   UNL A   1      32.925  29.623  24.524  1.00  0.00    -0.352 N 
ATOM      5  C   UNL A   1      32.379  29.066  23.386  1.00  0.00     0.252 C 
ATOM      6  O   UNL A   1      33.120  28.832  22.435  1.00  0.00    -0.269 OA
ATOM      7  H   UNL A   1      33.908  29.590  24.561  1.00  0.00     0.163 HD
BRANCH   5   8
ATOM      8  C   UNL A   1      30.937  28.698  23.313  1.00  0.00     0.053 A 
ATOM      9  C   UNL A   1      30.417  27.552  23.961  1.00  0.00     0.021 A 
ATOM     10  C   UNL A   1      29.042  27.272  23.830  1.00  0.00     0.016 A 
ATOM     11  C   UNL A   1      28.200  28.092  23.075  1.00  0.00     0.001 A 
ATOM     12  C   UNL A   1      30.087  29.470  22.499  1.00  0.00     0.015 A 
ATOM     13  C   UNL A   1      28.725  29.186  22.400  1.00  0.00     0.001 A 
BRANCH   9  14
ATOM     14  S   UNL A   1      31.379  26.230  24.714  1.00  0.00    -0.111 SA
BRANCH  14  15
ATOM     15  C   UNL A   1      31.273  24.813  23.572  1.00  0.00     0.151 C 
ATOM     16  N   UNL A   1      32.534  22.852  23.628  1.00  0.00    -0.250 N 
ATOM     17  C   UNL A   1      33.112  23.636  22.662  1.00  0.00     0.235 C 
ATOM     18  C   UNL A   1      31.459  23.470  24.228  1.00  0.00     0.247 C 
ATOM     19  O   UNL A   1      34.118  23.403  21.993  1.00  0.00    -0.274 OA
ATOM     20  C   UNL A   1      32.235  24.819  22.408  1.00  0.00     0.126 C 
ATOM     21  O   UNL A   1      30.763  23.053  25.143  1.00  0.00    -0.273 OA
BRANCH  16  22
ATOM     22  C   UNL A   1      32.952  21.530  23.909  1.00  0.00     0.052 A 
ATOM     23  C   UNL A   1      34.380  17.496  24.507  1.00  0.00     0.044 C 
ATOM     24  C   UNL A   1      33.868  18.895  24.328  1.00  0.00    -0.051 A 
ATOM     25  C   UNL A   1      32.725  19.134  23.557  1.00  0.00     0.005 A 
ATOM     26  C   UNL A   1      34.551  19.981  24.881  1.00  0.00     0.005 A 
ATOM     27  C   UNL A   1      32.254  20.439  23.373  1.00  0.00     0.027 A 
ATOM     28  C   UNL A   1      34.108  21.288  24.657  1.00  0.00     0.027 A 
ENDBRANCH  16  22
ENDBRANCH  14  15
ENDBRANCH   9  14
ENDBRANCH   5   8
ENDBRANCH   3   4
ENDBRANCH   2   3
ENDBRANCH   1   2
BRANCH   1  29
ATOM     29  C   UNL A   1      34.899  28.997  27.262  1.00  0.00     0.002 C 
BRANCH  29  30
ATOM     30  C   UNL A   1      35.190  30.054  28.317  1.00  0.00     0.021 C 
BRANCH  30  31
ATOM     31  C   UNL A   1      35.440  31.457  27.786  1.00  0.00     0.116 C 
BRANCH  31  32
ATOM     32  N   UNL A   1      34.507  32.468  28.274  1.00  0.00    -0.352 N 
ATOM     33  C   UNL A   1      34.600  33.300  29.380  1.00  0.00     0.251 C 
ATOM     34  H   UNL A   1      33.688  32.575  27.738  1.00  0.00     0.163 HD
ATOM     35  O   UNL A   1      33.644  33.965  29.772  1.00  0.00    -0.269 OA
BRANCH  33  36
ATOM     36  C   UNL A   1      35.935  33.557  29.976  1.00  0.00     0.039 A 
ATOM     37  C   UNL A   1      36.922  34.007  29.085  1.00  0.00     0.014 A 
ATOM     38  C   UNL A   1      36.292  32.970  31.179  1.00  0.00     0.014 A 
ATOM     39  C   UNL A   1      38.221  33.550  29.234  1.00  0.00     0.010 A 
ATOM     40  C   UNL A   1      37.520  32.367  31.238  1.00  0.00     0.010 A 
ATOM     41  C   UNL A   1      38.452  32.609  30.225  1.00  0.00    -0.014 A 
BRANCH  41  42
ATOM     42  C   UNL A   1      39.668  31.843  30.359  1.00  0.00     0.031 A 
ATOM     43  C   UNL A   1      39.652  30.486  29.808  1.00  0.00     0.074 A 
ATOM     44  C   UNL A   1      40.786  32.461  30.792  1.00  0.00     0.049 A 
ATOM     45  N   UNL A   1      40.517  29.583  30.087  1.00  0.00    -0.248 NA
ATOM     46  C   UNL A   1      38.590  30.009  28.925  1.00  0.00     0.031 C 
ATOM     47  C   UNL A   1      42.169  32.018  30.675  1.00  0.00     0.029 A 
ATOM     48  N   UNL A   1      40.847  33.553  31.656  1.00  0.00    -0.354 N 
ATOM     49  C   UNL A   1      40.341  28.561  29.184  1.00  0.00     0.074 A 
ATOM     50  C   UNL A   1      39.051  28.803  28.593  1.00  0.00     0.031 C 
ATOM     51  C   UNL A   1      42.900  32.629  31.624  1.00  0.00     0.029 A 
ATOM     52  C   UNL A   1      41.972  33.343  32.482  1.00  0.00     0.049 A 
ATOM     53  H   UNL A   1      40.229  34.319  31.684  1.00  0.00     0.167 HD
ATOM     54  C   UNL A   1      41.398  27.741  28.945  1.00  0.00     0.034 A 
ATOM     55  C   UNL A   1      41.787  33.103  33.819  1.00  0.00     0.034 A 
ATOM     56  C   UNL A   1      42.496  28.054  29.867  1.00  0.00     0.049 A 
ATOM     57  C   UNL A   1      42.204  31.700  34.236  1.00  0.00     0.074 A 
ATOM     58  C   UNL A   1      43.679  28.766  29.766  1.00  0.00     0.029 A 
ATOM     59  N   UNL A   1      42.268  27.889  31.219  1.00  0.00    -0.354 N 
ATOM     60  N   UNL A   1      42.514  30.744  33.399  1.00  0.00    -0.248 NA
ATOM     61  C   UNL A   1      42.266  31.246  35.624  1.00  0.00     0.031 C 
ATOM     62  C   UNL A   1      44.128  29.058  31.091  1.00  0.00     0.029 A 
ATOM     63  C   UNL A   1      43.240  28.488  31.987  1.00  0.00     0.049 A 
ATOM     64  H   UNL A   1      41.499  27.400  31.590  1.00  0.00     0.167 HD
ATOM     65  C   UNL A   1      42.781  29.583  34.079  1.00  0.00     0.074 A 
ATOM     66  C   UNL A   1      42.588  29.947  35.474  1.00  0.00     0.031 C 
ATOM     67  C   UNL A   1      43.113  28.418  33.437  1.00  0.00     0.034 A 
BRANCH  54  68
ATOM     68  C   UNL A   1      41.570  26.824  27.757  1.00  0.00     0.023 A 
ATOM     69  C   UNL A   1      41.892  25.478  28.024  1.00  0.00     0.031 A 
ATOM     70  C   UNL A   1      41.507  27.161  26.391  1.00  0.00     0.131 A 
ATOM     71  C   UNL A   1      42.198  24.572  26.997  1.00  0.00     0.055 A 
ATOM     72  C   UNL A   1      41.819  26.261  25.364  1.00  0.00     0.041 A 
ATOM     73  F   UNL A   1      41.120  28.364  25.958  1.00  0.00    -0.206 F 
ATOM     74  C   UNL A   1      42.177  24.958  25.663  1.00  0.00     0.022 A 
BRANCH  71  75
ATOM     75  S   UNL A   1      42.653  22.879  27.448  1.00  0.00     0.124 S 
ATOM     76  O   UNL A   1      41.585  22.514  28.373  1.00  0.00    -0.237 OA
ATOM     77  O   UNL A   1      42.650  22.204  26.155  1.00  0.00    -0.237 OA
ATOM     78  O   UNL A   1      43.972  23.038  28.059  1.00  0.00    -0.744 OA
ENDBRANCH  71  75
ENDBRANCH  54  68
BRANCH  55  79
ATOM     79  C   UNL A   1      40.625  33.893  34.352  1.00  0.00     0.023 A 
ATOM     80  C   UNL A   1      39.558  33.143  34.905  1.00  0.00     0.031 A 
ATOM     81  C   UNL A   1      40.784  35.215  34.791  1.00  0.00     0.131 A 
ATOM     82  C   UNL A   1      38.866  33.622  36.031  1.00  0.00     0.055 A 
ATOM     83  C   UNL A   1      40.016  35.725  35.849  1.00  0.00     0.041 A 
ATOM     84  F   UNL A   1      41.780  35.978  34.317  1.00  0.00    -0.206 F 
ATOM     85  C   UNL A   1      39.103  34.907  36.517  1.00  0.00     0.022 A 
BRANCH  82  86
ATOM     86  S   UNL A   1      37.915  32.433  37.034  1.00  0.00     0.124 S 
ATOM     87  O   UNL A   1      36.685  33.171  37.297  1.00  0.00    -0.237 OA
ATOM     88  O   UNL A   1      37.790  31.287  36.136  1.00  0.00    -0.237 OA
ATOM     89  O   UNL A   1      38.768  32.188  38.196  1.00  0.00    -0.744 OA
ENDBRANCH  82  86
ENDBRANCH  55  79
BRANCH  67  90
ATOM     90  C   UNL A   1      43.324  27.082  34.120  1.00  0.00     0.023 A 
ATOM     91  C   UNL A   1      44.575  26.459  34.169  1.00  0.00     0.031 A 
ATOM     92  C   UNL A   1      42.256  26.352  34.706  1.00  0.00     0.131 A 
ATOM     93  C   UNL A   1      44.750  25.244  34.854  1.00  0.00     0.055 A 
ATOM     94  C   UNL A   1      42.414  25.097  35.297  1.00  0.00     0.041 A 
ATOM     95  F   UNL A   1      41.009  26.836  34.784  1.00  0.00    -0.206 F 
ATOM     96  C   UNL A   1      43.674  24.544  35.396  1.00  0.00     0.022 A 
BRANCH  93  97
ATOM     97  S   UNL A   1      46.435  24.641  35.108  1.00  0.00     0.124 S 
ATOM     98  O   UNL A   1      46.962  25.579  36.094  1.00  0.00    -0.237 OA
ATOM     99  O   UNL A   1      46.192  23.284  35.591  1.00  0.00    -0.237 OA
ATOM    100  O   UNL A   1      47.038  24.727  33.779  1.00  0.00    -0.744 OA
ENDBRANCH  93  97
ENDBRANCH  67  90
ENDBRANCH  41  42
ENDBRANCH  33  36
ENDBRANCH  31  32
ENDBRANCH  30  31
ENDBRANCH  29  30
ENDBRANCH   1  29
TORSDOF 19
ENDMDL
MODEL 2
REMARK VINA RESULT:     -12.8      1.175      1.766
REMARK SMILES Cc1ccc(N2C(=O)C[C@H](Sc3ccccc3C(=O)NCCCCCCNC(=O)c3ccc(-c4c5nc(c(-c6cc(S(=O)(=O)[O-])ccc6F)c6ccc([nH]6)c(-c6cc(S(=O)(=O)[O-])ccc6F)c6nc(c(-c7cc(S(=O)(=O)[O-])ccc7F)c7ccc4[nH]7)C=C6)C=C5)cc3)C2=O)cc1
REMARK SMILES IDX 23 1 22 2 21 3 20 4 18 5 19 6 17 8 12 9 13 10 14 11 16 12
REMARK SMILES IDX 15 13 11 14 10 15 6 16 7 17 93 18 8 19 9 20 94 21 5 22 1 23
REMARK SMILES IDX 2 24 3 25 96 26 4 27 95 28 24 29 25 30 26 31 27 32 28 33
REMARK SMILES IDX 29 35 30 36 31 37 92 38 32 39 91 40 33 41 34 42 35 43 85 44
REMARK SMILES IDX 36 45 90 46 84 47 86 48 37 49 89 50 83 51 82 52 38 54 70 55
REMARK SMILES IDX 50 56 69 57 51 58 54 59 68 60 87 61 52 62 53 63 67 65 88 66
REMARK SMILES IDX 55 67 39 68 40 69 48 70 41 71 47 72 49 73 46 74 42 75 43 76
REMARK SMILES IDX 44 77 45 78 71 79 72 80 80 81 73 82 79 83 81 84 78 85 74 86
REMARK SMILES IDX 75 87 76 88 77 89 56 90 57 91 65 92 58 93 64 94 66 95 63 96
REMARK SMILES IDX 59 97 60 98 61 99 62 100
REMARK H PARENT 20 7 27 34 86 53 54 64
REMARK Flexibility Score: inf
ROOT
ATOM      1  C   UNL A   1      33.180  28.708  26.993  1.00  0.00     0.002 C 
ENDROOT
BRANCH   1   2
ATOM      2  C   UNL A   1      32.154  29.844  27.031  1.00  0.00     0.021 C 
BRANCH   2   3
ATOM      3  C   UNL A   1      31.574  30.350  25.713  1.00  0.00     0.116 C 
BRANCH   3   4
ATOM      4  N   UNL A   1      32.043  29.681  24.511  1.00  0.00    -0.352 N 
ATOM      5  C   UNL A   1      31.376  29.300  23.366  1.00  0.00     0.252 C 
ATOM      6  O   UNL A   1      32.038  28.984  22.380  1.00  0.00    -0.269 OA
ATOM      7  H   UNL A   1      33.003  29.463  24.515  1.00  0.00     0.163 HD
BRANCH   5   8
ATOM      8  C   UNL A   1      29.889  29.212  23.321  1.00  0.00     0.053 A 
ATOM      9  C   UNL A   1      29.200  27.987  23.487  1.00  0.00     0.021 A 
ATOM     10  C   UNL A   1      27.793  27.992  23.420  1.00  0.00     0.016 A 
ATOM     11  C   UNL A   1      27.080  29.171  23.187  1.00  0.00     0.001 A 
ATOM     12  C   UNL A   1      29.156  30.375  23.017  1.00  0.00     0.015 A 
ATOM     13  C   UNL A   1      27.762  30.361  22.975  1.00  0.00     0.001 A 
BRANCH   9  14
ATOM     14  S   UNL A   1      29.940  26.346  23.493  1.00  0.00    -0.111 SA
BRANCH  14  15
ATOM     15  C   UNL A   1      31.236  26.379  24.776  1.00  0.00     0.151 C 
ATOM     16  N   UNL A   1      32.721  24.670  25.333  1.00  0.00    -0.250 N 
ATOM     17  C   UNL A   1      31.731  24.623  26.281  1.00  0.00     0.235 C 
ATOM     18  C   UNL A   1      32.504  25.657  24.398  1.00  0.00     0.247 C 
ATOM     19  O   UNL A   1      31.599  23.822  27.206  1.00  0.00    -0.274 OA
ATOM     20  C   UNL A   1      30.854  25.823  26.127  1.00  0.00     0.126 C 
ATOM     21  O   UNL A   1      33.177  25.927  23.413  1.00  0.00    -0.273 OA
BRANCH  16  22
ATOM     22  C   UNL A   1      33.871  23.847  25.368  1.00  0.00     0.052 A 
ATOM     23  C   UNL A   1      37.427  21.400  25.183  1.00  0.00     0.044 C 
ATOM     24  C   UNL A   1      36.189  22.240  25.278  1.00  0.00    -0.051 A 
ATOM     25  C   UNL A   1      34.954  21.726  24.869  1.00  0.00     0.005 A 
ATOM     26  C   UNL A   1      36.257  23.563  25.726  1.00  0.00     0.005 A 
ATOM     27  C   UNL A   1      33.799  22.513  24.941  1.00  0.00     0.027 A 
ATOM     28  C   UNL A   1      35.112  24.365  25.750  1.00  0.00     0.027 A 
ENDBRANCH  16  22
ENDBRANCH  14  15
ENDBRANCH   9  14
ENDBRANCH   5   8
ENDBRANCH   3   4
ENDBRANCH   2   3
ENDBRANCH   1   2
BRANCH   1  29
ATOM     29  C   UNL A   1      34.648  29.040  27.281  1.00  0.00     0.002 C 
BRANCH  29  30
ATOM     30  C   UNL A   1      35.004  30.513  27.423  1.00  0.00     0.021 C 
BRANCH  30  31
ATOM     31  C   UNL A   1      34.978  31.058  28.842  1.00  0.00     0.116 C 
BRANCH  31  32
ATOM     32  N   UNL A   1      34.198  32.281  29.010  1.00  0.00    -0.352 N 
ATOM     33  C   UNL A   1      34.470  33.407  29.774  1.00  0.00     0.251 C 
ATOM     34  H   UNL A   1      33.353  32.311  28.506  1.00  0.00     0.163 HD
ATOM     35  O   UNL A   1      33.623  34.277  29.966  1.00  0.00    -0.269 OA
BRANCH  33  36
ATOM     36  C   UNL A   1      35.869  33.673  30.191  1.00  0.00     0.039 A 
ATOM     37  C   UNL A   1      36.776  33.927  29.149  1.00  0.00     0.014 A 
ATOM     38  C   UNL A   1      36.325  33.253  31.430  1.00  0.00     0.014 A 
ATOM     39  C   UNL A   1      38.063  33.424  29.240  1.00  0.00     0.010 A 
ATOM     40  C   UNL A   1      37.526  32.597  31.462  1.00  0.00     0.010 A 
ATOM     41  C   UNL A   1      38.356  32.630  30.338  1.00  0.00    -0.014 A 
BRANCH  41  42
ATOM     42  C   UNL A   1      39.546  31.823  30.470  1.00  0.00     0.031 A 
ATOM     43  C   UNL A   1      39.458  30.440  29.998  1.00  0.00     0.074 A 
ATOM     44  C   UNL A   1      40.703  32.419  30.827  1.00  0.00     0.049 A 
ATOM     45  N   UNL A   1      40.297  29.520  30.295  1.00  0.00    -0.248 NA
ATOM     46  C   UNL A   1      38.344  29.959  29.182  1.00  0.00     0.031 C 
ATOM     47  C   UNL A   1      42.063  31.915  30.685  1.00  0.00     0.029 A 
ATOM     48  N   UNL A   1      40.839  33.554  31.625  1.00  0.00    -0.354 N 
ATOM     49  C   UNL A   1      40.047  28.458  29.459  1.00  0.00     0.074 A 
ATOM     50  C   UNL A   1      38.746  28.719  28.902  1.00  0.00     0.031 C 
ATOM     51  C   UNL A   1      42.853  32.547  31.570  1.00  0.00     0.029 A 
ATOM     52  C   UNL A   1      41.987  33.344  32.421  1.00  0.00     0.049 A 
ATOM     53  H   UNL A   1      40.252  34.344  31.633  1.00  0.00     0.167 HD
ATOM     54  C   UNL A   1      41.062  27.584  29.227  1.00  0.00     0.034 A 
ATOM     55  C   UNL A   1      41.844  33.185  33.774  1.00  0.00     0.034 A 
ATOM     56  C   UNL A   1      42.206  27.903  30.090  1.00  0.00     0.049 A 
ATOM     57  C   UNL A   1      42.223  31.791  34.255  1.00  0.00     0.074 A 
ATOM     58  C   UNL A   1      43.411  28.560  29.906  1.00  0.00     0.029 A 
ATOM     59  N   UNL A   1      42.024  27.822  31.456  1.00  0.00    -0.354 N 
ATOM     60  N   UNL A   1      42.464  30.780  33.462  1.00  0.00    -0.248 NA
ATOM     61  C   UNL A   1      42.321  31.412  35.662  1.00  0.00     0.031 C 
ATOM     62  C   UNL A   1      43.922  28.905  31.195  1.00  0.00     0.029 A 
ATOM     63  C   UNL A   1      43.048  28.422  32.154  1.00  0.00     0.049 A 
ATOM     64  H   UNL A   1      41.252  27.385  31.883  1.00  0.00     0.167 HD
ATOM     65  C   UNL A   1      42.712  29.648  34.196  1.00  0.00     0.074 A 
ATOM     66  C   UNL A   1      42.587  30.095  35.575  1.00  0.00     0.031 C 
ATOM     67  C   UNL A   1      42.974  28.437  33.609  1.00  0.00     0.034 A 
BRANCH  54  68
ATOM     68  C   UNL A   1      41.153  26.597  28.088  1.00  0.00     0.023 A 
ATOM     69  C   UNL A   1      41.451  25.259  28.416  1.00  0.00     0.031 A 
ATOM     70  C   UNL A   1      41.035  26.859  26.709  1.00  0.00     0.131 A 
ATOM     71  C   UNL A   1      41.684  24.288  27.430  1.00  0.00     0.055 A 
ATOM     72  C   UNL A   1      41.273  25.894  25.722  1.00  0.00     0.041 A 
ATOM     73  F   UNL A   1      40.660  28.047  26.226  1.00  0.00    -0.206 F 
ATOM     74  C   UNL A   1      41.610  24.600  26.078  1.00  0.00     0.022 A 
BRANCH  71  75
ATOM     75  S   UNL A   1      42.113  22.611  27.956  1.00  0.00     0.124 S 
ATOM     76  O   UNL A   1      43.014  22.179  26.892  1.00  0.00    -0.237 OA
ATOM     77  O   UNL A   1      42.718  22.844  29.263  1.00  0.00    -0.237 OA
ATOM     78  O   UNL A   1      40.821  21.927  27.987  1.00  0.00    -0.744 OA
ENDBRANCH  71  75
ENDBRANCH  54  68
BRANCH  55  79
ATOM     79  C   UNL A   1      40.734  34.050  34.304  1.00  0.00     0.023 A 
ATOM     80  C   UNL A   1      39.589  33.371  34.792  1.00  0.00     0.031 A 
ATOM     81  C   UNL A   1      40.988  35.334  34.803  1.00  0.00     0.131 A 
ATOM     82  C   UNL A   1      38.902  33.863  35.915  1.00  0.00     0.055 A 
ATOM     83  C   UNL A   1      40.230  35.866  35.858  1.00  0.00     0.041 A 
ATOM     84  F   UNL A   1      42.060  36.028  34.394  1.00  0.00    -0.206 F 
ATOM     85  C   UNL A   1      39.228  35.103  36.462  1.00  0.00     0.022 A 
BRANCH  82  86
ATOM     86  S   UNL A   1      37.821  32.720  36.837  1.00  0.00     0.124 S 
ATOM     87  O   UNL A   1      38.517  32.606  38.114  1.00  0.00    -0.237 OA
ATOM     88  O   UNL A   1      36.550  33.439  36.867  1.00  0.00    -0.237 OA
ATOM     89  O   UNL A   1      37.801  31.510  36.015  1.00  0.00    -0.744 OA
ENDBRANCH  82  86
ENDBRANCH  55  79
BRANCH  67  90
ATOM     90  C   UNL A   1      43.160  27.132  34.358  1.00  0.00     0.023 A 
ATOM     91  C   UNL A   1      44.426  26.607  34.636  1.00  0.00     0.031 A 
ATOM     92  C   UNL A   1      42.062  26.334  34.777  1.00  0.00     0.131 A 
ATOM     93  C   UNL A   1      44.567  25.420  35.377  1.00  0.00     0.055 A 
ATOM     94  C   UNL A   1      42.206  25.106  35.424  1.00  0.00     0.041 A 
ATOM     95  F   UNL A   1      40.789  26.724  34.628  1.00  0.00    -0.206 F 
ATOM     96  C   UNL A   1      43.467  24.651  35.751  1.00  0.00     0.022 A 
BRANCH  93  97
ATOM     97  S   UNL A   1      46.223  24.951  35.931  1.00  0.00     0.124 S 
ATOM     98  O   UNL A   1      46.092  23.513  36.141  1.00  0.00    -0.237 OA
ATOM     99  O   UNL A   1      47.039  25.352  34.788  1.00  0.00    -0.237 OA
ATOM    100  O   UNL A   1      46.421  25.744  37.142  1.00  0.00    -0.744 OA
ENDBRANCH  93  97
ENDBRANCH  67  90
ENDBRANCH  41  42
ENDBRANCH  33  36
ENDBRANCH  31  32
ENDBRANCH  30  31
ENDBRANCH  29  30
ENDBRANCH   1  29
TORSDOF 19
ENDMDL
MODEL 3
REMARK VINA RESULT:     -12.6      1.248      4.101
REMARK SMILES Cc1ccc(N2C(=O)C[C@H](Sc3ccccc3C(=O)NCCCCCCNC(=O)c3ccc(-c4c5nc(c(-c6cc(S(=O)(=O)[O-])ccc6F)c6ccc([nH]6)c(-c6cc(S(=O)(=O)[O-])ccc6F)c6nc(c(-c7cc(S(=O)(=O)[O-])ccc7F)c7ccc4[nH]7)C=C6)C=C5)cc3)C2=O)cc1
REMARK SMILES IDX 23 1 22 2 21 3 20 4 18 5 19 6 17 8 12 9 13 10 14 11 16 12
REMARK SMILES IDX 15 13 11 14 10 15 6 16 7 17 93 18 8 19 9 20 94 21 5 22 1 23
REMARK SMILES IDX 2 24 3 25 96 26 4 27 95 28 24 29 25 30 26 31 27 32 28 33
REMARK SMILES IDX 29 35 30 36 31 37 92 38 32 39 91 40 33 41 34 42 35 43 85 44
REMARK SMILES IDX 36 45 90 46 84 47 86 48 37 49 89 50 83 51 82 52 38 54 70 55
REMARK SMILES IDX 50 56 69 57 51 58 54 59 68 60 87 61 52 62 53 63 67 65 88 66
REMARK SMILES IDX 55 67 39 68 40 69 48 70 41 71 47 72 49 73 46 74 42 75 43 76
REMARK SMILES IDX 44 77 45 78 71 79 72 80 80 81 73 82 79 83 81 84 78 85 74 86
REMARK SMILES IDX 75 87 76 88 77 89 56 90 57 91 65 92 58 93 64 94 66 95 63 96
REMARK SMILES IDX 59 97 60 98 61 99 62 100
REMARK H PARENT 20 7 27 34 86 53 54 64
REMARK Flexibility Score: inf
ROOT
ATOM      1  C   UNL A   1      33.233  27.808  26.838  1.00  0.00     0.002 C 
ENDROOT
BRANCH   1   2
ATOM      2  C   UNL A   1      33.730  26.976  25.652  1.00  0.00     0.021 C 
BRANCH   2   3
ATOM      3  C   UNL A   1      33.797  25.459  25.800  1.00  0.00     0.116 C 
BRANCH   3   4
ATOM      4  N   UNL A   1      35.088  24.848  25.529  1.00  0.00    -0.352 N 
ATOM      5  C   UNL A   1      35.419  23.676  24.883  1.00  0.00     0.252 C 
ATOM      6  O   UNL A   1      36.588  23.500  24.548  1.00  0.00    -0.269 OA
ATOM      7  H   UNL A   1      35.859  25.360  25.863  1.00  0.00     0.163 HD
BRANCH   5   8
ATOM      8  C   UNL A   1      34.408  22.608  24.635  1.00  0.00     0.053 A 
ATOM      9  C   UNL A   1      33.509  22.659  23.544  1.00  0.00     0.021 A 
ATOM     10  C   UNL A   1      32.578  21.613  23.390  1.00  0.00     0.016 A 
ATOM     11  C   UNL A   1      32.525  20.547  24.292  1.00  0.00     0.001 A 
ATOM     12  C   UNL A   1      34.291  21.563  25.572  1.00  0.00     0.015 A 
ATOM     13  C   UNL A   1      33.376  20.527  25.389  1.00  0.00     0.001 A 
BRANCH   9  14
ATOM     14  S   UNL A   1      33.223  24.075  22.469  1.00  0.00    -0.111 SA
BRANCH  14  15
ATOM     15  C   UNL A   1      31.457  24.494  22.642  1.00  0.00     0.151 C 
ATOM     16  N   UNL A   1      30.546  26.483  23.451  1.00  0.00    -0.250 N 
ATOM     17  C   UNL A   1      30.476  25.593  24.493  1.00  0.00     0.235 C 
ATOM     18  C   UNL A   1      31.125  25.931  22.330  1.00  0.00     0.247 C 
ATOM     19  O   UNL A   1      30.077  25.792  25.640  1.00  0.00    -0.274 OA
ATOM     20  C   UNL A   1      30.836  24.232  23.994  1.00  0.00     0.126 C 
ATOM     21  O   UNL A   1      31.365  26.471  21.260  1.00  0.00    -0.273 OA
BRANCH  16  22
ATOM     22  C   UNL A   1      30.009  27.790  23.508  1.00  0.00     0.052 A 
ATOM     23  C   UNL A   1      28.491  31.834  23.408  1.00  0.00     0.044 C 
ATOM     24  C   UNL A   1      29.005  30.426  23.473  1.00  0.00    -0.051 A 
ATOM     25  C   UNL A   1      30.309  30.170  23.907  1.00  0.00     0.005 A 
ATOM     26  C   UNL A   1      28.210  29.357  23.051  1.00  0.00     0.005 A 
ATOM     27  C   UNL A   1      30.798  28.860  23.952  1.00  0.00     0.027 A 
ATOM     28  C   UNL A   1      28.715  28.053  23.049  1.00  0.00     0.027 A 
ENDBRANCH  16  22
ENDBRANCH  14  15
ENDBRANCH   9  14
ENDBRANCH   5   8
ENDBRANCH   3   4
ENDBRANCH   2   3
ENDBRANCH   1   2
BRANCH   1  29
ATOM     29  C   UNL A   1      33.652  29.280  26.924  1.00  0.00     0.002 C 
BRANCH  29  30
ATOM     30  C   UNL A   1      34.846  29.603  27.810  1.00  0.00     0.021 C 
BRANCH  30  31
ATOM     31  C   UNL A   1      35.421  31.002  27.648  1.00  0.00     0.116 C 
BRANCH  31  32
ATOM     32  N   UNL A   1      34.499  32.082  27.988  1.00  0.00    -0.352 N 
ATOM     33  C   UNL A   1      34.510  32.948  29.072  1.00  0.00     0.251 C 
ATOM     34  H   UNL A   1      33.758  32.215  27.353  1.00  0.00     0.163 HD
ATOM     35  O   UNL A   1      33.556  33.681  29.324  1.00  0.00    -0.269 OA
BRANCH  33  36
ATOM     36  C   UNL A   1      35.778  33.151  29.817  1.00  0.00     0.039 A 
ATOM     37  C   UNL A   1      36.837  33.700  29.077  1.00  0.00     0.014 A 
ATOM     38  C   UNL A   1      36.029  32.443  30.981  1.00  0.00     0.014 A 
ATOM     39  C   UNL A   1      38.124  33.241  29.302  1.00  0.00     0.010 A 
ATOM     40  C   UNL A   1      37.256  31.847  31.095  1.00  0.00     0.010 A 
ATOM     41  C   UNL A   1      38.276  32.201  30.207  1.00  0.00    -0.014 A 
BRANCH  41  42
ATOM     42  C   UNL A   1      39.487  31.435  30.377  1.00  0.00     0.031 A 
ATOM     43  C   UNL A   1      39.482  30.072  29.839  1.00  0.00     0.074 A 
ATOM     44  C   UNL A   1      40.596  32.055  30.829  1.00  0.00     0.049 A 
ATOM     45  N   UNL A   1      40.339  29.171  30.147  1.00  0.00    -0.248 NA
ATOM     46  C   UNL A   1      38.439  29.588  28.937  1.00  0.00     0.031 C 
ATOM     47  C   UNL A   1      41.981  31.609  30.749  1.00  0.00     0.029 A 
ATOM     48  N   UNL A   1      40.639  33.156  31.683  1.00  0.00    -0.354 N 
ATOM     49  C   UNL A   1      40.181  28.140  29.251  1.00  0.00     0.074 A 
ATOM     50  C   UNL A   1      38.906  28.378  28.628  1.00  0.00     0.031 C 
ATOM     51  C   UNL A   1      42.691  32.229  31.708  1.00  0.00     0.029 A 
ATOM     52  C   UNL A   1      41.745  32.953  32.538  1.00  0.00     0.049 A 
ATOM     53  H   UNL A   1      40.022  33.924  31.689  1.00  0.00     0.167 HD
ATOM     54  C   UNL A   1      41.242  27.316  29.044  1.00  0.00     0.034 A 
ATOM     55  C   UNL A   1      41.528  32.727  33.871  1.00  0.00     0.034 A 
ATOM     56  C   UNL A   1      42.319  27.637  29.988  1.00  0.00     0.049 A 
ATOM     57  C   UNL A   1      41.933  31.327  34.313  1.00  0.00     0.074 A 
ATOM     58  C   UNL A   1      43.505  28.346  29.907  1.00  0.00     0.029 A 
ATOM     59  N   UNL A   1      42.059  27.486  31.336  1.00  0.00    -0.354 N 
ATOM     60  N   UNL A   1      42.261  30.363  33.492  1.00  0.00    -0.248 NA
ATOM     61  C   UNL A   1      41.962  30.888  35.706  1.00  0.00     0.031 C 
ATOM     62  C   UNL A   1      43.924  28.651  31.240  1.00  0.00     0.029 A 
ATOM     63  C   UNL A   1      43.015  28.091  32.121  1.00  0.00     0.049 A 
ATOM     64  H   UNL A   1      41.281  27.002  31.695  1.00  0.00     0.167 HD
ATOM     65  C   UNL A   1      42.510  29.208  34.190  1.00  0.00     0.074 A 
ATOM     66  C   UNL A   1      42.285  29.587  35.577  1.00  0.00     0.031 C 
ATOM     67  C   UNL A   1      42.854  28.036  33.568  1.00  0.00     0.034 A 
BRANCH  54  68
ATOM     68  C   UNL A   1      41.439  26.387  27.870  1.00  0.00     0.023 A 
ATOM     69  C   UNL A   1      41.589  25.014  28.153  1.00  0.00     0.031 A 
ATOM     70  C   UNL A   1      41.556  26.730  26.509  1.00  0.00     0.131 A 
ATOM     71  C   UNL A   1      41.904  24.081  27.153  1.00  0.00     0.055 A 
ATOM     72  C   UNL A   1      41.877  25.803  25.509  1.00  0.00     0.041 A 
ATOM     73  F   UNL A   1      41.345  27.967  26.052  1.00  0.00    -0.206 F 
ATOM     74  C   UNL A   1      42.063  24.469  25.828  1.00  0.00     0.022 A 
BRANCH  71  75
ATOM     75  S   UNL A   1      42.128  22.350  27.629  1.00  0.00     0.124 S 
ATOM     76  O   UNL A   1      42.620  21.755  26.390  1.00  0.00    -0.237 OA
ATOM     77  O   UNL A   1      43.087  22.453  28.723  1.00  0.00    -0.237 OA
ATOM     78  O   UNL A   1      40.783  21.933  28.022  1.00  0.00    -0.744 OA
ENDBRANCH  71  75
ENDBRANCH  54  68
BRANCH  55  79
ATOM     79  C   UNL A   1      40.355  33.524  34.370  1.00  0.00     0.023 A 
ATOM     80  C   UNL A   1      39.357  32.800  35.069  1.00  0.00     0.031 A 
ATOM     81  C   UNL A   1      40.468  34.895  34.636  1.00  0.00     0.131 A 
ATOM     82  C   UNL A   1      38.699  33.384  36.165  1.00  0.00     0.055 A 
ATOM     83  C   UNL A   1      39.730  35.498  35.666  1.00  0.00     0.041 A 
ATOM     84  F   UNL A   1      41.399  35.638  34.018  1.00  0.00    -0.206 F 
ATOM     85  C   UNL A   1      38.894  34.728  36.478  1.00  0.00     0.022 A 
BRANCH  82  86
ATOM     86  S   UNL A   1      37.862  32.286  37.357  1.00  0.00     0.124 S 
ATOM     87  O   UNL A   1      37.779  31.035  36.612  1.00  0.00    -0.237 OA
ATOM     88  O   UNL A   1      38.781  32.291  38.493  1.00  0.00    -0.237 OA
ATOM     89  O   UNL A   1      36.588  32.953  37.619  1.00  0.00    -0.744 OA
ENDBRANCH  82  86
ENDBRANCH  55  79
BRANCH  67  90
ATOM     90  C   UNL A   1      43.047  26.706  34.269  1.00  0.00     0.023 A 
ATOM     91  C   UNL A   1      44.293  26.076  34.341  1.00  0.00     0.031 A 
ATOM     92  C   UNL A   1      41.966  25.991  34.850  1.00  0.00     0.131 A 
ATOM     93  C   UNL A   1      44.450  24.867  35.042  1.00  0.00     0.055 A 
ATOM     94  C   UNL A   1      42.108  24.742  35.457  1.00  0.00     0.041 A 
ATOM     95  F   UNL A   1      40.722  26.484  34.906  1.00  0.00    -0.206 F 
ATOM     96  C   UNL A   1      43.363  24.181  35.579  1.00  0.00     0.022 A 
BRANCH  93  97
ATOM     97  S   UNL A   1      46.128  24.256  35.325  1.00  0.00     0.124 S 
ATOM     98  O   UNL A   1      46.306  23.302  34.236  1.00  0.00    -0.237 OA
ATOM     99  O   UNL A   1      46.909  25.486  35.225  1.00  0.00    -0.237 OA
ATOM    100  O   UNL A   1      46.062  23.672  36.663  1.00  0.00    -0.744 OA
ENDBRANCH  93  97
ENDBRANCH  67  90
ENDBRANCH  41  42
ENDBRANCH  33  36
ENDBRANCH  31  32
ENDBRANCH  30  31
ENDBRANCH  29  30
ENDBRANCH   1  29
TORSDOF 19
ENDMDL
