MODEL 1
REMARK VINA RESULT:     -12.0      0.000      0.000
REMARK SMILES CS(=O)(=O)c1ccc(/C=C(/C(=O)NCCCCCCNC(=O)c2ccc(-c3c4nc(c(-c5cc(S(=O)(=O)[O-])ccc5F)c5ccc([nH]5)c(-c5cc(S(=O)(=O)[O-])ccc5F)c5nc(c(-c6cc(S(=O)(=O)[O-])ccc6F)c6ccc3[nH]6)C=C5)C=C4)cc2)c2cccc(Br)c2)cc1
REMARK SMILES IDX 17 1 16 2 15 3 14 4 13 5 11 6 12 7 10 9 9 10 8 11 5 12 6 13
REMARK SMILES IDX 94 14 7 15 93 16 2 17 1 18 3 19 4 20 86 21 87 22 92 23 88 24
REMARK SMILES IDX 90 25 89 26 91 27 18 28 19 29 20 30 21 31 22 33 23 34 24 35
REMARK SMILES IDX 85 36 25 37 84 38 26 39 27 40 28 41 78 42 29 43 83 44 77 45
REMARK SMILES IDX 79 46 30 47 82 48 76 49 75 50 31 52 63 53 43 54 62 55 44 56
REMARK SMILES IDX 47 57 61 58 80 59 45 60 46 61 60 63 81 64 48 65 32 66 33 67
REMARK SMILES IDX 41 68 34 69 40 70 42 71 39 72 35 73 36 74 37 75 38 76 64 77
REMARK SMILES IDX 65 78 73 79 66 80 72 81 74 82 71 83 67 84 68 85 69 86 70 87
REMARK SMILES IDX 49 88 50 89 58 90 51 91 57 92 59 93 56 94 52 95 53 96 54 97
REMARK SMILES IDX 55 98
REMARK H PARENT 13 8 20 32 79 51 47 62
REMARK Flexibility Score: inf
ROOT
ATOM      1  C   UNL A   1      31.809  28.854  24.850  1.00  0.00     0.002 C 
ENDROOT
BRANCH   1   2
ATOM      2  C   UNL A   1      30.871  27.959  24.031  1.00  0.00     0.002 C 
BRANCH   2   3
ATOM      3  C   UNL A   1      30.401  26.689  24.759  1.00  0.00     0.021 C 
BRANCH   3   4
ATOM      4  C   UNL A   1      30.255  25.482  23.828  1.00  0.00     0.116 C 
BRANCH   4   5
ATOM      5  N   UNL A   1      31.245  25.569  22.775  1.00  0.00    -0.352 N 
ATOM      6  C   UNL A   1      32.356  24.863  22.451  1.00  0.00     0.251 C 
ATOM      7  O   UNL A   1      33.023  25.322  21.519  1.00  0.00    -0.269 OA
ATOM      8  H   UNL A   1      31.072  26.310  22.151  1.00  0.00     0.163 HD
BRANCH   6   9
ATOM      9  C   UNL A   1      32.740  23.541  23.083  1.00  0.00     0.047 C 
ATOM     10  C   UNL A   1      31.956  22.438  23.041  1.00  0.00     0.022 C 
BRANCH  10  11
ATOM     11  C   UNL A   1      32.242  21.045  23.467  1.00  0.00    -0.025 A 
ATOM     12  C   UNL A   1      32.932  18.387  24.091  1.00  0.00     0.067 A 
ATOM     13  C   UNL A   1      32.908  19.354  25.093  1.00  0.00     0.021 A 
ATOM     14  C   UNL A   1      32.553  18.715  22.788  1.00  0.00     0.021 A 
ATOM     15  C   UNL A   1      32.534  20.666  24.783  1.00  0.00     0.009 A 
ATOM     16  C   UNL A   1      32.221  20.040  22.482  1.00  0.00     0.009 A 
BRANCH  12  17
ATOM     17  S   UNL A   1      33.365  16.711  24.494  1.00  0.00     0.175 S 
ATOM     18  C   UNL A   1      35.002  16.842  25.165  1.00  0.00     0.163 C 
ATOM     19  O   UNL A   1      33.442  15.970  23.252  1.00  0.00    -0.224 OA
ATOM     20  O   UNL A   1      32.486  16.277  25.566  1.00  0.00    -0.224 OA
ENDBRANCH  12  17
ENDBRANCH  10  11
BRANCH   9  21
ATOM     21  C   UNL A   1      33.965  23.558  23.923  1.00  0.00    -0.012 A 
ATOM     22  C   UNL A   1      34.035  24.497  24.970  1.00  0.00     0.009 A 
ATOM     23  C   UNL A   1      34.990  22.615  23.785  1.00  0.00     0.024 A 
ATOM     24  C   UNL A   1      35.082  24.472  25.888  1.00  0.00     0.002 A 
ATOM     25  C   UNL A   1      36.018  22.575  24.730  1.00  0.00     0.018 A 
ATOM     26  C   UNL A   1      36.067  23.494  25.780  1.00  0.00     0.016 A 
ATOM     27  Br  UNL A   1      37.320  21.207  24.635  1.00  0.00    -0.051 Br
ENDBRANCH   9  21
ENDBRANCH   6   9
ENDBRANCH   4   5
ENDBRANCH   3   4
ENDBRANCH   2   3
ENDBRANCH   1   2
BRANCH   1  28
ATOM     28  C   UNL A   1      33.283  28.452  24.788  1.00  0.00     0.021 C 
BRANCH  28  29
ATOM     29  C   UNL A   1      34.047  28.720  26.079  1.00  0.00     0.116 C 
BRANCH  29  30
ATOM     30  N   UNL A   1      33.813  30.072  26.559  1.00  0.00    -0.352 N 
ATOM     31  C   UNL A   1      34.458  30.753  27.560  1.00  0.00     0.251 C 
ATOM     32  H   UNL A   1      33.092  30.565  26.105  1.00  0.00     0.163 HD
ATOM     33  O   UNL A   1      33.957  31.774  28.021  1.00  0.00    -0.269 OA
BRANCH  31  34
ATOM     34  C   UNL A   1      35.745  30.245  28.080  1.00  0.00     0.039 A 
ATOM     35  C   UNL A   1      36.894  30.384  27.300  1.00  0.00     0.014 A 
ATOM     36  C   UNL A   1      35.811  29.610  29.323  1.00  0.00     0.014 A 
ATOM     37  C   UNL A   1      38.115  29.906  27.781  1.00  0.00     0.010 A 
ATOM     38  C   UNL A   1      37.041  29.218  29.839  1.00  0.00     0.010 A 
ATOM     39  C   UNL A   1      38.202  29.334  29.061  1.00  0.00    -0.014 A 
BRANCH  39  40
ATOM     40  C   UNL A   1      39.488  28.794  29.572  1.00  0.00     0.031 A 
ATOM     41  C   UNL A   1      40.151  29.441  30.759  1.00  0.00     0.074 A 
ATOM     42  C   UNL A   1      40.072  27.751  28.951  1.00  0.00     0.049 A 
ATOM     43  N   UNL A   1      41.290  29.150  31.335  1.00  0.00    -0.248 NA
ATOM     44  C   UNL A   1      39.456  30.592  31.355  1.00  0.00     0.031 C 
ATOM     45  C   UNL A   1      39.544  27.070  27.768  1.00  0.00     0.029 A 
ATOM     46  N   UNL A   1      41.238  27.083  29.227  1.00  0.00    -0.354 N 
ATOM     47  C   UNL A   1      41.452  30.090  32.349  1.00  0.00     0.074 A 
ATOM     48  C   UNL A   1      40.336  31.004  32.253  1.00  0.00     0.031 C 
ATOM     49  C   UNL A   1      40.364  26.058  27.442  1.00  0.00     0.029 A 
ATOM     50  C   UNL A   1      41.499  26.047  28.361  1.00  0.00     0.049 A 
ATOM     51  H   UNL A   1      41.830  27.321  29.976  1.00  0.00     0.167 HD
ATOM     52  C   UNL A   1      42.426  30.165  33.290  1.00  0.00     0.034 A 
ATOM     53  C   UNL A   1      42.538  25.191  28.309  1.00  0.00     0.034 A 
ATOM     54  C   UNL A   1      43.527  29.236  33.371  1.00  0.00     0.049 A 
ATOM     55  C   UNL A   1      43.620  25.300  29.354  1.00  0.00     0.074 A 
ATOM     56  C   UNL A   1      44.548  29.186  34.303  1.00  0.00     0.029 A 
ATOM     57  N   UNL A   1      43.759  28.197  32.476  1.00  0.00    -0.354 N 
ATOM     58  N   UNL A   1      43.737  26.164  30.337  1.00  0.00    -0.248 NA
ATOM     59  C   UNL A   1      44.697  24.306  29.293  1.00  0.00     0.031 C 
ATOM     60  C   UNL A   1      45.436  28.171  33.929  1.00  0.00     0.029 A 
ATOM     61  C   UNL A   1      44.921  27.521  32.819  1.00  0.00     0.049 A 
ATOM     62  H   UNL A   1      43.182  27.973  31.711  1.00  0.00     0.167 HD
ATOM     63  C   UNL A   1      44.881  25.788  31.037  1.00  0.00     0.074 A 
ATOM     64  C   UNL A   1      45.406  24.616  30.369  1.00  0.00     0.031 C 
ATOM     65  C   UNL A   1      45.441  26.356  32.138  1.00  0.00     0.034 A 
BRANCH  52  66
ATOM     66  C   UNL A   1      42.350  31.310  34.277  1.00  0.00     0.023 A 
ATOM     67  C   UNL A   1      41.435  31.308  35.346  1.00  0.00     0.031 A 
ATOM     68  C   UNL A   1      43.164  32.445  34.116  1.00  0.00     0.131 A 
ATOM     69  C   UNL A   1      41.286  32.452  36.146  1.00  0.00     0.055 A 
ATOM     70  C   UNL A   1      43.081  33.541  34.979  1.00  0.00     0.041 A 
ATOM     71  F   UNL A   1      44.041  32.521  33.104  1.00  0.00    -0.206 F 
ATOM     72  C   UNL A   1      42.124  33.557  35.989  1.00  0.00     0.022 A 
BRANCH  69  73
ATOM     73  S   UNL A   1      39.862  32.543  37.267  1.00  0.00     0.124 S 
ATOM     74  O   UNL A   1      40.504  32.387  38.570  1.00  0.00    -0.237 OA
ATOM     75  O   UNL A   1      39.316  33.863  36.977  1.00  0.00    -0.237 OA
ATOM     76  O   UNL A   1      39.028  31.417  36.854  1.00  0.00    -0.744 OA
ENDBRANCH  69  73
ENDBRANCH  52  66
BRANCH  53  77
ATOM     77  C   UNL A   1      42.606  24.154  27.238  1.00  0.00     0.023 A 
ATOM     78  C   UNL A   1      41.986  22.905  27.394  1.00  0.00     0.031 A 
ATOM     79  C   UNL A   1      43.320  24.393  26.050  1.00  0.00     0.131 A 
ATOM     80  C   UNL A   1      42.129  21.924  26.400  1.00  0.00     0.055 A 
ATOM     81  C   UNL A   1      43.412  23.434  25.040  1.00  0.00     0.041 A 
ATOM     82  F   UNL A   1      43.927  25.573  25.846  1.00  0.00    -0.206 F 
ATOM     83  C   UNL A   1      42.825  22.186  25.217  1.00  0.00     0.022 A 
BRANCH  80  84
ATOM     84  S   UNL A   1      41.458  20.267  26.708  1.00  0.00     0.124 S 
ATOM     85  O   UNL A   1      42.214  19.857  27.887  1.00  0.00    -0.237 OA
ATOM     86  O   UNL A   1      40.042  20.548  26.919  1.00  0.00    -0.237 OA
ATOM     87  O   UNL A   1      41.771  19.539  25.480  1.00  0.00    -0.744 OA
ENDBRANCH  80  84
ENDBRANCH  53  77
BRANCH  65  88
ATOM     88  C   UNL A   1      46.653  25.667  32.725  1.00  0.00     0.023 A 
ATOM     89  C   UNL A   1      46.547  24.698  33.736  1.00  0.00     0.031 A 
ATOM     90  C   UNL A   1      47.942  26.013  32.277  1.00  0.00     0.131 A 
ATOM     91  C   UNL A   1      47.706  24.168  34.322  1.00  0.00     0.055 A 
ATOM     92  C   UNL A   1      49.090  25.424  32.809  1.00  0.00     0.041 A 
ATOM     93  F   UNL A   1      48.108  26.936  31.316  1.00  0.00    -0.206 F 
ATOM     94  C   UNL A   1      48.976  24.508  33.850  1.00  0.00     0.022 A 
BRANCH  91  95
ATOM     95  S   UNL A   1      47.538  23.129  35.799  1.00  0.00     0.124 S 
ATOM     96  O   UNL A   1      48.194  23.944  36.818  1.00  0.00    -0.237 OA
ATOM     97  O   UNL A   1      46.090  22.997  35.925  1.00  0.00    -0.237 OA
ATOM     98  O   UNL A   1      48.244  21.901  35.438  1.00  0.00    -0.744 OA
ENDBRANCH  91  95
ENDBRANCH  65  88
ENDBRANCH  39  40
ENDBRANCH  31  34
ENDBRANCH  29  30
ENDBRANCH  28  29
ENDBRANCH   1  28
TORSDOF 19
ENDMDL
MODEL 2
REMARK VINA RESULT:     -11.8      1.943      2.703
REMARK SMILES CS(=O)(=O)c1ccc(/C=C(/C(=O)NCCCCCCNC(=O)c2ccc(-c3c4nc(c(-c5cc(S(=O)(=O)[O-])ccc5F)c5ccc([nH]5)c(-c5cc(S(=O)(=O)[O-])ccc5F)c5nc(c(-c6cc(S(=O)(=O)[O-])ccc6F)c6ccc3[nH]6)C=C5)C=C4)cc2)c2cccc(Br)c2)cc1
REMARK SMILES IDX 17 1 16 2 15 3 14 4 13 5 11 6 12 7 10 9 9 10 8 11 5 12 6 13
REMARK SMILES IDX 94 14 7 15 93 16 2 17 1 18 3 19 4 20 86 21 87 22 92 23 88 24
REMARK SMILES IDX 90 25 89 26 91 27 18 28 19 29 20 30 21 31 22 33 23 34 24 35
REMARK SMILES IDX 85 36 25 37 84 38 26 39 27 40 28 41 78 42 29 43 83 44 77 45
REMARK SMILES IDX 79 46 30 47 82 48 76 49 75 50 31 52 63 53 43 54 62 55 44 56
REMARK SMILES IDX 47 57 61 58 80 59 45 60 46 61 60 63 81 64 48 65 32 66 33 67
REMARK SMILES IDX 41 68 34 69 40 70 42 71 39 72 35 73 36 74 37 75 38 76 64 77
REMARK SMILES IDX 65 78 73 79 66 80 72 81 74 82 71 83 67 84 68 85 69 86 70 87
REMARK SMILES IDX 49 88 50 89 58 90 51 91 57 92 59 93 56 94 52 95 53 96 54 97
REMARK SMILES IDX 55 98
REMARK H PARENT 13 8 20 32 79 51 47 62
REMARK Flexibility Score: inf
ROOT
ATOM      1  C   UNL A   1      31.848  27.332  25.262  1.00  0.00     0.002 C 
ENDROOT
BRANCH   1   2
ATOM      2  C   UNL A   1      30.629  27.066  24.370  1.00  0.00     0.002 C 
BRANCH   2   3
ATOM      3  C   UNL A   1      30.067  25.638  24.462  1.00  0.00     0.021 C 
BRANCH   3   4
ATOM      4  C   UNL A   1      30.030  24.919  23.111  1.00  0.00     0.116 C 
BRANCH   4   5
ATOM      5  N   UNL A   1      31.250  25.203  22.385  1.00  0.00    -0.352 N 
ATOM      6  C   UNL A   1      32.490  24.657  22.356  1.00  0.00     0.251 C 
ATOM      7  O   UNL A   1      33.321  25.262  21.672  1.00  0.00    -0.269 OA
ATOM      8  H   UNL A   1      31.158  25.967  21.771  1.00  0.00     0.163 HD
BRANCH   6   9
ATOM      9  C   UNL A   1      32.858  23.341  23.011  1.00  0.00     0.047 C 
ATOM     10  C   UNL A   1      32.142  22.203  22.851  1.00  0.00     0.022 C 
BRANCH  10  11
ATOM     11  C   UNL A   1      32.443  20.815  23.287  1.00  0.00    -0.025 A 
ATOM     12  C   UNL A   1      33.140  18.161  23.918  1.00  0.00     0.067 A 
ATOM     13  C   UNL A   1      33.234  19.156  24.889  1.00  0.00     0.021 A 
ATOM     14  C   UNL A   1      32.640  18.461  22.650  1.00  0.00     0.021 A 
ATOM     15  C   UNL A   1      32.856  20.467  24.579  1.00  0.00     0.009 A 
ATOM     16  C   UNL A   1      32.305  19.785  22.339  1.00  0.00     0.009 A 
BRANCH  12  17
ATOM     17  S   UNL A   1      33.579  16.488  24.326  1.00  0.00     0.175 S 
ATOM     18  C   UNL A   1      35.014  16.660  25.355  1.00  0.00     0.163 C 
ATOM     19  O   UNL A   1      33.978  15.831  23.099  1.00  0.00    -0.224 OA
ATOM     20  O   UNL A   1      32.513  15.943  25.149  1.00  0.00    -0.224 OA
ENDBRANCH  12  17
ENDBRANCH  10  11
BRANCH   9  21
ATOM     21  C   UNL A   1      33.963  23.398  24.001  1.00  0.00    -0.012 A 
ATOM     22  C   UNL A   1      33.752  24.129  25.186  1.00  0.00     0.009 A 
ATOM     23  C   UNL A   1      35.151  22.672  23.852  1.00  0.00     0.024 A 
ATOM     24  C   UNL A   1      34.683  24.103  26.221  1.00  0.00     0.002 A 
ATOM     25  C   UNL A   1      36.063  22.623  24.909  1.00  0.00     0.018 A 
ATOM     26  C   UNL A   1      35.834  23.331  26.091  1.00  0.00     0.016 A 
ATOM     27  Br  UNL A   1      37.593  21.521  24.770  1.00  0.00    -0.051 Br
ENDBRANCH   9  21
ENDBRANCH   6   9
ENDBRANCH   4   5
ENDBRANCH   3   4
ENDBRANCH   2   3
ENDBRANCH   1   2
BRANCH   1  28
ATOM     28  C   UNL A   1      31.804  28.664  26.014  1.00  0.00     0.021 C 
BRANCH  28  29
ATOM     29  C   UNL A   1      32.950  29.604  25.664  1.00  0.00     0.116 C 
BRANCH  29  30
ATOM     30  N   UNL A   1      32.622  30.981  25.995  1.00  0.00    -0.352 N 
ATOM     31  C   UNL A   1      33.100  31.757  27.020  1.00  0.00     0.251 C 
ATOM     32  H   UNL A   1      31.968  31.416  25.402  1.00  0.00     0.163 HD
ATOM     33  O   UNL A   1      32.517  32.795  27.319  1.00  0.00    -0.269 OA
BRANCH  31  34
ATOM     34  C   UNL A   1      34.304  31.328  27.762  1.00  0.00     0.039 A 
ATOM     35  C   UNL A   1      35.322  32.254  27.997  1.00  0.00     0.014 A 
ATOM     36  C   UNL A   1      34.439  30.008  28.202  1.00  0.00     0.014 A 
ATOM     37  C   UNL A   1      36.464  31.860  28.696  1.00  0.00     0.010 A 
ATOM     38  C   UNL A   1      35.535  29.642  28.976  1.00  0.00     0.010 A 
ATOM     39  C   UNL A   1      36.573  30.555  29.206  1.00  0.00    -0.014 A 
BRANCH  39  40
ATOM     40  C   UNL A   1      37.797  30.114  29.924  1.00  0.00     0.031 A 
ATOM     41  C   UNL A   1      38.056  30.597  31.326  1.00  0.00     0.074 A 
ATOM     42  C   UNL A   1      38.686  29.312  29.305  1.00  0.00     0.049 A 
ATOM     43  N   UNL A   1      39.078  30.364  32.109  1.00  0.00    -0.248 NA
ATOM     44  C   UNL A   1      37.047  31.494  31.910  1.00  0.00     0.031 C 
ATOM     45  C   UNL A   1      38.562  28.814  27.935  1.00  0.00     0.029 A 
ATOM     46  N   UNL A   1      39.868  28.776  29.748  1.00  0.00    -0.354 N 
ATOM     47  C   UNL A   1      38.839  31.093  33.270  1.00  0.00     0.074 A 
ATOM     48  C   UNL A   1      37.619  31.839  33.051  1.00  0.00     0.031 C 
ATOM     49  C   UNL A   1      39.607  28.016  27.661  1.00  0.00     0.029 A 
ATOM     50  C   UNL A   1      40.499  27.984  28.817  1.00  0.00     0.049 A 
ATOM     51  H   UNL A   1      40.230  28.941  30.648  1.00  0.00     0.167 HD
ATOM     52  C   UNL A   1      39.556  31.117  34.422  1.00  0.00     0.034 A 
ATOM     53  C   UNL A   1      41.666  27.314  28.885  1.00  0.00     0.034 A 
ATOM     54  C   UNL A   1      40.767  30.359  34.620  1.00  0.00     0.049 A 
ATOM     55  C   UNL A   1      42.457  27.365  30.168  1.00  0.00     0.074 A 
ATOM     56  C   UNL A   1      41.554  30.270  35.755  1.00  0.00     0.029 A 
ATOM     57  N   UNL A   1      41.376  29.565  33.654  1.00  0.00    -0.354 N 
ATOM     58  N   UNL A   1      42.196  28.022  31.276  1.00  0.00    -0.248 NA
ATOM     59  C   UNL A   1      43.688  26.569  30.214  1.00  0.00     0.031 C 
ATOM     60  C   UNL A   1      42.676  29.489  35.452  1.00  0.00     0.029 A 
ATOM     61  C   UNL A   1      42.542  29.008  34.159  1.00  0.00     0.049 A 
ATOM     62  H   UNL A   1      41.030  29.419  32.745  1.00  0.00     0.167 HD
ATOM     63  C   UNL A   1      43.212  27.681  32.166  1.00  0.00     0.074 A 
ATOM     64  C   UNL A   1      44.078  26.755  31.467  1.00  0.00     0.031 C 
ATOM     65  C   UNL A   1      43.405  28.090  33.448  1.00  0.00     0.034 A 
BRANCH  52  66
ATOM     66  C   UNL A   1      39.056  32.017  35.531  1.00  0.00     0.023 A 
ATOM     67  C   UNL A   1      39.473  33.356  35.644  1.00  0.00     0.031 A 
ATOM     68  C   UNL A   1      38.193  31.516  36.522  1.00  0.00     0.131 A 
ATOM     69  C   UNL A   1      39.111  34.112  36.770  1.00  0.00     0.055 A 
ATOM     70  C   UNL A   1      37.754  32.306  37.587  1.00  0.00     0.041 A 
ATOM     71  F   UNL A   1      37.776  30.241  36.486  1.00  0.00    -0.206 F 
ATOM     72  C   UNL A   1      38.230  33.607  37.727  1.00  0.00     0.022 A 
BRANCH  69  73
ATOM     73  S   UNL A   1      39.954  35.693  37.056  1.00  0.00     0.124 S 
ATOM     74  O   UNL A   1      41.339  35.261  37.224  1.00  0.00    -0.237 OA
ATOM     75  O   UNL A   1      39.658  36.435  35.836  1.00  0.00    -0.237 OA
ATOM     76  O   UNL A   1      39.319  36.206  38.268  1.00  0.00    -0.744 OA
ENDBRANCH  69  73
ENDBRANCH  52  66
BRANCH  53  77
ATOM     77  C   UNL A   1      42.155  26.535  27.711  1.00  0.00     0.023 A 
ATOM     78  C   UNL A   1      41.873  25.166  27.577  1.00  0.00     0.031 A 
ATOM     79  C   UNL A   1      42.940  27.147  26.717  1.00  0.00     0.131 A 
ATOM     80  C   UNL A   1      42.408  24.444  26.498  1.00  0.00     0.055 A 
ATOM     81  C   UNL A   1      43.423  26.437  25.617  1.00  0.00     0.041 A 
ATOM     82  F   UNL A   1      43.235  28.454  26.793  1.00  0.00    -0.206 F 
ATOM     83  C   UNL A   1      43.169  25.074  25.510  1.00  0.00     0.022 A 
BRANCH  80  84
ATOM     84  S   UNL A   1      42.164  22.648  26.447  1.00  0.00     0.124 S 
ATOM     85  O   UNL A   1      42.590  22.330  25.088  1.00  0.00    -0.237 OA
ATOM     86  O   UNL A   1      43.042  22.192  27.519  1.00  0.00    -0.237 OA
ATOM     87  O   UNL A   1      40.734  22.491  26.706  1.00  0.00    -0.744 OA
ENDBRANCH  80  84
ENDBRANCH  53  77
BRANCH  65  88
ATOM     88  C   UNL A   1      44.569  27.480  34.196  1.00  0.00     0.023 A 
ATOM     89  C   UNL A   1      44.471  26.240  34.849  1.00  0.00     0.031 A 
ATOM     90  C   UNL A   1      45.793  28.171  34.276  1.00  0.00     0.131 A 
ATOM     91  C   UNL A   1      45.545  25.767  35.619  1.00  0.00     0.055 A 
ATOM     92  C   UNL A   1      46.884  27.658  34.978  1.00  0.00     0.041 A 
ATOM     93  F   UNL A   1      45.946  29.362  33.677  1.00  0.00    -0.206 F 
ATOM     94  C   UNL A   1      46.758  26.458  35.670  1.00  0.00     0.022 A 
BRANCH  91  95
ATOM     95  S   UNL A   1      45.291  24.306  36.663  1.00  0.00     0.124 S 
ATOM     96  O   UNL A   1      44.417  23.486  35.829  1.00  0.00    -0.237 OA
ATOM     97  O   UNL A   1      46.652  23.809  36.840  1.00  0.00    -0.237 OA
ATOM     98  O   UNL A   1      44.667  24.849  37.868  1.00  0.00    -0.744 OA
ENDBRANCH  91  95
ENDBRANCH  65  88
ENDBRANCH  39  40
ENDBRANCH  31  34
ENDBRANCH  29  30
ENDBRANCH  28  29
ENDBRANCH   1  28
TORSDOF 19
ENDMDL
MODEL 3
REMARK VINA RESULT:     -11.8      1.929      7.559
REMARK SMILES CS(=O)(=O)c1ccc(/C=C(/C(=O)NCCCCCCNC(=O)c2ccc(-c3c4nc(c(-c5cc(S(=O)(=O)[O-])ccc5F)c5ccc([nH]5)c(-c5cc(S(=O)(=O)[O-])ccc5F)c5nc(c(-c6cc(S(=O)(=O)[O-])ccc6F)c6ccc3[nH]6)C=C5)C=C4)cc2)c2cccc(Br)c2)cc1
REMARK SMILES IDX 17 1 16 2 15 3 14 4 13 5 11 6 12 7 10 9 9 10 8 11 5 12 6 13
REMARK SMILES IDX 94 14 7 15 93 16 2 17 1 18 3 19 4 20 86 21 87 22 92 23 88 24
REMARK SMILES IDX 90 25 89 26 91 27 18 28 19 29 20 30 21 31 22 33 23 34 24 35
REMARK SMILES IDX 85 36 25 37 84 38 26 39 27 40 28 41 78 42 29 43 83 44 77 45
REMARK SMILES IDX 79 46 30 47 82 48 76 49 75 50 31 52 63 53 43 54 62 55 44 56
REMARK SMILES IDX 47 57 61 58 80 59 45 60 46 61 60 63 81 64 48 65 32 66 33 67
REMARK SMILES IDX 41 68 34 69 40 70 42 71 39 72 35 73 36 74 37 75 38 76 64 77
REMARK SMILES IDX 65 78 73 79 66 80 72 81 74 82 71 83 67 84 68 85 69 86 70 87
REMARK SMILES IDX 49 88 50 89 58 90 51 91 57 92 59 93 56 94 52 95 53 96 54 97
REMARK SMILES IDX 55 98
REMARK H PARENT 13 8 20 32 79 51 47 62
REMARK Flexibility Score: inf
ROOT
ATOM      1  C   UNL A   1      30.959  28.754  24.169  1.00  0.00     0.002 C 
ENDROOT
BRANCH   1   2
ATOM      2  C   UNL A   1      30.202  27.604  23.494  1.00  0.00     0.002 C 
BRANCH   2   3
ATOM      3  C   UNL A   1      30.229  26.277  24.270  1.00  0.00     0.021 C 
BRANCH   3   4
ATOM      4  C   UNL A   1      30.228  25.048  23.359  1.00  0.00     0.116 C 
BRANCH   4   5
ATOM      5  N   UNL A   1      31.364  25.117  22.463  1.00  0.00    -0.352 N 
ATOM      6  C   UNL A   1      32.529  24.434  22.346  1.00  0.00     0.251 C 
ATOM      7  O   UNL A   1      33.318  24.869  21.502  1.00  0.00    -0.269 OA
ATOM      8  H   UNL A   1      31.269  25.821  21.782  1.00  0.00     0.163 HD
BRANCH   6   9
ATOM      9  C   UNL A   1      32.846  23.156  23.097  1.00  0.00     0.047 C 
ATOM     10  C   UNL A   1      32.072  22.047  23.042  1.00  0.00     0.022 C 
BRANCH  10  11
ATOM     11  C   UNL A   1      32.314  20.685  23.582  1.00  0.00    -0.025 A 
ATOM     12  C   UNL A   1      32.942  18.079  24.443  1.00  0.00     0.067 A 
ATOM     13  C   UNL A   1      32.783  19.102  25.376  1.00  0.00     0.021 A 
ATOM     14  C   UNL A   1      32.729  18.325  23.087  1.00  0.00     0.021 A 
ATOM     15  C   UNL A   1      32.439  20.387  24.944  1.00  0.00     0.009 A 
ATOM     16  C   UNL A   1      32.428  19.625  22.663  1.00  0.00     0.009 A 
BRANCH  12  17
ATOM     17  S   UNL A   1      33.335  16.436  24.996  1.00  0.00     0.175 S 
ATOM     18  C   UNL A   1      35.080  16.497  25.313  1.00  0.00     0.163 C 
ATOM     19  O   UNL A   1      33.107  15.536  23.885  1.00  0.00    -0.224 OA
ATOM     20  O   UNL A   1      32.667  16.230  26.269  1.00  0.00    -0.224 OA
ENDBRANCH  12  17
ENDBRANCH  10  11
BRANCH   9  21
ATOM     21  C   UNL A   1      33.976  23.235  24.058  1.00  0.00    -0.012 A 
ATOM     22  C   UNL A   1      33.800  24.009  25.221  1.00  0.00     0.009 A 
ATOM     23  C   UNL A   1      35.152  22.491  23.906  1.00  0.00     0.024 A 
ATOM     24  C   UNL A   1      34.756  24.008  26.234  1.00  0.00     0.002 A 
ATOM     25  C   UNL A   1      36.088  22.468  24.941  1.00  0.00     0.018 A 
ATOM     26  C   UNL A   1      35.895  23.219  26.103  1.00  0.00     0.016 A 
ATOM     27  Br  UNL A   1      37.603  21.345  24.805  1.00  0.00    -0.051 Br
ENDBRANCH   9  21
ENDBRANCH   6   9
ENDBRANCH   4   5
ENDBRANCH   3   4
ENDBRANCH   2   3
ENDBRANCH   1   2
BRANCH   1  28
ATOM     28  C   UNL A   1      32.002  28.310  25.197  1.00  0.00     0.021 C 
BRANCH  28  29
ATOM     29  C   UNL A   1      33.155  29.290  25.365  1.00  0.00     0.116 C 
BRANCH  29  30
ATOM     30  N   UNL A   1      32.675  30.610  25.741  1.00  0.00    -0.352 N 
ATOM     31  C   UNL A   1      33.036  31.383  26.814  1.00  0.00     0.251 C 
ATOM     32  H   UNL A   1      31.999  31.002  25.142  1.00  0.00     0.163 HD
ATOM     33  O   UNL A   1      32.339  32.342  27.134  1.00  0.00    -0.269 OA
BRANCH  31  34
ATOM     34  C   UNL A   1      34.253  31.048  27.582  1.00  0.00     0.039 A 
ATOM     35  C   UNL A   1      34.542  29.707  27.845  1.00  0.00     0.014 A 
ATOM     36  C   UNL A   1      35.095  32.056  28.063  1.00  0.00     0.014 A 
ATOM     37  C   UNL A   1      35.689  29.379  28.570  1.00  0.00     0.010 A 
ATOM     38  C   UNL A   1      36.282  31.722  28.704  1.00  0.00     0.010 A 
ATOM     39  C   UNL A   1      36.578  30.382  28.991  1.00  0.00    -0.014 A 
BRANCH  39  40
ATOM     40  C   UNL A   1      37.785  30.049  29.790  1.00  0.00     0.031 A 
ATOM     41  C   UNL A   1      38.818  29.109  29.227  1.00  0.00     0.074 A 
ATOM     42  C   UNL A   1      37.934  30.561  31.027  1.00  0.00     0.049 A 
ATOM     43  N   UNL A   1      39.918  28.660  29.775  1.00  0.00    -0.248 NA
ATOM     44  C   UNL A   1      38.558  28.575  27.881  1.00  0.00     0.031 C 
ATOM     45  C   UNL A   1      36.980  31.450  31.693  1.00  0.00     0.029 A 
ATOM     46  N   UNL A   1      38.941  30.408  31.945  1.00  0.00    -0.354 N 
ATOM     47  C   UNL A   1      40.472  27.783  28.847  1.00  0.00     0.074 A 
ATOM     48  C   UNL A   1      39.543  27.704  27.741  1.00  0.00     0.031 C 
ATOM     49  C   UNL A   1      37.465  31.791  32.898  1.00  0.00     0.029 A 
ATOM     50  C   UNL A   1      38.739  31.110  33.110  1.00  0.00     0.049 A 
ATOM     51  H   UNL A   1      39.736  29.850  31.784  1.00  0.00     0.167 HD
ATOM     52  C   UNL A   1      41.658  27.127  28.900  1.00  0.00     0.034 A 
ATOM     53  C   UNL A   1      39.492  31.191  34.225  1.00  0.00     0.034 A 
ATOM     54  C   UNL A   1      42.573  27.226  30.011  1.00  0.00     0.049 A 
ATOM     55  C   UNL A   1      40.800  30.441  34.272  1.00  0.00     0.074 A 
ATOM     56  C   UNL A   1      43.819  26.644  30.158  1.00  0.00     0.029 A 
ATOM     57  N   UNL A   1      42.335  27.949  31.175  1.00  0.00    -0.354 N 
ATOM     58  N   UNL A   1      41.335  29.652  33.368  1.00  0.00    -0.248 NA
ATOM     59  C   UNL A   1      41.613  30.611  35.481  1.00  0.00     0.031 C 
ATOM     60  C   UNL A   1      44.299  26.948  31.437  1.00  0.00     0.029 A 
ATOM     61  C   UNL A   1      43.398  27.803  32.054  1.00  0.00     0.049 A 
ATOM     62  H   UNL A   1      41.530  28.487  31.349  1.00  0.00     0.167 HD
ATOM     63  C   UNL A   1      42.569  29.266  33.884  1.00  0.00     0.074 A 
ATOM     64  C   UNL A   1      42.699  29.919  35.171  1.00  0.00     0.031 C 
ATOM     65  C   UNL A   1      43.513  28.452  33.341  1.00  0.00     0.034 A 
BRANCH  52  66
ATOM     66  C   UNL A   1      42.004  26.224  27.734  1.00  0.00     0.023 A 
ATOM     67  C   UNL A   1      41.612  24.874  27.701  1.00  0.00     0.031 A 
ATOM     68  C   UNL A   1      42.782  26.705  26.667  1.00  0.00     0.131 A 
ATOM     69  C   UNL A   1      42.082  24.031  26.681  1.00  0.00     0.055 A 
ATOM     70  C   UNL A   1      43.162  25.885  25.602  1.00  0.00     0.041 A 
ATOM     71  F   UNL A   1      43.209  27.978  26.649  1.00  0.00    -0.206 F 
ATOM     72  C   UNL A   1      42.829  24.534  25.615  1.00  0.00     0.022 A 
BRANCH  69  73
ATOM     73  S   UNL A   1      41.857  22.240  26.869  1.00  0.00     0.124 S 
ATOM     74  O   UNL A   1      40.422  22.149  27.127  1.00  0.00    -0.237 OA
ATOM     75  O   UNL A   1      42.310  21.729  25.580  1.00  0.00    -0.237 OA
ATOM     76  O   UNL A   1      42.709  21.905  28.008  1.00  0.00    -0.744 OA
ENDBRANCH  69  73
ENDBRANCH  52  66
BRANCH  53  77
ATOM     77  C   UNL A   1      39.035  32.012  35.384  1.00  0.00     0.023 A 
ATOM     78  C   UNL A   1      38.430  31.418  36.502  1.00  0.00     0.031 A 
ATOM     79  C   UNL A   1      39.174  33.412  35.373  1.00  0.00     0.131 A 
ATOM     80  C   UNL A   1      37.945  32.224  37.545  1.00  0.00     0.055 A 
ATOM     81  C   UNL A   1      38.740  34.203  36.438  1.00  0.00     0.041 A 
ATOM     82  F   UNL A   1      39.751  34.030  34.331  1.00  0.00    -0.206 F 
ATOM     83  C   UNL A   1      38.109  33.611  37.527  1.00  0.00     0.022 A 
BRANCH  80  84
ATOM     84  S   UNL A   1      37.020  31.439  38.894  1.00  0.00     0.124 S 
ATOM     85  O   UNL A   1      37.930  31.617  40.020  1.00  0.00    -0.237 OA
ATOM     86  O   UNL A   1      35.797  32.234  38.924  1.00  0.00    -0.237 OA
ATOM     87  O   UNL A   1      36.854  30.061  38.435  1.00  0.00    -0.744 OA
ENDBRANCH  80  84
ENDBRANCH  53  77
BRANCH  65  88
ATOM     88  C   UNL A   1      44.801  28.281  34.116  1.00  0.00     0.023 A 
ATOM     89  C   UNL A   1      45.024  27.182  34.962  1.00  0.00     0.031 A 
ATOM     90  C   UNL A   1      45.812  29.256  34.023  1.00  0.00     0.131 A 
ATOM     91  C   UNL A   1      46.189  27.123  35.741  1.00  0.00     0.055 A 
ATOM     92  C   UNL A   1      47.004  29.152  34.740  1.00  0.00     0.041 A 
ATOM     93  F   UNL A   1      45.655  30.331  33.234  1.00  0.00    -0.206 F 
ATOM     94  C   UNL A   1      47.190  28.090  35.619  1.00  0.00     0.022 A 
BRANCH  91  95
ATOM     95  S   UNL A   1      46.321  25.839  37.015  1.00  0.00     0.124 S 
ATOM     96  O   UNL A   1      45.975  24.634  36.268  1.00  0.00    -0.237 OA
ATOM     97  O   UNL A   1      47.717  25.952  37.429  1.00  0.00    -0.237 OA
ATOM     98  O   UNL A   1      45.342  26.250  38.019  1.00  0.00    -0.744 OA
ENDBRANCH  91  95
ENDBRANCH  65  88
ENDBRANCH  39  40
ENDBRANCH  31  34
ENDBRANCH  29  30
ENDBRANCH  28  29
ENDBRANCH   1  28
TORSDOF 19
ENDMDL
