MODEL 1
REMARK VINA RESULT:     -12.4      0.000      0.000
REMARK SMILES NS(=O)(=O)c1ccc(-n2nc(C(F)F)cc2-c2ccc(C(=O)NCCCCCCNC(=O)c3ccc(-c4c5nc(c(-c6cc(S(=O)(=O)[O-])ccc6F)c6ccc([nH]6)c(-c6cc(S(=O)(=O)[O-])ccc6F)c6nc(c(-c7cc(S(=O)(=O)[O-])ccc7F)c7ccc4[nH]7)C=C6)C=C5)cc3)cc2)cc1
REMARK SMILES IDX 26 1 25 2 24 3 23 4 21 5 22 6 20 8 17 9 18 10 97 11 19 12
REMARK SMILES IDX 96 13 16 14 9 15 10 16 11 17 15 18 8 19 5 20 6 21 99 22 7 23
REMARK SMILES IDX 98 24 2 25 3 26 4 27 1 28 12 31 13 32 14 33 27 34 28 35
REMARK SMILES IDX 29 36 30 37 31 38 32 40 33 41 34 42 95 43 35 44 94 45 36 46
REMARK SMILES IDX 37 47 38 48 88 49 39 50 93 51 87 52 89 53 40 54 92 55 86 56
REMARK SMILES IDX 85 57 41 59 73 60 53 61 72 62 54 63 57 64 71 65 90 66 55 67
REMARK SMILES IDX 56 68 70 70 91 71 58 72 42 73 43 74 51 75 44 76 50 77 52 78
REMARK SMILES IDX 49 79 45 80 46 81 47 82 48 83 74 84 75 85 83 86 76 87 82 88
REMARK SMILES IDX 84 89 81 90 77 91 78 92 79 93 80 94 59 95 60 96 68 97 61 98
REMARK SMILES IDX 67 99 69 100 66 101 62 102 63 103 64 104 65 105
REMARK H PARENT 23 7 1 29 1 30 30 39 89 58 57 69
REMARK Flexibility Score: inf
ROOT
ATOM      1  C   UNL A   1      35.215  23.106  26.488  1.00  0.00     0.002 C 
ENDROOT
BRANCH   1   2
ATOM      2  C   UNL A   1      34.294  21.887  26.612  1.00  0.00     0.021 C 
BRANCH   2   3
ATOM      3  C   UNL A   1      32.840  22.261  26.904  1.00  0.00     0.116 C 
BRANCH   3   4
ATOM      4  N   UNL A   1      32.074  22.296  25.672  1.00  0.00    -0.352 N 
ATOM      5  C   UNL A   1      31.589  23.334  24.921  1.00  0.00     0.251 C 
ATOM      6  O   UNL A   1      30.984  23.067  23.883  1.00  0.00    -0.269 OA
ATOM      7  H   UNL A   1      31.865  21.406  25.306  1.00  0.00     0.163 HD
BRANCH   5   8
ATOM      8  C   UNL A   1      31.857  24.757  25.263  1.00  0.00     0.039 A 
ATOM      9  C   UNL A   1      32.653  27.335  26.033  1.00  0.00     0.000 A 
ATOM     10  C   UNL A   1      33.401  26.622  25.089  1.00  0.00     0.011 A 
ATOM     11  C   UNL A   1      31.471  26.787  26.531  1.00  0.00     0.011 A 
ATOM     12  C   UNL A   1      33.009  25.337  24.713  1.00  0.00     0.014 A 
ATOM     13  C   UNL A   1      31.050  25.527  26.104  1.00  0.00     0.014 A 
BRANCH   9  14
ATOM     14  C   UNL A   1      33.082  28.651  26.480  1.00  0.00     0.075 A 
ATOM     15  N   UNL A   1      32.638  29.857  25.957  1.00  0.00    -0.233 N 
ATOM     16  N   UNL A   1      33.397  30.898  26.383  1.00  0.00    -0.166 NA
ATOM     17  C   UNL A   1      34.161  30.384  27.365  1.00  0.00     0.129 A 
ATOM     18  C   UNL A   1      34.038  28.977  27.418  1.00  0.00     0.060 A 
BRANCH  15  19
ATOM     19  C   UNL A   1      31.564  30.052  25.051  1.00  0.00     0.065 A 
ATOM     20  C   UNL A   1      29.321  30.309  23.429  1.00  0.00     0.082 A 
ATOM     21  C   UNL A   1      29.577  31.278  24.399  1.00  0.00     0.024 A 
ATOM     22  C   UNL A   1      30.195  29.229  23.243  1.00  0.00     0.024 A 
ATOM     23  C   UNL A   1      30.699  31.146  25.213  1.00  0.00     0.030 A 
ATOM     24  C   UNL A   1      31.339  29.116  24.036  1.00  0.00     0.030 A 
BRANCH  20  25
ATOM     25  S   UNL A   1      27.841  30.410  22.466  1.00  0.00     0.238 S 
ATOM     26  O   UNL A   1      28.142  30.068  21.090  1.00  0.00    -0.207 OA
ATOM     27  O   UNL A   1      27.135  31.610  22.824  1.00  0.00    -0.207 OA
BRANCH  25  28
ATOM     28  N   UNL A   1      26.947  29.129  23.074  1.00  0.00    -0.225 NA
ATOM     29  H   UNL A   1      25.953  29.332  22.975  1.00  0.00     0.137 HD
ATOM     30  H   UNL A   1      27.170  28.995  24.060  1.00  0.00     0.137 HD
ENDBRANCH  25  28
ENDBRANCH  20  25
ENDBRANCH  15  19
BRANCH  17  31
ATOM     31  C   UNL A   1      35.030  31.224  28.252  1.00  0.00     0.393 C 
ATOM     32  F   UNL A   1      35.562  32.298  27.608  1.00  0.00    -0.203 F 
ATOM     33  F   UNL A   1      34.337  31.712  29.318  1.00  0.00    -0.203 F 
ENDBRANCH  17  31
ENDBRANCH   9  14
ENDBRANCH   5   8
ENDBRANCH   3   4
ENDBRANCH   2   3
ENDBRANCH   1   2
BRANCH   1  34
ATOM     34  C   UNL A   1      36.663  22.797  26.073  1.00  0.00     0.002 C 
BRANCH  34  35
ATOM     35  C   UNL A   1      37.519  24.005  25.657  1.00  0.00     0.021 C 
BRANCH  35  36
ATOM     36  C   UNL A   1      38.610  24.344  26.660  1.00  0.00     0.116 C 
BRANCH  36  37
ATOM     37  N   UNL A   1      39.894  24.603  26.005  1.00  0.00    -0.352 N 
ATOM     38  C   UNL A   1      40.663  25.752  26.039  1.00  0.00     0.251 C 
ATOM     39  H   UNL A   1      40.258  23.862  25.469  1.00  0.00     0.163 HD
ATOM     40  O   UNL A   1      41.484  25.980  25.158  1.00  0.00    -0.269 OA
BRANCH  38  41
ATOM     41  C   UNL A   1      40.471  26.687  27.160  1.00  0.00     0.039 A 
ATOM     42  C   UNL A   1      40.422  26.266  28.492  1.00  0.00     0.014 A 
ATOM     43  C   UNL A   1      40.383  28.036  26.837  1.00  0.00     0.014 A 
ATOM     44  C   UNL A   1      40.363  27.233  29.495  1.00  0.00     0.010 A 
ATOM     45  C   UNL A   1      40.541  28.975  27.816  1.00  0.00     0.010 A 
ATOM     46  C   UNL A   1      40.438  28.590  29.146  1.00  0.00    -0.014 A 
BRANCH  46  47
ATOM     47  C   UNL A   1      40.503  29.651  30.141  1.00  0.00     0.031 A 
ATOM     48  C   UNL A   1      39.213  30.337  30.397  1.00  0.00     0.074 A 
ATOM     49  C   UNL A   1      41.571  29.811  30.955  1.00  0.00     0.049 A 
ATOM     50  N   UNL A   1      38.878  31.538  30.063  1.00  0.00    -0.248 NA
ATOM     51  C   UNL A   1      38.097  29.544  30.939  1.00  0.00     0.031 C 
ATOM     52  C   UNL A   1      42.795  29.001  31.025  1.00  0.00     0.029 A 
ATOM     53  N   UNL A   1      41.735  30.674  31.993  1.00  0.00    -0.354 N 
ATOM     54  C   UNL A   1      37.610  31.743  30.597  1.00  0.00     0.074 A 
ATOM     55  C   UNL A   1      37.101  30.431  30.890  1.00  0.00     0.031 C 
ATOM     56  C   UNL A   1      43.447  29.252  32.182  1.00  0.00     0.029 A 
ATOM     57  C   UNL A   1      42.797  30.368  32.841  1.00  0.00     0.049 A 
ATOM     58  H   UNL A   1      41.149  31.452  32.134  1.00  0.00     0.167 HD
ATOM     59  C   UNL A   1      37.213  32.983  31.002  1.00  0.00     0.034 A 
ATOM     60  C   UNL A   1      43.123  30.984  34.008  1.00  0.00     0.034 A 
ATOM     61  C   UNL A   1      38.108  33.999  30.481  1.00  0.00     0.049 A 
ATOM     62  C   UNL A   1      42.513  32.336  33.945  1.00  0.00     0.074 A 
ATOM     63  C   UNL A   1      38.518  34.373  29.214  1.00  0.00     0.029 A 
ATOM     64  N   UNL A   1      39.049  34.534  31.336  1.00  0.00    -0.354 N 
ATOM     65  N   UNL A   1      42.862  33.231  33.060  1.00  0.00    -0.248 NA
ATOM     66  C   UNL A   1      41.180  32.515  34.504  1.00  0.00     0.031 C 
ATOM     67  C   UNL A   1      39.916  34.633  29.344  1.00  0.00     0.029 A 
ATOM     68  C   UNL A   1      40.262  34.497  30.691  1.00  0.00     0.049 A 
ATOM     69  H   UNL A   1      38.882  34.880  32.242  1.00  0.00     0.167 HD
ATOM     70  C   UNL A   1      41.673  33.796  32.627  1.00  0.00     0.074 A 
ATOM     71  C   UNL A   1      40.682  33.394  33.628  1.00  0.00     0.031 C 
ATOM     72  C   UNL A   1      41.536  34.286  31.357  1.00  0.00     0.034 A 
BRANCH  59  73
ATOM     73  C   UNL A   1      36.291  33.264  32.175  1.00  0.00     0.023 A 
ATOM     74  C   UNL A   1      35.126  34.004  31.895  1.00  0.00     0.031 A 
ATOM     75  C   UNL A   1      36.606  33.126  33.547  1.00  0.00     0.131 A 
ATOM     76  C   UNL A   1      34.433  34.682  32.912  1.00  0.00     0.055 A 
ATOM     77  C   UNL A   1      35.871  33.746  34.563  1.00  0.00     0.041 A 
ATOM     78  F   UNL A   1      37.676  32.460  33.989  1.00  0.00    -0.206 F 
ATOM     79  C   UNL A   1      34.803  34.566  34.246  1.00  0.00     0.022 A 
BRANCH  76  80
ATOM     80  S   UNL A   1      33.172  35.885  32.424  1.00  0.00     0.124 S 
ATOM     81  O   UNL A   1      33.374  36.934  33.419  1.00  0.00    -0.237 OA
ATOM     82  O   UNL A   1      33.576  36.203  31.059  1.00  0.00    -0.237 OA
ATOM     83  O   UNL A   1      31.925  35.136  32.550  1.00  0.00    -0.744 OA
ENDBRANCH  76  80
ENDBRANCH  59  73
BRANCH  60  84
ATOM     84  C   UNL A   1      43.621  30.337  35.255  1.00  0.00     0.023 A 
ATOM     85  C   UNL A   1      43.191  29.067  35.701  1.00  0.00     0.031 A 
ATOM     86  C   UNL A   1      44.737  30.895  35.921  1.00  0.00     0.131 A 
ATOM     87  C   UNL A   1      43.868  28.417  36.765  1.00  0.00     0.055 A 
ATOM     88  C   UNL A   1      45.399  30.251  36.969  1.00  0.00     0.041 A 
ATOM     89  F   UNL A   1      45.277  32.055  35.516  1.00  0.00    -0.206 F 
ATOM     90  C   UNL A   1      44.972  29.003  37.391  1.00  0.00     0.022 A 
BRANCH  87  91
ATOM     91  S   UNL A   1      43.370  26.748  37.308  1.00  0.00     0.124 S 
ATOM     92  O   UNL A   1      43.948  26.669  38.644  1.00  0.00    -0.237 OA
ATOM     93  O   UNL A   1      41.915  26.816  37.231  1.00  0.00    -0.237 OA
ATOM     94  O   UNL A   1      43.992  25.866  36.318  1.00  0.00    -0.744 OA
ENDBRANCH  87  91
ENDBRANCH  60  84
BRANCH  72  95
ATOM     95  C   UNL A   1      42.785  34.425  30.503  1.00  0.00     0.023 A 
ATOM     96  C   UNL A   1      43.751  35.450  30.643  1.00  0.00     0.031 A 
ATOM     97  C   UNL A   1      43.067  33.390  29.596  1.00  0.00     0.131 A 
ATOM     98  C   UNL A   1      44.939  35.415  29.883  1.00  0.00     0.055 A 
ATOM     99  C   UNL A   1      44.251  33.346  28.861  1.00  0.00     0.041 A 
ATOM    100  F   UNL A   1      42.207  32.370  29.441  1.00  0.00    -0.206 F 
ATOM    101  C   UNL A   1      45.190  34.362  28.998  1.00  0.00     0.022 A 
BRANCH  98 102
ATOM    102  S   UNL A   1      46.181  36.742  30.030  1.00  0.00     0.124 S 
ATOM    103  O   UNL A   1      45.385  37.916  30.368  1.00  0.00    -0.237 OA
ATOM    104  O   UNL A   1      47.061  36.242  31.083  1.00  0.00    -0.237 OA
ATOM    105  O   UNL A   1      46.793  36.786  28.701  1.00  0.00    -0.744 OA
ENDBRANCH  98 102
ENDBRANCH  72  95
ENDBRANCH  46  47
ENDBRANCH  38  41
ENDBRANCH  36  37
ENDBRANCH  35  36
ENDBRANCH  34  35
ENDBRANCH   1  34
TORSDOF 21
ENDMDL
MODEL 2
REMARK VINA RESULT:     -12.2      2.384      3.388
REMARK SMILES NS(=O)(=O)c1ccc(-n2nc(C(F)F)cc2-c2ccc(C(=O)NCCCCCCNC(=O)c3ccc(-c4c5nc(c(-c6cc(S(=O)(=O)[O-])ccc6F)c6ccc([nH]6)c(-c6cc(S(=O)(=O)[O-])ccc6F)c6nc(c(-c7cc(S(=O)(=O)[O-])ccc7F)c7ccc4[nH]7)C=C6)C=C5)cc3)cc2)cc1
REMARK SMILES IDX 26 1 25 2 24 3 23 4 21 5 22 6 20 8 17 9 18 10 97 11 19 12
REMARK SMILES IDX 96 13 16 14 9 15 10 16 11 17 15 18 8 19 5 20 6 21 99 22 7 23
REMARK SMILES IDX 98 24 2 25 3 26 4 27 1 28 12 31 13 32 14 33 27 34 28 35
REMARK SMILES IDX 29 36 30 37 31 38 32 40 33 41 34 42 95 43 35 44 94 45 36 46
REMARK SMILES IDX 37 47 38 48 88 49 39 50 93 51 87 52 89 53 40 54 92 55 86 56
REMARK SMILES IDX 85 57 41 59 73 60 53 61 72 62 54 63 57 64 71 65 90 66 55 67
REMARK SMILES IDX 56 68 70 70 91 71 58 72 42 73 43 74 51 75 44 76 50 77 52 78
REMARK SMILES IDX 49 79 45 80 46 81 47 82 48 83 74 84 75 85 83 86 76 87 82 88
REMARK SMILES IDX 84 89 81 90 77 91 78 92 79 93 80 94 59 95 60 96 68 97 61 98
REMARK SMILES IDX 67 99 69 100 66 101 62 102 63 103 64 104 65 105
REMARK H PARENT 23 7 1 29 1 30 30 39 89 58 57 69
REMARK Flexibility Score: inf
ROOT
ATOM      1  C   UNL A   1      35.437  24.326  25.765  1.00  0.00     0.002 C 
ENDROOT
BRANCH   1   2
ATOM      2  C   UNL A   1      34.422  23.356  26.380  1.00  0.00     0.021 C 
BRANCH   2   3
ATOM      3  C   UNL A   1      33.780  22.425  25.350  1.00  0.00     0.116 C 
BRANCH   3   4
ATOM      4  N   UNL A   1      32.452  22.036  25.786  1.00  0.00    -0.352 N 
ATOM      5  C   UNL A   1      31.254  22.702  25.792  1.00  0.00     0.251 C 
ATOM      6  O   UNL A   1      30.260  22.105  26.204  1.00  0.00    -0.269 OA
ATOM      7  H   UNL A   1      32.401  21.120  26.144  1.00  0.00     0.163 HD
BRANCH   5   8
ATOM      8  C   UNL A   1      31.102  24.071  25.229  1.00  0.00     0.039 A 
ATOM      9  C   UNL A   1      30.488  26.617  24.224  1.00  0.00     0.000 A 
ATOM     10  C   UNL A   1      30.224  26.309  25.564  1.00  0.00     0.011 A 
ATOM     11  C   UNL A   1      31.126  25.678  23.414  1.00  0.00     0.011 A 
ATOM     12  C   UNL A   1      30.522  25.040  26.060  1.00  0.00     0.014 A 
ATOM     13  C   UNL A   1      31.479  24.432  23.934  1.00  0.00     0.014 A 
BRANCH   9  14
ATOM     14  C   UNL A   1      30.129  27.916  23.677  1.00  0.00     0.075 A 
ATOM     15  N   UNL A   1      30.595  29.137  24.142  1.00  0.00    -0.233 N 
ATOM     16  N   UNL A   1      29.894  30.175  23.617  1.00  0.00    -0.166 NA
ATOM     17  C   UNL A   1      29.156  29.625  22.635  1.00  0.00     0.129 A 
ATOM     18  C   UNL A   1      29.227  28.214  22.677  1.00  0.00     0.060 A 
BRANCH  15  19
ATOM     19  C   UNL A   1      31.636  29.353  25.082  1.00  0.00     0.065 A 
ATOM     20  C   UNL A   1      33.738  29.968  26.792  1.00  0.00     0.082 A 
ATOM     21  C   UNL A   1      32.475  30.505  27.042  1.00  0.00     0.024 A 
ATOM     22  C   UNL A   1      33.951  29.102  25.712  1.00  0.00     0.024 A 
ATOM     23  C   UNL A   1      31.423  30.198  26.182  1.00  0.00     0.030 A 
ATOM     24  C   UNL A   1      32.888  28.766  24.871  1.00  0.00     0.030 A 
BRANCH  20  25
ATOM     25  S   UNL A   1      35.102  30.440  27.814  1.00  0.00     0.238 S 
ATOM     26  O   UNL A   1      35.933  31.387  27.096  1.00  0.00    -0.207 OA
ATOM     27  O   UNL A   1      35.642  29.265  28.442  1.00  0.00    -0.207 OA
BRANCH  25  28
ATOM     28  N   UNL A   1      34.340  31.319  29.021  1.00  0.00    -0.225 NA
ATOM     29  H   UNL A   1      33.961  32.179  28.628  1.00  0.00     0.137 HD
ATOM     30  H   UNL A   1      35.013  31.548  29.753  1.00  0.00     0.137 HD
ENDBRANCH  25  28
ENDBRANCH  20  25
ENDBRANCH  15  19
BRANCH  17  31
ATOM     31  C   UNL A   1      28.357  30.436  21.659  1.00  0.00     0.393 C 
ATOM     32  F   UNL A   1      27.294  31.060  22.234  1.00  0.00    -0.203 F 
ATOM     33  F   UNL A   1      29.114  31.407  21.077  1.00  0.00    -0.203 F 
ENDBRANCH  17  31
ENDBRANCH   9  14
ENDBRANCH   5   8
ENDBRANCH   3   4
ENDBRANCH   2   3
ENDBRANCH   1   2
BRANCH   1  34
ATOM     34  C   UNL A   1      36.634  23.667  25.059  1.00  0.00     0.002 C 
BRANCH  34  35
ATOM     35  C   UNL A   1      37.814  23.270  25.960  1.00  0.00     0.021 C 
BRANCH  35  36
ATOM     36  C   UNL A   1      38.538  24.462  26.565  1.00  0.00     0.116 C 
BRANCH  36  37
ATOM     37  N   UNL A   1      39.848  24.679  25.947  1.00  0.00    -0.352 N 
ATOM     38  C   UNL A   1      40.662  25.795  26.021  1.00  0.00     0.251 C 
ATOM     39  H   UNL A   1      40.195  23.932  25.409  1.00  0.00     0.163 HD
ATOM     40  O   UNL A   1      41.514  26.002  25.166  1.00  0.00    -0.269 OA
BRANCH  38  41
ATOM     41  C   UNL A   1      40.478  26.719  27.152  1.00  0.00     0.039 A 
ATOM     42  C   UNL A   1      40.370  26.278  28.474  1.00  0.00     0.014 A 
ATOM     43  C   UNL A   1      40.463  28.075  26.852  1.00  0.00     0.014 A 
ATOM     44  C   UNL A   1      40.325  27.230  29.493  1.00  0.00     0.010 A 
ATOM     45  C   UNL A   1      40.634  28.989  27.851  1.00  0.00     0.010 A 
ATOM     46  C   UNL A   1      40.472  28.587  29.171  1.00  0.00    -0.014 A 
BRANCH  46  47
ATOM     47  C   UNL A   1      40.556  29.627  30.186  1.00  0.00     0.031 A 
ATOM     48  C   UNL A   1      39.281  30.339  30.447  1.00  0.00     0.074 A 
ATOM     49  C   UNL A   1      41.622  29.747  31.010  1.00  0.00     0.049 A 
ATOM     50  N   UNL A   1      38.977  31.553  30.135  1.00  0.00    -0.248 NA
ATOM     51  C   UNL A   1      38.143  29.563  30.967  1.00  0.00     0.031 C 
ATOM     52  C   UNL A   1      42.826  28.906  31.073  1.00  0.00     0.029 A 
ATOM     53  N   UNL A   1      41.799  30.585  32.065  1.00  0.00    -0.354 N 
ATOM     54  C   UNL A   1      37.711  31.778  30.664  1.00  0.00     0.074 A 
ATOM     55  C   UNL A   1      37.168  30.474  30.929  1.00  0.00     0.031 C 
ATOM     56  C   UNL A   1      43.475  29.119  32.238  1.00  0.00     0.029 A 
ATOM     57  C   UNL A   1      42.848  30.238  32.914  1.00  0.00     0.049 A 
ATOM     58  H   UNL A   1      41.231  31.374  32.217  1.00  0.00     0.167 HD
ATOM     59  C   UNL A   1      37.341  33.020  31.091  1.00  0.00     0.034 A 
ATOM     60  C   UNL A   1      43.180  30.824  34.095  1.00  0.00     0.034 A 
ATOM     61  C   UNL A   1      38.263  34.024  30.594  1.00  0.00     0.049 A 
ATOM     62  C   UNL A   1      42.603  32.191  34.055  1.00  0.00     0.074 A 
ATOM     63  C   UNL A   1      38.690  34.413  29.338  1.00  0.00     0.029 A 
ATOM     64  N   UNL A   1      39.210  34.520  31.466  1.00  0.00    -0.354 N 
ATOM     65  N   UNL A   1      42.980  33.094  33.189  1.00  0.00    -0.248 NA
ATOM     66  C   UNL A   1      41.270  32.391  34.608  1.00  0.00     0.031 C 
ATOM     67  C   UNL A   1      40.093  34.637  29.482  1.00  0.00     0.029 A 
ATOM     68  C   UNL A   1      40.426  34.467  30.828  1.00  0.00     0.049 A 
ATOM     69  H   UNL A   1      39.045  34.853  32.377  1.00  0.00     0.167 HD
ATOM     70  C   UNL A   1      41.807  33.696  32.759  1.00  0.00     0.074 A 
ATOM     71  C   UNL A   1      40.800  33.298  33.746  1.00  0.00     0.031 C 
ATOM     72  C   UNL A   1      41.690  34.212  31.498  1.00  0.00     0.034 A 
BRANCH  59  73
ATOM     73  C   UNL A   1      36.418  33.300  32.262  1.00  0.00     0.023 A 
ATOM     74  C   UNL A   1      35.250  34.036  31.980  1.00  0.00     0.031 A 
ATOM     75  C   UNL A   1      36.732  33.166  33.634  1.00  0.00     0.131 A 
ATOM     76  C   UNL A   1      34.555  34.715  32.996  1.00  0.00     0.055 A 
ATOM     77  C   UNL A   1      35.995  33.786  34.649  1.00  0.00     0.041 A 
ATOM     78  F   UNL A   1      37.804  32.504  34.078  1.00  0.00    -0.206 F 
ATOM     79  C   UNL A   1      34.925  34.602  34.331  1.00  0.00     0.022 A 
BRANCH  76  80
ATOM     80  S   UNL A   1      33.290  35.913  32.505  1.00  0.00     0.124 S 
ATOM     81  O   UNL A   1      33.449  36.937  33.533  1.00  0.00    -0.237 OA
ATOM     82  O   UNL A   1      33.728  36.274  31.161  1.00  0.00    -0.237 OA
ATOM     83  O   UNL A   1      32.052  35.143  32.576  1.00  0.00    -0.744 OA
ENDBRANCH  76  80
ENDBRANCH  59  73
BRANCH  60  84
ATOM     84  C   UNL A   1      43.654  30.141  35.332  1.00  0.00     0.023 A 
ATOM     85  C   UNL A   1      43.170  28.887  35.767  1.00  0.00     0.031 A 
ATOM     86  C   UNL A   1      44.797  30.641  35.998  1.00  0.00     0.131 A 
ATOM     87  C   UNL A   1      43.821  28.196  36.821  1.00  0.00     0.055 A 
ATOM     88  C   UNL A   1      45.434  29.956  37.036  1.00  0.00     0.041 A 
ATOM     89  F   UNL A   1      45.387  31.780  35.603  1.00  0.00    -0.206 F 
ATOM     90  C   UNL A   1      44.953  28.725  37.447  1.00  0.00     0.022 A 
BRANCH  87  91
ATOM     91  S   UNL A   1      43.251  26.546  37.348  1.00  0.00     0.124 S 
ATOM     92  O   UNL A   1      41.800  26.688  37.305  1.00  0.00    -0.237 OA
ATOM     93  O   UNL A   1      43.848  25.673  36.344  1.00  0.00    -0.237 OA
ATOM     94  O   UNL A   1      43.813  26.402  38.692  1.00  0.00    -0.744 OA
ENDBRANCH  87  91
ENDBRANCH  60  84
BRANCH  72  95
ATOM     95  C   UNL A   1      42.948  34.338  30.654  1.00  0.00     0.023 A 
ATOM     96  C   UNL A   1      43.411  33.361  29.741  1.00  0.00     0.031 A 
ATOM     97  C   UNL A   1      43.628  35.567  30.688  1.00  0.00     0.131 A 
ATOM     98  C   UNL A   1      44.521  33.633  28.914  1.00  0.00     0.055 A 
ATOM     99  C   UNL A   1      44.712  35.841  29.854  1.00  0.00     0.041 A 
ATOM    100  F   UNL A   1      43.219  36.548  31.508  1.00  0.00    -0.206 F 
ATOM    101  C   UNL A   1      45.166  34.872  28.967  1.00  0.00     0.022 A 
BRANCH  98 102
ATOM    102  S   UNL A   1      45.148  32.374  27.752  1.00  0.00     0.124 S 
ATOM    103  O   UNL A   1      46.420  32.929  27.303  1.00  0.00    -0.237 OA
ATOM    104  O   UNL A   1      45.232  31.180  28.588  1.00  0.00    -0.237 OA
ATOM    105  O   UNL A   1      44.112  32.317  26.719  1.00  0.00    -0.744 OA
ENDBRANCH  98 102
ENDBRANCH  72  95
ENDBRANCH  46  47
ENDBRANCH  38  41
ENDBRANCH  36  37
ENDBRANCH  35  36
ENDBRANCH  34  35
ENDBRANCH   1  34
TORSDOF 21
ENDMDL
MODEL 3
REMARK VINA RESULT:     -11.4      5.107     11.738
REMARK SMILES NS(=O)(=O)c1ccc(-n2nc(C(F)F)cc2-c2ccc(C(=O)NCCCCCCNC(=O)c3ccc(-c4c5nc(c(-c6cc(S(=O)(=O)[O-])ccc6F)c6ccc([nH]6)c(-c6cc(S(=O)(=O)[O-])ccc6F)c6nc(c(-c7cc(S(=O)(=O)[O-])ccc7F)c7ccc4[nH]7)C=C6)C=C5)cc3)cc2)cc1
REMARK SMILES IDX 26 1 25 2 24 3 23 4 21 5 22 6 20 8 17 9 18 10 97 11 19 12
REMARK SMILES IDX 96 13 16 14 9 15 10 16 11 17 15 18 8 19 5 20 6 21 99 22 7 23
REMARK SMILES IDX 98 24 2 25 3 26 4 27 1 28 12 31 13 32 14 33 27 34 28 35
REMARK SMILES IDX 29 36 30 37 31 38 32 40 33 41 34 42 95 43 35 44 94 45 36 46
REMARK SMILES IDX 37 47 38 48 88 49 39 50 93 51 87 52 89 53 40 54 92 55 86 56
REMARK SMILES IDX 85 57 41 59 73 60 53 61 72 62 54 63 57 64 71 65 90 66 55 67
REMARK SMILES IDX 56 68 70 70 91 71 58 72 42 73 43 74 51 75 44 76 50 77 52 78
REMARK SMILES IDX 49 79 45 80 46 81 47 82 48 83 74 84 75 85 83 86 76 87 82 88
REMARK SMILES IDX 84 89 81 90 77 91 78 92 79 93 80 94 59 95 60 96 68 97 61 98
REMARK SMILES IDX 67 99 69 100 66 101 62 102 63 103 64 104 65 105
REMARK H PARENT 23 7 1 29 1 30 30 39 89 58 57 69
REMARK Flexibility Score: inf
ROOT
ATOM      1  C   UNL A   1      37.960  31.741  35.192  1.00  0.00     0.002 C 
ENDROOT
BRANCH   1   2
ATOM      2  C   UNL A   1      38.422  30.393  35.757  1.00  0.00     0.021 C 
BRANCH   2   3
ATOM      3  C   UNL A   1      39.852  30.030  35.352  1.00  0.00     0.116 C 
BRANCH   3   4
ATOM      4  N   UNL A   1      40.803  30.798  36.133  1.00  0.00    -0.352 N 
ATOM      5  C   UNL A   1      41.616  31.854  35.812  1.00  0.00     0.251 C 
ATOM      6  O   UNL A   1      42.317  32.338  36.700  1.00  0.00    -0.269 OA
ATOM      7  H   UNL A   1      40.879  30.507  37.070  1.00  0.00     0.163 HD
BRANCH   5   8
ATOM      8  C   UNL A   1      41.600  32.490  34.467  1.00  0.00     0.039 A 
ATOM      9  C   UNL A   1      41.271  33.811  32.014  1.00  0.00     0.000 A 
ATOM     10  C   UNL A   1      41.317  34.545  33.205  1.00  0.00     0.011 A 
ATOM     11  C   UNL A   1      41.465  32.430  32.047  1.00  0.00     0.011 A 
ATOM     12  C   UNL A   1      41.472  33.885  34.425  1.00  0.00     0.014 A 
ATOM     13  C   UNL A   1      41.684  31.784  33.265  1.00  0.00     0.014 A 
BRANCH   9  14
ATOM     14  C   UNL A   1      41.050  34.477  30.739  1.00  0.00     0.075 A 
ATOM     15  N   UNL A   1      39.812  34.677  30.146  1.00  0.00    -0.233 N 
ATOM     16  N   UNL A   1      39.935  35.084  28.856  1.00  0.00    -0.166 NA
ATOM     17  C   UNL A   1      41.240  35.380  28.715  1.00  0.00     0.129 A 
ATOM     18  C   UNL A   1      41.979  34.961  29.844  1.00  0.00     0.060 A 
BRANCH  15  19
ATOM     19  C   UNL A   1      38.538  34.461  30.731  1.00  0.00     0.065 A 
ATOM     20  C   UNL A   1      35.984  34.260  31.808  1.00  0.00     0.082 A 
ATOM     21  C   UNL A   1      36.203  33.859  30.491  1.00  0.00     0.024 A 
ATOM     22  C   UNL A   1      37.038  34.731  32.602  1.00  0.00     0.024 A 
ATOM     23  C   UNL A   1      37.483  33.963  29.951  1.00  0.00     0.030 A 
ATOM     24  C   UNL A   1      38.329  34.802  32.072  1.00  0.00     0.030 A 
BRANCH  20  25
ATOM     25  S   UNL A   1      34.342  34.235  32.465  1.00  0.00     0.238 S 
ATOM     26  O   UNL A   1      34.145  33.008  33.212  1.00  0.00    -0.207 OA
ATOM     27  O   UNL A   1      33.427  34.670  31.445  1.00  0.00    -0.207 OA
BRANCH  25  28
ATOM     28  N   UNL A   1      34.407  35.463  33.603  1.00  0.00    -0.225 NA
ATOM     29  H   UNL A   1      35.377  35.627  33.871  1.00  0.00     0.137 HD
ATOM     30  H   UNL A   1      33.869  35.193  34.426  1.00  0.00     0.137 HD
ENDBRANCH  25  28
ENDBRANCH  20  25
ENDBRANCH  15  19
BRANCH  17  31
ATOM     31  C   UNL A   1      41.801  36.046  27.494  1.00  0.00     0.393 C 
ATOM     32  F   UNL A   1      42.642  37.073  27.792  1.00  0.00    -0.203 F 
ATOM     33  F   UNL A   1      42.508  35.172  26.725  1.00  0.00    -0.203 F 
ENDBRANCH  17  31
ENDBRANCH   9  14
ENDBRANCH   5   8
ENDBRANCH   3   4
ENDBRANCH   2   3
ENDBRANCH   1   2
BRANCH   1  34
ATOM     34  C   UNL A   1      38.026  31.871  33.662  1.00  0.00     0.002 C 
BRANCH  34  35
ATOM     35  C   UNL A   1      37.206  30.847  32.860  1.00  0.00     0.021 C 
BRANCH  35  36
ATOM     36  C   UNL A   1      37.557  30.819  31.381  1.00  0.00     0.116 C 
BRANCH  36  37
ATOM     37  N   UNL A   1      36.510  30.178  30.582  1.00  0.00    -0.352 N 
ATOM     38  C   UNL A   1      36.629  29.531  29.366  1.00  0.00     0.251 C 
ATOM     39  H   UNL A   1      35.602  30.211  30.961  1.00  0.00     0.163 HD
ATOM     40  O   UNL A   1      35.656  29.396  28.633  1.00  0.00    -0.269 OA
BRANCH  38  41
ATOM     41  C   UNL A   1      37.950  29.009  28.979  1.00  0.00     0.039 A 
ATOM     42  C   UNL A   1      38.651  29.483  27.867  1.00  0.00     0.014 A 
ATOM     43  C   UNL A   1      38.502  28.039  29.806  1.00  0.00     0.014 A 
ATOM     44  C   UNL A   1      39.949  29.020  27.649  1.00  0.00     0.010 A 
ATOM     45  C   UNL A   1      39.834  27.753  29.715  1.00  0.00     0.010 A 
ATOM     46  C   UNL A   1      40.538  28.162  28.590  1.00  0.00    -0.014 A 
BRANCH  46  47
ATOM     47  C   UNL A   1      41.926  27.733  28.495  1.00  0.00     0.031 A 
ATOM     48  C   UNL A   1      42.132  26.474  27.736  1.00  0.00     0.074 A 
ATOM     49  C   UNL A   1      42.956  28.543  28.826  1.00  0.00     0.049 A 
ATOM     50  N   UNL A   1      42.469  25.319  28.200  1.00  0.00    -0.248 NA
ATOM     51  C   UNL A   1      41.757  26.451  26.313  1.00  0.00     0.031 C 
ATOM     52  C   UNL A   1      42.908  29.935  29.297  1.00  0.00     0.029 A 
ATOM     53  N   UNL A   1      44.292  28.330  28.692  1.00  0.00    -0.354 N 
ATOM     54  C   UNL A   1      42.616  24.491  27.093  1.00  0.00     0.074 A 
ATOM     55  C   UNL A   1      41.933  25.160  26.020  1.00  0.00     0.031 C 
ATOM     56  C   UNL A   1      44.127  30.504  29.176  1.00  0.00     0.029 A 
ATOM     57  C   UNL A   1      45.079  29.474  28.804  1.00  0.00     0.049 A 
ATOM     58  H   UNL A   1      44.673  27.437  28.527  1.00  0.00     0.167 HD
ATOM     59  C   UNL A   1      43.520  23.470  27.097  1.00  0.00     0.034 A 
ATOM     60  C   UNL A   1      46.419  29.575  28.603  1.00  0.00     0.034 A 
ATOM     61  C   UNL A   1      43.974  23.198  28.449  1.00  0.00     0.049 A 
ATOM     62  C   UNL A   1      46.968  28.207  28.781  1.00  0.00     0.074 A 
ATOM     63  C   UNL A   1      43.346  22.854  29.632  1.00  0.00     0.029 A 
ATOM     64  N   UNL A   1      45.213  23.674  28.824  1.00  0.00    -0.354 N 
ATOM     65  N   UNL A   1      46.912  27.564  29.916  1.00  0.00    -0.248 NA
ATOM     66  C   UNL A   1      47.099  27.362  27.603  1.00  0.00     0.031 C 
ATOM     67  C   UNL A   1      44.011  23.624  30.635  1.00  0.00     0.029 A 
ATOM     68  C   UNL A   1      45.061  24.317  30.029  1.00  0.00     0.049 A 
ATOM     69  H   UNL A   1      46.053  23.570  28.321  1.00  0.00     0.167 HD
ATOM     70  C   UNL A   1      46.553  26.267  29.580  1.00  0.00     0.074 A 
ATOM     71  C   UNL A   1      46.790  26.176  28.138  1.00  0.00     0.031 C 
ATOM     72  C   UNL A   1      45.826  25.484  30.434  1.00  0.00     0.034 A 
BRANCH  59  73
ATOM     73  C   UNL A   1      44.301  22.991  25.887  1.00  0.00     0.023 A 
ATOM     74  C   UNL A   1      44.312  21.601  25.656  1.00  0.00     0.031 A 
ATOM     75  C   UNL A   1      45.247  23.735  25.145  1.00  0.00     0.131 A 
ATOM     76  C   UNL A   1      45.306  21.003  24.864  1.00  0.00     0.055 A 
ATOM     77  C   UNL A   1      46.192  23.141  24.302  1.00  0.00     0.041 A 
ATOM     78  F   UNL A   1      45.376  25.061  25.245  1.00  0.00    -0.206 F 
ATOM     79  C   UNL A   1      46.254  21.764  24.190  1.00  0.00     0.022 A 
BRANCH  76  80
ATOM     80  S   UNL A   1      45.458  19.200  24.908  1.00  0.00     0.124 S 
ATOM     81  O   UNL A   1      45.662  18.893  23.496  1.00  0.00    -0.237 OA
ATOM     82  O   UNL A   1      46.612  19.020  25.782  1.00  0.00    -0.237 OA
ATOM     83  O   UNL A   1      44.178  18.768  25.463  1.00  0.00    -0.744 OA
ENDBRANCH  76  80
ENDBRANCH  59  73
BRANCH  60  84
ATOM     84  C   UNL A   1      47.145  30.701  27.948  1.00  0.00     0.023 A 
ATOM     85  C   UNL A   1      46.502  31.724  27.217  1.00  0.00     0.031 A 
ATOM     86  C   UNL A   1      48.513  30.900  28.243  1.00  0.00     0.131 A 
ATOM     87  C   UNL A   1      47.225  32.876  26.815  1.00  0.00     0.055 A 
ATOM     88  C   UNL A   1      49.220  32.037  27.844  1.00  0.00     0.041 A 
ATOM     89  F   UNL A   1      49.193  30.030  29.007  1.00  0.00    -0.206 F 
ATOM     90  C   UNL A   1      48.576  33.036  27.134  1.00  0.00     0.022 A 
BRANCH  87  91
ATOM     91  S   UNL A   1      46.394  34.238  25.930  1.00  0.00     0.124 S 
ATOM     92  O   UNL A   1      45.203  33.586  25.400  1.00  0.00    -0.237 OA
ATOM     93  O   UNL A   1      46.181  35.216  26.991  1.00  0.00    -0.237 OA
ATOM     94  O   UNL A   1      47.374  34.640  24.920  1.00  0.00    -0.744 OA
ENDBRANCH  87  91
ENDBRANCH  60  84
BRANCH  72  95
ATOM     95  C   UNL A   1      45.627  25.969  31.861  1.00  0.00     0.023 A 
ATOM     96  C   UNL A   1      44.466  26.622  32.339  1.00  0.00     0.031 A 
ATOM     97  C   UNL A   1      46.613  25.629  32.803  1.00  0.00     0.131 A 
ATOM     98  C   UNL A   1      44.332  26.917  33.712  1.00  0.00     0.055 A 
ATOM     99  C   UNL A   1      46.469  25.904  34.162  1.00  0.00     0.041 A 
ATOM    100  F   UNL A   1      47.724  24.980  32.419  1.00  0.00    -0.206 F 
ATOM    101  C   UNL A   1      45.329  26.553  34.622  1.00  0.00     0.022 A 
BRANCH  98 102
ATOM    102  S   UNL A   1      42.855  27.783  34.340  1.00  0.00     0.124 S 
ATOM    103  O   UNL A   1      41.995  27.884  33.167  1.00  0.00    -0.237 OA
ATOM    104  O   UNL A   1      42.388  26.892  35.400  1.00  0.00    -0.237 OA
ATOM    105  O   UNL A   1      43.386  29.061  34.817  1.00  0.00    -0.744 OA
ENDBRANCH  98 102
ENDBRANCH  72  95
ENDBRANCH  46  47
ENDBRANCH  38  41
ENDBRANCH  36  37
ENDBRANCH  35  36
ENDBRANCH  34  35
ENDBRANCH   1  34
TORSDOF 21
ENDMDL
