MODEL 1
REMARK VINA RESULT:     -11.3      0.000      0.000
REMARK SMILES O=C(NCCCCCCNC(=O)[C@H]1CCC[C@@H]1C[NH2+][C@@H]1CCOC2(CCC2)C1)c1ccc(-c2c3nc(c(-c4cc(S(=O)(=O)[O-])ccc4F)c4ccc([nH]4)c(-c4cc(S(=O)(=O)[O-])ccc4F)c4nc(c(-c5cc(S(=O)(=O)[O-])ccc5F)c5ccc2[nH]5)C=C4)C=C3)cc1
REMARK SMILES IDX 6 1 5 2 4 3 3 4 1 5 2 6 29 8 30 9 91 10 31 11 90 12 32 13
REMARK SMILES IDX 33 14 34 15 84 16 35 17 89 18 83 19 85 20 36 21 88 22 82 23
REMARK SMILES IDX 81 24 37 26 69 27 49 28 68 29 50 30 53 31 67 32 86 33 51 34
REMARK SMILES IDX 52 35 66 37 87 38 54 39 38 40 39 41 47 42 40 43 46 44 48 45
REMARK SMILES IDX 45 46 41 47 42 48 43 49 44 50 70 51 71 52 79 53 72 54 78 55
REMARK SMILES IDX 80 56 77 57 73 58 74 59 75 60 76 61 55 62 56 63 64 64 57 65
REMARK SMILES IDX 63 66 65 67 62 68 58 69 59 70 60 71 61 72 7 73 8 74 9 75
REMARK SMILES IDX 10 76 11 77 12 79 13 80 14 81 17 82 15 83 16 84 18 85 19 86
REMARK SMILES IDX 20 89 21 90 28 91 22 92 24 93 23 94 25 95 27 96 26 97
REMARK H PARENT 3 7 85 25 53 36 10 78 19 87 19 88
REMARK Flexibility Score: inf
ROOT
ATOM      1  C   UNL A   1      31.616  28.026  26.923  1.00  0.00     0.002 C 
ENDROOT
BRANCH   1   2
ATOM      2  C   UNL A   1      33.125  28.066  27.173  1.00  0.00     0.021 C 
BRANCH   2   3
ATOM      3  C   UNL A   1      33.886  29.080  26.327  1.00  0.00     0.116 C 
BRANCH   3   4
ATOM      4  N   UNL A   1      33.641  30.449  26.752  1.00  0.00    -0.352 N 
ATOM      5  O   UNL A   1      33.880  32.286  28.038  1.00  0.00    -0.269 OA
ATOM      6  C   UNL A   1      34.329  31.203  27.672  1.00  0.00     0.251 C 
ATOM      7  H   UNL A   1      32.877  30.897  26.322  1.00  0.00     0.163 HD
BRANCH   6   8
ATOM      8  C   UNL A   1      35.602  30.695  28.226  1.00  0.00     0.039 A 
ATOM      9  C   UNL A   1      36.821  31.042  27.638  1.00  0.00     0.014 A 
ATOM     10  C   UNL A   1      35.576  29.871  29.355  1.00  0.00     0.014 A 
ATOM     11  C   UNL A   1      38.000  30.470  28.101  1.00  0.00     0.010 A 
ATOM     12  C   UNL A   1      36.772  29.359  29.867  1.00  0.00     0.010 A 
ATOM     13  C   UNL A   1      37.992  29.637  29.231  1.00  0.00    -0.014 A 
BRANCH  13  14
ATOM     14  C   UNL A   1      39.280  29.123  29.765  1.00  0.00     0.031 A 
ATOM     15  C   UNL A   1      39.914  29.731  30.984  1.00  0.00     0.074 A 
ATOM     16  C   UNL A   1      39.861  28.077  29.146  1.00  0.00     0.049 A 
ATOM     17  N   UNL A   1      41.030  29.403  31.584  1.00  0.00    -0.248 NA
ATOM     18  C   UNL A   1      39.207  30.859  31.608  1.00  0.00     0.031 C 
ATOM     19  C   UNL A   1      39.334  27.411  27.951  1.00  0.00     0.029 A 
ATOM     20  N   UNL A   1      41.004  27.379  29.435  1.00  0.00    -0.354 N 
ATOM     21  C   UNL A   1      41.168  30.287  32.649  1.00  0.00     0.074 A 
ATOM     22  C   UNL A   1      40.037  31.189  32.588  1.00  0.00     0.031 C 
ATOM     23  C   UNL A   1      40.129  26.379  27.636  1.00  0.00     0.029 A 
ATOM     24  C   UNL A   1      41.256  26.349  28.560  1.00  0.00     0.049 A 
ATOM     25  H   UNL A   1      41.590  27.595  30.196  1.00  0.00     0.167 HD
ATOM     26  C   UNL A   1      42.144  30.332  33.591  1.00  0.00     0.034 A 
ATOM     27  C   UNL A   1      42.290  25.489  28.491  1.00  0.00     0.034 A 
ATOM     28  C   UNL A   1      43.269  29.424  33.628  1.00  0.00     0.049 A 
ATOM     29  C   UNL A   1      43.383  25.593  29.518  1.00  0.00     0.074 A 
ATOM     30  C   UNL A   1      44.302  29.368  34.549  1.00  0.00     0.029 A 
ATOM     31  N   UNL A   1      43.515  28.420  32.699  1.00  0.00    -0.354 N 
ATOM     32  N   UNL A   1      43.492  26.426  30.527  1.00  0.00    -0.248 NA
ATOM     33  C   UNL A   1      44.492  24.640  29.400  1.00  0.00     0.031 C 
ATOM     34  C   UNL A   1      45.203  28.376  34.140  1.00  0.00     0.029 A 
ATOM     35  C   UNL A   1      44.696  27.761  33.007  1.00  0.00     0.049 A 
ATOM     36  H   UNL A   1      42.934  28.207  31.933  1.00  0.00     0.167 HD
ATOM     37  C   UNL A   1      44.673  26.083  31.176  1.00  0.00     0.074 A 
ATOM     38  C   UNL A   1      45.227  24.954  30.457  1.00  0.00     0.031 C 
ATOM     39  C   UNL A   1      45.247  26.650  32.268  1.00  0.00     0.034 A 
BRANCH  26  40
ATOM     40  C   UNL A   1      42.059  31.426  34.629  1.00  0.00     0.023 A 
ATOM     41  C   UNL A   1      41.060  31.430  35.621  1.00  0.00     0.031 A 
ATOM     42  C   UNL A   1      42.978  32.490  34.620  1.00  0.00     0.131 A 
ATOM     43  C   UNL A   1      40.964  32.507  36.515  1.00  0.00     0.055 A 
ATOM     44  C   UNL A   1      42.923  33.521  35.561  1.00  0.00     0.041 A 
ATOM     45  F   UNL A   1      43.941  32.552  33.687  1.00  0.00    -0.206 F 
ATOM     46  C   UNL A   1      41.903  33.541  36.507  1.00  0.00     0.022 A 
BRANCH  43  47
ATOM     47  S   UNL A   1      39.514  32.608  37.600  1.00  0.00     0.124 S 
ATOM     48  O   UNL A   1      40.128  32.531  38.924  1.00  0.00    -0.237 OA
ATOM     49  O   UNL A   1      38.938  33.898  37.239  1.00  0.00    -0.237 OA
ATOM     50  O   UNL A   1      38.719  31.440  37.223  1.00  0.00    -0.744 OA
ENDBRANCH  43  47
ENDBRANCH  26  40
BRANCH  27  51
ATOM     51  C   UNL A   1      42.357  24.484  27.393  1.00  0.00     0.023 A 
ATOM     52  C   UNL A   1      41.587  23.312  27.435  1.00  0.00     0.031 A 
ATOM     53  C   UNL A   1      43.216  24.673  26.295  1.00  0.00     0.131 A 
ATOM     54  C   UNL A   1      41.718  22.355  26.418  1.00  0.00     0.055 A 
ATOM     55  C   UNL A   1      43.303  23.743  25.259  1.00  0.00     0.041 A 
ATOM     56  F   UNL A   1      43.971  25.779  26.205  1.00  0.00    -0.206 F 
ATOM     57  C   UNL A   1      42.560  22.568  25.323  1.00  0.00     0.022 A 
BRANCH  54  58
ATOM     58  S   UNL A   1      40.830  20.783  26.586  1.00  0.00     0.124 S 
ATOM     59  O   UNL A   1      39.516  21.125  26.051  1.00  0.00    -0.237 OA
ATOM     60  O   UNL A   1      41.642  19.888  25.768  1.00  0.00    -0.237 OA
ATOM     61  O   UNL A   1      40.870  20.521  28.023  1.00  0.00    -0.744 OA
ENDBRANCH  54  58
ENDBRANCH  27  51
BRANCH  39  62
ATOM     62  C   UNL A   1      46.527  26.021  32.760  1.00  0.00     0.023 A 
ATOM     63  C   UNL A   1      46.520  24.956  33.679  1.00  0.00     0.031 A 
ATOM     64  C   UNL A   1      47.770  26.516  32.330  1.00  0.00     0.131 A 
ATOM     65  C   UNL A   1      47.732  24.462  34.185  1.00  0.00     0.055 A 
ATOM     66  C   UNL A   1      48.973  25.980  32.790  1.00  0.00     0.041 A 
ATOM     67  F   UNL A   1      47.834  27.533  31.456  1.00  0.00    -0.206 F 
ATOM     68  C   UNL A   1      48.959  24.956  33.734  1.00  0.00     0.022 A 
BRANCH  65  69
ATOM     69  S   UNL A   1      47.683  23.227  35.513  1.00  0.00     0.124 S 
ATOM     70  O   UNL A   1      48.625  22.224  35.029  1.00  0.00    -0.237 OA
ATOM     71  O   UNL A   1      48.114  24.000  36.673  1.00  0.00    -0.237 OA
ATOM     72  O   UNL A   1      46.284  22.805  35.537  1.00  0.00    -0.744 OA
ENDBRANCH  65  69
ENDBRANCH  39  62
ENDBRANCH  13  14
ENDBRANCH   6   8
ENDBRANCH   3   4
ENDBRANCH   2   3
ENDBRANCH   1   2
BRANCH   1  73
ATOM     73  C   UNL A   1      31.150  26.967  25.919  1.00  0.00     0.002 C 
BRANCH  73  74
ATOM     74  C   UNL A   1      30.936  27.474  24.489  1.00  0.00     0.021 C 
BRANCH  74  75
ATOM     75  C   UNL A   1      30.654  26.373  23.469  1.00  0.00     0.116 C 
BRANCH  75  76
ATOM     76  N   UNL A   1      31.693  26.334  22.452  1.00  0.00    -0.356 N 
ATOM     77  C   UNL A   1      32.809  25.563  22.347  1.00  0.00     0.223 C 
ATOM     78  H   UNL A   1      31.567  26.974  21.715  1.00  0.00     0.163 HD
ATOM     79  O   UNL A   1      33.626  25.846  21.468  1.00  0.00    -0.275 OA
BRANCH  77  80
ATOM     80  C   UNL A   1      32.979  24.345  23.242  1.00  0.00     0.087 C 
ATOM     81  C   UNL A   1      33.806  23.288  22.492  1.00  0.00     0.014 C 
ATOM     82  C   UNL A   1      33.761  24.659  24.532  1.00  0.00     0.056 C 
ATOM     83  C   UNL A   1      35.197  23.285  23.120  1.00  0.00     0.001 C 
ATOM     84  C   UNL A   1      35.219  24.409  24.144  1.00  0.00     0.010 C 
BRANCH  82  85
ATOM     85  C   UNL A   1      33.299  23.831  25.762  1.00  0.00     0.265 C 
BRANCH  85  86
ATOM     86  N   UNL A   1      32.849  22.487  25.414  1.00  0.00    -0.343 N 
ATOM     87  H   UNL A   1      33.206  22.270  24.484  1.00  0.00     0.346 HD
ATOM     88  H   UNL A   1      31.832  22.516  25.478  1.00  0.00     0.346 HD
BRANCH  86  89
ATOM     89  C   UNL A   1      33.267  21.406  26.317  1.00  0.00     0.187 C 
ATOM     90  C   UNL A   1      34.802  21.301  26.242  1.00  0.00     0.093 C 
ATOM     91  C   UNL A   1      32.660  20.017  26.042  1.00  0.00     0.100 C 
ATOM     92  C   UNL A   1      35.264  20.685  24.927  1.00  0.00     0.167 C 
ATOM     93  C   UNL A   1      33.181  19.408  24.736  1.00  0.00     0.074 C 
ATOM     94  O   UNL A   1      34.631  19.423  24.730  1.00  0.00    -0.375 OA
ATOM     95  C   UNL A   1      32.574  18.000  24.449  1.00  0.00     0.036 C 
ATOM     96  C   UNL A   1      32.485  19.872  23.423  1.00  0.00     0.036 C 
ATOM     97  C   UNL A   1      32.432  18.407  22.973  1.00  0.00     0.006 C 
ENDBRANCH  86  89
ENDBRANCH  85  86
ENDBRANCH  82  85
ENDBRANCH  77  80
ENDBRANCH  75  76
ENDBRANCH  74  75
ENDBRANCH  73  74
ENDBRANCH   1  73
TORSDOF 19
ENDMDL
MODEL 2
REMARK VINA RESULT:     -11.1      3.164      5.289
REMARK SMILES O=C(NCCCCCCNC(=O)[C@H]1CCC[C@@H]1C[NH2+][C@@H]1CCOC2(CCC2)C1)c1ccc(-c2c3nc(c(-c4cc(S(=O)(=O)[O-])ccc4F)c4ccc([nH]4)c(-c4cc(S(=O)(=O)[O-])ccc4F)c4nc(c(-c5cc(S(=O)(=O)[O-])ccc5F)c5ccc2[nH]5)C=C4)C=C3)cc1
REMARK SMILES IDX 6 1 5 2 4 3 3 4 1 5 2 6 29 8 30 9 91 10 31 11 90 12 32 13
REMARK SMILES IDX 33 14 34 15 84 16 35 17 89 18 83 19 85 20 36 21 88 22 82 23
REMARK SMILES IDX 81 24 37 26 69 27 49 28 68 29 50 30 53 31 67 32 86 33 51 34
REMARK SMILES IDX 52 35 66 37 87 38 54 39 38 40 39 41 47 42 40 43 46 44 48 45
REMARK SMILES IDX 45 46 41 47 42 48 43 49 44 50 70 51 71 52 79 53 72 54 78 55
REMARK SMILES IDX 80 56 77 57 73 58 74 59 75 60 76 61 55 62 56 63 64 64 57 65
REMARK SMILES IDX 63 66 65 67 62 68 58 69 59 70 60 71 61 72 7 73 8 74 9 75
REMARK SMILES IDX 10 76 11 77 12 79 13 80 14 81 17 82 15 83 16 84 18 85 19 86
REMARK SMILES IDX 20 89 21 90 28 91 22 92 24 93 23 94 25 95 27 96 26 97
REMARK H PARENT 3 7 85 25 53 36 10 78 19 87 19 88
REMARK Flexibility Score: inf
ROOT
ATOM      1  C   UNL A   1      31.629  30.785  26.660  1.00  0.00     0.002 C 
ENDROOT
BRANCH   1   2
ATOM      2  C   UNL A   1      31.667  32.311  26.752  1.00  0.00     0.021 C 
BRANCH   2   3
ATOM      3  C   UNL A   1      32.953  32.883  27.337  1.00  0.00     0.116 C 
BRANCH   3   4
ATOM      4  N   UNL A   1      32.752  34.191  27.941  1.00  0.00    -0.352 N 
ATOM      5  O   UNL A   1      32.964  35.793  29.515  1.00  0.00    -0.269 OA
ATOM      6  C   UNL A   1      33.378  34.742  29.033  1.00  0.00     0.251 C 
ATOM      7  H   UNL A   1      32.073  34.758  27.510  1.00  0.00     0.163 HD
BRANCH   6   8
ATOM      8  C   UNL A   1      34.544  34.055  29.630  1.00  0.00     0.039 A 
ATOM      9  C   UNL A   1      34.365  33.065  30.599  1.00  0.00     0.014 A 
ATOM     10  C   UNL A   1      35.832  34.400  29.206  1.00  0.00     0.014 A 
ATOM     11  C   UNL A   1      35.471  32.507  31.230  1.00  0.00     0.010 A 
ATOM     12  C   UNL A   1      36.941  33.780  29.788  1.00  0.00     0.010 A 
ATOM     13  C   UNL A   1      36.770  32.845  30.820  1.00  0.00    -0.014 A 
BRANCH  13  14
ATOM     14  C   UNL A   1      37.931  32.156  31.442  1.00  0.00     0.031 A 
ATOM     15  C   UNL A   1      38.425  32.544  32.808  1.00  0.00     0.074 A 
ATOM     16  C   UNL A   1      38.523  31.153  30.765  1.00  0.00     0.049 A 
ATOM     17  N   UNL A   1      39.420  32.046  33.497  1.00  0.00    -0.248 NA
ATOM     18  C   UNL A   1      37.714  33.638  33.484  1.00  0.00     0.031 C 
ATOM     19  C   UNL A   1      38.128  30.696  29.428  1.00  0.00     0.029 A 
ATOM     20  N   UNL A   1      39.564  30.328  31.101  1.00  0.00    -0.354 N 
ATOM     21  C   UNL A   1      39.464  32.768  34.685  1.00  0.00     0.074 A 
ATOM     22  C   UNL A   1      38.416  33.765  34.602  1.00  0.00     0.031 C 
ATOM     23  C   UNL A   1      38.888  29.649  29.080  1.00  0.00     0.029 A 
ATOM     24  C   UNL A   1      39.868  29.402  30.131  1.00  0.00     0.049 A 
ATOM     25  H   UNL A   1      40.048  30.392  31.956  1.00  0.00     0.167 HD
ATOM     26  C   UNL A   1      40.296  32.607  35.745  1.00  0.00     0.034 A 
ATOM     27  C   UNL A   1      40.841  28.473  30.079  1.00  0.00     0.034 A 
ATOM     28  C   UNL A   1      41.339  31.608  35.803  1.00  0.00     0.049 A 
ATOM     29  C   UNL A   1      41.781  28.348  31.246  1.00  0.00     0.074 A 
ATOM     30  C   UNL A   1      42.224  31.344  36.834  1.00  0.00     0.029 A 
ATOM     31  N   UNL A   1      41.647  30.716  34.783  1.00  0.00    -0.354 N 
ATOM     32  N   UNL A   1      41.800  29.030  32.368  1.00  0.00    -0.248 NA
ATOM     33  C   UNL A   1      42.828  27.326  31.143  1.00  0.00     0.031 C 
ATOM     34  C   UNL A   1      43.105  30.340  36.413  1.00  0.00     0.029 A 
ATOM     35  C   UNL A   1      42.726  29.923  35.148  1.00  0.00     0.049 A 
ATOM     36  H   UNL A   1      41.169  30.655  33.924  1.00  0.00     0.167 HD
ATOM     37  C   UNL A   1      42.850  28.505  33.112  1.00  0.00     0.074 A 
ATOM     38  C   UNL A   1      43.424  27.435  32.321  1.00  0.00     0.031 C 
ATOM     39  C   UNL A   1      43.300  28.873  34.339  1.00  0.00     0.034 A 
BRANCH  26  40
ATOM     40  C   UNL A   1      40.137  33.560  36.906  1.00  0.00     0.023 A 
ATOM     41  C   UNL A   1      39.461  33.188  38.083  1.00  0.00     0.031 A 
ATOM     42  C   UNL A   1      40.653  34.866  36.832  1.00  0.00     0.131 A 
ATOM     43  C   UNL A   1      39.262  34.129  39.105  1.00  0.00     0.055 A 
ATOM     44  C   UNL A   1      40.518  35.774  37.883  1.00  0.00     0.041 A 
ATOM     45  F   UNL A   1      41.291  35.286  35.727  1.00  0.00    -0.206 F 
ATOM     46  C   UNL A   1      39.807  35.413  39.023  1.00  0.00     0.022 A 
BRANCH  43  47
ATOM     47  S   UNL A   1      38.164  33.695  40.482  1.00  0.00     0.124 S 
ATOM     48  O   UNL A   1      37.045  33.067  39.784  1.00  0.00    -0.237 OA
ATOM     49  O   UNL A   1      38.998  32.804  41.282  1.00  0.00    -0.237 OA
ATOM     50  O   UNL A   1      37.858  34.985  41.098  1.00  0.00    -0.744 OA
ENDBRANCH  43  47
ENDBRANCH  26  40
BRANCH  27  51
ATOM     51  C   UNL A   1      40.996  27.617  28.870  1.00  0.00     0.023 A 
ATOM     52  C   UNL A   1      42.005  27.867  27.928  1.00  0.00     0.031 A 
ATOM     53  C   UNL A   1      40.117  26.545  28.629  1.00  0.00     0.131 A 
ATOM     54  C   UNL A   1      42.087  27.082  26.769  1.00  0.00     0.055 A 
ATOM     55  C   UNL A   1      40.236  25.734  27.500  1.00  0.00     0.041 A 
ATOM     56  F   UNL A   1      39.136  26.261  29.501  1.00  0.00    -0.206 F 
ATOM     57  C   UNL A   1      41.219  26.008  26.554  1.00  0.00     0.022 A 
BRANCH  54  58
ATOM     58  S   UNL A   1      43.300  27.534  25.498  1.00  0.00     0.124 S 
ATOM     59  O   UNL A   1      44.043  28.600  26.163  1.00  0.00    -0.237 OA
ATOM     60  O   UNL A   1      44.015  26.278  25.303  1.00  0.00    -0.237 OA
ATOM     61  O   UNL A   1      42.470  27.960  24.372  1.00  0.00    -0.744 OA
ENDBRANCH  54  58
ENDBRANCH  27  51
BRANCH  39  62
ATOM     62  C   UNL A   1      44.451  28.078  34.903  1.00  0.00     0.023 A 
ATOM     63  C   UNL A   1      44.243  26.883  35.616  1.00  0.00     0.031 A 
ATOM     64  C   UNL A   1      45.770  28.539  34.755  1.00  0.00     0.131 A 
ATOM     65  C   UNL A   1      45.332  26.223  36.205  1.00  0.00     0.055 A 
ATOM     66  C   UNL A   1      46.855  27.846  35.292  1.00  0.00     0.041 A 
ATOM     67  F   UNL A   1      46.025  29.675  34.086  1.00  0.00    -0.206 F 
ATOM     68  C   UNL A   1      46.638  26.689  36.034  1.00  0.00     0.022 A 
BRANCH  65  69
ATOM     69  S   UNL A   1      45.008  24.799  37.281  1.00  0.00     0.124 S 
ATOM     70  O   UNL A   1      44.016  25.337  38.205  1.00  0.00    -0.237 OA
ATOM     71  O   UNL A   1      44.525  23.798  36.337  1.00  0.00    -0.237 OA
ATOM     72  O   UNL A   1      46.314  24.512  37.871  1.00  0.00    -0.744 OA
ENDBRANCH  65  69
ENDBRANCH  39  62
ENDBRANCH  13  14
ENDBRANCH   6   8
ENDBRANCH   3   4
ENDBRANCH   2   3
ENDBRANCH   1   2
BRANCH   1  73
ATOM     73  C   UNL A   1      32.987  30.090  26.792  1.00  0.00     0.002 C 
BRANCH  73  74
ATOM     74  C   UNL A   1      32.933  28.559  26.841  1.00  0.00     0.021 C 
BRANCH  74  75
ATOM     75  C   UNL A   1      33.566  27.870  25.633  1.00  0.00     0.116 C 
BRANCH  75  76
ATOM     76  N   UNL A   1      33.878  26.483  25.937  1.00  0.00    -0.356 N 
ATOM     77  C   UNL A   1      33.830  25.367  25.161  1.00  0.00     0.223 C 
ATOM     78  H   UNL A   1      34.177  26.325  26.862  1.00  0.00     0.163 HD
ATOM     79  O   UNL A   1      33.983  24.274  25.710  1.00  0.00    -0.275 OA
BRANCH  77  80
ATOM     80  C   UNL A   1      33.674  25.496  23.653  1.00  0.00     0.087 C 
ATOM     81  C   UNL A   1      34.161  24.197  22.990  1.00  0.00     0.014 C 
ATOM     82  C   UNL A   1      32.206  25.669  23.219  1.00  0.00     0.056 C 
ATOM     83  C   UNL A   1      32.919  23.444  22.522  1.00  0.00     0.001 C 
ATOM     84  C   UNL A   1      31.716  24.235  23.012  1.00  0.00     0.010 C 
BRANCH  82  85
ATOM     85  C   UNL A   1      32.024  26.570  21.968  1.00  0.00     0.265 C 
BRANCH  85  86
ATOM     86  N   UNL A   1      30.989  27.585  22.136  1.00  0.00    -0.343 N 
ATOM     87  H   UNL A   1      30.158  27.268  21.639  1.00  0.00     0.346 HD
ATOM     88  H   UNL A   1      31.393  28.448  21.773  1.00  0.00     0.346 HD
BRANCH  86  89
ATOM     89  C   UNL A   1      30.594  27.890  23.518  1.00  0.00     0.187 C 
ATOM     90  C   UNL A   1      29.275  27.148  23.802  1.00  0.00     0.093 C 
ATOM     91  C   UNL A   1      30.409  29.381  23.859  1.00  0.00     0.100 C 
ATOM     92  C   UNL A   1      28.095  27.795  23.085  1.00  0.00     0.167 C 
ATOM     93  C   UNL A   1      29.190  29.986  23.158  1.00  0.00     0.074 C 
ATOM     94  O   UNL A   1      28.016  29.177  23.424  1.00  0.00    -0.375 OA
ATOM     95  C   UNL A   1      28.991  31.495  23.498  1.00  0.00     0.036 C 
ATOM     96  C   UNL A   1      29.387  30.442  21.682  1.00  0.00     0.036 C 
ATOM     97  C   UNL A   1      28.648  31.742  22.020  1.00  0.00     0.006 C 
ENDBRANCH  86  89
ENDBRANCH  85  86
ENDBRANCH  82  85
ENDBRANCH  77  80
ENDBRANCH  75  76
ENDBRANCH  74  75
ENDBRANCH  73  74
ENDBRANCH   1  73
TORSDOF 19
ENDMDL
MODEL 3
REMARK VINA RESULT:     -11.1      1.883      2.165
REMARK SMILES O=C(NCCCCCCNC(=O)[C@H]1CCC[C@@H]1C[NH2+][C@@H]1CCOC2(CCC2)C1)c1ccc(-c2c3nc(c(-c4cc(S(=O)(=O)[O-])ccc4F)c4ccc([nH]4)c(-c4cc(S(=O)(=O)[O-])ccc4F)c4nc(c(-c5cc(S(=O)(=O)[O-])ccc5F)c5ccc2[nH]5)C=C4)C=C3)cc1
REMARK SMILES IDX 6 1 5 2 4 3 3 4 1 5 2 6 29 8 30 9 91 10 31 11 90 12 32 13
REMARK SMILES IDX 33 14 34 15 84 16 35 17 89 18 83 19 85 20 36 21 88 22 82 23
REMARK SMILES IDX 81 24 37 26 69 27 49 28 68 29 50 30 53 31 67 32 86 33 51 34
REMARK SMILES IDX 52 35 66 37 87 38 54 39 38 40 39 41 47 42 40 43 46 44 48 45
REMARK SMILES IDX 45 46 41 47 42 48 43 49 44 50 70 51 71 52 79 53 72 54 78 55
REMARK SMILES IDX 80 56 77 57 73 58 74 59 75 60 76 61 55 62 56 63 64 64 57 65
REMARK SMILES IDX 63 66 65 67 62 68 58 69 59 70 60 71 61 72 7 73 8 74 9 75
REMARK SMILES IDX 10 76 11 77 12 79 13 80 14 81 17 82 15 83 16 84 18 85 19 86
REMARK SMILES IDX 20 89 21 90 28 91 22 92 24 93 23 94 25 95 27 96 26 97
REMARK H PARENT 3 7 85 25 53 36 10 78 19 87 19 88
REMARK Flexibility Score: inf
ROOT
ATOM      1  C   UNL A   1      31.785  28.434  26.762  1.00  0.00     0.002 C 
ENDROOT
BRANCH   1   2
ATOM      2  C   UNL A   1      33.264  28.047  26.707  1.00  0.00     0.021 C 
BRANCH   2   3
ATOM      3  C   UNL A   1      34.181  29.110  26.114  1.00  0.00     0.116 C 
BRANCH   3   4
ATOM      4  N   UNL A   1      33.900  30.437  26.638  1.00  0.00    -0.352 N 
ATOM      5  O   UNL A   1      34.063  32.166  28.077  1.00  0.00    -0.269 OA
ATOM      6  C   UNL A   1      34.541  31.121  27.642  1.00  0.00     0.251 C 
ATOM      7  H   UNL A   1      33.147  30.910  26.216  1.00  0.00     0.163 HD
BRANCH   6   8
ATOM      8  C   UNL A   1      35.799  30.584  28.205  1.00  0.00     0.039 A 
ATOM      9  C   UNL A   1      37.028  30.894  27.617  1.00  0.00     0.014 A 
ATOM     10  C   UNL A   1      35.748  29.769  29.340  1.00  0.00     0.014 A 
ATOM     11  C   UNL A   1      38.190  30.294  28.088  1.00  0.00     0.010 A 
ATOM     12  C   UNL A   1      36.928  29.230  29.859  1.00  0.00     0.010 A 
ATOM     13  C   UNL A   1      38.156  29.471  29.224  1.00  0.00    -0.014 A 
BRANCH  13  14
ATOM     14  C   UNL A   1      39.429  28.926  29.766  1.00  0.00     0.031 A 
ATOM     15  C   UNL A   1      40.063  29.511  30.997  1.00  0.00     0.074 A 
ATOM     16  C   UNL A   1      39.995  27.874  29.143  1.00  0.00     0.049 A 
ATOM     17  N   UNL A   1      41.167  29.155  31.604  1.00  0.00    -0.248 NA
ATOM     18  C   UNL A   1      39.373  30.647  31.623  1.00  0.00     0.031 C 
ATOM     19  C   UNL A   1      39.467  27.229  27.937  1.00  0.00     0.029 A 
ATOM     20  N   UNL A   1      41.122  27.151  29.437  1.00  0.00    -0.354 N 
ATOM     21  C   UNL A   1      41.312  30.027  32.678  1.00  0.00     0.074 A 
ATOM     22  C   UNL A   1      40.199  30.952  32.615  1.00  0.00     0.031 C 
ATOM     23  C   UNL A   1      40.245  26.184  27.620  1.00  0.00     0.029 A 
ATOM     24  C   UNL A   1      41.362  26.124  28.555  1.00  0.00     0.049 A 
ATOM     25  H   UNL A   1      41.704  27.349  30.206  1.00  0.00     0.167 HD
ATOM     26  C   UNL A   1      42.279  30.045  33.630  1.00  0.00     0.034 A 
ATOM     27  C   UNL A   1      42.380  25.245  28.488  1.00  0.00     0.034 A 
ATOM     28  C   UNL A   1      43.385  29.114  33.670  1.00  0.00     0.049 A 
ATOM     29  C   UNL A   1      43.464  25.318  29.527  1.00  0.00     0.074 A 
ATOM     30  C   UNL A   1      44.408  29.029  34.600  1.00  0.00     0.029 A 
ATOM     31  N   UNL A   1      43.620  28.114  32.734  1.00  0.00    -0.354 N 
ATOM     32  N   UNL A   1      43.579  26.140  30.544  1.00  0.00    -0.248 NA
ATOM     33  C   UNL A   1      44.555  24.344  29.411  1.00  0.00     0.031 C 
ATOM     34  C   UNL A   1      45.293  28.024  34.191  1.00  0.00     0.029 A 
ATOM     35  C   UNL A   1      44.786  27.429  33.047  1.00  0.00     0.049 A 
ATOM     36  H   UNL A   1      43.043  27.919  31.961  1.00  0.00     0.167 HD
ATOM     37  C   UNL A   1      44.747  25.768  31.201  1.00  0.00     0.074 A 
ATOM     38  C   UNL A   1      45.286  24.634  30.477  1.00  0.00     0.031 C 
ATOM     39  C   UNL A   1      45.322  26.313  32.303  1.00  0.00     0.034 A 
BRANCH  26  40
ATOM     40  C   UNL A   1      42.205  31.130  34.677  1.00  0.00     0.023 A 
ATOM     41  C   UNL A   1      42.765  32.403  34.467  1.00  0.00     0.031 A 
ATOM     42  C   UNL A   1      41.580  30.886  35.913  1.00  0.00     0.131 A 
ATOM     43  C   UNL A   1      42.749  33.357  35.496  1.00  0.00     0.055 A 
ATOM     44  C   UNL A   1      41.500  31.865  36.906  1.00  0.00     0.041 A 
ATOM     45  F   UNL A   1      41.044  29.685  36.181  1.00  0.00    -0.206 F 
ATOM     46  C   UNL A   1      42.099  33.104  36.707  1.00  0.00     0.022 A 
BRANCH  43  47
ATOM     47  S   UNL A   1      43.708  34.882  35.283  1.00  0.00     0.124 S 
ATOM     48  O   UNL A   1      42.971  35.817  36.131  1.00  0.00    -0.237 OA
ATOM     49  O   UNL A   1      45.029  34.494  35.761  1.00  0.00    -0.237 OA
ATOM     50  O   UNL A   1      43.615  35.149  33.849  1.00  0.00    -0.744 OA
ENDBRANCH  43  47
ENDBRANCH  26  40
BRANCH  27  51
ATOM     51  C   UNL A   1      42.438  24.249  27.382  1.00  0.00     0.023 A 
ATOM     52  C   UNL A   1      41.626  23.104  27.394  1.00  0.00     0.031 A 
ATOM     53  C   UNL A   1      43.328  24.417  26.306  1.00  0.00     0.131 A 
ATOM     54  C   UNL A   1      41.748  22.153  26.370  1.00  0.00     0.055 A 
ATOM     55  C   UNL A   1      43.407  23.494  25.263  1.00  0.00     0.041 A 
ATOM     56  F   UNL A   1      44.124  25.497  26.246  1.00  0.00    -0.206 F 
ATOM     57  C   UNL A   1      42.622  22.346  25.298  1.00  0.00     0.022 A 
BRANCH  54  58
ATOM     58  S   UNL A   1      40.801  20.611  26.501  1.00  0.00     0.124 S 
ATOM     59  O   UNL A   1      39.504  21.013  25.966  1.00  0.00    -0.237 OA
ATOM     60  O   UNL A   1      41.585  19.704  25.670  1.00  0.00    -0.237 OA
ATOM     61  O   UNL A   1      40.823  20.319  27.933  1.00  0.00    -0.744 OA
ENDBRANCH  54  58
ENDBRANCH  27  51
BRANCH  39  62
ATOM     62  C   UNL A   1      46.584  25.655  32.802  1.00  0.00     0.023 A 
ATOM     63  C   UNL A   1      47.827  25.874  32.181  1.00  0.00     0.031 A 
ATOM     64  C   UNL A   1      46.537  24.770  33.894  1.00  0.00     0.131 A 
ATOM     65  C   UNL A   1      48.959  25.170  32.616  1.00  0.00     0.055 A 
ATOM     66  C   UNL A   1      47.678  24.118  34.360  1.00  0.00     0.041 A 
ATOM     67  F   UNL A   1      45.376  24.522  34.521  1.00  0.00    -0.206 F 
ATOM     68  C   UNL A   1      48.896  24.305  33.712  1.00  0.00     0.022 A 
BRANCH  65  69
ATOM     69  S   UNL A   1      50.499  25.325  31.669  1.00  0.00     0.124 S 
ATOM     70  O   UNL A   1      50.025  25.900  30.414  1.00  0.00    -0.237 OA
ATOM     71  O   UNL A   1      51.297  26.207  32.514  1.00  0.00    -0.237 OA
ATOM     72  O   UNL A   1      50.985  23.950  31.578  1.00  0.00    -0.744 OA
ENDBRANCH  65  69
ENDBRANCH  39  62
ENDBRANCH  13  14
ENDBRANCH   6   8
ENDBRANCH   3   4
ENDBRANCH   2   3
ENDBRANCH   1   2
BRANCH   1  73
ATOM     73  C   UNL A   1      30.972  28.073  25.515  1.00  0.00     0.002 C 
BRANCH  73  74
ATOM     74  C   UNL A   1      31.019  29.107  24.385  1.00  0.00     0.021 C 
BRANCH  74  75
ATOM     75  C   UNL A   1      30.784  28.526  22.992  1.00  0.00     0.116 C 
BRANCH  75  76
ATOM     76  N   UNL A   1      32.050  28.263  22.325  1.00  0.00    -0.356 N 
ATOM     77  C   UNL A   1      32.958  27.265  22.496  1.00  0.00     0.223 C 
ATOM     78  H   UNL A   1      32.288  28.919  21.630  1.00  0.00     0.163 HD
ATOM     79  O   UNL A   1      34.042  27.365  21.918  1.00  0.00    -0.275 OA
BRANCH  77  80
ATOM     80  C   UNL A   1      32.591  26.035  23.313  1.00  0.00     0.087 C 
ATOM     81  C   UNL A   1      31.967  24.986  22.378  1.00  0.00     0.014 C 
ATOM     82  C   UNL A   1      33.818  25.357  23.952  1.00  0.00     0.056 C 
ATOM     83  C   UNL A   1      33.010  23.890  22.180  1.00  0.00     0.001 C 
ATOM     84  C   UNL A   1      34.271  24.352  22.893  1.00  0.00     0.010 C 
BRANCH  82  85
ATOM     85  C   UNL A   1      33.527  24.709  25.333  1.00  0.00     0.265 C 
BRANCH  85  86
ATOM     86  N   UNL A   1      33.248  23.279  25.249  1.00  0.00    -0.343 N 
ATOM     87  H   UNL A   1      33.552  22.956  24.332  1.00  0.00     0.346 HD
ATOM     88  H   UNL A   1      32.246  23.187  25.417  1.00  0.00     0.346 HD
BRANCH  86  89
ATOM     89  C   UNL A   1      33.893  22.429  26.260  1.00  0.00     0.187 C 
ATOM     90  C   UNL A   1      35.385  22.319  25.894  1.00  0.00     0.093 C 
ATOM     91  C   UNL A   1      33.315  21.011  26.425  1.00  0.00     0.100 C 
ATOM     92  C   UNL A   1      35.605  21.427  24.677  1.00  0.00     0.167 C 
ATOM     93  C   UNL A   1      33.594  20.129  25.204  1.00  0.00     0.074 C 
ATOM     94  O   UNL A   1      35.011  20.149  24.895  1.00  0.00    -0.375 OA
ATOM     95  C   UNL A   1      33.016  18.689  25.361  1.00  0.00     0.036 C 
ATOM     96  C   UNL A   1      32.627  20.284  23.994  1.00  0.00     0.036 C 
ATOM     97  C   UNL A   1      32.560  18.755  23.894  1.00  0.00     0.006 C 
ENDBRANCH  86  89
ENDBRANCH  85  86
ENDBRANCH  82  85
ENDBRANCH  77  80
ENDBRANCH  75  76
ENDBRANCH  74  75
ENDBRANCH  73  74
ENDBRANCH   1  73
TORSDOF 19
ENDMDL
