MODEL 1
REMARK VINA RESULT:     -11.3      0.000      0.000
REMARK SMILES O=C(NCCCCCCNC(=O)[C@H]1COCCN1C(=O)c1ccc(Br)nc1)c1ccc(-c2c3nc(c(-c4cc(S(=O)(=O)[O-])ccc4F)c4ccc([nH]4)c(-c4cc(S(=O)(=O)[O-])ccc4F)c4nc(c(-c5cc(S(=O)(=O)[O-])ccc5F)c5ccc2[nH]5)C=C4)C=C3)cc1
REMARK SMILES IDX 6 1 5 2 4 3 3 4 1 5 2 6 28 8 29 9 90 10 30 11 89 12 31 13
REMARK SMILES IDX 32 14 33 15 83 16 34 17 88 18 82 19 84 20 35 21 87 22 81 23
REMARK SMILES IDX 80 24 36 26 68 27 48 28 67 29 49 30 52 31 66 32 85 33 50 34
REMARK SMILES IDX 51 35 65 37 86 38 53 39 37 40 38 41 46 42 39 43 45 44 47 45
REMARK SMILES IDX 44 46 40 47 41 48 42 49 43 50 69 51 70 52 78 53 71 54 77 55
REMARK SMILES IDX 79 56 76 57 72 58 73 59 74 60 75 61 54 62 55 63 63 64 56 65
REMARK SMILES IDX 62 66 64 67 61 68 57 69 58 70 59 71 60 72 7 73 8 74 9 75
REMARK SMILES IDX 10 76 11 77 12 79 13 80 14 81 18 82 15 83 17 84 16 85 19 86
REMARK SMILES IDX 20 87 21 88 22 89 27 90 23 91 26 92 24 93 25 94
REMARK H PARENT 3 7 84 25 52 36 10 78
REMARK Flexibility Score: inf
ROOT
ATOM      1  C   UNL A   1      31.222  30.576  26.176  1.00  0.00     0.002 C 
ENDROOT
BRANCH   1   2
ATOM      2  C   UNL A   1      31.384  32.069  26.465  1.00  0.00     0.021 C 
BRANCH   2   3
ATOM      3  C   UNL A   1      32.711  32.449  27.113  1.00  0.00     0.116 C 
BRANCH   3   4
ATOM      4  N   UNL A   1      32.730  33.839  27.546  1.00  0.00    -0.352 N 
ATOM      5  O   UNL A   1      33.264  35.582  28.873  1.00  0.00    -0.269 OA
ATOM      6  C   UNL A   1      33.516  34.439  28.499  1.00  0.00     0.251 C 
ATOM      7  H   UNL A   1      32.088  34.433  27.093  1.00  0.00     0.163 HD
BRANCH   6   8
ATOM      8  C   UNL A   1      34.657  33.699  29.078  1.00  0.00     0.039 A 
ATOM      9  C   UNL A   1      34.444  32.538  29.825  1.00  0.00     0.014 A 
ATOM     10  C   UNL A   1      35.956  34.170  28.866  1.00  0.00     0.014 A 
ATOM     11  C   UNL A   1      35.513  31.925  30.469  1.00  0.00     0.010 A 
ATOM     12  C   UNL A   1      37.039  33.505  29.449  1.00  0.00     0.010 A 
ATOM     13  C   UNL A   1      36.823  32.394  30.282  1.00  0.00    -0.014 A 
BRANCH  13  14
ATOM     14  C   UNL A   1      37.952  31.685  30.937  1.00  0.00     0.031 A 
ATOM     15  C   UNL A   1      38.761  30.661  30.189  1.00  0.00     0.074 A 
ATOM     16  C   UNL A   1      38.262  31.996  32.210  1.00  0.00     0.049 A 
ATOM     17  N   UNL A   1      39.789  29.960  30.598  1.00  0.00    -0.248 NA
ATOM     18  C   UNL A   1      38.352  30.377  28.807  1.00  0.00     0.031 C 
ATOM     19  C   UNL A   1      37.544  32.972  33.034  1.00  0.00     0.029 A 
ATOM     20  N   UNL A   1      39.264  31.545  33.029  1.00  0.00    -0.354 N 
ATOM     21  C   UNL A   1      40.140  29.138  29.532  1.00  0.00     0.074 A 
ATOM     22  C   UNL A   1      39.187  29.404  28.474  1.00  0.00     0.031 C 
ATOM     23  C   UNL A   1      38.160  33.085  34.219  1.00  0.00     0.029 A 
ATOM     24  C   UNL A   1      39.274  32.145  34.267  1.00  0.00     0.049 A 
ATOM     25  H   UNL A   1      39.916  30.859  32.757  1.00  0.00     0.167 HD
ATOM     26  C   UNL A   1      41.166  28.252  29.446  1.00  0.00     0.034 A 
ATOM     27  C   UNL A   1      40.079  31.951  35.327  1.00  0.00     0.034 A 
ATOM     28  C   UNL A   1      42.106  28.006  30.516  1.00  0.00     0.049 A 
ATOM     29  C   UNL A   1      41.185  30.939  35.221  1.00  0.00     0.074 A 
ATOM     30  C   UNL A   1      43.203  27.160  30.526  1.00  0.00     0.029 A 
ATOM     31  N   UNL A   1      42.057  28.598  31.774  1.00  0.00    -0.354 N 
ATOM     32  N   UNL A   1      41.516  30.180  34.201  1.00  0.00    -0.248 NA
ATOM     33  C   UNL A   1      42.030  30.760  36.408  1.00  0.00     0.031 C 
ATOM     34  C   UNL A   1      43.771  27.187  31.805  1.00  0.00     0.029 A 
ATOM     35  C   UNL A   1      43.081  28.110  32.575  1.00  0.00     0.049 A 
ATOM     36  H   UNL A   1      41.393  29.267  32.055  1.00  0.00     0.167 HD
ATOM     37  C   UNL A   1      42.626  29.451  34.616  1.00  0.00     0.074 A 
ATOM     38  C   UNL A   1      42.914  29.873  35.973  1.00  0.00     0.031 C 
ATOM     39  C   UNL A   1      43.346  28.523  33.935  1.00  0.00     0.034 A 
BRANCH  26  40
ATOM     40  C   UNL A   1      41.282  27.447  28.170  1.00  0.00     0.023 A 
ATOM     41  C   UNL A   1      40.908  26.093  28.105  1.00  0.00     0.031 A 
ATOM     42  C   UNL A   1      41.818  28.033  27.008  1.00  0.00     0.131 A 
ATOM     43  C   UNL A   1      41.155  25.351  26.939  1.00  0.00     0.055 A 
ATOM     44  C   UNL A   1      41.982  27.312  25.824  1.00  0.00     0.041 A 
ATOM     45  F   UNL A   1      42.213  29.317  27.011  1.00  0.00    -0.206 F 
ATOM     46  C   UNL A   1      41.667  25.958  25.789  1.00  0.00     0.022 A 
BRANCH  43  47
ATOM     47  S   UNL A   1      40.957  23.548  26.999  1.00  0.00     0.124 S 
ATOM     48  O   UNL A   1      41.475  23.236  28.328  1.00  0.00    -0.237 OA
ATOM     49  O   UNL A   1      39.519  23.384  26.817  1.00  0.00    -0.237 OA
ATOM     50  O   UNL A   1      41.785  23.075  25.891  1.00  0.00    -0.744 OA
ENDBRANCH  43  47
ENDBRANCH  26  40
BRANCH  27  51
ATOM     51  C   UNL A   1      39.858  32.723  36.581  1.00  0.00     0.023 A 
ATOM     52  C   UNL A   1      38.895  32.320  37.518  1.00  0.00     0.031 A 
ATOM     53  C   UNL A   1      40.607  33.882  36.856  1.00  0.00     0.131 A 
ATOM     54  C   UNL A   1      38.685  33.087  38.675  1.00  0.00     0.055 A 
ATOM     55  C   UNL A   1      40.428  34.613  38.030  1.00  0.00     0.041 A 
ATOM     56  F   UNL A   1      41.546  34.305  35.994  1.00  0.00    -0.206 F 
ATOM     57  C   UNL A   1      39.455  34.222  38.944  1.00  0.00     0.022 A 
BRANCH  54  58
ATOM     58  S   UNL A   1      37.348  32.608  39.803  1.00  0.00     0.124 S 
ATOM     59  O   UNL A   1      36.204  32.553  38.901  1.00  0.00    -0.237 OA
ATOM     60  O   UNL A   1      37.826  31.329  40.315  1.00  0.00    -0.237 OA
ATOM     61  O   UNL A   1      37.322  33.695  40.779  1.00  0.00    -0.744 OA
ENDBRANCH  54  58
ENDBRANCH  27  51
BRANCH  39  62
ATOM     62  C   UNL A   1      44.544  27.940  34.644  1.00  0.00     0.023 A 
ATOM     63  C   UNL A   1      44.450  26.772  35.421  1.00  0.00     0.031 A 
ATOM     64  C   UNL A   1      45.790  28.586  34.568  1.00  0.00     0.131 A 
ATOM     65  C   UNL A   1      45.567  26.320  36.141  1.00  0.00     0.055 A 
ATOM     66  C   UNL A   1      46.913  28.097  35.237  1.00  0.00     0.041 A 
ATOM     67  F   UNL A   1      45.936  29.708  33.843  1.00  0.00    -0.206 F 
ATOM     68  C   UNL A   1      46.802  26.967  36.041  1.00  0.00     0.022 A 
BRANCH  65  69
ATOM     69  S   UNL A   1      45.360  24.935  37.294  1.00  0.00     0.124 S 
ATOM     70  O   UNL A   1      46.668  24.878  37.939  1.00  0.00    -0.237 OA
ATOM     71  O   UNL A   1      44.255  25.390  38.133  1.00  0.00    -0.237 OA
ATOM     72  O   UNL A   1      45.050  23.806  36.421  1.00  0.00    -0.744 OA
ENDBRANCH  65  69
ENDBRANCH  39  62
ENDBRANCH  13  14
ENDBRANCH   6   8
ENDBRANCH   3   4
ENDBRANCH   2   3
ENDBRANCH   1   2
BRANCH   1  73
ATOM     73  C   UNL A   1      32.252  29.662  26.853  1.00  0.00     0.002 C 
BRANCH  73  74
ATOM     74  C   UNL A   1      31.698  28.333  27.381  1.00  0.00     0.021 C 
BRANCH  74  75
ATOM     75  C   UNL A   1      31.354  27.336  26.281  1.00  0.00     0.116 C 
BRANCH  75  76
ATOM     76  N   UNL A   1      31.109  26.014  26.809  1.00  0.00    -0.354 N 
ATOM     77  C   UNL A   1      31.832  24.867  26.654  1.00  0.00     0.245 C 
ATOM     78  H   UNL A   1      30.299  25.928  27.362  1.00  0.00     0.163 HD
ATOM     79  O   UNL A   1      31.508  23.921  27.377  1.00  0.00    -0.273 OA
BRANCH  77  80
ATOM     80  C   UNL A   1      33.108  24.837  25.765  1.00  0.00     0.200 C 
ATOM     81  C   UNL A   1      34.075  23.745  26.280  1.00  0.00     0.195 C 
ATOM     82  N   UNL A   1      32.882  24.598  24.316  1.00  0.00    -0.322 N 
ATOM     83  O   UNL A   1      33.619  22.410  25.978  1.00  0.00    -0.377 OA
ATOM     84  C   UNL A   1      32.392  23.248  24.031  1.00  0.00     0.149 C 
ATOM     85  C   UNL A   1      33.390  22.222  24.574  1.00  0.00     0.181 C 
BRANCH  82  86
ATOM     86  C   UNL A   1      33.238  25.409  23.240  1.00  0.00     0.256 C 
ATOM     87  O   UNL A   1      34.165  25.137  22.480  1.00  0.00    -0.269 OA
BRANCH  86  88
ATOM     88  C   UNL A   1      32.474  26.630  22.931  1.00  0.00     0.058 A 
ATOM     89  C   UNL A   1      32.961  27.918  23.133  1.00  0.00     0.018 A 
ATOM     90  C   UNL A   1      31.202  26.484  22.390  1.00  0.00     0.126 A 
ATOM     91  C   UNL A   1      32.125  29.005  22.872  1.00  0.00     0.037 A 
ATOM     92  N   UNL A   1      30.367  27.521  22.152  1.00  0.00    -0.249 NA
ATOM     93  C   UNL A   1      30.841  28.760  22.400  1.00  0.00     0.106 A 
ATOM     94  Br  UNL A   1      29.680  30.228  22.108  1.00  0.00    -0.029 Br
ENDBRANCH  86  88
ENDBRANCH  82  86
ENDBRANCH  77  80
ENDBRANCH  75  76
ENDBRANCH  74  75
ENDBRANCH  73  74
ENDBRANCH   1  73
TORSDOF 18
ENDMDL
MODEL 2
REMARK VINA RESULT:     -11.2      2.022      7.756
REMARK SMILES O=C(NCCCCCCNC(=O)[C@H]1COCCN1C(=O)c1ccc(Br)nc1)c1ccc(-c2c3nc(c(-c4cc(S(=O)(=O)[O-])ccc4F)c4ccc([nH]4)c(-c4cc(S(=O)(=O)[O-])ccc4F)c4nc(c(-c5cc(S(=O)(=O)[O-])ccc5F)c5ccc2[nH]5)C=C4)C=C3)cc1
REMARK SMILES IDX 6 1 5 2 4 3 3 4 1 5 2 6 28 8 29 9 90 10 30 11 89 12 31 13
REMARK SMILES IDX 32 14 33 15 83 16 34 17 88 18 82 19 84 20 35 21 87 22 81 23
REMARK SMILES IDX 80 24 36 26 68 27 48 28 67 29 49 30 52 31 66 32 85 33 50 34
REMARK SMILES IDX 51 35 65 37 86 38 53 39 37 40 38 41 46 42 39 43 45 44 47 45
REMARK SMILES IDX 44 46 40 47 41 48 42 49 43 50 69 51 70 52 78 53 71 54 77 55
REMARK SMILES IDX 79 56 76 57 72 58 73 59 74 60 75 61 54 62 55 63 63 64 56 65
REMARK SMILES IDX 62 66 64 67 61 68 57 69 58 70 59 71 60 72 7 73 8 74 9 75
REMARK SMILES IDX 10 76 11 77 12 79 13 80 14 81 18 82 15 83 17 84 16 85 19 86
REMARK SMILES IDX 20 87 21 88 22 89 27 90 23 91 26 92 24 93 25 94
REMARK H PARENT 3 7 84 25 52 36 10 78
REMARK Flexibility Score: inf
ROOT
ATOM      1  C   UNL A   1      31.404  30.709  26.128  1.00  0.00     0.002 C 
ENDROOT
BRANCH   1   2
ATOM      2  C   UNL A   1      31.437  32.184  26.529  1.00  0.00     0.021 C 
BRANCH   2   3
ATOM      3  C   UNL A   1      32.723  32.624  27.222  1.00  0.00     0.116 C 
BRANCH   3   4
ATOM      4  N   UNL A   1      32.634  33.988  27.725  1.00  0.00    -0.352 N 
ATOM      5  O   UNL A   1      33.009  35.689  29.155  1.00  0.00    -0.269 OA
ATOM      6  C   UNL A   1      33.350  34.587  28.732  1.00  0.00     0.251 C 
ATOM      7  H   UNL A   1      31.967  34.560  27.282  1.00  0.00     0.163 HD
BRANCH   6   8
ATOM      8  C   UNL A   1      34.521  33.896  29.310  1.00  0.00     0.039 A 
ATOM      9  C   UNL A   1      34.349  32.838  30.206  1.00  0.00     0.014 A 
ATOM     10  C   UNL A   1      35.806  34.308  28.946  1.00  0.00     0.014 A 
ATOM     11  C   UNL A   1      35.455  32.281  30.838  1.00  0.00     0.010 A 
ATOM     12  C   UNL A   1      36.920  33.691  29.524  1.00  0.00     0.010 A 
ATOM     13  C   UNL A   1      36.754  32.694  30.498  1.00  0.00    -0.014 A 
BRANCH  13  14
ATOM     14  C   UNL A   1      37.919  32.042  31.149  1.00  0.00     0.031 A 
ATOM     15  C   UNL A   1      38.359  32.443  32.531  1.00  0.00     0.074 A 
ATOM     16  C   UNL A   1      38.564  31.059  30.491  1.00  0.00     0.049 A 
ATOM     17  N   UNL A   1      39.340  31.969  33.256  1.00  0.00    -0.248 NA
ATOM     18  C   UNL A   1      37.605  33.527  33.174  1.00  0.00     0.031 C 
ATOM     19  C   UNL A   1      38.227  30.590  29.144  1.00  0.00     0.029 A 
ATOM     20  N   UNL A   1      39.617  30.267  30.864  1.00  0.00    -0.354 N 
ATOM     21  C   UNL A   1      39.337  32.708  34.434  1.00  0.00     0.074 A 
ATOM     22  C   UNL A   1      38.277  33.688  34.305  1.00  0.00     0.031 C 
ATOM     23  C   UNL A   1      39.022  29.558  28.827  1.00  0.00     0.029 A 
ATOM     24  C   UNL A   1      39.966  29.334  29.915  1.00  0.00     0.049 A 
ATOM     25  H   UNL A   1      40.080  30.355  31.729  1.00  0.00     0.167 HD
ATOM     26  C   UNL A   1      40.139  32.574  35.522  1.00  0.00     0.034 A 
ATOM     27  C   UNL A   1      40.946  28.412  29.913  1.00  0.00     0.034 A 
ATOM     28  C   UNL A   1      41.189  31.587  35.629  1.00  0.00     0.049 A 
ATOM     29  C   UNL A   1      41.845  28.306  31.113  1.00  0.00     0.074 A 
ATOM     30  C   UNL A   1      42.037  31.339  36.695  1.00  0.00     0.029 A 
ATOM     31  N   UNL A   1      41.545  30.690  34.628  1.00  0.00    -0.354 N 
ATOM     32  N   UNL A   1      41.819  29.001  32.227  1.00  0.00    -0.248 NA
ATOM     33  C   UNL A   1      42.901  27.290  31.057  1.00  0.00     0.031 C 
ATOM     34  C   UNL A   1      42.946  30.344  36.315  1.00  0.00     0.029 A 
ATOM     35  C   UNL A   1      42.619  29.912  35.040  1.00  0.00     0.049 A 
ATOM     36  H   UNL A   1      41.100  30.616  33.754  1.00  0.00     0.167 HD
ATOM     37  C   UNL A   1      42.842  28.486  33.017  1.00  0.00     0.074 A 
ATOM     38  C   UNL A   1      43.453  27.415  32.255  1.00  0.00     0.031 C 
ATOM     39  C   UNL A   1      43.235  28.860  34.263  1.00  0.00     0.034 A 
BRANCH  26  40
ATOM     40  C   UNL A   1      39.942  33.560  36.654  1.00  0.00     0.023 A 
ATOM     41  C   UNL A   1      40.820  34.638  36.866  1.00  0.00     0.031 A 
ATOM     42  C   UNL A   1      38.882  33.391  37.565  1.00  0.00     0.131 A 
ATOM     43  C   UNL A   1      40.675  35.448  38.004  1.00  0.00     0.055 A 
ATOM     44  C   UNL A   1      38.693  34.253  38.647  1.00  0.00     0.041 A 
ATOM     45  F   UNL A   1      38.022  32.370  37.429  1.00  0.00    -0.206 F 
ATOM     46  C   UNL A   1      39.603  35.278  38.883  1.00  0.00     0.022 A 
BRANCH  43  47
ATOM     47  S   UNL A   1      42.002  36.618  38.410  1.00  0.00     0.124 S 
ATOM     48  O   UNL A   1      42.935  35.766  39.142  1.00  0.00    -0.237 OA
ATOM     49  O   UNL A   1      42.441  37.066  37.094  1.00  0.00    -0.237 OA
ATOM     50  O   UNL A   1      41.329  37.631  39.223  1.00  0.00    -0.744 OA
ENDBRANCH  43  47
ENDBRANCH  26  40
BRANCH  27  51
ATOM     51  C   UNL A   1      41.132  27.526  28.730  1.00  0.00     0.023 A 
ATOM     52  C   UNL A   1      42.130  27.789  27.780  1.00  0.00     0.031 A 
ATOM     53  C   UNL A   1      40.307  26.404  28.532  1.00  0.00     0.131 A 
ATOM     54  C   UNL A   1      42.260  26.957  26.657  1.00  0.00     0.055 A 
ATOM     55  C   UNL A   1      40.472  25.552  27.440  1.00  0.00     0.041 A 
ATOM     56  F   UNL A   1      39.342  26.106  29.417  1.00  0.00    -0.206 F 
ATOM     57  C   UNL A   1      41.448  25.832  26.488  1.00  0.00     0.022 A 
BRANCH  54  58
ATOM     58  S   UNL A   1      43.477  27.397  25.386  1.00  0.00     0.124 S 
ATOM     59  O   UNL A   1      42.617  27.782  24.274  1.00  0.00    -0.237 OA
ATOM     60  O   UNL A   1      44.214  28.477  26.033  1.00  0.00    -0.237 OA
ATOM     61  O   UNL A   1      44.230  26.160  25.195  1.00  0.00    -0.744 OA
ENDBRANCH  54  58
ENDBRANCH  27  51
BRANCH  39  62
ATOM     62  C   UNL A   1      44.354  28.064  34.888  1.00  0.00     0.023 A 
ATOM     63  C   UNL A   1      44.106  26.922  35.670  1.00  0.00     0.031 A 
ATOM     64  C   UNL A   1      45.688  28.477  34.726  1.00  0.00     0.131 A 
ATOM     65  C   UNL A   1      45.171  26.269  36.311  1.00  0.00     0.055 A 
ATOM     66  C   UNL A   1      46.748  27.787  35.315  1.00  0.00     0.041 A 
ATOM     67  F   UNL A   1      45.983  29.563  33.992  1.00  0.00    -0.206 F 
ATOM     68  C   UNL A   1      46.491  26.686  36.126  1.00  0.00     0.022 A 
BRANCH  65  69
ATOM     69  S   UNL A   1      44.797  24.930  37.477  1.00  0.00     0.124 S 
ATOM     70  O   UNL A   1      45.188  23.748  36.717  1.00  0.00    -0.237 OA
ATOM     71  O   UNL A   1      45.644  25.264  38.617  1.00  0.00    -0.237 OA
ATOM     72  O   UNL A   1      43.362  25.070  37.711  1.00  0.00    -0.744 OA
ENDBRANCH  65  69
ENDBRANCH  39  62
ENDBRANCH  13  14
ENDBRANCH   6   8
ENDBRANCH   3   4
ENDBRANCH   2   3
ENDBRANCH   1   2
BRANCH   1  73
ATOM     73  C   UNL A   1      32.244  29.772  27.006  1.00  0.00     0.002 C 
BRANCH  73  74
ATOM     74  C   UNL A   1      31.517  28.518  27.505  1.00  0.00     0.021 C 
BRANCH  74  75
ATOM     75  C   UNL A   1      31.272  27.480  26.415  1.00  0.00     0.116 C 
BRANCH  75  76
ATOM     76  N   UNL A   1      31.207  26.141  26.951  1.00  0.00    -0.354 N 
ATOM     77  C   UNL A   1      31.719  24.978  26.454  1.00  0.00     0.245 C 
ATOM     78  H   UNL A   1      30.719  26.054  27.802  1.00  0.00     0.163 HD
ATOM     79  O   UNL A   1      31.690  24.005  27.213  1.00  0.00    -0.273 OA
BRANCH  77  80
ATOM     80  C   UNL A   1      32.470  24.950  25.092  1.00  0.00     0.200 C 
ATOM     81  C   UNL A   1      33.433  23.740  25.055  1.00  0.00     0.195 C 
ATOM     82  N   UNL A   1      31.612  24.887  23.880  1.00  0.00    -0.322 N 
ATOM     83  O   UNL A   1      32.743  22.483  24.900  1.00  0.00    -0.377 OA
ATOM     84  C   UNL A   1      30.897  23.615  23.756  1.00  0.00     0.149 C 
ATOM     85  C   UNL A   1      31.908  22.466  23.733  1.00  0.00     0.181 C 
BRANCH  82  86
ATOM     86  C   UNL A   1      31.556  25.781  22.813  1.00  0.00     0.256 C 
ATOM     87  O   UNL A   1      32.104  25.564  21.735  1.00  0.00    -0.269 OA
BRANCH  86  88
ATOM     88  C   UNL A   1      30.780  27.029  22.916  1.00  0.00     0.058 A 
ATOM     89  C   UNL A   1      29.429  27.073  23.247  1.00  0.00     0.018 A 
ATOM     90  C   UNL A   1      31.442  28.228  22.687  1.00  0.00     0.126 A 
ATOM     91  C   UNL A   1      28.773  28.306  23.248  1.00  0.00     0.037 A 
ATOM     92  N   UNL A   1      30.823  29.431  22.659  1.00  0.00    -0.249 NA
ATOM     93  C   UNL A   1      29.502  29.448  22.936  1.00  0.00     0.106 A 
ATOM     94  Br  UNL A   1      28.604  31.114  22.870  1.00  0.00    -0.029 Br
ENDBRANCH  86  88
ENDBRANCH  82  86
ENDBRANCH  77  80
ENDBRANCH  75  76
ENDBRANCH  74  75
ENDBRANCH  73  74
ENDBRANCH   1  73
TORSDOF 18
ENDMDL
MODEL 3
REMARK VINA RESULT:     -11.2      1.992      2.345
REMARK SMILES O=C(NCCCCCCNC(=O)[C@H]1COCCN1C(=O)c1ccc(Br)nc1)c1ccc(-c2c3nc(c(-c4cc(S(=O)(=O)[O-])ccc4F)c4ccc([nH]4)c(-c4cc(S(=O)(=O)[O-])ccc4F)c4nc(c(-c5cc(S(=O)(=O)[O-])ccc5F)c5ccc2[nH]5)C=C4)C=C3)cc1
REMARK SMILES IDX 6 1 5 2 4 3 3 4 1 5 2 6 28 8 29 9 90 10 30 11 89 12 31 13
REMARK SMILES IDX 32 14 33 15 83 16 34 17 88 18 82 19 84 20 35 21 87 22 81 23
REMARK SMILES IDX 80 24 36 26 68 27 48 28 67 29 49 30 52 31 66 32 85 33 50 34
REMARK SMILES IDX 51 35 65 37 86 38 53 39 37 40 38 41 46 42 39 43 45 44 47 45
REMARK SMILES IDX 44 46 40 47 41 48 42 49 43 50 69 51 70 52 78 53 71 54 77 55
REMARK SMILES IDX 79 56 76 57 72 58 73 59 74 60 75 61 54 62 55 63 63 64 56 65
REMARK SMILES IDX 62 66 64 67 61 68 57 69 58 70 59 71 60 72 7 73 8 74 9 75
REMARK SMILES IDX 10 76 11 77 12 79 13 80 14 81 18 82 15 83 17 84 16 85 19 86
REMARK SMILES IDX 20 87 21 88 22 89 27 90 23 91 26 92 24 93 25 94
REMARK H PARENT 3 7 84 25 52 36 10 78
REMARK Flexibility Score: inf
ROOT
ATOM      1  C   UNL A   1      31.737  30.495  26.225  1.00  0.00     0.002 C 
ENDROOT
BRANCH   1   2
ATOM      2  C   UNL A   1      31.656  31.949  26.697  1.00  0.00     0.021 C 
BRANCH   2   3
ATOM      3  C   UNL A   1      32.933  32.478  27.340  1.00  0.00     0.116 C 
BRANCH   3   4
ATOM      4  N   UNL A   1      32.844  33.900  27.643  1.00  0.00    -0.352 N 
ATOM      5  O   UNL A   1      33.153  35.777  28.853  1.00  0.00    -0.269 OA
ATOM      6  C   UNL A   1      33.494  34.621  28.615  1.00  0.00     0.251 C 
ATOM      7  H   UNL A   1      32.230  34.417  27.072  1.00  0.00     0.163 HD
BRANCH   6   8
ATOM      8  C   UNL A   1      34.595  33.996  29.376  1.00  0.00     0.039 A 
ATOM      9  C   UNL A   1      35.926  34.301  29.078  1.00  0.00     0.014 A 
ATOM     10  C   UNL A   1      34.293  33.099  30.405  1.00  0.00     0.014 A 
ATOM     11  C   UNL A   1      36.952  33.612  29.715  1.00  0.00     0.010 A 
ATOM     12  C   UNL A   1      35.328  32.467  31.100  1.00  0.00     0.010 A 
ATOM     13  C   UNL A   1      36.667  32.695  30.740  1.00  0.00    -0.014 A 
BRANCH  13  14
ATOM     14  C   UNL A   1      37.786  32.015  31.442  1.00  0.00     0.031 A 
ATOM     15  C   UNL A   1      38.570  30.921  30.771  1.00  0.00     0.074 A 
ATOM     16  C   UNL A   1      38.109  32.416  32.686  1.00  0.00     0.049 A 
ATOM     17  N   UNL A   1      39.586  30.234  31.226  1.00  0.00    -0.248 NA
ATOM     18  C   UNL A   1      38.147  30.542  29.416  1.00  0.00     0.031 C 
ATOM     19  C   UNL A   1      37.415  33.466  33.437  1.00  0.00     0.029 A 
ATOM     20  N   UNL A   1      39.107  32.009  33.532  1.00  0.00    -0.354 N 
ATOM     21  C   UNL A   1      39.915  29.326  30.225  1.00  0.00     0.074 A 
ATOM     22  C   UNL A   1      38.961  29.529  29.154  1.00  0.00     0.031 C 
ATOM     23  C   UNL A   1      38.041  33.656  34.607  1.00  0.00     0.029 A 
ATOM     24  C   UNL A   1      39.137  32.701  34.721  1.00  0.00     0.049 A 
ATOM     25  H   UNL A   1      39.744  31.291  33.310  1.00  0.00     0.167 HD
ATOM     26  C   UNL A   1      40.923  28.416  30.202  1.00  0.00     0.034 A 
ATOM     27  C   UNL A   1      39.945  32.572  35.789  1.00  0.00     0.034 A 
ATOM     28  C   UNL A   1      41.865  28.233  31.283  1.00  0.00     0.049 A 
ATOM     29  C   UNL A   1      41.030  31.533  35.755  1.00  0.00     0.074 A 
ATOM     30  C   UNL A   1      42.944  27.368  31.352  1.00  0.00     0.029 A 
ATOM     31  N   UNL A   1      41.835  28.920  32.492  1.00  0.00    -0.354 N 
ATOM     32  N   UNL A   1      41.340  30.693  34.795  1.00  0.00    -0.248 NA
ATOM     33  C   UNL A   1      41.879  31.428  36.948  1.00  0.00     0.031 C 
ATOM     34  C   UNL A   1      43.521  27.482  32.623  1.00  0.00     0.029 A 
ATOM     35  C   UNL A   1      42.854  28.474  33.323  1.00  0.00     0.049 A 
ATOM     36  H   UNL A   1      41.185  29.621  32.725  1.00  0.00     0.167 HD
ATOM     37  C   UNL A   1      42.438  29.976  35.259  1.00  0.00     0.074 A 
ATOM     38  C   UNL A   1      42.742  30.493  36.578  1.00  0.00     0.031 C 
ATOM     39  C   UNL A   1      43.135  28.984  34.646  1.00  0.00     0.034 A 
BRANCH  26  40
ATOM     40  C   UNL A   1      41.015  27.514  28.990  1.00  0.00     0.023 A 
ATOM     41  C   UNL A   1      42.017  27.672  28.017  1.00  0.00     0.031 A 
ATOM     42  C   UNL A   1      40.054  26.507  28.781  1.00  0.00     0.131 A 
ATOM     43  C   UNL A   1      41.987  26.900  26.844  1.00  0.00     0.055 A 
ATOM     44  C   UNL A   1      40.079  25.685  27.653  1.00  0.00     0.041 A 
ATOM     45  F   UNL A   1      39.059  26.319  29.662  1.00  0.00    -0.206 F 
ATOM     46  C   UNL A   1      41.037  25.890  26.667  1.00  0.00     0.022 A 
BRANCH  43  47
ATOM     47  S   UNL A   1      43.097  27.347  25.481  1.00  0.00     0.124 S 
ATOM     48  O   UNL A   1      44.132  28.107  26.178  1.00  0.00    -0.237 OA
ATOM     49  O   UNL A   1      43.500  26.045  24.963  1.00  0.00    -0.237 OA
ATOM     50  O   UNL A   1      42.249  28.139  24.592  1.00  0.00    -0.744 OA
ENDBRANCH  43  47
ENDBRANCH  26  40
BRANCH  27  51
ATOM     51  C   UNL A   1      39.747  33.442  36.982  1.00  0.00     0.023 A 
ATOM     52  C   UNL A   1      40.560  34.563  37.201  1.00  0.00     0.031 A 
ATOM     53  C   UNL A   1      38.741  33.157  37.924  1.00  0.00     0.131 A 
ATOM     54  C   UNL A   1      40.373  35.345  38.352  1.00  0.00     0.055 A 
ATOM     55  C   UNL A   1      38.527  33.965  39.040  1.00  0.00     0.041 A 
ATOM     56  F   UNL A   1      37.932  32.099  37.754  1.00  0.00    -0.206 F 
ATOM     57  C   UNL A   1      39.353  35.062  39.265  1.00  0.00     0.022 A 
BRANCH  54  58
ATOM     58  S   UNL A   1      41.521  36.713  38.669  1.00  0.00     0.124 S 
ATOM     59  O   UNL A   1      40.652  37.684  39.322  1.00  0.00    -0.237 OA
ATOM     60  O   UNL A   1      42.524  36.076  39.516  1.00  0.00    -0.237 OA
ATOM     61  O   UNL A   1      41.983  37.085  37.334  1.00  0.00    -0.744 OA
ENDBRANCH  54  58
ENDBRANCH  27  51
BRANCH  39  62
ATOM     62  C   UNL A   1      44.326  28.433  35.392  1.00  0.00     0.023 A 
ATOM     63  C   UNL A   1      44.191  27.429  36.368  1.00  0.00     0.031 A 
ATOM     64  C   UNL A   1      45.611  28.947  35.146  1.00  0.00     0.131 A 
ATOM     65  C   UNL A   1      45.312  27.016  37.105  1.00  0.00     0.055 A 
ATOM     66  C   UNL A   1      46.732  28.488  35.839  1.00  0.00     0.041 A 
ATOM     67  F   UNL A   1      45.798  29.910  34.228  1.00  0.00    -0.206 F 
ATOM     68  C   UNL A   1      46.584  27.528  36.835  1.00  0.00     0.022 A 
BRANCH  65  69
ATOM     69  S   UNL A   1      45.070  25.875  38.494  1.00  0.00     0.124 S 
ATOM     70  O   UNL A   1      44.802  24.614  37.809  1.00  0.00    -0.237 OA
ATOM     71  O   UNL A   1      46.346  25.961  39.195  1.00  0.00    -0.237 OA
ATOM     72  O   UNL A   1      43.930  26.444  39.210  1.00  0.00    -0.744 OA
ENDBRANCH  65  69
ENDBRANCH  39  62
ENDBRANCH  13  14
ENDBRANCH   6   8
ENDBRANCH   3   4
ENDBRANCH   2   3
ENDBRANCH   1   2
BRANCH   1  73
ATOM     73  C   UNL A   1      32.413  29.526  27.204  1.00  0.00     0.002 C 
BRANCH  73  74
ATOM     74  C   UNL A   1      32.547  28.082  26.704  1.00  0.00     0.021 C 
BRANCH  74  75
ATOM     75  C   UNL A   1      31.215  27.435  26.343  1.00  0.00     0.116 C 
BRANCH  75  76
ATOM     76  N   UNL A   1      31.092  26.108  26.899  1.00  0.00    -0.354 N 
ATOM     77  C   UNL A   1      31.627  24.930  26.466  1.00  0.00     0.245 C 
ATOM     78  H   UNL A   1      30.539  26.044  27.711  1.00  0.00     0.163 HD
ATOM     79  O   UNL A   1      31.528  23.973  27.239  1.00  0.00    -0.273 OA
BRANCH  77  80
ATOM     80  C   UNL A   1      32.480  24.866  25.167  1.00  0.00     0.200 C 
ATOM     81  C   UNL A   1      33.410  23.631  25.217  1.00  0.00     0.195 C 
ATOM     82  N   UNL A   1      31.718  24.811  23.893  1.00  0.00    -0.322 N 
ATOM     83  O   UNL A   1      32.699  22.391  25.021  1.00  0.00    -0.377 OA
ATOM     84  C   UNL A   1      30.980  23.557  23.725  1.00  0.00     0.149 C 
ATOM     85  C   UNL A   1      31.957  22.382  23.793  1.00  0.00     0.181 C 
BRANCH  82  86
ATOM     86  C   UNL A   1      31.769  25.693  22.815  1.00  0.00     0.256 C 
ATOM     87  O   UNL A   1      32.364  25.435  21.772  1.00  0.00    -0.269 OA
BRANCH  86  88
ATOM     88  C   UNL A   1      31.058  26.983  22.863  1.00  0.00     0.058 A 
ATOM     89  C   UNL A   1      31.666  28.209  22.608  1.00  0.00     0.018 A 
ATOM     90  C   UNL A   1      29.702  26.969  23.161  1.00  0.00     0.126 A 
ATOM     91  C   UNL A   1      30.914  29.377  22.750  1.00  0.00     0.037 A 
ATOM     92  N   UNL A   1      28.961  28.088  23.327  1.00  0.00    -0.249 NA
ATOM     93  C   UNL A   1      29.579  29.270  23.122  1.00  0.00     0.106 A 
ATOM     94  Br  UNL A   1      28.573  30.854  23.382  1.00  0.00    -0.029 Br
ENDBRANCH  86  88
ENDBRANCH  82  86
ENDBRANCH  77  80
ENDBRANCH  75  76
ENDBRANCH  74  75
ENDBRANCH  73  74
ENDBRANCH   1  73
TORSDOF 18
ENDMDL
