MODEL 1
REMARK VINA RESULT:     -11.2      0.000      0.000
REMARK SMILES Cc1csc(C[C@@H](Cc2ccc(Br)cc2)C(=O)NCCCCCCNC(=O)c2ccc(-c3c4nc(c(-c5cc(S(=O)(=O)[O-])ccc5F)c5ccc([nH]5)c(-c5cc(S(=O)(=O)[O-])ccc5F)c5nc(c(-c6cc(S(=O)(=O)[O-])ccc6F)c6ccc3[nH]6)C=C5)C=C4)cc2)n1
REMARK SMILES IDX 22 1 21 2 20 3 19 4 18 5 16 6 17 7 7 9 6 10 5 11 1 12 2 13
REMARK SMILES IDX 3 14 91 15 4 16 8 17 9 18 10 19 15 20 11 21 14 22 12 23
REMARK SMILES IDX 13 24 23 25 24 26 25 27 26 28 27 30 28 31 29 32 90 33 30 34
REMARK SMILES IDX 89 35 31 36 32 37 33 38 83 39 34 40 88 41 82 42 84 43 35 44
REMARK SMILES IDX 87 45 81 46 80 47 36 49 68 50 48 51 67 52 49 53 52 54 66 55
REMARK SMILES IDX 85 56 50 57 51 58 65 60 86 61 53 62 37 63 38 64 46 65 39 66
REMARK SMILES IDX 45 67 47 68 44 69 40 70 41 71 42 72 43 73 69 74 70 75 78 76
REMARK SMILES IDX 71 77 77 78 79 79 76 80 72 81 73 82 74 83 75 84 54 85 55 86
REMARK SMILES IDX 63 87 56 88 62 89 64 90 61 91 57 92 58 93 59 94 60 95
REMARK H PARENT 18 8 25 29 84 48 52 59
REMARK Flexibility Score: inf
ROOT
ATOM      1  C   UNL A   1      36.556  20.224  25.021  1.00  0.00     0.002 C 
ENDROOT
BRANCH   1   2
ATOM      2  C   UNL A   1      36.330  21.653  25.531  1.00  0.00     0.002 C 
BRANCH   2   3
ATOM      3  C   UNL A   1      36.489  22.773  24.499  1.00  0.00     0.021 C 
BRANCH   3   4
ATOM      4  C   UNL A   1      35.286  23.699  24.368  1.00  0.00     0.116 C 
BRANCH   4   5
ATOM      5  N   UNL A   1      34.783  23.817  23.016  1.00  0.00    -0.356 N 
ATOM      6  C   UNL A   1      33.552  23.542  22.506  1.00  0.00     0.223 C 
ATOM      7  O   UNL A   1      33.321  23.950  21.362  1.00  0.00    -0.275 OA
ATOM      8  H   UNL A   1      35.436  24.151  22.361  1.00  0.00     0.163 HD
BRANCH   6   9
ATOM      9  C   UNL A   1      32.481  22.751  23.258  1.00  0.00     0.089 C 
BRANCH   9  10
ATOM     10  C   UNL A   1      31.367  23.668  23.781  1.00  0.00     0.081 C 
BRANCH  10  11
ATOM     11  C   UNL A   1      31.849  24.879  24.522  1.00  0.00     0.094 A 
ATOM     12  C   UNL A   1      33.582  28.023  24.376  1.00  0.00     0.067 C 
ATOM     13  C   UNL A   1      32.894  26.805  24.873  1.00  0.00     0.048 A 
ATOM     14  C   UNL A   1      32.727  26.405  26.183  1.00  0.00     0.090 A 
ATOM     15  N   UNL A   1      32.372  25.935  23.938  1.00  0.00    -0.247 NA
ATOM     16  S   UNL A   1      31.898  24.905  26.240  1.00  0.00    -0.127 S 
ENDBRANCH  10  11
ENDBRANCH   9  10
BRANCH   9  17
ATOM     17  C   UNL A   1      32.140  21.402  22.584  1.00  0.00     0.049 C 
BRANCH  17  18
ATOM     18  C   UNL A   1      32.398  20.098  23.301  1.00  0.00    -0.047 A 
ATOM     19  C   UNL A   1      32.390  18.873  22.619  1.00  0.00     0.005 A 
ATOM     20  C   UNL A   1      32.613  20.089  24.689  1.00  0.00     0.005 A 
ATOM     21  C   UNL A   1      32.646  17.674  23.294  1.00  0.00     0.016 A 
ATOM     22  C   UNL A   1      32.863  18.891  25.367  1.00  0.00     0.016 A 
ATOM     23  C   UNL A   1      32.888  17.691  24.664  1.00  0.00     0.017 A 
ATOM     24  Br  UNL A   1      33.266  16.077  25.570  1.00  0.00    -0.051 Br
ENDBRANCH  17  18
ENDBRANCH   9  17
ENDBRANCH   6   9
ENDBRANCH   4   5
ENDBRANCH   3   4
ENDBRANCH   2   3
ENDBRANCH   1   2
BRANCH   1  25
ATOM     25  C   UNL A   1      38.009  19.822  24.744  1.00  0.00     0.021 C 
BRANCH  25  26
ATOM     26  C   UNL A   1      39.038  20.309  25.758  1.00  0.00     0.116 C 
BRANCH  26  27
ATOM     27  N   UNL A   1      40.105  19.349  25.966  1.00  0.00    -0.352 N 
ATOM     28  C   UNL A   1      41.447  19.549  26.168  1.00  0.00     0.251 C 
ATOM     29  H   UNL A   1      39.822  18.406  25.961  1.00  0.00     0.163 HD
ATOM     30  O   UNL A   1      42.200  18.578  26.147  1.00  0.00    -0.269 OA
BRANCH  28  31
ATOM     31  C   UNL A   1      42.000  20.910  26.389  1.00  0.00     0.039 A 
ATOM     32  C   UNL A   1      42.331  21.287  27.694  1.00  0.00     0.014 A 
ATOM     33  C   UNL A   1      42.137  21.833  25.349  1.00  0.00     0.014 A 
ATOM     34  C   UNL A   1      42.826  22.569  27.951  1.00  0.00     0.010 A 
ATOM     35  C   UNL A   1      42.696  23.088  25.594  1.00  0.00     0.010 A 
ATOM     36  C   UNL A   1      43.031  23.477  26.900  1.00  0.00    -0.014 A 
BRANCH  36  37
ATOM     37  C   UNL A   1      43.551  24.846  27.164  1.00  0.00     0.031 A 
ATOM     38  C   UNL A   1      42.641  25.903  27.735  1.00  0.00     0.074 A 
ATOM     39  C   UNL A   1      44.827  25.150  26.861  1.00  0.00     0.049 A 
ATOM     40  N   UNL A   1      42.890  27.161  27.996  1.00  0.00    -0.248 NA
ATOM     41  C   UNL A   1      41.259  25.493  28.024  1.00  0.00     0.031 C 
ATOM     42  C   UNL A   1      45.798  24.226  26.271  1.00  0.00     0.029 A 
ATOM     43  N   UNL A   1      45.530  26.320  27.004  1.00  0.00    -0.354 N 
ATOM     44  C   UNL A   1      41.695  27.696  28.466  1.00  0.00     0.074 A 
ATOM     45  C   UNL A   1      40.708  26.640  28.391  1.00  0.00     0.031 C 
ATOM     46  C   UNL A   1      46.975  24.855  26.128  1.00  0.00     0.029 A 
ATOM     47  C   UNL A   1      46.835  26.237  26.579  1.00  0.00     0.049 A 
ATOM     48  H   UNL A   1      45.136  27.142  27.378  1.00  0.00     0.167 HD
ATOM     49  C   UNL A   1      41.447  28.944  28.939  1.00  0.00     0.034 A 
ATOM     50  C   UNL A   1      47.808  27.170  26.549  1.00  0.00     0.034 A 
ATOM     51  C   UNL A   1      42.445  29.985  29.019  1.00  0.00     0.049 A 
ATOM     52  C   UNL A   1      47.510  28.553  27.070  1.00  0.00     0.074 A 
ATOM     53  C   UNL A   1      42.317  31.271  29.519  1.00  0.00     0.029 A 
ATOM     54  N   UNL A   1      43.759  29.862  28.585  1.00  0.00    -0.354 N 
ATOM     55  N   UNL A   1      46.386  29.032  27.549  1.00  0.00    -0.248 NA
ATOM     56  C   UNL A   1      48.620  29.515  27.062  1.00  0.00     0.031 C 
ATOM     57  C   UNL A   1      43.532  31.941  29.331  1.00  0.00     0.029 A 
ATOM     58  C   UNL A   1      44.443  31.053  28.782  1.00  0.00     0.049 A 
ATOM     59  H   UNL A   1      44.149  29.047  28.192  1.00  0.00     0.167 HD
ATOM     60  C   UNL A   1      46.663  30.343  27.928  1.00  0.00     0.074 A 
ATOM     61  C   UNL A   1      48.064  30.572  27.635  1.00  0.00     0.031 C 
ATOM     62  C   UNL A   1      45.837  31.272  28.475  1.00  0.00     0.034 A 
BRANCH  49  63
ATOM     63  C   UNL A   1      40.032  29.251  29.376  1.00  0.00     0.023 A 
ATOM     64  C   UNL A   1      39.663  29.253  30.733  1.00  0.00     0.031 A 
ATOM     65  C   UNL A   1      39.029  29.505  28.424  1.00  0.00     0.131 A 
ATOM     66  C   UNL A   1      38.317  29.412  31.094  1.00  0.00     0.055 A 
ATOM     67  C   UNL A   1      37.706  29.751  28.795  1.00  0.00     0.041 A 
ATOM     68  F   UNL A   1      39.313  29.499  27.112  1.00  0.00    -0.206 F 
ATOM     69  C   UNL A   1      37.339  29.688  30.137  1.00  0.00     0.022 A 
BRANCH  66  70
ATOM     70  S   UNL A   1      37.839  29.095  32.815  1.00  0.00     0.124 S 
ATOM     71  O   UNL A   1      36.585  29.837  32.915  1.00  0.00    -0.237 OA
ATOM     72  O   UNL A   1      37.727  27.642  32.850  1.00  0.00    -0.237 OA
ATOM     73  O   UNL A   1      38.948  29.655  33.587  1.00  0.00    -0.744 OA
ENDBRANCH  66  70
ENDBRANCH  49  63
BRANCH  50  74
ATOM     74  C   UNL A   1      49.157  26.835  26.012  1.00  0.00     0.023 A 
ATOM     75  C   UNL A   1      49.566  27.285  24.748  1.00  0.00     0.031 A 
ATOM     76  C   UNL A   1      50.045  26.026  26.744  1.00  0.00     0.131 A 
ATOM     77  C   UNL A   1      50.809  26.890  24.231  1.00  0.00     0.055 A 
ATOM     78  C   UNL A   1      51.303  25.676  26.247  1.00  0.00     0.041 A 
ATOM     79  F   UNL A   1      49.706  25.574  27.961  1.00  0.00    -0.206 F 
ATOM     80  C   UNL A   1      51.685  26.098  24.978  1.00  0.00     0.022 A 
BRANCH  77  81
ATOM     81  S   UNL A   1      51.235  27.363  22.533  1.00  0.00     0.124 S 
ATOM     82  O   UNL A   1      51.276  28.817  22.631  1.00  0.00    -0.237 OA
ATOM     83  O   UNL A   1      52.520  26.697  22.346  1.00  0.00    -0.237 OA
ATOM     84  O   UNL A   1      50.133  26.821  21.741  1.00  0.00    -0.744 OA
ENDBRANCH  77  81
ENDBRANCH  50  74
BRANCH  62  85
ATOM     85  C   UNL A   1      46.450  32.604  28.835  1.00  0.00     0.023 A 
ATOM     86  C   UNL A   1      46.485  33.675  27.924  1.00  0.00     0.031 A 
ATOM     87  C   UNL A   1      47.030  32.794  30.102  1.00  0.00     0.131 A 
ATOM     88  C   UNL A   1      47.140  34.866  28.272  1.00  0.00     0.055 A 
ATOM     89  C   UNL A   1      47.627  34.002  30.464  1.00  0.00     0.041 A 
ATOM     90  F   UNL A   1      47.026  31.806  31.011  1.00  0.00    -0.206 F 
ATOM     91  C   UNL A   1      47.698  35.041  29.540  1.00  0.00     0.022 A 
BRANCH  88  92
ATOM     92  S   UNL A   1      47.342  36.151  27.006  1.00  0.00     0.124 S 
ATOM     93  O   UNL A   1      47.217  37.374  27.791  1.00  0.00    -0.237 OA
ATOM     94  O   UNL A   1      48.673  35.864  26.480  1.00  0.00    -0.237 OA
ATOM     95  O   UNL A   1      46.241  35.894  26.079  1.00  0.00    -0.744 OA
ENDBRANCH  88  92
ENDBRANCH  62  85
ENDBRANCH  36  37
ENDBRANCH  28  31
ENDBRANCH  26  27
ENDBRANCH  25  26
ENDBRANCH   1  25
TORSDOF 20
ENDMDL
MODEL 2
REMARK VINA RESULT:     -11.1      3.684      9.006
REMARK SMILES Cc1csc(C[C@@H](Cc2ccc(Br)cc2)C(=O)NCCCCCCNC(=O)c2ccc(-c3c4nc(c(-c5cc(S(=O)(=O)[O-])ccc5F)c5ccc([nH]5)c(-c5cc(S(=O)(=O)[O-])ccc5F)c5nc(c(-c6cc(S(=O)(=O)[O-])ccc6F)c6ccc3[nH]6)C=C5)C=C4)cc2)n1
REMARK SMILES IDX 22 1 21 2 20 3 19 4 18 5 16 6 17 7 7 9 6 10 5 11 1 12 2 13
REMARK SMILES IDX 3 14 91 15 4 16 8 17 9 18 10 19 15 20 11 21 14 22 12 23
REMARK SMILES IDX 13 24 23 25 24 26 25 27 26 28 27 30 28 31 29 32 90 33 30 34
REMARK SMILES IDX 89 35 31 36 32 37 33 38 83 39 34 40 88 41 82 42 84 43 35 44
REMARK SMILES IDX 87 45 81 46 80 47 36 49 68 50 48 51 67 52 49 53 52 54 66 55
REMARK SMILES IDX 85 56 50 57 51 58 65 60 86 61 53 62 37 63 38 64 46 65 39 66
REMARK SMILES IDX 45 67 47 68 44 69 40 70 41 71 42 72 43 73 69 74 70 75 78 76
REMARK SMILES IDX 71 77 77 78 79 79 76 80 72 81 73 82 74 83 75 84 54 85 55 86
REMARK SMILES IDX 63 87 56 88 62 89 64 90 61 91 57 92 58 93 59 94 60 95
REMARK H PARENT 18 8 25 29 84 48 52 59
REMARK Flexibility Score: inf
ROOT
ATOM      1  C   UNL A   1      35.028  22.683  23.743  1.00  0.00     0.002 C 
ENDROOT
BRANCH   1   2
ATOM      2  C   UNL A   1      33.871  23.652  23.469  1.00  0.00     0.002 C 
BRANCH   2   3
ATOM      3  C   UNL A   1      32.532  23.016  23.089  1.00  0.00     0.021 C 
BRANCH   3   4
ATOM      4  C   UNL A   1      31.304  23.840  23.456  1.00  0.00     0.116 C 
BRANCH   4   5
ATOM      5  N   UNL A   1      31.231  24.186  24.860  1.00  0.00    -0.356 N 
ATOM      6  C   UNL A   1      30.914  25.364  25.463  1.00  0.00     0.223 C 
ATOM      7  O   UNL A   1      30.702  25.326  26.680  1.00  0.00    -0.275 OA
ATOM      8  H   UNL A   1      31.444  23.450  25.478  1.00  0.00     0.163 HD
BRANCH   6   9
ATOM      9  C   UNL A   1      30.834  26.700  24.722  1.00  0.00     0.089 C 
BRANCH   9  10
ATOM     10  C   UNL A   1      32.229  27.221  24.348  1.00  0.00     0.081 C 
BRANCH  10  11
ATOM     11  C   UNL A   1      32.751  28.309  25.237  1.00  0.00     0.094 A 
ATOM     12  C   UNL A   1      35.231  29.333  27.626  1.00  0.00     0.067 C 
ATOM     13  C   UNL A   1      34.023  29.295  26.766  1.00  0.00     0.048 A 
ATOM     14  C   UNL A   1      32.970  30.187  26.748  1.00  0.00     0.090 A 
ATOM     15  N   UNL A   1      33.893  28.240  25.885  1.00  0.00    -0.247 NA
ATOM     16  S   UNL A   1      31.794  29.689  25.604  1.00  0.00    -0.127 S 
ENDBRANCH  10  11
ENDBRANCH   9  10
BRANCH   9  17
ATOM     17  C   UNL A   1      29.670  26.760  23.707  1.00  0.00     0.049 C 
BRANCH  17  18
ATOM     18  C   UNL A   1      29.254  28.075  23.091  1.00  0.00    -0.047 A 
ATOM     19  C   UNL A   1      27.937  28.546  23.189  1.00  0.00     0.005 A 
ATOM     20  C   UNL A   1      30.185  28.837  22.367  1.00  0.00     0.005 A 
ATOM     21  C   UNL A   1      27.570  29.773  22.627  1.00  0.00     0.016 A 
ATOM     22  C   UNL A   1      29.818  30.062  21.798  1.00  0.00     0.016 A 
ATOM     23  C   UNL A   1      28.515  30.528  21.940  1.00  0.00     0.017 A 
ATOM     24  Br  UNL A   1      28.029  32.201  21.210  1.00  0.00    -0.051 Br
ENDBRANCH  17  18
ENDBRANCH   9  17
ENDBRANCH   6   9
ENDBRANCH   4   5
ENDBRANCH   3   4
ENDBRANCH   2   3
ENDBRANCH   1   2
BRANCH   1  25
ATOM     25  C   UNL A   1      36.204  23.237  24.555  1.00  0.00     0.021 C 
BRANCH  25  26
ATOM     26  C   UNL A   1      36.403  22.627  25.938  1.00  0.00     0.116 C 
BRANCH  26  27
ATOM     27  N   UNL A   1      37.463  21.637  25.957  1.00  0.00    -0.352 N 
ATOM     28  C   UNL A   1      38.815  21.794  26.126  1.00  0.00     0.251 C 
ATOM     29  H   UNL A   1      37.165  20.707  25.828  1.00  0.00     0.163 HD
ATOM     30  O   UNL A   1      39.551  20.829  25.931  1.00  0.00    -0.269 OA
BRANCH  28  31
ATOM     31  C   UNL A   1      39.398  23.103  26.517  1.00  0.00     0.039 A 
ATOM     32  C   UNL A   1      40.115  23.178  27.715  1.00  0.00     0.014 A 
ATOM     33  C   UNL A   1      39.198  24.260  25.758  1.00  0.00     0.014 A 
ATOM     34  C   UNL A   1      40.654  24.398  28.135  1.00  0.00     0.010 A 
ATOM     35  C   UNL A   1      39.795  25.462  26.142  1.00  0.00     0.010 A 
ATOM     36  C   UNL A   1      40.516  25.549  27.343  1.00  0.00    -0.014 A 
BRANCH  36  37
ATOM     37  C   UNL A   1      41.080  26.853  27.785  1.00  0.00     0.031 A 
ATOM     38  C   UNL A   1      42.522  27.187  27.505  1.00  0.00     0.074 A 
ATOM     39  C   UNL A   1      40.308  27.722  28.466  1.00  0.00     0.049 A 
ATOM     40  N   UNL A   1      43.210  28.248  27.843  1.00  0.00    -0.248 NA
ATOM     41  C   UNL A   1      43.299  26.178  26.769  1.00  0.00     0.031 C 
ATOM     42  C   UNL A   1      38.907  27.501  28.830  1.00  0.00     0.029 A 
ATOM     43  N   UNL A   1      40.590  28.965  28.975  1.00  0.00    -0.354 N 
ATOM     44  C   UNL A   1      44.502  28.029  27.375  1.00  0.00     0.074 A 
ATOM     45  C   UNL A   1      44.513  26.706  26.787  1.00  0.00     0.031 C 
ATOM     46  C   UNL A   1      38.446  28.581  29.480  1.00  0.00     0.029 A 
ATOM     47  C   UNL A   1      39.525  29.556  29.613  1.00  0.00     0.049 A 
ATOM     48  H   UNL A   1      41.473  29.394  28.890  1.00  0.00     0.167 HD
ATOM     49  C   UNL A   1      45.574  28.861  27.409  1.00  0.00     0.034 A 
ATOM     50  C   UNL A   1      39.429  30.746  30.239  1.00  0.00     0.034 A 
ATOM     51  C   UNL A   1      45.545  30.184  27.988  1.00  0.00     0.049 A 
ATOM     52  C   UNL A   1      40.634  31.653  30.274  1.00  0.00     0.074 A 
ATOM     53  C   UNL A   1      46.557  31.128  28.040  1.00  0.00     0.029 A 
ATOM     54  N   UNL A   1      44.445  30.751  28.619  1.00  0.00    -0.354 N 
ATOM     55  N   UNL A   1      41.837  31.448  29.791  1.00  0.00    -0.248 NA
ATOM     56  C   UNL A   1      40.459  32.957  30.925  1.00  0.00     0.031 C 
ATOM     57  C   UNL A   1      46.089  32.238  28.754  1.00  0.00     0.029 A 
ATOM     58  C   UNL A   1      44.761  32.020  29.084  1.00  0.00     0.049 A 
ATOM     59  H   UNL A   1      43.567  30.317  28.722  1.00  0.00     0.167 HD
ATOM     60  C   UNL A   1      42.554  32.612  30.053  1.00  0.00     0.074 A 
ATOM     61  C   UNL A   1      41.642  33.519  30.722  1.00  0.00     0.031 C 
ATOM     62  C   UNL A   1      43.846  32.909  29.761  1.00  0.00     0.034 A 
BRANCH  49  63
ATOM     63  C   UNL A   1      46.870  28.344  26.827  1.00  0.00     0.023 A 
ATOM     64  C   UNL A   1      47.104  28.333  25.440  1.00  0.00     0.031 A 
ATOM     65  C   UNL A   1      47.870  27.818  27.664  1.00  0.00     0.131 A 
ATOM     66  C   UNL A   1      48.262  27.727  24.929  1.00  0.00     0.055 A 
ATOM     67  C   UNL A   1      49.060  27.297  27.153  1.00  0.00     0.041 A 
ATOM     68  F   UNL A   1      47.700  27.783  28.995  1.00  0.00    -0.206 F 
ATOM     69  C   UNL A   1      49.254  27.233  25.776  1.00  0.00     0.022 A 
BRANCH  66  70
ATOM     70  S   UNL A   1      48.375  27.453  23.139  1.00  0.00     0.124 S 
ATOM     71  O   UNL A   1      48.278  25.998  23.057  1.00  0.00    -0.237 OA
ATOM     72  O   UNL A   1      47.232  28.200  22.631  1.00  0.00    -0.237 OA
ATOM     73  O   UNL A   1      49.685  28.001  22.791  1.00  0.00    -0.744 OA
ENDBRANCH  66  70
ENDBRANCH  49  63
BRANCH  50  74
ATOM     74  C   UNL A   1      38.149  31.158  30.882  1.00  0.00     0.023 A 
ATOM     75  C   UNL A   1      37.163  31.845  30.157  1.00  0.00     0.031 A 
ATOM     76  C   UNL A   1      37.910  30.902  32.244  1.00  0.00     0.131 A 
ATOM     77  C   UNL A   1      36.002  32.293  30.805  1.00  0.00     0.055 A 
ATOM     78  C   UNL A   1      36.730  31.305  32.873  1.00  0.00     0.041 A 
ATOM     79  F   UNL A   1      38.818  30.244  32.980  1.00  0.00    -0.206 F 
ATOM     80  C   UNL A   1      35.774  32.016  32.156  1.00  0.00     0.022 A 
BRANCH  77  81
ATOM     81  S   UNL A   1      34.824  33.309  29.874  1.00  0.00     0.124 S 
ATOM     82  O   UNL A   1      34.010  33.876  30.943  1.00  0.00    -0.237 OA
ATOM     83  O   UNL A   1      35.709  34.240  29.180  1.00  0.00    -0.237 OA
ATOM     84  O   UNL A   1      34.142  32.343  29.016  1.00  0.00    -0.744 OA
ENDBRANCH  77  81
ENDBRANCH  50  74
BRANCH  62  85
ATOM     85  C   UNL A   1      44.328  34.294  30.123  1.00  0.00     0.023 A 
ATOM     86  C   UNL A   1      44.910  34.572  31.373  1.00  0.00     0.031 A 
ATOM     87  C   UNL A   1      44.179  35.354  29.212  1.00  0.00     0.131 A 
ATOM     88  C   UNL A   1      45.265  35.890  31.699  1.00  0.00     0.055 A 
ATOM     89  C   UNL A   1      44.590  36.651  29.519  1.00  0.00     0.041 A 
ATOM     90  F   UNL A   1      43.629  35.145  28.005  1.00  0.00    -0.206 F 
ATOM     91  C   UNL A   1      45.122  36.928  30.775  1.00  0.00     0.022 A 
BRANCH  88  92
ATOM     92  S   UNL A   1      45.825  36.249  33.387  1.00  0.00     0.124 S 
ATOM     93  O   UNL A   1      44.925  37.326  33.784  1.00  0.00    -0.237 OA
ATOM     94  O   UNL A   1      45.624  34.970  34.060  1.00  0.00    -0.237 OA
ATOM     95  O   UNL A   1      47.222  36.643  33.209  1.00  0.00    -0.744 OA
ENDBRANCH  88  92
ENDBRANCH  62  85
ENDBRANCH  36  37
ENDBRANCH  28  31
ENDBRANCH  26  27
ENDBRANCH  25  26
ENDBRANCH   1  25
TORSDOF 20
ENDMDL
MODEL 3
REMARK VINA RESULT:     -11.0      6.140      9.510
REMARK SMILES Cc1csc(C[C@@H](Cc2ccc(Br)cc2)C(=O)NCCCCCCNC(=O)c2ccc(-c3c4nc(c(-c5cc(S(=O)(=O)[O-])ccc5F)c5ccc([nH]5)c(-c5cc(S(=O)(=O)[O-])ccc5F)c5nc(c(-c6cc(S(=O)(=O)[O-])ccc6F)c6ccc3[nH]6)C=C5)C=C4)cc2)n1
REMARK SMILES IDX 22 1 21 2 20 3 19 4 18 5 16 6 17 7 7 9 6 10 5 11 1 12 2 13
REMARK SMILES IDX 3 14 91 15 4 16 8 17 9 18 10 19 15 20 11 21 14 22 12 23
REMARK SMILES IDX 13 24 23 25 24 26 25 27 26 28 27 30 28 31 29 32 90 33 30 34
REMARK SMILES IDX 89 35 31 36 32 37 33 38 83 39 34 40 88 41 82 42 84 43 35 44
REMARK SMILES IDX 87 45 81 46 80 47 36 49 68 50 48 51 67 52 49 53 52 54 66 55
REMARK SMILES IDX 85 56 50 57 51 58 65 60 86 61 53 62 37 63 38 64 46 65 39 66
REMARK SMILES IDX 45 67 47 68 44 69 40 70 41 71 42 72 43 73 69 74 70 75 78 76
REMARK SMILES IDX 71 77 77 78 79 79 76 80 72 81 73 82 74 83 75 84 54 85 55 86
REMARK SMILES IDX 63 87 56 88 62 89 64 90 61 91 57 92 58 93 59 94 60 95
REMARK H PARENT 18 8 25 29 84 48 52 59
REMARK Flexibility Score: inf
ROOT
ATOM      1  C   UNL A   1      31.825  30.436  26.907  1.00  0.00     0.002 C 
ENDROOT
BRANCH   1   2
ATOM      2  C   UNL A   1      33.267  30.016  27.216  1.00  0.00     0.002 C 
BRANCH   2   3
ATOM      3  C   UNL A   1      33.971  29.176  26.146  1.00  0.00     0.021 C 
BRANCH   3   4
ATOM      4  C   UNL A   1      33.130  28.877  24.911  1.00  0.00     0.116 C 
BRANCH   4   5
ATOM      5  N   UNL A   1      33.888  28.855  23.678  1.00  0.00    -0.356 N 
ATOM      6  C   UNL A   1      33.846  27.985  22.633  1.00  0.00     0.223 C 
ATOM      7  O   UNL A   1      34.437  28.327  21.602  1.00  0.00    -0.275 OA
ATOM      8  H   UNL A   1      34.538  29.587  23.581  1.00  0.00     0.163 HD
BRANCH   6   9
ATOM      9  C   UNL A   1      33.138  26.630  22.685  1.00  0.00     0.089 C 
BRANCH   9  10
ATOM     10  C   UNL A   1      31.919  26.596  21.753  1.00  0.00     0.081 C 
BRANCH  10  11
ATOM     11  C   UNL A   1      30.638  27.057  22.380  1.00  0.00     0.094 A 
ATOM     12  C   UNL A   1      28.338  29.763  22.922  1.00  0.00     0.067 C 
ATOM     13  C   UNL A   1      29.029  28.452  23.004  1.00  0.00     0.048 A 
ATOM     14  C   UNL A   1      28.755  27.405  23.860  1.00  0.00     0.090 A 
ATOM     15  N   UNL A   1      30.092  28.231  22.153  1.00  0.00    -0.247 NA
ATOM     16  S   UNL A   1      29.857  26.120  23.592  1.00  0.00    -0.127 S 
ENDBRANCH  10  11
ENDBRANCH   9  10
BRANCH   9  17
ATOM     17  C   UNL A   1      34.120  25.437  22.746  1.00  0.00     0.049 C 
BRANCH  17  18
ATOM     18  C   UNL A   1      34.106  24.490  23.923  1.00  0.00    -0.047 A 
ATOM     19  C   UNL A   1      33.828  24.941  25.221  1.00  0.00     0.005 A 
ATOM     20  C   UNL A   1      34.416  23.134  23.737  1.00  0.00     0.005 A 
ATOM     21  C   UNL A   1      33.804  24.050  26.300  1.00  0.00     0.016 A 
ATOM     22  C   UNL A   1      34.400  22.242  24.815  1.00  0.00     0.016 A 
ATOM     23  C   UNL A   1      34.083  22.704  26.089  1.00  0.00     0.017 A 
ATOM     24  Br  UNL A   1      34.018  21.494  27.539  1.00  0.00    -0.051 Br
ENDBRANCH  17  18
ENDBRANCH   9  17
ENDBRANCH   6   9
ENDBRANCH   4   5
ENDBRANCH   3   4
ENDBRANCH   2   3
ENDBRANCH   1   2
BRANCH   1  25
ATOM     25  C   UNL A   1      31.535  31.941  26.922  1.00  0.00     0.021 C 
BRANCH  25  26
ATOM     26  C   UNL A   1      32.755  32.853  26.837  1.00  0.00     0.116 C 
BRANCH  26  27
ATOM     27  N   UNL A   1      32.589  34.069  27.609  1.00  0.00    -0.352 N 
ATOM     28  C   UNL A   1      33.243  34.495  28.738  1.00  0.00     0.251 C 
ATOM     29  H   UNL A   1      31.900  34.685  27.270  1.00  0.00     0.163 HD
ATOM     30  O   UNL A   1      32.818  35.485  29.329  1.00  0.00    -0.269 OA
BRANCH  28  31
ATOM     31  C   UNL A   1      34.430  33.773  29.261  1.00  0.00     0.039 A 
ATOM     32  C   UNL A   1      34.222  32.677  30.104  1.00  0.00     0.014 A 
ATOM     33  C   UNL A   1      35.735  34.193  28.986  1.00  0.00     0.014 A 
ATOM     34  C   UNL A   1      35.312  31.987  30.642  1.00  0.00     0.010 A 
ATOM     35  C   UNL A   1      36.823  33.463  29.467  1.00  0.00     0.010 A 
ATOM     36  C   UNL A   1      36.625  32.362  30.314  1.00  0.00    -0.014 A 
BRANCH  36  37
ATOM     37  C   UNL A   1      37.792  31.640  30.887  1.00  0.00     0.031 A 
ATOM     38  C   UNL A   1      38.252  31.939  32.290  1.00  0.00     0.074 A 
ATOM     39  C   UNL A   1      38.458  30.739  30.140  1.00  0.00     0.049 A 
ATOM     40  N   UNL A   1      39.270  31.451  32.954  1.00  0.00    -0.248 NA
ATOM     41  C   UNL A   1      37.479  32.946  33.034  1.00  0.00     0.031 C 
ATOM     42  C   UNL A   1      38.133  30.385  28.756  1.00  0.00     0.029 A 
ATOM     43  N   UNL A   1      39.547  29.957  30.433  1.00  0.00    -0.354 N 
ATOM     44  C   UNL A   1      39.267  32.098  34.185  1.00  0.00     0.074 A 
ATOM     45  C   UNL A   1      38.185  33.060  34.148  1.00  0.00     0.031 C 
ATOM     46  C   UNL A   1      38.986  29.440  28.332  1.00  0.00     0.029 A 
ATOM     47  C   UNL A   1      39.942  29.146  29.396  1.00  0.00     0.049 A 
ATOM     48  H   UNL A   1      40.003  29.976  31.307  1.00  0.00     0.167 HD
ATOM     49  C   UNL A   1      40.075  31.894  35.257  1.00  0.00     0.034 A 
ATOM     50  C   UNL A   1      40.962  28.269  29.309  1.00  0.00     0.034 A 
ATOM     51  C   UNL A   1      41.142  30.922  35.285  1.00  0.00     0.049 A 
ATOM     52  C   UNL A   1      41.854  28.063  30.507  1.00  0.00     0.074 A 
ATOM     53  C   UNL A   1      41.995  30.602  36.328  1.00  0.00     0.029 A 
ATOM     54  N   UNL A   1      41.508  30.113  34.216  1.00  0.00    -0.354 N 
ATOM     55  N   UNL A   1      41.814  28.654  31.679  1.00  0.00    -0.248 NA
ATOM     56  C   UNL A   1      42.917  27.059  30.374  1.00  0.00     0.031 C 
ATOM     57  C   UNL A   1      42.911  29.646  35.873  1.00  0.00     0.029 A 
ATOM     58  C   UNL A   1      42.586  29.314  34.568  1.00  0.00     0.049 A 
ATOM     59  H   UNL A   1      41.067  30.108  33.336  1.00  0.00     0.167 HD
ATOM     60  C   UNL A   1      42.827  28.070  32.433  1.00  0.00     0.074 A 
ATOM     61  C   UNL A   1      43.449  27.070  31.588  1.00  0.00     0.031 C 
ATOM     62  C   UNL A   1      43.206  28.329  33.711  1.00  0.00     0.034 A 
BRANCH  49  63
ATOM     63  C   UNL A   1      39.845  32.765  36.473  1.00  0.00     0.023 A 
ATOM     64  C   UNL A   1      39.057  32.329  37.553  1.00  0.00     0.031 A 
ATOM     65  C   UNL A   1      40.386  34.061  36.537  1.00  0.00     0.131 A 
ATOM     66  C   UNL A   1      38.758  33.210  38.603  1.00  0.00     0.055 A 
ATOM     67  C   UNL A   1      40.157  34.902  37.627  1.00  0.00     0.041 A 
ATOM     68  F   UNL A   1      41.132  34.542  35.529  1.00  0.00    -0.206 F 
ATOM     69  C   UNL A   1      39.324  34.485  38.661  1.00  0.00     0.022 A 
BRANCH  66  70
ATOM     70  S   UNL A   1      37.492  32.722  39.808  1.00  0.00     0.124 S 
ATOM     71  O   UNL A   1      38.128  31.578  40.456  1.00  0.00    -0.237 OA
ATOM     72  O   UNL A   1      37.352  33.922  40.623  1.00  0.00    -0.237 OA
ATOM     73  O   UNL A   1      36.336  32.393  38.976  1.00  0.00    -0.744 OA
ENDBRANCH  66  70
ENDBRANCH  49  63
BRANCH  50  74
ATOM     74  C   UNL A   1      41.199  27.512  28.047  1.00  0.00     0.023 A 
ATOM     75  C   UNL A   1      40.928  26.137  27.965  1.00  0.00     0.031 A 
ATOM     76  C   UNL A   1      41.736  28.148  26.913  1.00  0.00     0.131 A 
ATOM     77  C   UNL A   1      41.235  25.431  26.792  1.00  0.00     0.055 A 
ATOM     78  C   UNL A   1      41.993  27.451  25.731  1.00  0.00     0.041 A 
ATOM     79  F   UNL A   1      42.008  29.461  26.937  1.00  0.00    -0.206 F 
ATOM     80  C   UNL A   1      41.754  26.082  25.670  1.00  0.00     0.022 A 
BRANCH  77  81
ATOM     81  S   UNL A   1      41.016  23.631  26.778  1.00  0.00     0.124 S 
ATOM     82  O   UNL A   1      41.971  23.223  25.755  1.00  0.00    -0.237 OA
ATOM     83  O   UNL A   1      41.355  23.274  28.152  1.00  0.00    -0.237 OA
ATOM     84  O   UNL A   1      39.609  23.462  26.422  1.00  0.00    -0.744 OA
ENDBRANCH  77  81
ENDBRANCH  50  74
BRANCH  62  85
ATOM     85  C   UNL A   1      44.316  27.479  34.281  1.00  0.00     0.023 A 
ATOM     86  C   UNL A   1      44.064  26.226  34.867  1.00  0.00     0.031 A 
ATOM     87  C   UNL A   1      45.642  27.944  34.259  1.00  0.00     0.131 A 
ATOM     88  C   UNL A   1      45.114  25.509  35.461  1.00  0.00     0.055 A 
ATOM     89  C   UNL A   1      46.692  27.199  34.798  1.00  0.00     0.041 A 
ATOM     90  F   UNL A   1      45.941  29.135  33.714  1.00  0.00    -0.206 F 
ATOM     91  C   UNL A   1      46.428  25.981  35.417  1.00  0.00     0.022 A 
BRANCH  88  92
ATOM     92  S   UNL A   1      44.724  23.995  36.382  1.00  0.00     0.124 S 
ATOM     93  O   UNL A   1      43.544  23.506  35.677  1.00  0.00    -0.237 OA
ATOM     94  O   UNL A   1      45.939  23.206  36.214  1.00  0.00    -0.237 OA
ATOM     95  O   UNL A   1      44.478  24.475  37.741  1.00  0.00    -0.744 OA
ENDBRANCH  88  92
ENDBRANCH  62  85
ENDBRANCH  36  37
ENDBRANCH  28  31
ENDBRANCH  26  27
ENDBRANCH  25  26
ENDBRANCH   1  25
TORSDOF 20
ENDMDL
