MODEL 1
REMARK VINA RESULT:     -10.7      0.000      0.000
REMARK SMILES O=C(NCCCCCCNC(=O)[C@@H](CCO)NC(=O)c1nc(C2CC2)n[nH]1)c1ccc(-c2c3nc(c(-c4cc(S(=O)(=O)[O-])ccc4F)c4ccc([nH]4)c(-c4cc(S(=O)(=O)[O-])ccc4F)c4nc(c(-c5cc(S(=O)(=O)[O-])ccc5F)c5ccc2[nH]5)C=C4)C=C3)cc1
REMARK SMILES IDX 6 1 5 2 4 3 3 4 1 5 2 6 28 8 29 9 90 10 30 11 89 12 31 13
REMARK SMILES IDX 32 14 33 15 83 16 34 17 88 18 82 19 84 20 35 21 87 22 81 23
REMARK SMILES IDX 80 24 36 26 68 27 48 28 67 29 49 30 52 31 66 32 85 33 50 34
REMARK SMILES IDX 51 35 65 37 86 38 53 39 37 40 38 41 46 42 39 43 45 44 47 45
REMARK SMILES IDX 44 46 40 47 41 48 42 49 43 50 69 51 70 52 78 53 71 54 77 55
REMARK SMILES IDX 79 56 76 57 72 58 73 59 74 60 75 61 54 62 55 63 63 64 56 65
REMARK SMILES IDX 62 66 64 67 61 68 57 69 58 70 59 71 60 72 7 73 8 74 9 75
REMARK SMILES IDX 10 76 11 77 12 79 13 80 14 81 15 82 16 83 17 85 18 86 19 88
REMARK SMILES IDX 20 89 21 90 27 91 22 92 26 93 23 95 24 96 25 97
REMARK H PARENT 3 7 84 25 52 36 10 78 16 84 17 87 27 94
REMARK Flexibility Score: inf
ROOT
ATOM      1  C   UNL A   1      31.693  30.640  26.113  1.00  0.00     0.002 C 
ENDROOT
BRANCH   1   2
ATOM      2  C   UNL A   1      31.510  32.002  26.787  1.00  0.00     0.021 C 
BRANCH   2   3
ATOM      3  C   UNL A   1      32.797  32.641  27.297  1.00  0.00     0.116 C 
BRANCH   3   4
ATOM      4  N   UNL A   1      32.592  34.010  27.742  1.00  0.00    -0.352 N 
ATOM      5  O   UNL A   1      32.766  35.779  29.130  1.00  0.00    -0.269 OA
ATOM      6  C   UNL A   1      33.197  34.687  28.774  1.00  0.00     0.251 C 
ATOM      7  H   UNL A   1      31.926  34.526  27.232  1.00  0.00     0.163 HD
BRANCH   6   8
ATOM      8  C   UNL A   1      34.359  34.083  29.460  1.00  0.00     0.039 A 
ATOM      9  C   UNL A   1      35.660  34.398  29.062  1.00  0.00     0.014 A 
ATOM     10  C   UNL A   1      34.142  33.193  30.515  1.00  0.00     0.014 A 
ATOM     11  C   UNL A   1      36.737  33.723  29.624  1.00  0.00     0.010 A 
ATOM     12  C   UNL A   1      35.232  32.576  31.135  1.00  0.00     0.010 A 
ATOM     13  C   UNL A   1      36.537  32.811  30.674  1.00  0.00    -0.014 A 
BRANCH  13  14
ATOM     14  C   UNL A   1      37.712  32.145  31.294  1.00  0.00     0.031 A 
ATOM     15  C   UNL A   1      38.215  32.565  32.648  1.00  0.00     0.074 A 
ATOM     16  C   UNL A   1      38.309  31.135  30.633  1.00  0.00     0.049 A 
ATOM     17  N   UNL A   1      39.212  32.083  33.346  1.00  0.00    -0.248 NA
ATOM     18  C   UNL A   1      37.512  33.680  33.297  1.00  0.00     0.031 C 
ATOM     19  C   UNL A   1      37.909  30.646  29.310  1.00  0.00     0.029 A 
ATOM     20  N   UNL A   1      39.356  30.325  30.982  1.00  0.00    -0.354 N 
ATOM     21  C   UNL A   1      39.272  32.847  34.506  1.00  0.00     0.074 A 
ATOM     22  C   UNL A   1      38.231  33.848  34.397  1.00  0.00     0.031 C 
ATOM     23  C   UNL A   1      38.667  29.589  28.985  1.00  0.00     0.029 A 
ATOM     24  C   UNL A   1      39.648  29.365  30.041  1.00  0.00     0.049 A 
ATOM     25  H   UNL A   1      39.854  30.420  31.827  1.00  0.00     0.167 HD
ATOM     26  C   UNL A   1      40.114  32.718  35.564  1.00  0.00     0.034 A 
ATOM     27  C   UNL A   1      40.604  28.417  30.023  1.00  0.00     0.034 A 
ATOM     28  C   UNL A   1      41.144  31.709  35.653  1.00  0.00     0.049 A 
ATOM     29  C   UNL A   1      41.544  28.315  31.192  1.00  0.00     0.074 A 
ATOM     30  C   UNL A   1      42.029  31.464  36.690  1.00  0.00     0.029 A 
ATOM     31  N   UNL A   1      41.439  30.779  34.661  1.00  0.00    -0.354 N 
ATOM     32  N   UNL A   1      41.578  29.033  32.290  1.00  0.00    -0.248 NA
ATOM     33  C   UNL A   1      42.571  27.271  31.118  1.00  0.00     0.031 C 
ATOM     34  C   UNL A   1      42.897  30.437  36.299  1.00  0.00     0.029 A 
ATOM     35  C   UNL A   1      42.508  29.985  35.049  1.00  0.00     0.049 A 
ATOM     36  H   UNL A   1      40.957  30.697  33.806  1.00  0.00     0.167 HD
ATOM     37  C   UNL A   1      42.616  28.509  33.053  1.00  0.00     0.074 A 
ATOM     38  C   UNL A   1      43.171  27.406  32.292  1.00  0.00     0.031 C 
ATOM     39  C   UNL A   1      43.065  28.899  34.273  1.00  0.00     0.034 A 
BRANCH  26  40
ATOM     40  C   UNL A   1      39.984  33.730  36.680  1.00  0.00     0.023 A 
ATOM     41  C   UNL A   1      40.913  34.773  36.853  1.00  0.00     0.031 A 
ATOM     42  C   UNL A   1      38.938  33.626  37.616  1.00  0.00     0.131 A 
ATOM     43  C   UNL A   1      40.829  35.610  37.977  1.00  0.00     0.055 A 
ATOM     44  C   UNL A   1      38.811  34.515  38.685  1.00  0.00     0.041 A 
ATOM     45  F   UNL A   1      38.030  32.643  37.518  1.00  0.00    -0.206 F 
ATOM     46  C   UNL A   1      39.771  35.504  38.882  1.00  0.00     0.022 A 
BRANCH  43  47
ATOM     47  S   UNL A   1      42.215  36.727  38.331  1.00  0.00     0.124 S 
ATOM     48  O   UNL A   1      41.559  37.777  39.107  1.00  0.00    -0.237 OA
ATOM     49  O   UNL A   1      43.132  35.867  39.069  1.00  0.00    -0.237 OA
ATOM     50  O   UNL A   1      42.672  37.138  37.005  1.00  0.00    -0.744 OA
ENDBRANCH  43  47
ENDBRANCH  26  40
BRANCH  27  51
ATOM     51  C   UNL A   1      40.723  27.502  28.854  1.00  0.00     0.023 A 
ATOM     52  C   UNL A   1      41.680  27.729  27.854  1.00  0.00     0.031 A 
ATOM     53  C   UNL A   1      39.873  26.389  28.719  1.00  0.00     0.131 A 
ATOM     54  C   UNL A   1      41.745  26.872  26.744  1.00  0.00     0.055 A 
ATOM     55  C   UNL A   1      39.975  25.512  27.639  1.00  0.00     0.041 A 
ATOM     56  F   UNL A   1      38.947  26.124  29.655  1.00  0.00    -0.206 F 
ATOM     57  C   UNL A   1      40.909  25.757  26.638  1.00  0.00     0.022 A 
BRANCH  54  58
ATOM     58  S   UNL A   1      42.907  27.268  25.410  1.00  0.00     0.124 S 
ATOM     59  O   UNL A   1      42.230  28.375  24.744  1.00  0.00    -0.237 OA
ATOM     60  O   UNL A   1      44.117  27.607  26.152  1.00  0.00    -0.237 OA
ATOM     61  O   UNL A   1      42.978  26.026  24.642  1.00  0.00    -0.744 OA
ENDBRANCH  54  58
ENDBRANCH  27  51
BRANCH  39  62
ATOM     62  C   UNL A   1      44.185  28.085  34.874  1.00  0.00     0.023 A 
ATOM     63  C   UNL A   1      45.532  28.476  34.755  1.00  0.00     0.031 A 
ATOM     64  C   UNL A   1      43.901  26.883  35.545  1.00  0.00     0.131 A 
ATOM     65  C   UNL A   1      46.547  27.638  35.242  1.00  0.00     0.055 A 
ATOM     66  C   UNL A   1      44.913  26.085  36.082  1.00  0.00     0.041 A 
ATOM     67  F   UNL A   1      42.635  26.460  35.684  1.00  0.00    -0.206 F 
ATOM     68  C   UNL A   1      46.245  26.453  35.919  1.00  0.00     0.022 A 
BRANCH  65  69
ATOM     69  S   UNL A   1      48.274  28.066  34.888  1.00  0.00     0.124 S 
ATOM     70  O   UNL A   1      48.802  28.330  36.222  1.00  0.00    -0.237 OA
ATOM     71  O   UNL A   1      48.766  26.858  34.234  1.00  0.00    -0.237 OA
ATOM     72  O   UNL A   1      48.166  29.239  34.022  1.00  0.00    -0.744 OA
ENDBRANCH  65  69
ENDBRANCH  39  62
ENDBRANCH  13  14
ENDBRANCH   6   8
ENDBRANCH   3   4
ENDBRANCH   2   3
ENDBRANCH   1   2
BRANCH   1  73
ATOM     73  C   UNL A   1      32.139  29.507  27.042  1.00  0.00     0.002 C 
BRANCH  73  74
ATOM     74  C   UNL A   1      33.576  29.017  26.829  1.00  0.00     0.021 C 
BRANCH  74  75
ATOM     75  C   UNL A   1      33.712  27.916  25.776  1.00  0.00     0.116 C 
BRANCH  75  76
ATOM     76  N   UNL A   1      34.056  28.498  24.496  1.00  0.00    -0.354 N 
ATOM     77  C   UNL A   1      33.624  28.225  23.240  1.00  0.00     0.242 C 
ATOM     78  H   UNL A   1      34.723  29.220  24.546  1.00  0.00     0.163 HD
ATOM     79  O   UNL A   1      34.358  28.604  22.318  1.00  0.00    -0.273 OA
BRANCH  77  80
ATOM     80  C   UNL A   1      32.336  27.430  22.918  1.00  0.00     0.174 C 
BRANCH  80  81
ATOM     81  C   UNL A   1      31.022  28.031  23.433  1.00  0.00     0.063 C 
BRANCH  81  82
ATOM     82  C   UNL A   1      30.530  29.326  22.805  1.00  0.00     0.158 C 
BRANCH  82  83
ATOM     83  O   UNL A   1      29.938  29.116  21.535  1.00  0.00    -0.396 OA
ATOM     84  H   UNL A   1      29.691  28.183  21.444  1.00  0.00     0.210 HD
ENDBRANCH  82  83
ENDBRANCH  81  82
ENDBRANCH  80  81
BRANCH  80  85
ATOM     85  N   UNL A   1      32.271  26.914  21.549  1.00  0.00    -0.337 N 
ATOM     86  C   UNL A   1      32.770  25.716  21.086  1.00  0.00     0.289 C 
ATOM     87  H   UNL A   1      31.821  27.487  20.887  1.00  0.00     0.164 HD
ATOM     88  O   UNL A   1      32.954  25.578  19.879  1.00  0.00    -0.266 OA
BRANCH  86  89
ATOM     89  C   UNL A   1      33.094  24.679  22.034  1.00  0.00     0.214 A 
ATOM     90  N   UNL A   1      34.203  24.562  22.738  1.00  0.00    -0.207 NA
ATOM     91  N   UNL A   1      32.269  23.640  22.346  1.00  0.00    -0.255 N 
ATOM     92  C   UNL A   1      34.050  23.362  23.377  1.00  0.00     0.154 A 
ATOM     93  N   UNL A   1      32.883  22.750  23.149  1.00  0.00    -0.158 NA
ATOM     94  H   UNL A   1      31.343  23.553  22.026  1.00  0.00     0.192 HD
BRANCH  92  95
ATOM     95  C   UNL A   1      35.139  22.753  24.243  1.00  0.00     0.060 C 
ATOM     96  C   UNL A   1      35.155  23.092  25.722  1.00  0.00     0.012 C 
ATOM     97  C   UNL A   1      34.750  21.727  25.286  1.00  0.00     0.012 C 
ENDBRANCH  92  95
ENDBRANCH  86  89
ENDBRANCH  80  85
ENDBRANCH  77  80
ENDBRANCH  75  76
ENDBRANCH  74  75
ENDBRANCH  73  74
ENDBRANCH   1  73
TORSDOF 22
ENDMDL
MODEL 2
REMARK VINA RESULT:     -10.7      1.724      7.729
REMARK SMILES O=C(NCCCCCCNC(=O)[C@@H](CCO)NC(=O)c1nc(C2CC2)n[nH]1)c1ccc(-c2c3nc(c(-c4cc(S(=O)(=O)[O-])ccc4F)c4ccc([nH]4)c(-c4cc(S(=O)(=O)[O-])ccc4F)c4nc(c(-c5cc(S(=O)(=O)[O-])ccc5F)c5ccc2[nH]5)C=C4)C=C3)cc1
REMARK SMILES IDX 6 1 5 2 4 3 3 4 1 5 2 6 28 8 29 9 90 10 30 11 89 12 31 13
REMARK SMILES IDX 32 14 33 15 83 16 34 17 88 18 82 19 84 20 35 21 87 22 81 23
REMARK SMILES IDX 80 24 36 26 68 27 48 28 67 29 49 30 52 31 66 32 85 33 50 34
REMARK SMILES IDX 51 35 65 37 86 38 53 39 37 40 38 41 46 42 39 43 45 44 47 45
REMARK SMILES IDX 44 46 40 47 41 48 42 49 43 50 69 51 70 52 78 53 71 54 77 55
REMARK SMILES IDX 79 56 76 57 72 58 73 59 74 60 75 61 54 62 55 63 63 64 56 65
REMARK SMILES IDX 62 66 64 67 61 68 57 69 58 70 59 71 60 72 7 73 8 74 9 75
REMARK SMILES IDX 10 76 11 77 12 79 13 80 14 81 15 82 16 83 17 85 18 86 19 88
REMARK SMILES IDX 20 89 21 90 27 91 22 92 26 93 23 95 24 96 25 97
REMARK H PARENT 3 7 84 25 52 36 10 78 16 84 17 87 27 94
REMARK Flexibility Score: inf
ROOT
ATOM      1  C   UNL A   1      31.464  30.662  26.048  1.00  0.00     0.002 C 
ENDROOT
BRANCH   1   2
ATOM      2  C   UNL A   1      31.349  32.066  26.647  1.00  0.00     0.021 C 
BRANCH   2   3
ATOM      3  C   UNL A   1      32.680  32.768  26.893  1.00  0.00     0.116 C 
BRANCH   3   4
ATOM      4  N   UNL A   1      32.508  34.063  27.531  1.00  0.00    -0.352 N 
ATOM      5  O   UNL A   1      32.739  35.614  29.153  1.00  0.00    -0.269 OA
ATOM      6  C   UNL A   1      33.142  34.576  28.638  1.00  0.00     0.251 C 
ATOM      7  H   UNL A   1      31.845  34.658  27.112  1.00  0.00     0.163 HD
BRANCH   6   8
ATOM      8  C   UNL A   1      34.303  33.861  29.210  1.00  0.00     0.039 A 
ATOM      9  C   UNL A   1      34.116  32.729  30.007  1.00  0.00     0.014 A 
ATOM     10  C   UNL A   1      35.592  34.329  28.944  1.00  0.00     0.014 A 
ATOM     11  C   UNL A   1      35.205  32.148  30.648  1.00  0.00     0.010 A 
ATOM     12  C   UNL A   1      36.693  33.693  29.524  1.00  0.00     0.010 A 
ATOM     13  C   UNL A   1      36.506  32.616  30.406  1.00  0.00    -0.014 A 
BRANCH  13  14
ATOM     14  C   UNL A   1      37.657  31.941  31.061  1.00  0.00     0.031 A 
ATOM     15  C   UNL A   1      38.488  30.931  30.318  1.00  0.00     0.074 A 
ATOM     16  C   UNL A   1      37.963  32.267  32.332  1.00  0.00     0.049 A 
ATOM     17  N   UNL A   1      39.534  30.260  30.727  1.00  0.00    -0.248 NA
ATOM     18  C   UNL A   1      38.079  30.626  28.940  1.00  0.00     0.031 C 
ATOM     19  C   UNL A   1      37.224  33.231  33.152  1.00  0.00     0.029 A 
ATOM     20  N   UNL A   1      38.980  31.849  33.148  1.00  0.00    -0.354 N 
ATOM     21  C   UNL A   1      39.901  29.438  29.666  1.00  0.00     0.074 A 
ATOM     22  C   UNL A   1      38.937  29.671  28.610  1.00  0.00     0.031 C 
ATOM     23  C   UNL A   1      37.843  33.368  34.333  1.00  0.00     0.029 A 
ATOM     24  C   UNL A   1      38.980  32.457  34.382  1.00  0.00     0.049 A 
ATOM     25  H   UNL A   1      39.648  31.177  32.878  1.00  0.00     0.167 HD
ATOM     26  C   UNL A   1      40.947  28.576  29.582  1.00  0.00     0.034 A 
ATOM     27  C   UNL A   1      39.798  32.293  35.440  1.00  0.00     0.034 A 
ATOM     28  C   UNL A   1      41.899  28.361  30.649  1.00  0.00     0.049 A 
ATOM     29  C   UNL A   1      40.930  31.310  35.334  1.00  0.00     0.074 A 
ATOM     30  C   UNL A   1      43.014  27.541  30.660  1.00  0.00     0.029 A 
ATOM     31  N   UNL A   1      41.843  28.964  31.901  1.00  0.00    -0.354 N 
ATOM     32  N   UNL A   1      41.274  30.553  34.318  1.00  0.00    -0.248 NA
ATOM     33  C   UNL A   1      41.785  31.164  36.516  1.00  0.00     0.031 C 
ATOM     34  C   UNL A   1      43.590  27.595  31.936  1.00  0.00     0.029 A 
ATOM     35  C   UNL A   1      42.883  28.510  32.699  1.00  0.00     0.049 A 
ATOM     36  H   UNL A   1      41.163  29.619  32.181  1.00  0.00     0.167 HD
ATOM     37  C   UNL A   1      42.405  29.857  34.732  1.00  0.00     0.074 A 
ATOM     38  C   UNL A   1      42.691  30.299  36.083  1.00  0.00     0.031 C 
ATOM     39  C   UNL A   1      43.146  28.943  34.054  1.00  0.00     0.034 A 
BRANCH  26  40
ATOM     40  C   UNL A   1      41.077  27.765  28.312  1.00  0.00     0.023 A 
ATOM     41  C   UNL A   1      40.739  26.401  28.261  1.00  0.00     0.031 A 
ATOM     42  C   UNL A   1      41.590  28.356  27.143  1.00  0.00     0.131 A 
ATOM     43  C   UNL A   1      40.998  25.655  27.100  1.00  0.00     0.055 A 
ATOM     44  C   UNL A   1      41.766  27.627  25.963  1.00  0.00     0.041 A 
ATOM     45  F   UNL A   1      41.950  29.648  27.131  1.00  0.00    -0.206 F 
ATOM     46  C   UNL A   1      41.487  26.264  25.943  1.00  0.00     0.022 A 
BRANCH  43  47
ATOM     47  S   UNL A   1      40.846  23.849  27.178  1.00  0.00     0.124 S 
ATOM     48  O   UNL A   1      39.402  23.666  27.056  1.00  0.00    -0.237 OA
ATOM     49  O   UNL A   1      41.643  23.416  26.037  1.00  0.00    -0.237 OA
ATOM     50  O   UNL A   1      41.398  23.514  28.490  1.00  0.00    -0.744 OA
ENDBRANCH  43  47
ENDBRANCH  26  40
BRANCH  27  51
ATOM     51  C   UNL A   1      39.565  33.070  36.688  1.00  0.00     0.023 A 
ATOM     52  C   UNL A   1      40.221  34.288  36.914  1.00  0.00     0.031 A 
ATOM     53  C   UNL A   1      38.685  32.597  37.680  1.00  0.00     0.131 A 
ATOM     54  C   UNL A   1      40.012  34.981  38.117  1.00  0.00     0.055 A 
ATOM     55  C   UNL A   1      38.443  33.313  38.851  1.00  0.00     0.041 A 
ATOM     56  F   UNL A   1      38.026  31.439  37.507  1.00  0.00    -0.206 F 
ATOM     57  C   UNL A   1      39.116  34.509  39.080  1.00  0.00     0.022 A 
BRANCH  54  58
ATOM     58  S   UNL A   1      40.972  36.487  38.429  1.00  0.00     0.124 S 
ATOM     59  O   UNL A   1      41.805  36.081  39.555  1.00  0.00    -0.237 OA
ATOM     60  O   UNL A   1      41.660  36.677  37.156  1.00  0.00    -0.237 OA
ATOM     61  O   UNL A   1      39.949  37.485  38.736  1.00  0.00    -0.744 OA
ENDBRANCH  54  58
ENDBRANCH  27  51
BRANCH  39  62
ATOM     62  C   UNL A   1      44.365  28.401  34.759  1.00  0.00     0.023 A 
ATOM     63  C   UNL A   1      44.310  27.233  35.542  1.00  0.00     0.031 A 
ATOM     64  C   UNL A   1      45.590  29.085  34.675  1.00  0.00     0.131 A 
ATOM     65  C   UNL A   1      45.443  26.821  36.261  1.00  0.00     0.055 A 
ATOM     66  C   UNL A   1      46.730  28.635  35.343  1.00  0.00     0.041 A 
ATOM     67  F   UNL A   1      45.698  30.207  33.945  1.00  0.00    -0.206 F 
ATOM     68  C   UNL A   1      46.657  27.506  36.153  1.00  0.00     0.022 A 
BRANCH  65  69
ATOM     69  S   UNL A   1      45.282  25.437  37.423  1.00  0.00     0.124 S 
ATOM     70  O   UNL A   1      46.435  25.637  38.294  1.00  0.00    -0.237 OA
ATOM     71  O   UNL A   1      43.976  25.685  38.024  1.00  0.00    -0.237 OA
ATOM     72  O   UNL A   1      45.354  24.257  36.562  1.00  0.00    -0.744 OA
ENDBRANCH  65  69
ENDBRANCH  39  62
ENDBRANCH  13  14
ENDBRANCH   6   8
ENDBRANCH   3   4
ENDBRANCH   2   3
ENDBRANCH   1   2
BRANCH   1  73
ATOM     73  C   UNL A   1      32.025  29.594  26.993  1.00  0.00     0.002 C 
BRANCH  73  74
ATOM     74  C   UNL A   1      33.489  29.212  26.748  1.00  0.00     0.021 C 
BRANCH  74  75
ATOM     75  C   UNL A   1      33.677  28.066  25.752  1.00  0.00     0.116 C 
BRANCH  75  76
ATOM     76  N   UNL A   1      34.064  28.593  24.461  1.00  0.00    -0.354 N 
ATOM     77  C   UNL A   1      33.622  28.317  23.209  1.00  0.00     0.242 C 
ATOM     78  H   UNL A   1      34.774  29.274  24.498  1.00  0.00     0.163 HD
ATOM     79  O   UNL A   1      34.384  28.627  22.283  1.00  0.00    -0.273 OA
BRANCH  77  80
ATOM     80  C   UNL A   1      32.290  27.597  22.897  1.00  0.00     0.174 C 
BRANCH  80  81
ATOM     81  C   UNL A   1      31.009  28.325  23.326  1.00  0.00     0.063 C 
BRANCH  81  82
ATOM     82  C   UNL A   1      30.124  28.918  22.241  1.00  0.00     0.158 C 
BRANCH  82  83
ATOM     83  O   UNL A   1      30.774  29.952  21.523  1.00  0.00    -0.396 OA
ATOM     84  H   UNL A   1      31.325  29.564  20.826  1.00  0.00     0.210 HD
ENDBRANCH  82  83
ENDBRANCH  81  82
ENDBRANCH  80  81
BRANCH  80  85
ATOM     85  N   UNL A   1      32.226  26.993  21.564  1.00  0.00    -0.337 N 
ATOM     86  C   UNL A   1      32.747  25.779  21.174  1.00  0.00     0.289 C 
ATOM     87  H   UNL A   1      31.760  27.514  20.870  1.00  0.00     0.164 HD
ATOM     88  O   UNL A   1      32.926  25.567  19.977  1.00  0.00    -0.266 OA
BRANCH  86  89
ATOM     89  C   UNL A   1      33.099  24.811  22.183  1.00  0.00     0.214 A 
ATOM     90  N   UNL A   1      34.306  24.538  22.638  1.00  0.00    -0.207 NA
ATOM     91  N   UNL A   1      32.199  24.017  22.831  1.00  0.00    -0.255 N 
ATOM     92  C   UNL A   1      34.098  23.480  23.480  1.00  0.00     0.154 A 
ATOM     93  N   UNL A   1      32.818  23.113  23.614  1.00  0.00    -0.158 NA
ATOM     94  H   UNL A   1      31.223  24.097  22.740  1.00  0.00     0.192 HD
BRANCH  92  95
ATOM     95  C   UNL A   1      35.236  22.752  24.175  1.00  0.00     0.060 C 
ATOM     96  C   UNL A   1      36.655  23.039  23.721  1.00  0.00     0.012 C 
ATOM     97  C   UNL A   1      36.189  23.550  25.040  1.00  0.00     0.012 C 
ENDBRANCH  92  95
ENDBRANCH  86  89
ENDBRANCH  80  85
ENDBRANCH  77  80
ENDBRANCH  75  76
ENDBRANCH  74  75
ENDBRANCH  73  74
ENDBRANCH   1  73
TORSDOF 22
ENDMDL
MODEL 3
REMARK VINA RESULT:     -10.7      3.090      4.129
REMARK SMILES O=C(NCCCCCCNC(=O)[C@@H](CCO)NC(=O)c1nc(C2CC2)n[nH]1)c1ccc(-c2c3nc(c(-c4cc(S(=O)(=O)[O-])ccc4F)c4ccc([nH]4)c(-c4cc(S(=O)(=O)[O-])ccc4F)c4nc(c(-c5cc(S(=O)(=O)[O-])ccc5F)c5ccc2[nH]5)C=C4)C=C3)cc1
REMARK SMILES IDX 6 1 5 2 4 3 3 4 1 5 2 6 28 8 29 9 90 10 30 11 89 12 31 13
REMARK SMILES IDX 32 14 33 15 83 16 34 17 88 18 82 19 84 20 35 21 87 22 81 23
REMARK SMILES IDX 80 24 36 26 68 27 48 28 67 29 49 30 52 31 66 32 85 33 50 34
REMARK SMILES IDX 51 35 65 37 86 38 53 39 37 40 38 41 46 42 39 43 45 44 47 45
REMARK SMILES IDX 44 46 40 47 41 48 42 49 43 50 69 51 70 52 78 53 71 54 77 55
REMARK SMILES IDX 79 56 76 57 72 58 73 59 74 60 75 61 54 62 55 63 63 64 56 65
REMARK SMILES IDX 62 66 64 67 61 68 57 69 58 70 59 71 60 72 7 73 8 74 9 75
REMARK SMILES IDX 10 76 11 77 12 79 13 80 14 81 15 82 16 83 17 85 18 86 19 88
REMARK SMILES IDX 20 89 21 90 27 91 22 92 26 93 23 95 24 96 25 97
REMARK H PARENT 3 7 84 25 52 36 10 78 16 84 17 87 27 94
REMARK Flexibility Score: inf
ROOT
ATOM      1  C   UNL A   1      31.990  27.385  26.806  1.00  0.00     0.002 C 
ENDROOT
BRANCH   1   2
ATOM      2  C   UNL A   1      32.030  28.860  27.213  1.00  0.00     0.021 C 
BRANCH   2   3
ATOM      3  C   UNL A   1      33.127  29.680  26.543  1.00  0.00     0.116 C 
BRANCH   3   4
ATOM      4  N   UNL A   1      32.982  31.104  26.797  1.00  0.00    -0.352 N 
ATOM      5  O   UNL A   1      33.373  33.067  27.837  1.00  0.00    -0.269 OA
ATOM      6  C   UNL A   1      33.750  31.927  27.586  1.00  0.00     0.251 C 
ATOM      7  H   UNL A   1      32.228  31.542  26.341  1.00  0.00     0.163 HD
BRANCH   6   8
ATOM      8  C   UNL A   1      35.026  31.425  28.139  1.00  0.00     0.039 A 
ATOM      9  C   UNL A   1      35.096  30.157  28.721  1.00  0.00     0.014 A 
ATOM     10  C   UNL A   1      36.164  32.232  28.073  1.00  0.00     0.014 A 
ATOM     11  C   UNL A   1      36.265  29.752  29.356  1.00  0.00     0.010 A 
ATOM     12  C   UNL A   1      37.362  31.789  28.641  1.00  0.00     0.010 A 
ATOM     13  C   UNL A   1      37.414  30.558  29.315  1.00  0.00    -0.014 A 
BRANCH  13  14
ATOM     14  C   UNL A   1      38.665  30.076  29.955  1.00  0.00     0.031 A 
ATOM     15  C   UNL A   1      39.055  30.530  31.335  1.00  0.00     0.074 A 
ATOM     16  C   UNL A   1      39.439  29.199  29.287  1.00  0.00     0.049 A 
ATOM     17  N   UNL A   1      40.099  30.198  32.051  1.00  0.00    -0.248 NA
ATOM     18  C   UNL A   1      38.161  31.495  31.989  1.00  0.00     0.031 C 
ATOM     19  C   UNL A   1      39.162  28.691  27.940  1.00  0.00     0.029 A 
ATOM     20  N   UNL A   1      40.596  28.562  29.648  1.00  0.00    -0.354 N 
ATOM     21  C   UNL A   1      40.001  30.925  33.232  1.00  0.00     0.074 A 
ATOM     22  C   UNL A   1      38.812  31.745  33.116  1.00  0.00     0.031 C 
ATOM     23  C   UNL A   1      40.092  27.784  27.612  1.00  0.00     0.029 A 
ATOM     24  C   UNL A   1      41.067  27.692  28.692  1.00  0.00     0.049 A 
ATOM     25  H   UNL A   1      41.048  28.711  30.511  1.00  0.00     0.167 HD
ATOM     26  C   UNL A   1      40.824  30.904  34.312  1.00  0.00     0.034 A 
ATOM     27  C   UNL A   1      42.168  26.916  28.679  1.00  0.00     0.034 A 
ATOM     28  C   UNL A   1      42.004  30.076  34.408  1.00  0.00     0.049 A 
ATOM     29  C   UNL A   1      43.080  26.934  29.874  1.00  0.00     0.074 A 
ATOM     30  C   UNL A   1      42.888  29.948  35.466  1.00  0.00     0.029 A 
ATOM     31  N   UNL A   1      42.475  29.239  33.402  1.00  0.00    -0.354 N 
ATOM     32  N   UNL A   1      42.965  27.613  30.992  1.00  0.00    -0.248 NA
ATOM     33  C   UNL A   1      44.267  26.075  29.807  1.00  0.00     0.031 C 
ATOM     34  C   UNL A   1      43.925  29.091  35.075  1.00  0.00     0.029 A 
ATOM     35  C   UNL A   1      43.650  28.619  33.803  1.00  0.00     0.049 A 
ATOM     36  H   UNL A   1      42.037  29.105  32.530  1.00  0.00     0.167 HD
ATOM     37  C   UNL A   1      44.054  27.244  31.773  1.00  0.00     0.074 A 
ATOM     38  C   UNL A   1      44.804  26.271  31.002  1.00  0.00     0.031 C 
ATOM     39  C   UNL A   1      44.400  27.664  33.016  1.00  0.00     0.034 A 
BRANCH  26  40
ATOM     40  C   UNL A   1      40.498  31.847  35.450  1.00  0.00     0.023 A 
ATOM     41  C   UNL A   1      39.451  31.590  36.354  1.00  0.00     0.031 A 
ATOM     42  C   UNL A   1      41.217  33.046  35.606  1.00  0.00     0.131 A 
ATOM     43  C   UNL A   1      39.099  32.553  37.313  1.00  0.00     0.055 A 
ATOM     44  C   UNL A   1      40.916  33.962  36.618  1.00  0.00     0.041 A 
ATOM     45  F   UNL A   1      42.215  33.359  34.766  1.00  0.00    -0.206 F 
ATOM     46  C   UNL A   1      39.839  33.726  37.467  1.00  0.00     0.022 A 
BRANCH  43  47
ATOM     47  S   UNL A   1      37.556  32.326  38.242  1.00  0.00     0.124 S 
ATOM     48  O   UNL A   1      36.629  33.166  37.487  1.00  0.00    -0.237 OA
ATOM     49  O   UNL A   1      37.339  30.888  38.144  1.00  0.00    -0.237 OA
ATOM     50  O   UNL A   1      37.884  32.820  39.578  1.00  0.00    -0.744 OA
ENDBRANCH  43  47
ENDBRANCH  26  40
BRANCH  27  51
ATOM     51  C   UNL A   1      42.468  26.069  27.492  1.00  0.00     0.023 A 
ATOM     52  C   UNL A   1      42.094  24.718  27.456  1.00  0.00     0.031 A 
ATOM     53  C   UNL A   1      43.143  26.601  26.378  1.00  0.00     0.131 A 
ATOM     54  C   UNL A   1      42.424  23.933  26.340  1.00  0.00     0.055 A 
ATOM     55  C   UNL A   1      43.424  25.829  25.251  1.00  0.00     0.041 A 
ATOM     56  F   UNL A   1      43.514  27.891  26.361  1.00  0.00    -0.206 F 
ATOM     57  C   UNL A   1      43.073  24.484  25.231  1.00  0.00     0.022 A 
BRANCH  54  58
ATOM     58  S   UNL A   1      42.038  22.162  26.380  1.00  0.00     0.124 S 
ATOM     59  O   UNL A   1      40.584  22.171  26.275  1.00  0.00    -0.237 OA
ATOM     60  O   UNL A   1      42.763  21.667  25.214  1.00  0.00    -0.237 OA
ATOM     61  O   UNL A   1      42.569  21.727  27.671  1.00  0.00    -0.744 OA
ENDBRANCH  54  58
ENDBRANCH  27  51
BRANCH  39  62
ATOM     62  C   UNL A   1      45.622  27.028  33.632  1.00  0.00     0.023 A 
ATOM     63  C   UNL A   1      46.903  27.593  33.489  1.00  0.00     0.031 A 
ATOM     64  C   UNL A   1      45.507  25.820  34.340  1.00  0.00     0.131 A 
ATOM     65  C   UNL A   1      48.024  26.915  33.992  1.00  0.00     0.055 A 
ATOM     66  C   UNL A   1      46.619  25.182  34.892  1.00  0.00     0.041 A 
ATOM     67  F   UNL A   1      44.309  25.234  34.503  1.00  0.00    -0.206 F 
ATOM     68  C   UNL A   1      47.888  25.721  34.706  1.00  0.00     0.022 A 
BRANCH  65  69
ATOM     69  S   UNL A   1      49.676  27.560  33.610  1.00  0.00     0.124 S 
ATOM     70  O   UNL A   1      49.474  29.001  33.725  1.00  0.00    -0.237 OA
ATOM     71  O   UNL A   1      50.499  26.946  34.647  1.00  0.00    -0.237 OA
ATOM     72  O   UNL A   1      49.927  27.077  32.253  1.00  0.00    -0.744 OA
ENDBRANCH  65  69
ENDBRANCH  39  62
ENDBRANCH  13  14
ENDBRANCH   6   8
ENDBRANCH   3   4
ENDBRANCH   2   3
ENDBRANCH   1   2
BRANCH   1  73
ATOM     73  C   UNL A   1      31.388  27.107  25.424  1.00  0.00     0.002 C 
BRANCH  73  74
ATOM     74  C   UNL A   1      31.818  25.784  24.782  1.00  0.00     0.021 C 
BRANCH  74  75
ATOM     75  C   UNL A   1      30.677  24.784  24.587  1.00  0.00     0.116 C 
BRANCH  75  76
ATOM     76  N   UNL A   1      30.175  24.351  25.874  1.00  0.00    -0.354 N 
ATOM     77  C   UNL A   1      30.543  23.327  26.684  1.00  0.00     0.242 C 
ATOM     78  H   UNL A   1      29.434  24.897  26.223  1.00  0.00     0.163 HD
ATOM     79  O   UNL A   1      29.704  22.967  27.520  1.00  0.00    -0.273 OA
BRANCH  77  80
ATOM     80  C   UNL A   1      31.886  22.570  26.570  1.00  0.00     0.174 C 
BRANCH  80  81
ATOM     81  C   UNL A   1      32.797  22.615  27.804  1.00  0.00     0.063 C 
BRANCH  81  82
ATOM     82  C   UNL A   1      34.301  22.660  27.585  1.00  0.00     0.158 C 
BRANCH  82  83
ATOM     83  O   UNL A   1      34.838  21.385  27.280  1.00  0.00    -0.396 OA
ATOM     84  H   UNL A   1      35.416  21.097  28.002  1.00  0.00     0.210 HD
ENDBRANCH  82  83
ENDBRANCH  81  82
ENDBRANCH  80  81
BRANCH  80  85
ATOM     85  N   UNL A   1      31.786  21.251  25.939  1.00  0.00    -0.337 N 
ATOM     86  C   UNL A   1      32.331  20.860  24.737  1.00  0.00     0.289 C 
ATOM     87  H   UNL A   1      31.271  20.570  26.430  1.00  0.00     0.164 HD
ATOM     88  O   UNL A   1      31.880  19.863  24.178  1.00  0.00    -0.266 OA
BRANCH  86  89
ATOM     89  C   UNL A   1      33.387  21.652  24.155  1.00  0.00     0.214 A 
ATOM     90  N   UNL A   1      34.675  21.588  24.431  1.00  0.00    -0.207 NA
ATOM     91  N   UNL A   1      33.192  22.608  23.203  1.00  0.00    -0.255 N 
ATOM     92  C   UNL A   1      35.208  22.617  23.703  1.00  0.00     0.154 A 
ATOM     93  N   UNL A   1      34.328  23.285  22.948  1.00  0.00    -0.158 NA
ATOM     94  H   UNL A   1      32.331  22.781  22.759  1.00  0.00     0.192 HD
BRANCH  92  95
ATOM     95  C   UNL A   1      36.676  22.998  23.781  1.00  0.00     0.060 C 
ATOM     96  C   UNL A   1      37.180  23.662  25.049  1.00  0.00     0.012 C 
ATOM     97  C   UNL A   1      37.569  22.256  24.753  1.00  0.00     0.012 C 
ENDBRANCH  92  95
ENDBRANCH  86  89
ENDBRANCH  80  85
ENDBRANCH  77  80
ENDBRANCH  75  76
ENDBRANCH  74  75
ENDBRANCH  73  74
ENDBRANCH   1  73
TORSDOF 22
ENDMDL
