MODEL 1
REMARK VINA RESULT:     -12.2      0.000      0.000
REMARK SMILES O=C(/C=C/c1ccccc1)Nc1ccc(O)cc1C(=O)NCCCCCCNC(=O)c1ccc(-c2c3nc(c(-c4cc(S(=O)(=O)[O-])ccc4F)c4ccc([nH]4)c(-c4cc(S(=O)(=O)[O-])ccc4F)c4nc(c(-c5cc(S(=O)(=O)[O-])ccc5F)c5ccc2[nH]5)C=C4)C=C3)cc1
REMARK SMILES IDX 24 1 23 2 22 3 21 4 19 5 20 6 18 8 12 9 13 10 14 11 17 12
REMARK SMILES IDX 15 13 11 14 1 15 2 16 3 18 4 19 5 20 6 21 10 22 7 23 9 24
REMARK SMILES IDX 8 25 16 26 25 28 26 29 27 30 28 31 29 32 30 34 31 35 32 36
REMARK SMILES IDX 93 37 33 38 92 39 34 40 35 41 36 42 86 43 37 44 91 45 85 46
REMARK SMILES IDX 87 47 38 48 90 49 84 50 83 51 39 53 71 54 51 55 70 56 52 57
REMARK SMILES IDX 55 58 69 59 88 60 53 61 54 62 68 64 89 65 56 66 40 67 41 68
REMARK SMILES IDX 49 69 42 70 48 71 50 72 47 73 43 74 44 75 45 76 46 77 72 78
REMARK SMILES IDX 73 79 81 80 74 81 80 82 82 83 79 84 75 85 76 86 77 87 78 88
REMARK SMILES IDX 57 89 58 90 66 91 59 92 65 93 67 94 64 95 60 96 61 97 62 98
REMARK SMILES IDX 63 99
REMARK H PARENT 21 7 11 17 16 27 28 33 87 52 55 63
REMARK Flexibility Score: inf
ROOT
ATOM      1  C   UNL A   1      35.460  23.428  23.564  1.00  0.00     0.002 C 
ENDROOT
BRANCH   1   2
ATOM      2  C   UNL A   1      34.985  23.804  24.978  1.00  0.00     0.021 C 
BRANCH   2   3
ATOM      3  C   UNL A   1      34.726  25.274  25.328  1.00  0.00     0.116 C 
BRANCH   3   4
ATOM      4  N   UNL A   1      33.593  25.593  26.172  1.00  0.00    -0.352 N 
ATOM      5  C   UNL A   1      32.257  25.839  25.893  1.00  0.00     0.253 C 
ATOM      6  O   UNL A   1      31.503  25.781  26.874  1.00  0.00    -0.269 OA
ATOM      7  H   UNL A   1      33.814  25.644  27.130  1.00  0.00     0.163 HD
BRANCH   5   8
ATOM      8  C   UNL A   1      31.652  26.331  24.591  1.00  0.00     0.067 A 
ATOM      9  C   UNL A   1      31.619  25.753  23.308  1.00  0.00     0.054 A 
ATOM     10  C   UNL A   1      31.206  26.511  22.188  1.00  0.00     0.031 A 
ATOM     11  C   UNL A   1      30.659  27.777  22.335  1.00  0.00     0.048 A 
ATOM     12  C   UNL A   1      31.055  27.614  24.709  1.00  0.00     0.062 A 
ATOM     13  C   UNL A   1      30.542  28.300  23.605  1.00  0.00     0.116 A 
BRANCH   9  14
ATOM     14  N   UNL A   1      31.870  24.417  22.975  1.00  0.00    -0.322 N 
ATOM     15  O   UNL A   1      30.573  23.316  24.546  1.00  0.00    -0.270 OA
ATOM     16  C   UNL A   1      31.434  23.326  23.670  1.00  0.00     0.248 C 
ATOM     17  H   UNL A   1      32.408  24.249  22.168  1.00  0.00     0.170 HD
BRANCH  16  18
ATOM     18  C   UNL A   1      32.130  22.072  23.300  1.00  0.00     0.072 C 
ATOM     19  C   UNL A   1      32.475  21.157  24.222  1.00  0.00     0.014 C 
BRANCH  19  20
ATOM     20  C   UNL A   1      32.919  19.804  23.910  1.00  0.00    -0.025 A 
ATOM     21  C   UNL A   1      34.028  19.306  24.607  1.00  0.00     0.008 A 
ATOM     22  C   UNL A   1      32.265  19.000  22.970  1.00  0.00     0.008 A 
ATOM     23  C   UNL A   1      34.481  18.022  24.354  1.00  0.00     0.001 A 
ATOM     24  C   UNL A   1      32.694  17.704  22.745  1.00  0.00     0.001 A 
ATOM     25  C   UNL A   1      33.807  17.233  23.426  1.00  0.00     0.000 A 
ENDBRANCH  19  20
ENDBRANCH  16  18
ENDBRANCH   9  14
BRANCH  13  26
ATOM     26  O   UNL A   1      29.912  29.502  23.736  1.00  0.00    -0.508 OA
ATOM     27  H   UNL A   1      29.233  29.742  23.137  1.00  0.00     0.293 HD
ENDBRANCH  13  26
ENDBRANCH   5   8
ENDBRANCH   3   4
ENDBRANCH   2   3
ENDBRANCH   1   2
BRANCH   1  28
ATOM     28  C   UNL A   1      36.736  22.592  23.366  1.00  0.00     0.002 C 
BRANCH  28  29
ATOM     29  C   UNL A   1      37.007  21.364  24.255  1.00  0.00     0.021 C 
BRANCH  29  30
ATOM     30  C   UNL A   1      37.549  21.547  25.686  1.00  0.00     0.116 C 
BRANCH  30  31
ATOM     31  N   UNL A   1      38.751  20.789  25.998  1.00  0.00    -0.352 N 
ATOM     32  C   UNL A   1      39.969  21.203  26.514  1.00  0.00     0.251 C 
ATOM     33  H   UNL A   1      38.691  19.825  25.811  1.00  0.00     0.163 HD
ATOM     34  O   UNL A   1      40.865  20.367  26.636  1.00  0.00    -0.269 OA
BRANCH  32  35
ATOM     35  C   UNL A   1      40.263  22.617  26.901  1.00  0.00     0.039 A 
ATOM     36  C   UNL A   1      41.156  22.861  27.955  1.00  0.00     0.014 A 
ATOM     37  C   UNL A   1      39.601  23.708  26.340  1.00  0.00     0.014 A 
ATOM     38  C   UNL A   1      41.458  24.177  28.376  1.00  0.00     0.010 A 
ATOM     39  C   UNL A   1      39.930  25.026  26.744  1.00  0.00     0.010 A 
ATOM     40  C   UNL A   1      40.891  25.297  27.745  1.00  0.00    -0.014 A 
BRANCH  40  41
ATOM     41  C   UNL A   1      41.322  26.715  28.087  1.00  0.00     0.031 A 
ATOM     42  C   UNL A   1      42.742  27.179  27.813  1.00  0.00     0.074 A 
ATOM     43  C   UNL A   1      40.496  27.600  28.703  1.00  0.00     0.049 A 
ATOM     44  N   UNL A   1      43.316  28.328  28.090  1.00  0.00    -0.248 NA
ATOM     45  C   UNL A   1      43.641  26.209  27.176  1.00  0.00     0.031 C 
ATOM     46  C   UNL A   1      39.111  27.343  29.105  1.00  0.00     0.029 A 
ATOM     47  N   UNL A   1      40.702  28.906  29.119  1.00  0.00    -0.354 N 
ATOM     48  C   UNL A   1      44.641  28.208  27.677  1.00  0.00     0.074 A 
ATOM     49  C   UNL A   1      44.803  26.841  27.224  1.00  0.00     0.031 C 
ATOM     50  C   UNL A   1      38.598  28.439  29.691  1.00  0.00     0.029 A 
ATOM     51  C   UNL A   1      39.608  29.493  29.727  1.00  0.00     0.049 A 
ATOM     52  H   UNL A   1      41.557  29.376  28.991  1.00  0.00     0.167 HD
ATOM     53  C   UNL A   1      45.627  29.143  27.622  1.00  0.00     0.034 A 
ATOM     54  C   UNL A   1      39.416  30.727  30.251  1.00  0.00     0.034 A 
ATOM     55  C   UNL A   1      45.481  30.519  28.034  1.00  0.00     0.049 A 
ATOM     56  C   UNL A   1      40.533  31.751  30.206  1.00  0.00     0.074 A 
ATOM     57  C   UNL A   1      46.405  31.546  27.938  1.00  0.00     0.029 A 
ATOM     58  N   UNL A   1      44.351  31.063  28.626  1.00  0.00    -0.354 N 
ATOM     59  N   UNL A   1      41.747  31.629  29.725  1.00  0.00    -0.248 NA
ATOM     60  C   UNL A   1      40.244  33.083  30.762  1.00  0.00     0.031 C 
ATOM     61  C   UNL A   1      45.866  32.688  28.539  1.00  0.00     0.029 A 
ATOM     62  C   UNL A   1      44.569  32.400  28.930  1.00  0.00     0.049 A 
ATOM     63  H   UNL A   1      43.516  30.573  28.805  1.00  0.00     0.167 HD
ATOM     64  C   UNL A   1      42.343  32.882  29.877  1.00  0.00     0.074 A 
ATOM     65  C   UNL A   1      41.357  33.746  30.487  1.00  0.00     0.031 C 
ATOM     66  C   UNL A   1      43.594  33.278  29.531  1.00  0.00     0.034 A 
BRANCH  53  67
ATOM     67  C   UNL A   1      46.969  28.699  27.084  1.00  0.00     0.023 A 
ATOM     68  C   UNL A   1      47.149  28.410  25.720  1.00  0.00     0.031 A 
ATOM     69  C   UNL A   1      48.070  28.528  27.941  1.00  0.00     0.131 A 
ATOM     70  C   UNL A   1      48.359  27.861  25.274  1.00  0.00     0.055 A 
ATOM     71  C   UNL A   1      49.308  28.080  27.469  1.00  0.00     0.041 A 
ATOM     72  F   UNL A   1      47.961  28.778  29.256  1.00  0.00    -0.206 F 
ATOM     73  C   UNL A   1      49.450  27.721  26.132  1.00  0.00     0.022 A 
BRANCH  70  74
ATOM     74  S   UNL A   1      48.416  27.161  23.602  1.00  0.00     0.124 S 
ATOM     75  O   UNL A   1      47.870  25.824  23.827  1.00  0.00    -0.237 OA
ATOM     76  O   UNL A   1      47.571  28.078  22.846  1.00  0.00    -0.237 OA
ATOM     77  O   UNL A   1      49.837  27.197  23.264  1.00  0.00    -0.744 OA
ENDBRANCH  70  74
ENDBRANCH  53  67
BRANCH  54  78
ATOM     78  C   UNL A   1      38.107  31.109  30.876  1.00  0.00     0.023 A 
ATOM     79  C   UNL A   1      37.103  31.754  30.131  1.00  0.00     0.031 A 
ATOM     80  C   UNL A   1      37.881  30.927  32.252  1.00  0.00     0.131 A 
ATOM     81  C   UNL A   1      35.954  32.248  30.773  1.00  0.00     0.055 A 
ATOM     82  C   UNL A   1      36.709  31.366  32.875  1.00  0.00     0.041 A 
ATOM     83  F   UNL A   1      38.805  30.324  33.018  1.00  0.00    -0.206 F 
ATOM     84  C   UNL A   1      35.743  32.045  32.138  1.00  0.00     0.022 A 
BRANCH  81  85
ATOM     85  S   UNL A   1      34.782  33.257  29.820  1.00  0.00     0.124 S 
ATOM     86  O   UNL A   1      34.128  32.249  28.993  1.00  0.00    -0.237 OA
ATOM     87  O   UNL A   1      33.966  33.852  30.875  1.00  0.00    -0.237 OA
ATOM     88  O   UNL A   1      35.644  34.193  29.102  1.00  0.00    -0.744 OA
ENDBRANCH  81  85
ENDBRANCH  54  78
BRANCH  66  89
ATOM     89  C   UNL A   1      43.962  34.732  29.735  1.00  0.00     0.023 A 
ATOM     90  C   UNL A   1      43.727  35.712  28.754  1.00  0.00     0.031 A 
ATOM     91  C   UNL A   1      44.548  35.145  30.946  1.00  0.00     0.131 A 
ATOM     92  C   UNL A   1      44.115  37.043  28.983  1.00  0.00     0.055 A 
ATOM     93  C   UNL A   1      44.876  36.480  31.192  1.00  0.00     0.041 A 
ATOM     94  F   UNL A   1      44.804  34.257  31.919  1.00  0.00    -0.206 F 
ATOM     95  C   UNL A   1      44.670  37.436  30.204  1.00  0.00     0.022 A 
BRANCH  92  96
ATOM     96  S   UNL A   1      43.962  38.246  27.633  1.00  0.00     0.124 S 
ATOM     97  O   UNL A   1      45.198  38.025  26.887  1.00  0.00    -0.237 OA
ATOM     98  O   UNL A   1      42.734  37.818  26.971  1.00  0.00    -0.237 OA
ATOM     99  O   UNL A   1      43.877  39.531  28.324  1.00  0.00    -0.744 OA
ENDBRANCH  92  96
ENDBRANCH  66  89
ENDBRANCH  40  41
ENDBRANCH  32  35
ENDBRANCH  30  31
ENDBRANCH  29  30
ENDBRANCH  28  29
ENDBRANCH   1  28
TORSDOF 20
ENDMDL
MODEL 2
REMARK VINA RESULT:     -12.1      2.189      2.653
REMARK SMILES O=C(/C=C/c1ccccc1)Nc1ccc(O)cc1C(=O)NCCCCCCNC(=O)c1ccc(-c2c3nc(c(-c4cc(S(=O)(=O)[O-])ccc4F)c4ccc([nH]4)c(-c4cc(S(=O)(=O)[O-])ccc4F)c4nc(c(-c5cc(S(=O)(=O)[O-])ccc5F)c5ccc2[nH]5)C=C4)C=C3)cc1
REMARK SMILES IDX 24 1 23 2 22 3 21 4 19 5 20 6 18 8 12 9 13 10 14 11 17 12
REMARK SMILES IDX 15 13 11 14 1 15 2 16 3 18 4 19 5 20 6 21 10 22 7 23 9 24
REMARK SMILES IDX 8 25 16 26 25 28 26 29 27 30 28 31 29 32 30 34 31 35 32 36
REMARK SMILES IDX 93 37 33 38 92 39 34 40 35 41 36 42 86 43 37 44 91 45 85 46
REMARK SMILES IDX 87 47 38 48 90 49 84 50 83 51 39 53 71 54 51 55 70 56 52 57
REMARK SMILES IDX 55 58 69 59 88 60 53 61 54 62 68 64 89 65 56 66 40 67 41 68
REMARK SMILES IDX 49 69 42 70 48 71 50 72 47 73 43 74 44 75 45 76 46 77 72 78
REMARK SMILES IDX 73 79 81 80 74 81 80 82 82 83 79 84 75 85 76 86 77 87 78 88
REMARK SMILES IDX 57 89 58 90 66 91 59 92 65 93 67 94 64 95 60 96 61 97 62 98
REMARK SMILES IDX 63 99
REMARK H PARENT 21 7 11 17 16 27 28 33 87 52 55 63
REMARK Flexibility Score: inf
ROOT
ATOM      1  C   UNL A   1      35.505  24.192  25.291  1.00  0.00     0.002 C 
ENDROOT
BRANCH   1   2
ATOM      2  C   UNL A   1      34.249  24.952  25.751  1.00  0.00     0.021 C 
BRANCH   2   3
ATOM      3  C   UNL A   1      33.948  26.341  25.175  1.00  0.00     0.116 C 
BRANCH   3   4
ATOM      4  N   UNL A   1      33.951  26.506  23.736  1.00  0.00    -0.352 N 
ATOM      5  C   UNL A   1      33.103  27.178  22.868  1.00  0.00     0.253 C 
ATOM      6  O   UNL A   1      33.566  27.367  21.734  1.00  0.00    -0.269 OA
ATOM      7  H   UNL A   1      34.701  26.052  23.287  1.00  0.00     0.163 HD
BRANCH   5   8
ATOM      8  C   UNL A   1      31.646  27.545  23.085  1.00  0.00     0.067 A 
ATOM      9  C   UNL A   1      30.516  26.743  23.327  1.00  0.00     0.054 A 
ATOM     10  C   UNL A   1      29.215  27.294  23.257  1.00  0.00     0.031 A 
ATOM     11  C   UNL A   1      29.016  28.660  23.126  1.00  0.00     0.048 A 
ATOM     12  C   UNL A   1      31.408  28.941  22.988  1.00  0.00     0.062 A 
ATOM     13  C   UNL A   1      30.121  29.481  23.041  1.00  0.00     0.116 A 
BRANCH   9  14
ATOM     14  N   UNL A   1      30.499  25.406  23.740  1.00  0.00    -0.322 N 
ATOM     15  O   UNL A   1      30.562  25.652  26.042  1.00  0.00    -0.270 OA
ATOM     16  C   UNL A   1      30.636  24.967  25.025  1.00  0.00     0.248 C 
ATOM     17  H   UNL A   1      30.377  24.722  23.043  1.00  0.00     0.170 HD
BRANCH  16  18
ATOM     18  C   UNL A   1      30.930  23.518  25.127  1.00  0.00     0.072 C 
ATOM     19  C   UNL A   1      31.595  22.863  24.161  1.00  0.00     0.014 C 
BRANCH  19  20
ATOM     20  C   UNL A   1      32.141  21.519  24.306  1.00  0.00    -0.025 A 
ATOM     21  C   UNL A   1      32.644  21.153  25.562  1.00  0.00     0.008 A 
ATOM     22  C   UNL A   1      32.154  20.598  23.252  1.00  0.00     0.008 A 
ATOM     23  C   UNL A   1      33.163  19.884  25.753  1.00  0.00     0.001 A 
ATOM     24  C   UNL A   1      32.638  19.317  23.454  1.00  0.00     0.001 A 
ATOM     25  C   UNL A   1      33.153  18.978  24.695  1.00  0.00     0.000 A 
ENDBRANCH  19  20
ENDBRANCH  16  18
ENDBRANCH   9  14
BRANCH  13  26
ATOM     26  O   UNL A   1      29.904  30.827  23.012  1.00  0.00    -0.508 OA
ATOM     27  H   UNL A   1      29.071  31.172  23.264  1.00  0.00     0.293 HD
ENDBRANCH  13  26
ENDBRANCH   5   8
ENDBRANCH   3   4
ENDBRANCH   2   3
ENDBRANCH   1   2
BRANCH   1  28
ATOM     28  C   UNL A   1      35.432  23.208  24.111  1.00  0.00     0.002 C 
BRANCH  28  29
ATOM     29  C   UNL A   1      36.071  21.811  24.222  1.00  0.00     0.021 C 
BRANCH  29  30
ATOM     30  C   UNL A   1      36.480  21.253  25.600  1.00  0.00     0.116 C 
BRANCH  30  31
ATOM     31  N   UNL A   1      37.637  20.370  25.594  1.00  0.00    -0.352 N 
ATOM     32  C   UNL A   1      38.969  20.628  25.876  1.00  0.00     0.251 C 
ATOM     33  H   UNL A   1      37.442  19.437  25.349  1.00  0.00     0.163 HD
ATOM     34  O   UNL A   1      39.781  19.712  25.744  1.00  0.00    -0.269 OA
BRANCH  32  35
ATOM     35  C   UNL A   1      39.477  21.968  26.303  1.00  0.00     0.039 A 
ATOM     36  C   UNL A   1      40.567  22.032  27.184  1.00  0.00     0.014 A 
ATOM     37  C   UNL A   1      38.846  23.162  25.958  1.00  0.00     0.014 A 
ATOM     38  C   UNL A   1      41.078  23.271  27.635  1.00  0.00     0.010 A 
ATOM     39  C   UNL A   1      39.381  24.402  26.387  1.00  0.00     0.010 A 
ATOM     40  C   UNL A   1      40.531  24.491  27.206  1.00  0.00    -0.014 A 
BRANCH  40  41
ATOM     41  C   UNL A   1      41.165  25.827  27.562  1.00  0.00     0.031 A 
ATOM     42  C   UNL A   1      42.593  26.139  27.150  1.00  0.00     0.074 A 
ATOM     43  C   UNL A   1      40.523  26.762  28.309  1.00  0.00     0.049 A 
ATOM     44  N   UNL A   1      43.329  27.195  27.413  1.00  0.00    -0.248 NA
ATOM     45  C   UNL A   1      43.293  25.111  26.370  1.00  0.00     0.031 C 
ATOM     46  C   UNL A   1      39.169  26.644  28.854  1.00  0.00     0.029 A 
ATOM     47  N   UNL A   1      40.931  28.008  28.760  1.00  0.00    -0.354 N 
ATOM     48  C   UNL A   1      44.577  26.947  26.846  1.00  0.00     0.074 A 
ATOM     49  C   UNL A   1      44.522  25.601  26.315  1.00  0.00     0.031 C 
ATOM     50  C   UNL A   1      38.859  27.755  29.545  1.00  0.00     0.029 A 
ATOM     51  C   UNL A   1      39.988  28.680  29.515  1.00  0.00     0.049 A 
ATOM     52  H   UNL A   1      41.818  28.383  28.557  1.00  0.00     0.167 HD
ATOM     53  C   UNL A   1      45.658  27.764  26.724  1.00  0.00     0.034 A 
ATOM     54  C   UNL A   1      40.006  29.895  30.115  1.00  0.00     0.034 A 
ATOM     55  C   UNL A   1      45.725  29.120  27.214  1.00  0.00     0.049 A 
ATOM     56  C   UNL A   1      41.227  30.783  29.992  1.00  0.00     0.074 A 
ATOM     57  C   UNL A   1      46.752  30.038  27.061  1.00  0.00     0.029 A 
ATOM     58  N   UNL A   1      44.740  29.755  27.955  1.00  0.00    -0.354 N 
ATOM     59  N   UNL A   1      42.359  30.551  29.370  1.00  0.00    -0.248 NA
ATOM     60  C   UNL A   1      41.164  32.104  30.639  1.00  0.00     0.031 C 
ATOM     61  C   UNL A   1      46.423  31.196  27.772  1.00  0.00     0.029 A 
ATOM     62  C   UNL A   1      45.151  31.037  28.295  1.00  0.00     0.049 A 
ATOM     63  H   UNL A   1      43.877  29.354  28.205  1.00  0.00     0.167 HD
ATOM     64  C   UNL A   1      43.116  31.715  29.511  1.00  0.00     0.074 A 
ATOM     65  C   UNL A   1      42.314  32.649  30.269  1.00  0.00     0.031 C 
ATOM     66  C   UNL A   1      44.361  31.984  29.044  1.00  0.00     0.034 A 
BRANCH  53  67
ATOM     67  C   UNL A   1      46.870  27.201  26.016  1.00  0.00     0.023 A 
ATOM     68  C   UNL A   1      47.848  26.469  26.713  1.00  0.00     0.031 A 
ATOM     69  C   UNL A   1      47.073  27.422  24.642  1.00  0.00     0.131 A 
ATOM     70  C   UNL A   1      49.030  26.086  26.065  1.00  0.00     0.055 A 
ATOM     71  C   UNL A   1      48.206  26.944  23.979  1.00  0.00     0.041 A 
ATOM     72  F   UNL A   1      46.181  28.121  23.922  1.00  0.00    -0.206 F 
ATOM     73  C   UNL A   1      49.205  26.292  24.696  1.00  0.00     0.022 A 
BRANCH  70  74
ATOM     74  S   UNL A   1      50.407  25.487  27.082  1.00  0.00     0.124 S 
ATOM     75  O   UNL A   1      50.799  26.705  27.788  1.00  0.00    -0.237 OA
ATOM     76  O   UNL A   1      49.775  24.454  27.893  1.00  0.00    -0.237 OA
ATOM     77  O   UNL A   1      51.375  25.006  26.098  1.00  0.00    -0.744 OA
ENDBRANCH  70  74
ENDBRANCH  53  67
BRANCH  54  78
ATOM     78  C   UNL A   1      38.828  30.387  30.903  1.00  0.00     0.023 A 
ATOM     79  C   UNL A   1      37.752  31.043  30.276  1.00  0.00     0.031 A 
ATOM     80  C   UNL A   1      38.807  30.301  32.307  1.00  0.00     0.131 A 
ATOM     81  C   UNL A   1      36.740  31.639  31.048  1.00  0.00     0.055 A 
ATOM     82  C   UNL A   1      37.767  30.842  33.068  1.00  0.00     0.041 A 
ATOM     83  F   UNL A   1      39.808  29.693  32.963  1.00  0.00    -0.206 F 
ATOM     84  C   UNL A   1      36.733  31.530  32.440  1.00  0.00     0.022 A 
BRANCH  81  85
ATOM     85  S   UNL A   1      35.485  32.654  30.217  1.00  0.00     0.124 S 
ATOM     86  O   UNL A   1      34.403  32.646  31.194  1.00  0.00    -0.237 OA
ATOM     87  O   UNL A   1      36.186  33.922  30.044  1.00  0.00    -0.237 OA
ATOM     88  O   UNL A   1      35.217  31.921  28.981  1.00  0.00    -0.744 OA
ENDBRANCH  81  85
ENDBRANCH  54  78
BRANCH  66  89
ATOM     89  C   UNL A   1      44.922  33.370  29.272  1.00  0.00     0.023 A 
ATOM     90  C   UNL A   1      45.723  33.683  30.384  1.00  0.00     0.031 A 
ATOM     91  C   UNL A   1      44.660  34.397  28.344  1.00  0.00     0.131 A 
ATOM     92  C   UNL A   1      46.196  34.995  30.564  1.00  0.00     0.055 A 
ATOM     93  C   UNL A   1      45.182  35.682  28.495  1.00  0.00     0.041 A 
ATOM     94  F   UNL A   1      43.897  34.162  27.265  1.00  0.00    -0.206 F 
ATOM     95  C   UNL A   1      45.946  35.991  29.616  1.00  0.00     0.022 A 
BRANCH  92  96
ATOM     96  S   UNL A   1      47.074  35.409  32.097  1.00  0.00     0.124 S 
ATOM     97  O   UNL A   1      47.656  34.124  32.471  1.00  0.00    -0.237 OA
ATOM     98  O   UNL A   1      48.016  36.430  31.650  1.00  0.00    -0.237 OA
ATOM     99  O   UNL A   1      46.015  35.890  32.982  1.00  0.00    -0.744 OA
ENDBRANCH  92  96
ENDBRANCH  66  89
ENDBRANCH  40  41
ENDBRANCH  32  35
ENDBRANCH  30  31
ENDBRANCH  29  30
ENDBRANCH  28  29
ENDBRANCH   1  28
TORSDOF 20
ENDMDL
MODEL 3
REMARK VINA RESULT:     -12.1      1.674      7.538
REMARK SMILES O=C(/C=C/c1ccccc1)Nc1ccc(O)cc1C(=O)NCCCCCCNC(=O)c1ccc(-c2c3nc(c(-c4cc(S(=O)(=O)[O-])ccc4F)c4ccc([nH]4)c(-c4cc(S(=O)(=O)[O-])ccc4F)c4nc(c(-c5cc(S(=O)(=O)[O-])ccc5F)c5ccc2[nH]5)C=C4)C=C3)cc1
REMARK SMILES IDX 24 1 23 2 22 3 21 4 19 5 20 6 18 8 12 9 13 10 14 11 17 12
REMARK SMILES IDX 15 13 11 14 1 15 2 16 3 18 4 19 5 20 6 21 10 22 7 23 9 24
REMARK SMILES IDX 8 25 16 26 25 28 26 29 27 30 28 31 29 32 30 34 31 35 32 36
REMARK SMILES IDX 93 37 33 38 92 39 34 40 35 41 36 42 86 43 37 44 91 45 85 46
REMARK SMILES IDX 87 47 38 48 90 49 84 50 83 51 39 53 71 54 51 55 70 56 52 57
REMARK SMILES IDX 55 58 69 59 88 60 53 61 54 62 68 64 89 65 56 66 40 67 41 68
REMARK SMILES IDX 49 69 42 70 48 71 50 72 47 73 43 74 44 75 45 76 46 77 72 78
REMARK SMILES IDX 73 79 81 80 74 81 80 82 82 83 79 84 75 85 76 86 77 87 78 88
REMARK SMILES IDX 57 89 58 90 66 91 59 92 65 93 67 94 64 95 60 96 61 97 62 98
REMARK SMILES IDX 63 99
REMARK H PARENT 21 7 11 17 16 27 28 33 87 52 55 63
REMARK Flexibility Score: inf
ROOT
ATOM      1  C   UNL A   1      35.369  24.405  25.048  1.00  0.00     0.002 C 
ENDROOT
BRANCH   1   2
ATOM      2  C   UNL A   1      34.150  24.988  25.783  1.00  0.00     0.021 C 
BRANCH   2   3
ATOM      3  C   UNL A   1      33.659  26.399  25.440  1.00  0.00     0.116 C 
BRANCH   3   4
ATOM      4  N   UNL A   1      33.802  26.865  24.076  1.00  0.00    -0.352 N 
ATOM      5  C   UNL A   1      33.006  27.669  23.272  1.00  0.00     0.253 C 
ATOM      6  O   UNL A   1      33.571  28.114  22.264  1.00  0.00    -0.269 OA
ATOM      7  H   UNL A   1      34.623  26.551  23.633  1.00  0.00     0.163 HD
BRANCH   5   8
ATOM      8  C   UNL A   1      31.513  27.917  23.389  1.00  0.00     0.067 A 
ATOM      9  C   UNL A   1      30.435  27.025  23.535  1.00  0.00     0.054 A 
ATOM     10  C   UNL A   1      29.104  27.475  23.380  1.00  0.00     0.031 A 
ATOM     11  C   UNL A   1      28.808  28.825  23.257  1.00  0.00     0.048 A 
ATOM     12  C   UNL A   1      31.173  29.293  23.297  1.00  0.00     0.062 A 
ATOM     13  C   UNL A   1      29.847  29.730  23.266  1.00  0.00     0.116 A 
BRANCH   9  14
ATOM     14  N   UNL A   1      30.494  25.683  23.925  1.00  0.00    -0.322 N 
ATOM     15  O   UNL A   1      30.134  25.865  26.205  1.00  0.00    -0.270 OA
ATOM     16  C   UNL A   1      30.456  25.222  25.209  1.00  0.00     0.248 C 
ATOM     17  H   UNL A   1      30.570  25.010  23.210  1.00  0.00     0.170 HD
BRANCH  16  18
ATOM     18  C   UNL A   1      30.885  23.811  25.345  1.00  0.00     0.072 C 
ATOM     19  C   UNL A   1      31.234  23.073  24.278  1.00  0.00     0.014 C 
BRANCH  19  20
ATOM     20  C   UNL A   1      31.906  21.781  24.357  1.00  0.00    -0.025 A 
ATOM     21  C   UNL A   1      32.285  21.321  25.625  1.00  0.00     0.008 A 
ATOM     22  C   UNL A   1      32.155  20.997  23.224  1.00  0.00     0.008 A 
ATOM     23  C   UNL A   1      32.917  20.095  25.752  1.00  0.00     0.001 A 
ATOM     24  C   UNL A   1      32.752  19.755  23.356  1.00  0.00     0.001 A 
ATOM     25  C   UNL A   1      33.141  19.324  24.615  1.00  0.00     0.000 A 
ENDBRANCH  19  20
ENDBRANCH  16  18
ENDBRANCH   9  14
BRANCH  13  26
ATOM     26  O   UNL A   1      29.528  31.056  23.243  1.00  0.00    -0.508 OA
ATOM     27  H   UNL A   1      29.703  31.592  23.991  1.00  0.00     0.293 HD
ENDBRANCH  13  26
ENDBRANCH   5   8
ENDBRANCH   3   4
ENDBRANCH   2   3
ENDBRANCH   1   2
BRANCH   1  28
ATOM     28  C   UNL A   1      35.182  23.370  23.925  1.00  0.00     0.002 C 
BRANCH  28  29
ATOM     29  C   UNL A   1      35.713  21.934  24.094  1.00  0.00     0.021 C 
BRANCH  29  30
ATOM     30  C   UNL A   1      36.181  21.438  25.476  1.00  0.00     0.116 C 
BRANCH  30  31
ATOM     31  N   UNL A   1      37.254  20.456  25.452  1.00  0.00    -0.352 N 
ATOM     32  C   UNL A   1      38.609  20.594  25.711  1.00  0.00     0.251 C 
ATOM     33  H   UNL A   1      36.973  19.543  25.213  1.00  0.00     0.163 HD
ATOM     34  O   UNL A   1      39.334  19.610  25.567  1.00  0.00    -0.269 OA
BRANCH  32  35
ATOM     35  C   UNL A   1      39.241  21.885  26.126  1.00  0.00     0.039 A 
ATOM     36  C   UNL A   1      40.485  21.854  26.774  1.00  0.00     0.014 A 
ATOM     37  C   UNL A   1      38.600  23.116  26.002  1.00  0.00     0.014 A 
ATOM     38  C   UNL A   1      41.121  23.041  27.205  1.00  0.00     0.010 A 
ATOM     39  C   UNL A   1      39.255  24.305  26.407  1.00  0.00     0.010 A 
ATOM     40  C   UNL A   1      40.546  24.304  26.985  1.00  0.00    -0.014 A 
BRANCH  40  41
ATOM     41  C   UNL A   1      41.289  25.592  27.305  1.00  0.00     0.031 A 
ATOM     42  C   UNL A   1      40.620  26.688  28.116  1.00  0.00     0.074 A 
ATOM     43  C   UNL A   1      42.537  25.850  26.835  1.00  0.00     0.049 A 
ATOM     44  N   UNL A   1      41.066  27.881  28.439  1.00  0.00    -0.248 NA
ATOM     45  C   UNL A   1      39.260  26.417  28.595  1.00  0.00     0.031 C 
ATOM     46  C   UNL A   1      43.338  24.959  25.993  1.00  0.00     0.029 A 
ATOM     47  N   UNL A   1      43.359  26.956  26.986  1.00  0.00    -0.354 N 
ATOM     48  C   UNL A   1      40.035  28.502  29.141  1.00  0.00     0.074 A 
ATOM     49  C   UNL A   1      38.912  27.587  29.106  1.00  0.00     0.031 C 
ATOM     50  C   UNL A   1      44.519  25.538  25.714  1.00  0.00     0.029 A 
ATOM     51  C   UNL A   1      44.578  26.855  26.342  1.00  0.00     0.049 A 
ATOM     52  H   UNL A   1      43.096  27.747  27.509  1.00  0.00     0.167 HD
ATOM     53  C   UNL A   1      40.020  29.691  29.800  1.00  0.00     0.034 A 
ATOM     54  C   UNL A   1      45.631  27.702  26.258  1.00  0.00     0.034 A 
ATOM     55  C   UNL A   1      41.136  30.603  29.879  1.00  0.00     0.049 A 
ATOM     56  C   UNL A   1      45.590  29.035  26.977  1.00  0.00     0.074 A 
ATOM     57  C   UNL A   1      41.228  31.788  30.592  1.00  0.00     0.029 A 
ATOM     58  N   UNL A   1      42.348  30.445  29.224  1.00  0.00    -0.354 N 
ATOM     59  N   UNL A   1      44.630  29.552  27.707  1.00  0.00    -0.248 NA
ATOM     60  C   UNL A   1      46.783  29.892  26.872  1.00  0.00     0.031 C 
ATOM     61  C   UNL A   1      42.461  32.384  30.308  1.00  0.00     0.029 A 
ATOM     62  C   UNL A   1      43.178  31.528  29.489  1.00  0.00     0.049 A 
ATOM     63  H   UNL A   1      42.586  29.679  28.654  1.00  0.00     0.167 HD
ATOM     64  C   UNL A   1      45.127  30.766  28.185  1.00  0.00     0.074 A 
ATOM     65  C   UNL A   1      46.470  30.903  27.668  1.00  0.00     0.031 C 
ATOM     66  C   UNL A   1      44.523  31.677  28.988  1.00  0.00     0.034 A 
BRANCH  53  67
ATOM     67  C   UNL A   1      38.736  30.073  30.503  1.00  0.00     0.023 A 
ATOM     68  C   UNL A   1      37.808  30.943  29.905  1.00  0.00     0.031 A 
ATOM     69  C   UNL A   1      38.449  29.595  31.794  1.00  0.00     0.131 A 
ATOM     70  C   UNL A   1      36.701  31.396  30.635  1.00  0.00     0.055 A 
ATOM     71  C   UNL A   1      37.287  29.969  32.476  1.00  0.00     0.041 A 
ATOM     72  F   UNL A   1      39.299  28.768  32.423  1.00  0.00    -0.206 F 
ATOM     73  C   UNL A   1      36.417  30.893  31.905  1.00  0.00     0.022 A 
BRANCH  70  74
ATOM     74  S   UNL A   1      35.750  32.790  29.971  1.00  0.00     0.124 S 
ATOM     75  O   UNL A   1      34.405  32.479  30.449  1.00  0.00    -0.237 OA
ATOM     76  O   UNL A   1      36.399  33.940  30.590  1.00  0.00    -0.237 OA
ATOM     77  O   UNL A   1      35.933  32.672  28.525  1.00  0.00    -0.744 OA
ENDBRANCH  70  74
ENDBRANCH  53  67
BRANCH  54  78
ATOM     78  C   UNL A   1      46.853  27.344  25.464  1.00  0.00     0.023 A 
ATOM     79  C   UNL A   1      47.042  27.828  24.156  1.00  0.00     0.031 A 
ATOM     80  C   UNL A   1      47.800  26.431  25.962  1.00  0.00     0.131 A 
ATOM     81  C   UNL A   1      48.107  27.351  23.373  1.00  0.00     0.055 A 
ATOM     82  C   UNL A   1      48.892  26.006  25.201  1.00  0.00     0.041 A 
ATOM     83  F   UNL A   1      47.671  25.929  27.201  1.00  0.00    -0.206 F 
ATOM     84  C   UNL A   1      49.042  26.455  23.892  1.00  0.00     0.022 A 
BRANCH  81  85
ATOM     85  S   UNL A   1      48.197  27.836  21.624  1.00  0.00     0.124 S 
ATOM     86  O   UNL A   1      46.929  28.535  21.447  1.00  0.00    -0.237 OA
ATOM     87  O   UNL A   1      49.397  28.665  21.601  1.00  0.00    -0.237 OA
ATOM     88  O   UNL A   1      48.311  26.560  20.922  1.00  0.00    -0.744 OA
ENDBRANCH  81  85
ENDBRANCH  54  78
BRANCH  66  89
ATOM     89  C   UNL A   1      45.325  32.882  29.426  1.00  0.00     0.023 A 
ATOM     90  C   UNL A   1      45.334  34.085  28.697  1.00  0.00     0.031 A 
ATOM     91  C   UNL A   1      46.086  32.828  30.609  1.00  0.00     0.131 A 
ATOM     92  C   UNL A   1      46.120  35.165  29.133  1.00  0.00     0.055 A 
ATOM     93  C   UNL A   1      46.817  33.924  31.071  1.00  0.00     0.041 A 
ATOM     94  F   UNL A   1      46.123  31.707  31.346  1.00  0.00    -0.206 F 
ATOM     95  C   UNL A   1      46.846  35.099  30.326  1.00  0.00     0.022 A 
BRANCH  92  96
ATOM     96  S   UNL A   1      46.252  36.636  28.079  1.00  0.00     0.124 S 
ATOM     97  O   UNL A   1      46.354  37.709  29.064  1.00  0.00    -0.237 OA
ATOM     98  O   UNL A   1      47.461  36.361  27.309  1.00  0.00    -0.237 OA
ATOM     99  O   UNL A   1      45.010  36.620  27.307  1.00  0.00    -0.744 OA
ENDBRANCH  92  96
ENDBRANCH  66  89
ENDBRANCH  40  41
ENDBRANCH  32  35
ENDBRANCH  30  31
ENDBRANCH  29  30
ENDBRANCH  28  29
ENDBRANCH   1  28
TORSDOF 20
ENDMDL
