MODEL 1
REMARK VINA RESULT:     -12.3      0.000      0.000
REMARK SMILES O=C(NCCCCCCNC(=O)[C@H]1C[C@](O)(c2ccccc2Cl)[C@@H](c2ccccc2Cl)O1)c1ccc(-c2c3nc(c(-c4cc(S(=O)(=O)[O-])ccc4F)c4ccc([nH]4)c(-c4cc(S(=O)(=O)[O-])ccc4F)c4nc(c(-c5cc(S(=O)(=O)[O-])ccc5F)c5ccc2[nH]5)C=C4)C=C3)cc1
REMARK SMILES IDX 5 1 4 2 3 3 1 4 2 5 33 7 34 8 95 9 35 10 94 11 36 12 37 13
REMARK SMILES IDX 38 14 88 15 39 16 93 17 87 18 89 19 40 20 92 21 86 22 85 23
REMARK SMILES IDX 41 25 73 26 53 27 72 28 54 29 57 30 71 31 90 32 55 33 56 34
REMARK SMILES IDX 70 36 91 37 58 38 42 39 43 40 51 41 44 42 50 43 52 44 49 45
REMARK SMILES IDX 45 46 46 47 47 48 48 49 74 50 75 51 83 52 76 53 82 54 84 55
REMARK SMILES IDX 81 56 77 57 78 58 79 59 80 60 59 61 60 62 68 63 61 64 67 65
REMARK SMILES IDX 69 66 66 67 62 68 63 69 64 70 65 71 6 72 7 73 8 74 9 75
REMARK SMILES IDX 10 76 11 77 12 79 13 80 14 81 32 82 15 83 24 84 17 85 18 86
REMARK SMILES IDX 22 87 19 88 21 89 23 90 20 91 16 92 25 94 26 95 30 96 27 97
REMARK SMILES IDX 29 98 31 99 28 100
REMARK H PARENT 3 6 89 24 57 35 10 78 16 93
REMARK Flexibility Score: inf
ROOT
ATOM      1  C   UNL A   1      31.525  32.716  26.481  1.00  0.00     0.021 C 
ENDROOT
BRANCH   1   2
ATOM      2  C   UNL A   1      32.653  33.067  27.444  1.00  0.00     0.116 C 
BRANCH   2   3
ATOM      3  N   UNL A   1      32.619  34.466  27.840  1.00  0.00    -0.352 N 
ATOM      4  O   UNL A   1      33.046  36.238  29.172  1.00  0.00    -0.269 OA
ATOM      5  C   UNL A   1      33.328  35.090  28.839  1.00  0.00     0.251 C 
ATOM      6  H   UNL A   1      32.010  35.043  27.326  1.00  0.00     0.163 HD
BRANCH   5   7
ATOM      7  C   UNL A   1      34.422  34.362  29.522  1.00  0.00     0.039 A 
ATOM      8  C   UNL A   1      35.748  34.547  29.121  1.00  0.00     0.014 A 
ATOM      9  C   UNL A   1      34.122  33.495  30.576  1.00  0.00     0.014 A 
ATOM     10  C   UNL A   1      36.756  33.775  29.687  1.00  0.00     0.010 A 
ATOM     11  C   UNL A   1      35.149  32.780  31.202  1.00  0.00     0.010 A 
ATOM     12  C   UNL A   1      36.473  32.901  30.751  1.00  0.00    -0.014 A 
BRANCH  12  13
ATOM     13  C   UNL A   1      37.596  32.198  31.423  1.00  0.00     0.031 A 
ATOM     14  C   UNL A   1      38.341  31.082  30.745  1.00  0.00     0.074 A 
ATOM     15  C   UNL A   1      37.961  32.611  32.654  1.00  0.00     0.049 A 
ATOM     16  N   UNL A   1      39.357  30.384  31.186  1.00  0.00    -0.248 NA
ATOM     17  C   UNL A   1      37.884  30.693  29.404  1.00  0.00     0.031 C 
ATOM     18  C   UNL A   1      37.299  33.681  33.408  1.00  0.00     0.029 A 
ATOM     19  N   UNL A   1      38.977  32.207  33.479  1.00  0.00    -0.354 N 
ATOM     20  C   UNL A   1      39.658  29.467  30.184  1.00  0.00     0.074 A 
ATOM     21  C   UNL A   1      38.693  29.679  29.125  1.00  0.00     0.031 C 
ATOM     22  C   UNL A   1      37.956  33.880  34.559  1.00  0.00     0.029 A 
ATOM     23  C   UNL A   1      39.039  32.909  34.660  1.00  0.00     0.049 A 
ATOM     24  H   UNL A   1      39.604  31.482  33.249  1.00  0.00     0.167 HD
ATOM     25  C   UNL A   1      40.653  28.544  30.153  1.00  0.00     0.034 A 
ATOM     26  C   UNL A   1      39.860  32.776  35.719  1.00  0.00     0.034 A 
ATOM     27  C   UNL A   1      41.604  28.348  31.224  1.00  0.00     0.049 A 
ATOM     28  C   UNL A   1      40.928  31.717  35.670  1.00  0.00     0.074 A 
ATOM     29  C   UNL A   1      42.663  27.457  31.285  1.00  0.00     0.029 A 
ATOM     30  N   UNL A   1      41.609  29.048  32.425  1.00  0.00    -0.354 N 
ATOM     31  N   UNL A   1      41.206  30.870  34.706  1.00  0.00    -0.248 NA
ATOM     32  C   UNL A   1      41.794  31.600  36.849  1.00  0.00     0.031 C 
ATOM     33  C   UNL A   1      43.266  27.573  32.543  1.00  0.00     0.029 A 
ATOM     34  C   UNL A   1      42.632  28.587  33.242  1.00  0.00     0.049 A 
ATOM     35  H   UNL A   1      40.980  29.766  32.661  1.00  0.00     0.167 HD
ATOM     36  C   UNL A   1      42.292  30.128  35.160  1.00  0.00     0.074 A 
ATOM     37  C   UNL A   1      42.634  30.650  36.467  1.00  0.00     0.031 C 
ATOM     38  C   UNL A   1      42.944  29.103  34.555  1.00  0.00     0.034 A 
BRANCH  25  39
ATOM     39  C   UNL A   1      40.736  27.646  28.941  1.00  0.00     0.023 A 
ATOM     40  C   UNL A   1      41.700  27.841  27.936  1.00  0.00     0.031 A 
ATOM     41  C   UNL A   1      39.840  26.572  28.792  1.00  0.00     0.131 A 
ATOM     42  C   UNL A   1      41.711  27.011  26.803  1.00  0.00     0.055 A 
ATOM     43  C   UNL A   1      39.900  25.706  27.696  1.00  0.00     0.041 A 
ATOM     44  F   UNL A   1      38.886  26.346  29.709  1.00  0.00    -0.206 F 
ATOM     45  C   UNL A   1      40.832  25.930  26.688  1.00  0.00     0.022 A 
BRANCH  42  46
ATOM     46  S   UNL A   1      42.816  27.430  25.427  1.00  0.00     0.124 S 
ATOM     47  O   UNL A   1      42.058  28.478  24.746  1.00  0.00    -0.237 OA
ATOM     48  O   UNL A   1      44.028  27.862  26.114  1.00  0.00    -0.237 OA
ATOM     49  O   UNL A   1      42.933  26.176  24.687  1.00  0.00    -0.744 OA
ENDBRANCH  42  46
ENDBRANCH  25  39
BRANCH  26  50
ATOM     50  C   UNL A   1      39.680  33.632  36.926  1.00  0.00     0.023 A 
ATOM     51  C   UNL A   1      39.057  33.138  38.081  1.00  0.00     0.031 A 
ATOM     52  C   UNL A   1      40.095  34.976  36.924  1.00  0.00     0.131 A 
ATOM     53  C   UNL A   1      38.825  33.993  39.170  1.00  0.00     0.055 A 
ATOM     54  C   UNL A   1      39.918  35.806  38.031  1.00  0.00     0.041 A 
ATOM     55  F   UNL A   1      40.699  35.500  35.844  1.00  0.00    -0.206 F 
ATOM     56  C   UNL A   1      39.264  35.319  39.157  1.00  0.00     0.022 A 
BRANCH  53  57
ATOM     57  S   UNL A   1      37.850  33.374  40.567  1.00  0.00     0.124 S 
ATOM     58  O   UNL A   1      37.883  34.511  41.481  1.00  0.00    -0.237 OA
ATOM     59  O   UNL A   1      36.563  33.095  39.938  1.00  0.00    -0.237 OA
ATOM     60  O   UNL A   1      38.595  32.198  41.008  1.00  0.00    -0.744 OA
ENDBRANCH  53  57
ENDBRANCH  26  50
BRANCH  38  61
ATOM     61  C   UNL A   1      44.108  28.509  35.308  1.00  0.00     0.023 A 
ATOM     62  C   UNL A   1      43.927  27.480  36.250  1.00  0.00     0.031 A 
ATOM     63  C   UNL A   1      45.408  29.011  35.116  1.00  0.00     0.131 A 
ATOM     64  C   UNL A   1      45.015  27.034  37.014  1.00  0.00     0.055 A 
ATOM     65  C   UNL A   1      46.498  28.518  35.835  1.00  0.00     0.041 A 
ATOM     66  F   UNL A   1      45.637  29.995  34.232  1.00  0.00    -0.206 F 
ATOM     67  C   UNL A   1      46.302  27.535  36.801  1.00  0.00     0.022 A 
BRANCH  64  68
ATOM     68  S   UNL A   1      44.706  25.864  38.365  1.00  0.00     0.124 S 
ATOM     69  O   UNL A   1      43.725  26.584  39.172  1.00  0.00    -0.237 OA
ATOM     70  O   UNL A   1      44.210  24.690  37.654  1.00  0.00    -0.237 OA
ATOM     71  O   UNL A   1      46.020  25.703  38.986  1.00  0.00    -0.744 OA
ENDBRANCH  64  68
ENDBRANCH  38  61
ENDBRANCH  12  13
ENDBRANCH   5   7
ENDBRANCH   2   3
ENDBRANCH   1   2
BRANCH   1  72
ATOM     72  C   UNL A   1      31.398  31.226  26.161  1.00  0.00     0.002 C 
BRANCH  72  73
ATOM     73  C   UNL A   1      32.057  30.282  27.172  1.00  0.00     0.002 C 
BRANCH  73  74
ATOM     74  C   UNL A   1      33.512  29.905  26.873  1.00  0.00     0.021 C 
BRANCH  74  75
ATOM     75  C   UNL A   1      33.944  28.524  27.368  1.00  0.00     0.116 C 
BRANCH  75  76
ATOM     76  N   UNL A   1      34.403  27.669  26.292  1.00  0.00    -0.354 N 
ATOM     77  C   UNL A   1      33.693  27.163  25.243  1.00  0.00     0.249 C 
ATOM     78  H   UNL A   1      35.354  27.420  26.322  1.00  0.00     0.163 HD
ATOM     79  O   UNL A   1      34.296  26.449  24.438  1.00  0.00    -0.272 OA
BRANCH  77  80
ATOM     80  C   UNL A   1      32.197  27.538  25.059  1.00  0.00     0.211 C 
ATOM     81  C   UNL A   1      31.968  28.253  23.724  1.00  0.00     0.085 C 
ATOM     82  O   UNL A   1      31.307  26.427  25.116  1.00  0.00    -0.357 OA
ATOM     83  C   UNL A   1      30.802  27.525  23.056  1.00  0.00     0.124 C 
ATOM     84  C   UNL A   1      30.757  26.169  23.810  1.00  0.00     0.187 C 
BRANCH  83  85
ATOM     85  C   UNL A   1      29.554  28.439  23.058  1.00  0.00     0.005 A 
ATOM     86  C   UNL A   1      29.787  29.821  22.805  1.00  0.00     0.008 A 
ATOM     87  C   UNL A   1      28.212  28.078  23.293  1.00  0.00     0.047 A 
ATOM     88  C   UNL A   1      28.756  30.757  22.696  1.00  0.00     0.001 A 
ATOM     89  C   UNL A   1      27.175  29.018  23.141  1.00  0.00     0.021 A 
ATOM     90  Cl  UNL A   1      27.677  26.543  23.878  1.00  0.00    -0.084 Cl
ATOM     91  C   UNL A   1      27.441  30.347  22.831  1.00  0.00     0.002 A 
ENDBRANCH  83  85
BRANCH  83  92
ATOM     92  O   UNL A   1      31.075  27.261  21.665  1.00  0.00    -0.382 OA
ATOM     93  H   UNL A   1      32.035  27.247  21.520  1.00  0.00     0.212 HD
ENDBRANCH  83  92
BRANCH  84  94
ATOM     94  C   UNL A   1      31.475  24.924  23.290  1.00  0.00     0.003 A 
ATOM     95  C   UNL A   1      32.284  24.971  22.138  1.00  0.00     0.008 A 
ATOM     96  C   UNL A   1      31.468  23.715  24.022  1.00  0.00     0.046 A 
ATOM     97  C   UNL A   1      33.081  23.886  21.759  1.00  0.00     0.000 A 
ATOM     98  C   UNL A   1      32.257  22.626  23.630  1.00  0.00     0.021 A 
ATOM     99  Cl  UNL A   1      30.529  23.486  25.460  1.00  0.00    -0.084 Cl
ATOM    100  C   UNL A   1      33.073  22.715  22.508  1.00  0.00     0.002 A 
ENDBRANCH  84  94
ENDBRANCH  77  80
ENDBRANCH  75  76
ENDBRANCH  74  75
ENDBRANCH  73  74
ENDBRANCH  72  73
ENDBRANCH   1  72
TORSDOF 19
ENDMDL
MODEL 2
REMARK VINA RESULT:     -12.2      6.026     10.445
REMARK SMILES O=C(NCCCCCCNC(=O)[C@H]1C[C@](O)(c2ccccc2Cl)[C@@H](c2ccccc2Cl)O1)c1ccc(-c2c3nc(c(-c4cc(S(=O)(=O)[O-])ccc4F)c4ccc([nH]4)c(-c4cc(S(=O)(=O)[O-])ccc4F)c4nc(c(-c5cc(S(=O)(=O)[O-])ccc5F)c5ccc2[nH]5)C=C4)C=C3)cc1
REMARK SMILES IDX 5 1 4 2 3 3 1 4 2 5 33 7 34 8 95 9 35 10 94 11 36 12 37 13
REMARK SMILES IDX 38 14 88 15 39 16 93 17 87 18 89 19 40 20 92 21 86 22 85 23
REMARK SMILES IDX 41 25 73 26 53 27 72 28 54 29 57 30 71 31 90 32 55 33 56 34
REMARK SMILES IDX 70 36 91 37 58 38 42 39 43 40 51 41 44 42 50 43 52 44 49 45
REMARK SMILES IDX 45 46 46 47 47 48 48 49 74 50 75 51 83 52 76 53 82 54 84 55
REMARK SMILES IDX 81 56 77 57 78 58 79 59 80 60 59 61 60 62 68 63 61 64 67 65
REMARK SMILES IDX 69 66 66 67 62 68 63 69 64 70 65 71 6 72 7 73 8 74 9 75
REMARK SMILES IDX 10 76 11 77 12 79 13 80 14 81 32 82 15 83 24 84 17 85 18 86
REMARK SMILES IDX 22 87 19 88 21 89 23 90 20 91 16 92 25 94 26 95 30 96 27 97
REMARK SMILES IDX 29 98 31 99 28 100
REMARK H PARENT 3 6 89 24 57 35 10 78 16 93
REMARK Flexibility Score: inf
ROOT
ATOM      1  C   UNL A   1      40.776  20.451  26.808  1.00  0.00     0.021 C 
ENDROOT
BRANCH   1   2
ATOM      2  C   UNL A   1      41.975  19.589  27.182  1.00  0.00     0.116 C 
BRANCH   2   3
ATOM      3  N   UNL A   1      42.779  19.234  26.024  1.00  0.00    -0.352 N 
ATOM      4  O   UNL A   1      44.010  19.630  24.173  1.00  0.00    -0.269 OA
ATOM      5  C   UNL A   1      43.542  20.054  25.227  1.00  0.00     0.251 C 
ATOM      6  H   UNL A   1      42.778  18.281  25.777  1.00  0.00     0.163 HD
BRANCH   5   7
ATOM      7  C   UNL A   1      43.782  21.456  25.639  1.00  0.00     0.039 A 
ATOM      8  C   UNL A   1      44.423  21.733  26.850  1.00  0.00     0.014 A 
ATOM      9  C   UNL A   1      43.370  22.501  24.808  1.00  0.00     0.014 A 
ATOM     10  C   UNL A   1      44.540  23.048  27.284  1.00  0.00     0.010 A 
ATOM     11  C   UNL A   1      43.564  23.826  25.209  1.00  0.00     0.010 A 
ATOM     12  C   UNL A   1      44.135  24.112  26.459  1.00  0.00    -0.014 A 
BRANCH  12  13
ATOM     13  C   UNL A   1      44.405  25.506  26.898  1.00  0.00     0.031 A 
ATOM     14  C   UNL A   1      45.769  26.121  26.763  1.00  0.00     0.074 A 
ATOM     15  C   UNL A   1      43.378  26.227  27.393  1.00  0.00     0.049 A 
ATOM     16  N   UNL A   1      46.162  27.330  27.077  1.00  0.00    -0.248 NA
ATOM     17  C   UNL A   1      46.834  25.270  26.212  1.00  0.00     0.031 C 
ATOM     18  C   UNL A   1      42.013  25.724  27.575  1.00  0.00     0.029 A 
ATOM     19  N   UNL A   1      43.308  27.530  27.810  1.00  0.00    -0.354 N 
ATOM     20  C   UNL A   1      47.518  27.386  26.772  1.00  0.00     0.074 A 
ATOM     21  C   UNL A   1      47.886  26.074  26.278  1.00  0.00     0.031 C 
ATOM     22  C   UNL A   1      41.232  26.719  28.019  1.00  0.00     0.029 A 
ATOM     23  C   UNL A   1      42.051  27.908  28.222  1.00  0.00     0.049 A 
ATOM     24  H   UNL A   1      44.082  28.138  27.816  1.00  0.00     0.167 HD
ATOM     25  C   UNL A   1      48.368  28.437  26.888  1.00  0.00     0.034 A 
ATOM     26  C   UNL A   1      41.607  29.074  28.729  1.00  0.00     0.034 A 
ATOM     27  C   UNL A   1      47.980  29.737  27.387  1.00  0.00     0.049 A 
ATOM     28  C   UNL A   1      42.582  30.209  28.880  1.00  0.00     0.074 A 
ATOM     29  C   UNL A   1      48.755  30.876  27.524  1.00  0.00     0.029 A 
ATOM     30  N   UNL A   1      46.708  30.071  27.837  1.00  0.00    -0.354 N 
ATOM     31  N   UNL A   1      43.859  30.246  28.572  1.00  0.00    -0.248 NA
ATOM     32  C   UNL A   1      42.058  31.458  29.444  1.00  0.00     0.031 C 
ATOM     33  C   UNL A   1      47.973  31.875  28.115  1.00  0.00     0.029 A 
ATOM     34  C   UNL A   1      46.687  31.387  28.279  1.00  0.00     0.049 A 
ATOM     35  H   UNL A   1      45.934  29.464  27.841  1.00  0.00     0.167 HD
ATOM     36  C   UNL A   1      44.285  31.531  28.893  1.00  0.00     0.074 A 
ATOM     37  C   UNL A   1      43.124  32.242  29.387  1.00  0.00     0.031 C 
ATOM     38  C   UNL A   1      45.525  32.073  28.794  1.00  0.00     0.034 A 
BRANCH  25  39
ATOM     39  C   UNL A   1      49.814  28.213  26.509  1.00  0.00     0.023 A 
ATOM     40  C   UNL A   1      50.286  28.453  25.207  1.00  0.00     0.031 A 
ATOM     41  C   UNL A   1      50.735  27.758  27.469  1.00  0.00     0.131 A 
ATOM     42  C   UNL A   1      51.628  28.185  24.886  1.00  0.00     0.055 A 
ATOM     43  C   UNL A   1      52.084  27.559  27.163  1.00  0.00     0.041 A 
ATOM     44  F   UNL A   1      50.340  27.493  28.725  1.00  0.00    -0.206 F 
ATOM     45  C   UNL A   1      52.535  27.763  25.862  1.00  0.00     0.022 A 
BRANCH  42  46
ATOM     46  S   UNL A   1      52.147  28.291  23.152  1.00  0.00     0.124 S 
ATOM     47  O   UNL A   1      53.481  28.874  23.276  1.00  0.00    -0.237 OA
ATOM     48  O   UNL A   1      52.096  26.899  22.721  1.00  0.00    -0.237 OA
ATOM     49  O   UNL A   1      51.146  29.167  22.547  1.00  0.00    -0.744 OA
ENDBRANCH  42  46
ENDBRANCH  25  39
BRANCH  26  50
ATOM     50  C   UNL A   1      40.188  29.215  29.166  1.00  0.00     0.023 A 
ATOM     51  C   UNL A   1      39.834  29.136  30.521  1.00  0.00     0.031 A 
ATOM     52  C   UNL A   1      39.158  29.392  28.224  1.00  0.00     0.131 A 
ATOM     53  C   UNL A   1      38.483  29.186  30.894  1.00  0.00     0.055 A 
ATOM     54  C   UNL A   1      37.821  29.503  28.605  1.00  0.00     0.041 A 
ATOM     55  F   UNL A   1      39.442  29.476  26.914  1.00  0.00    -0.206 F 
ATOM     56  C   UNL A   1      37.475  29.384  29.946  1.00  0.00     0.022 A 
BRANCH  53  57
ATOM     57  S   UNL A   1      38.049  28.890  32.629  1.00  0.00     0.124 S 
ATOM     58  O   UNL A   1      39.082  29.647  33.328  1.00  0.00    -0.237 OA
ATOM     59  O   UNL A   1      36.697  29.433  32.700  1.00  0.00    -0.237 OA
ATOM     60  O   UNL A   1      38.144  27.438  32.760  1.00  0.00    -0.744 OA
ENDBRANCH  53  57
ENDBRANCH  26  50
BRANCH  38  61
ATOM     61  C   UNL A   1      45.663  33.516  29.211  1.00  0.00     0.023 A 
ATOM     62  C   UNL A   1      45.450  34.567  28.302  1.00  0.00     0.031 A 
ATOM     63  C   UNL A   1      46.059  33.842  30.520  1.00  0.00     0.131 A 
ATOM     64  C   UNL A   1      45.700  35.891  28.693  1.00  0.00     0.055 A 
ATOM     65  C   UNL A   1      46.245  35.165  30.922  1.00  0.00     0.041 A 
ATOM     66  F   UNL A   1      46.280  32.878  31.428  1.00  0.00    -0.206 F 
ATOM     67  C   UNL A   1      46.081  36.198  30.002  1.00  0.00     0.022 A 
BRANCH  64  68
ATOM     68  S   UNL A   1      45.624  37.198  27.438  1.00  0.00     0.124 S 
ATOM     69  O   UNL A   1      44.230  37.129  27.011  1.00  0.00    -0.237 OA
ATOM     70  O   UNL A   1      45.999  38.385  28.200  1.00  0.00    -0.237 OA
ATOM     71  O   UNL A   1      46.600  36.770  26.438  1.00  0.00    -0.744 OA
ENDBRANCH  64  68
ENDBRANCH  38  61
ENDBRANCH  12  13
ENDBRANCH   5   7
ENDBRANCH   2   3
ENDBRANCH   1   2
BRANCH   1  72
ATOM     72  C   UNL A   1      40.683  21.779  27.560  1.00  0.00     0.002 C 
BRANCH  72  73
ATOM     73  C   UNL A   1      39.855  22.866  26.866  1.00  0.00     0.002 C 
BRANCH  73  74
ATOM     74  C   UNL A   1      38.632  22.369  26.087  1.00  0.00     0.021 C 
BRANCH  74  75
ATOM     75  C   UNL A   1      37.656  23.458  25.641  1.00  0.00     0.116 C 
BRANCH  75  76
ATOM     76  N   UNL A   1      36.541  23.610  26.555  1.00  0.00    -0.354 N 
ATOM     77  C   UNL A   1      35.305  23.038  26.495  1.00  0.00     0.249 C 
ATOM     78  H   UNL A   1      36.698  24.206  27.322  1.00  0.00     0.163 HD
ATOM     79  O   UNL A   1      34.505  23.314  27.392  1.00  0.00    -0.272 OA
BRANCH  77  80
ATOM     80  C   UNL A   1      34.965  22.031  25.362  1.00  0.00     0.211 C 
ATOM     81  C   UNL A   1      34.034  20.926  25.868  1.00  0.00     0.085 C 
ATOM     82  O   UNL A   1      34.355  22.625  24.219  1.00  0.00    -0.357 OA
ATOM     83  C   UNL A   1      32.881  20.860  24.866  1.00  0.00     0.124 C 
ATOM     84  C   UNL A   1      32.973  22.227  24.136  1.00  0.00     0.187 C 
BRANCH  83  85
ATOM     85  C   UNL A   1      32.985  19.551  24.047  1.00  0.00     0.005 A 
ATOM     86  C   UNL A   1      33.740  18.498  24.638  1.00  0.00     0.008 A 
ATOM     87  C   UNL A   1      32.436  19.273  22.779  1.00  0.00     0.047 A 
ATOM     88  C   UNL A   1      33.858  17.232  24.061  1.00  0.00     0.001 A 
ATOM     89  C   UNL A   1      32.524  17.982  22.222  1.00  0.00     0.021 A 
ATOM     90  Cl  UNL A   1      31.709  20.434  21.727  1.00  0.00    -0.084 Cl
ATOM     91  C   UNL A   1      33.219  16.963  22.863  1.00  0.00     0.002 A 
ENDBRANCH  83  85
BRANCH  83  92
ATOM     92  O   UNL A   1      31.606  20.787  25.535  1.00  0.00    -0.382 OA
ATOM     93  H   UNL A   1      31.167  21.651  25.488  1.00  0.00     0.212 HD
ENDBRANCH  83  92
BRANCH  84  94
ATOM     94  C   UNL A   1      32.157  23.441  24.577  1.00  0.00     0.003 A 
ATOM     95  C   UNL A   1      31.575  23.508  25.858  1.00  0.00     0.008 A 
ATOM     96  C   UNL A   1      32.075  24.600  23.772  1.00  0.00     0.046 A 
ATOM     97  C   UNL A   1      30.980  24.682  26.331  1.00  0.00     0.000 A 
ATOM     98  C   UNL A   1      31.466  25.770  24.246  1.00  0.00     0.021 A 
ATOM     99  Cl  UNL A   1      32.736  24.689  22.173  1.00  0.00    -0.084 Cl
ATOM    100  C   UNL A   1      30.930  25.816  25.528  1.00  0.00     0.002 A 
ENDBRANCH  84  94
ENDBRANCH  77  80
ENDBRANCH  75  76
ENDBRANCH  74  75
ENDBRANCH  73  74
ENDBRANCH  72  73
ENDBRANCH   1  72
TORSDOF 19
ENDMDL
MODEL 3
REMARK VINA RESULT:     -12.2      0.461      7.525
REMARK SMILES O=C(NCCCCCCNC(=O)[C@H]1C[C@](O)(c2ccccc2Cl)[C@@H](c2ccccc2Cl)O1)c1ccc(-c2c3nc(c(-c4cc(S(=O)(=O)[O-])ccc4F)c4ccc([nH]4)c(-c4cc(S(=O)(=O)[O-])ccc4F)c4nc(c(-c5cc(S(=O)(=O)[O-])ccc5F)c5ccc2[nH]5)C=C4)C=C3)cc1
REMARK SMILES IDX 5 1 4 2 3 3 1 4 2 5 33 7 34 8 95 9 35 10 94 11 36 12 37 13
REMARK SMILES IDX 38 14 88 15 39 16 93 17 87 18 89 19 40 20 92 21 86 22 85 23
REMARK SMILES IDX 41 25 73 26 53 27 72 28 54 29 57 30 71 31 90 32 55 33 56 34
REMARK SMILES IDX 70 36 91 37 58 38 42 39 43 40 51 41 44 42 50 43 52 44 49 45
REMARK SMILES IDX 45 46 46 47 47 48 48 49 74 50 75 51 83 52 76 53 82 54 84 55
REMARK SMILES IDX 81 56 77 57 78 58 79 59 80 60 59 61 60 62 68 63 61 64 67 65
REMARK SMILES IDX 69 66 66 67 62 68 63 69 64 70 65 71 6 72 7 73 8 74 9 75
REMARK SMILES IDX 10 76 11 77 12 79 13 80 14 81 32 82 15 83 24 84 17 85 18 86
REMARK SMILES IDX 22 87 19 88 21 89 23 90 20 91 16 92 25 94 26 95 30 96 27 97
REMARK SMILES IDX 29 98 31 99 28 100
REMARK H PARENT 3 6 89 24 57 35 10 78 16 93
REMARK Flexibility Score: inf
ROOT
ATOM      1  C   UNL A   1      31.554  32.781  26.504  1.00  0.00     0.021 C 
ENDROOT
BRANCH   1   2
ATOM      2  C   UNL A   1      32.709  33.242  27.382  1.00  0.00     0.116 C 
BRANCH   2   3
ATOM      3  N   UNL A   1      32.495  34.580  27.912  1.00  0.00    -0.352 N 
ATOM      4  O   UNL A   1      32.662  36.243  29.429  1.00  0.00    -0.269 OA
ATOM      5  C   UNL A   1      33.091  35.175  28.998  1.00  0.00     0.251 C 
ATOM      6  H   UNL A   1      31.838  35.131  27.431  1.00  0.00     0.163 HD
BRANCH   5   7
ATOM      7  C   UNL A   1      34.242  34.515  29.654  1.00  0.00     0.039 A 
ATOM      8  C   UNL A   1      35.530  34.659  29.130  1.00  0.00     0.014 A 
ATOM      9  C   UNL A   1      34.035  33.750  30.806  1.00  0.00     0.014 A 
ATOM     10  C   UNL A   1      36.585  33.942  29.681  1.00  0.00     0.010 A 
ATOM     11  C   UNL A   1      35.115  33.096  31.409  1.00  0.00     0.010 A 
ATOM     12  C   UNL A   1      36.396  33.173  30.842  1.00  0.00    -0.014 A 
BRANCH  12  13
ATOM     13  C   UNL A   1      37.576  32.535  31.482  1.00  0.00     0.031 A 
ATOM     14  C   UNL A   1      38.087  32.993  32.818  1.00  0.00     0.074 A 
ATOM     15  C   UNL A   1      38.164  31.500  30.846  1.00  0.00     0.049 A 
ATOM     16  N   UNL A   1      39.089  32.527  33.521  1.00  0.00    -0.248 NA
ATOM     17  C   UNL A   1      37.391  34.125  33.447  1.00  0.00     0.031 C 
ATOM     18  C   UNL A   1      37.753  30.979  29.538  1.00  0.00     0.029 A 
ATOM     19  N   UNL A   1      39.206  30.690  31.211  1.00  0.00    -0.354 N 
ATOM     20  C   UNL A   1      39.152  33.310  34.668  1.00  0.00     0.074 A 
ATOM     21  C   UNL A   1      38.105  34.304  34.550  1.00  0.00     0.031 C 
ATOM     22  C   UNL A   1      38.501  29.908  29.236  1.00  0.00     0.029 A 
ATOM     23  C   UNL A   1      39.490  29.709  30.289  1.00  0.00     0.049 A 
ATOM     24  H   UNL A   1      39.705  30.798  32.053  1.00  0.00     0.167 HD
ATOM     25  C   UNL A   1      40.001  33.201  35.722  1.00  0.00     0.034 A 
ATOM     26  C   UNL A   1      40.452  28.767  30.276  1.00  0.00     0.034 A 
ATOM     27  C   UNL A   1      41.042  32.203  35.817  1.00  0.00     0.049 A 
ATOM     28  C   UNL A   1      41.401  28.695  31.440  1.00  0.00     0.074 A 
ATOM     29  C   UNL A   1      41.942  31.990  36.848  1.00  0.00     0.029 A 
ATOM     30  N   UNL A   1      41.329  31.253  34.843  1.00  0.00    -0.354 N 
ATOM     31  N   UNL A   1      41.435  29.436  32.525  1.00  0.00    -0.248 NA
ATOM     32  C   UNL A   1      42.439  27.660  31.382  1.00  0.00     0.031 C 
ATOM     33  C   UNL A   1      42.810  30.958  36.472  1.00  0.00     0.029 A 
ATOM     34  C   UNL A   1      42.409  30.475  35.237  1.00  0.00     0.049 A 
ATOM     35  H   UNL A   1      40.838  31.148  33.998  1.00  0.00     0.167 HD
ATOM     36  C   UNL A   1      42.491  28.944  33.284  1.00  0.00     0.074 A 
ATOM     37  C   UNL A   1      43.045  27.826  32.547  1.00  0.00     0.031 C 
ATOM     38  C   UNL A   1      42.966  29.379  34.478  1.00  0.00     0.034 A 
BRANCH  25  39
ATOM     39  C   UNL A   1      39.868  34.213  36.836  1.00  0.00     0.023 A 
ATOM     40  C   UNL A   1      39.381  33.859  38.106  1.00  0.00     0.031 A 
ATOM     41  C   UNL A   1      40.242  35.552  36.625  1.00  0.00     0.131 A 
ATOM     42  C   UNL A   1      39.229  34.842  39.098  1.00  0.00     0.055 A 
ATOM     43  C   UNL A   1      40.154  36.512  37.637  1.00  0.00     0.041 A 
ATOM     44  F   UNL A   1      40.697  35.954  35.427  1.00  0.00    -0.206 F 
ATOM     45  C   UNL A   1      39.635  36.161  38.879  1.00  0.00     0.022 A 
BRANCH  42  46
ATOM     46  S   UNL A   1      38.389  34.398  40.644  1.00  0.00     0.124 S 
ATOM     47  O   UNL A   1      39.426  33.633  41.334  1.00  0.00    -0.237 OA
ATOM     48  O   UNL A   1      38.069  35.700  41.216  1.00  0.00    -0.237 OA
ATOM     49  O   UNL A   1      37.241  33.613  40.197  1.00  0.00    -0.744 OA
ENDBRANCH  42  46
ENDBRANCH  25  39
BRANCH  26  50
ATOM     50  C   UNL A   1      40.591  27.847  29.111  1.00  0.00     0.023 A 
ATOM     51  C   UNL A   1      41.508  28.111  28.083  1.00  0.00     0.031 A 
ATOM     52  C   UNL A   1      39.776  26.707  28.991  1.00  0.00     0.131 A 
ATOM     53  C   UNL A   1      41.557  27.273  26.959  1.00  0.00     0.055 A 
ATOM     54  C   UNL A   1      39.870  25.843  27.901  1.00  0.00     0.041 A 
ATOM     55  F   UNL A   1      38.882  26.407  29.948  1.00  0.00    -0.206 F 
ATOM     56  C   UNL A   1      40.754  26.133  26.868  1.00  0.00     0.022 A 
BRANCH  53  57
ATOM     57  S   UNL A   1      42.615  27.750  25.566  1.00  0.00     0.124 S 
ATOM     58  O   UNL A   1      42.591  26.543  24.746  1.00  0.00    -0.237 OA
ATOM     59  O   UNL A   1      41.906  28.905  25.029  1.00  0.00    -0.237 OA
ATOM     60  O   UNL A   1      43.898  28.047  26.200  1.00  0.00    -0.744 OA
ENDBRANCH  53  57
ENDBRANCH  26  50
BRANCH  38  61
ATOM     61  C   UNL A   1      44.128  28.613  35.060  1.00  0.00     0.023 A 
ATOM     62  C   UNL A   1      43.941  27.641  36.059  1.00  0.00     0.031 A 
ATOM     63  C   UNL A   1      45.442  28.893  34.643  1.00  0.00     0.131 A 
ATOM     64  C   UNL A   1      45.054  27.033  36.657  1.00  0.00     0.055 A 
ATOM     65  C   UNL A   1      46.542  28.237  35.198  1.00  0.00     0.041 A 
ATOM     66  F   UNL A   1      45.677  29.813  33.695  1.00  0.00    -0.206 F 
ATOM     67  C   UNL A   1      46.352  27.313  36.223  1.00  0.00     0.022 A 
BRANCH  64  68
ATOM     68  S   UNL A   1      44.789  25.949  38.087  1.00  0.00     0.124 S 
ATOM     69  O   UNL A   1      44.681  24.636  37.457  1.00  0.00    -0.237 OA
ATOM     70  O   UNL A   1      45.992  26.179  38.881  1.00  0.00    -0.237 OA
ATOM     71  O   UNL A   1      43.551  26.456  38.677  1.00  0.00    -0.744 OA
ENDBRANCH  64  68
ENDBRANCH  38  61
ENDBRANCH  12  13
ENDBRANCH   5   7
ENDBRANCH   2   3
ENDBRANCH   1   2
BRANCH   1  72
ATOM     72  C   UNL A   1      31.508  31.274  26.246  1.00  0.00     0.002 C 
BRANCH  72  73
ATOM     73  C   UNL A   1      32.287  30.416  27.249  1.00  0.00     0.002 C 
BRANCH  73  74
ATOM     74  C   UNL A   1      33.633  29.876  26.752  1.00  0.00     0.021 C 
BRANCH  74  75
ATOM     75  C   UNL A   1      33.993  28.472  27.238  1.00  0.00     0.116 C 
BRANCH  75  76
ATOM     76  N   UNL A   1      34.451  27.615  26.163  1.00  0.00    -0.354 N 
ATOM     77  C   UNL A   1      33.746  27.128  25.102  1.00  0.00     0.249 C 
ATOM     78  H   UNL A   1      35.397  27.349  26.204  1.00  0.00     0.163 HD
ATOM     79  O   UNL A   1      34.348  26.407  24.301  1.00  0.00    -0.272 OA
BRANCH  77  80
ATOM     80  C   UNL A   1      32.260  27.531  24.900  1.00  0.00     0.211 C 
ATOM     81  C   UNL A   1      32.040  28.154  23.520  1.00  0.00     0.085 C 
ATOM     82  O   UNL A   1      31.340  26.451  25.042  1.00  0.00    -0.357 OA
ATOM     83  C   UNL A   1      30.850  27.414  22.911  1.00  0.00     0.124 C 
ATOM     84  C   UNL A   1      30.773  26.116  23.761  1.00  0.00     0.187 C 
BRANCH  83  85
ATOM     85  C   UNL A   1      29.628  28.360  22.856  1.00  0.00     0.005 A 
ATOM     86  C   UNL A   1      29.887  29.697  22.441  1.00  0.00     0.008 A 
ATOM     87  C   UNL A   1      28.287  28.069  23.179  1.00  0.00     0.047 A 
ATOM     88  C   UNL A   1      28.877  30.647  22.264  1.00  0.00     0.001 A 
ATOM     89  C   UNL A   1      27.269  29.017  22.959  1.00  0.00     0.021 A 
ATOM     90  Cl  UNL A   1      27.734  26.626  23.951  1.00  0.00    -0.084 Cl
ATOM     91  C   UNL A   1      27.558  30.295  22.492  1.00  0.00     0.002 A 
ENDBRANCH  83  85
BRANCH  83  92
ATOM     92  O   UNL A   1      31.105  27.045  21.541  1.00  0.00    -0.382 OA
ATOM     93  H   UNL A   1      30.438  26.404  21.249  1.00  0.00     0.212 HD
ENDBRANCH  83  92
BRANCH  84  94
ATOM     94  C   UNL A   1      31.453  24.818  23.326  1.00  0.00     0.003 A 
ATOM     95  C   UNL A   1      32.288  24.771  22.194  1.00  0.00     0.008 A 
ATOM     96  C   UNL A   1      31.382  23.653  24.122  1.00  0.00     0.046 A 
ATOM     97  C   UNL A   1      33.050  23.637  21.893  1.00  0.00     0.000 A 
ATOM     98  C   UNL A   1      32.136  22.514  23.809  1.00  0.00     0.021 A 
ATOM     99  Cl  UNL A   1      30.403  23.539  25.548  1.00  0.00    -0.084 Cl
ATOM    100  C   UNL A   1      32.979  22.510  22.704  1.00  0.00     0.002 A 
ENDBRANCH  84  94
ENDBRANCH  77  80
ENDBRANCH  75  76
ENDBRANCH  74  75
ENDBRANCH  73  74
ENDBRANCH  72  73
ENDBRANCH   1  72
TORSDOF 19
ENDMDL
