MODEL 1
REMARK VINA RESULT:     -11.6      0.000      0.000
REMARK SMILES C[C@H](C(=O)NCCCCCCNC(=O)c1ccc(-c2c3nc(c(-c4cc(S(=O)(=O)[O-])ccc4F)c4ccc([nH]4)c(-c4cc(S(=O)(=O)[O-])ccc4F)c4nc(c(-c5cc(S(=O)(=O)[O-])ccc5F)c5ccc2[nH]5)C=C4)C=C3)cc1)[C@H](C)[NH+]1CCN(c2ccccc2Cl)CC1
REMARK SMILES IDX 8 1 7 2 6 3 5 4 3 5 4 6 2 8 1 9 78 10 79 11 80 12 81 13
REMARK SMILES IDX 92 14 82 16 91 17 83 18 84 19 85 20 89 21 86 22 88 23 90 24
REMARK SMILES IDX 87 25 9 26 10 27 11 28 12 29 13 30 14 32 15 33 16 34 77 35
REMARK SMILES IDX 17 36 76 37 18 38 19 39 20 40 70 41 21 42 75 43 69 44 71 45
REMARK SMILES IDX 22 46 74 47 68 48 67 49 23 51 55 52 35 53 54 54 36 55 39 56
REMARK SMILES IDX 53 57 72 58 37 59 38 60 52 62 73 63 40 64 24 65 25 66 33 67
REMARK SMILES IDX 26 68 32 69 34 70 31 71 27 72 28 73 29 74 30 75 56 76 57 77
REMARK SMILES IDX 65 78 58 79 64 80 66 81 63 82 59 83 60 84 61 85 62 86 41 87
REMARK SMILES IDX 42 88 50 89 43 90 49 91 51 92 48 93 44 94 45 95 46 96 47 97
REMARK H PARENT 5 7 80 15 12 31 71 50 39 61
REMARK Flexibility Score: inf
ROOT
ATOM      1  C   UNL A   1      36.588  22.630  24.631  1.00  0.00     0.002 C 
ENDROOT
BRANCH   1   2
ATOM      2  C   UNL A   1      36.104  23.858  25.414  1.00  0.00     0.021 C 
BRANCH   2   3
ATOM      3  C   UNL A   1      34.886  24.568  24.824  1.00  0.00     0.116 C 
BRANCH   3   4
ATOM      4  N   UNL A   1      34.636  24.162  23.460  1.00  0.00    -0.356 N 
ATOM      5  C   UNL A   1      33.635  23.416  22.927  1.00  0.00     0.228 C 
ATOM      6  O   UNL A   1      33.583  23.373  21.693  1.00  0.00    -0.275 OA
ATOM      7  H   UNL A   1      35.302  24.481  22.809  1.00  0.00     0.163 HD
BRANCH   5   8
ATOM      8  C   UNL A   1      32.608  22.703  23.824  1.00  0.00     0.133 C 
ATOM      9  C   UNL A   1      33.200  21.369  24.335  1.00  0.00     0.024 C 
BRANCH   8  10
ATOM     10  C   UNL A   1      32.046  23.564  25.021  1.00  0.00     0.193 C 
ATOM     11  C   UNL A   1      32.292  22.820  26.349  1.00  0.00     0.076 C 
BRANCH  10  12
ATOM     12  N   UNL A   1      30.637  23.985  24.854  1.00  0.00    -0.329 N 
ATOM     13  C   UNL A   1      30.190  25.154  25.657  1.00  0.00     0.284 C 
ATOM     14  C   UNL A   1      30.273  24.247  23.433  1.00  0.00     0.284 C 
ATOM     15  H   UNL A   1      30.147  23.169  25.218  1.00  0.00     0.348 HD
ATOM     16  C   UNL A   1      30.622  26.554  25.143  1.00  0.00     0.178 C 
ATOM     17  C   UNL A   1      30.768  25.597  22.873  1.00  0.00     0.178 C 
ATOM     18  N   UNL A   1      30.280  26.685  23.723  1.00  0.00    -0.359 N 
BRANCH  18  19
ATOM     19  C   UNL A   1      29.713  27.819  23.179  1.00  0.00     0.056 A 
ATOM     20  C   UNL A   1      30.537  28.798  22.593  1.00  0.00     0.027 A 
ATOM     21  C   UNL A   1      28.320  28.076  23.164  1.00  0.00     0.064 A 
ATOM     22  C   UNL A   1      30.010  29.947  21.992  1.00  0.00     0.002 A 
ATOM     23  C   UNL A   1      27.792  29.223  22.557  1.00  0.00     0.023 A 
ATOM     24  Cl  UNL A   1      27.169  27.061  23.976  1.00  0.00    -0.082 Cl
ATOM     25  C   UNL A   1      28.636  30.156  21.966  1.00  0.00     0.002 A 
ENDBRANCH  18  19
ENDBRANCH  10  12
ENDBRANCH   8  10
ENDBRANCH   5   8
ENDBRANCH   3   4
ENDBRANCH   2   3
ENDBRANCH   1   2
BRANCH   1  26
ATOM     26  C   UNL A   1      36.800  21.352  25.449  1.00  0.00     0.002 C 
BRANCH  26  27
ATOM     27  C   UNL A   1      38.036  20.529  25.083  1.00  0.00     0.021 C 
BRANCH  27  28
ATOM     28  C   UNL A   1      39.240  20.745  25.989  1.00  0.00     0.116 C 
BRANCH  28  29
ATOM     29  N   UNL A   1      40.156  19.617  25.973  1.00  0.00    -0.352 N 
ATOM     30  C   UNL A   1      41.528  19.632  26.075  1.00  0.00     0.251 C 
ATOM     31  H   UNL A   1      39.743  18.728  25.875  1.00  0.00     0.163 HD
ATOM     32  O   UNL A   1      42.176  18.609  25.875  1.00  0.00    -0.269 OA
BRANCH  30  33
ATOM     33  C   UNL A   1      42.210  20.905  26.394  1.00  0.00     0.039 A 
ATOM     34  C   UNL A   1      42.516  21.796  25.364  1.00  0.00     0.014 A 
ATOM     35  C   UNL A   1      42.508  21.229  27.721  1.00  0.00     0.014 A 
ATOM     36  C   UNL A   1      43.064  23.046  25.670  1.00  0.00     0.010 A 
ATOM     37  C   UNL A   1      42.987  22.497  28.028  1.00  0.00     0.010 A 
ATOM     38  C   UNL A   1      43.273  23.418  27.007  1.00  0.00    -0.014 A 
BRANCH  38  39
ATOM     39  C   UNL A   1      43.820  24.747  27.383  1.00  0.00     0.031 A 
ATOM     40  C   UNL A   1      42.893  25.793  27.935  1.00  0.00     0.074 A 
ATOM     41  C   UNL A   1      45.106  25.051  27.120  1.00  0.00     0.049 A 
ATOM     42  N   UNL A   1      43.099  27.068  28.133  1.00  0.00    -0.248 NA
ATOM     43  C   UNL A   1      41.533  25.341  28.263  1.00  0.00     0.031 C 
ATOM     44  C   UNL A   1      46.095  24.132  26.557  1.00  0.00     0.029 A 
ATOM     45  N   UNL A   1      45.791  26.233  27.261  1.00  0.00    -0.354 N 
ATOM     46  C   UNL A   1      41.883  27.582  28.574  1.00  0.00     0.074 A 
ATOM     47  C   UNL A   1      40.938  26.486  28.557  1.00  0.00     0.031 C 
ATOM     48  C   UNL A   1      47.257  24.785  26.393  1.00  0.00     0.029 A 
ATOM     49  C   UNL A   1      47.083  26.180  26.791  1.00  0.00     0.049 A 
ATOM     50  H   UNL A   1      45.395  27.041  27.660  1.00  0.00     0.167 HD
ATOM     51  C   UNL A   1      41.590  28.845  28.971  1.00  0.00     0.034 A 
ATOM     52  C   UNL A   1      48.010  27.150  26.663  1.00  0.00     0.034 A 
ATOM     53  C   UNL A   1      42.557  29.917  28.998  1.00  0.00     0.049 A 
ATOM     54  C   UNL A   1      47.670  28.551  27.100  1.00  0.00     0.074 A 
ATOM     55  C   UNL A   1      42.393  31.217  29.440  1.00  0.00     0.029 A 
ATOM     56  N   UNL A   1      43.869  29.811  28.554  1.00  0.00    -0.354 N 
ATOM     57  N   UNL A   1      46.528  29.018  27.550  1.00  0.00    -0.248 NA
ATOM     58  C   UNL A   1      48.741  29.552  27.021  1.00  0.00     0.031 C 
ATOM     59  C   UNL A   1      43.583  31.915  29.204  1.00  0.00     0.029 A 
ATOM     60  C   UNL A   1      44.517  31.030  28.686  1.00  0.00     0.049 A 
ATOM     61  H   UNL A   1      44.280  28.991  28.197  1.00  0.00     0.167 HD
ATOM     62  C   UNL A   1      46.755  30.361  27.839  1.00  0.00     0.074 A 
ATOM     63  C   UNL A   1      48.140  30.629  27.507  1.00  0.00     0.031 C 
ATOM     64  C   UNL A   1      45.898  31.283  28.348  1.00  0.00     0.034 A 
BRANCH  51  65
ATOM     65  C   UNL A   1      40.159  29.128  29.367  1.00  0.00     0.023 A 
ATOM     66  C   UNL A   1      39.760  29.175  30.715  1.00  0.00     0.031 A 
ATOM     67  C   UNL A   1      39.164  29.279  28.385  1.00  0.00     0.131 A 
ATOM     68  C   UNL A   1      38.398  29.250  31.041  1.00  0.00     0.055 A 
ATOM     69  C   UNL A   1      37.819  29.455  28.719  1.00  0.00     0.041 A 
ATOM     70  F   UNL A   1      39.475  29.225  27.080  1.00  0.00    -0.206 F 
ATOM     71  C   UNL A   1      37.426  29.416  30.053  1.00  0.00     0.022 A 
BRANCH  68  72
ATOM     72  S   UNL A   1      37.905  28.921  32.756  1.00  0.00     0.124 S 
ATOM     73  O   UNL A   1      36.616  29.608  32.829  1.00  0.00    -0.237 OA
ATOM     74  O   UNL A   1      37.857  27.465  32.795  1.00  0.00    -0.237 OA
ATOM     75  O   UNL A   1      38.973  29.534  33.543  1.00  0.00    -0.744 OA
ENDBRANCH  68  72
ENDBRANCH  51  65
BRANCH  52  76
ATOM     76  C   UNL A   1      49.338  26.829  26.070  1.00  0.00     0.023 A 
ATOM     77  C   UNL A   1      49.664  27.222  24.763  1.00  0.00     0.031 A 
ATOM     78  C   UNL A   1      50.308  26.133  26.813  1.00  0.00     0.131 A 
ATOM     79  C   UNL A   1      50.921  26.894  24.229  1.00  0.00     0.055 A 
ATOM     80  C   UNL A   1      51.570  25.845  26.293  1.00  0.00     0.041 A 
ATOM     81  F   UNL A   1      50.047  25.746  28.073  1.00  0.00    -0.206 F 
ATOM     82  C   UNL A   1      51.880  26.220  24.990  1.00  0.00     0.022 A 
BRANCH  79  83
ATOM     83  S   UNL A   1      51.276  27.331  22.506  1.00  0.00     0.124 S 
ATOM     84  O   UNL A   1      51.207  28.788  22.549  1.00  0.00    -0.237 OA
ATOM     85  O   UNL A   1      52.604  26.756  22.313  1.00  0.00    -0.237 OA
ATOM     86  O   UNL A   1      50.203  26.676  21.761  1.00  0.00    -0.744 OA
ENDBRANCH  79  83
ENDBRANCH  52  76
BRANCH  64  87
ATOM     87  C   UNL A   1      46.450  32.656  28.639  1.00  0.00     0.023 A 
ATOM     88  C   UNL A   1      46.406  33.695  27.695  1.00  0.00     0.031 A 
ATOM     89  C   UNL A   1      46.995  32.931  29.907  1.00  0.00     0.131 A 
ATOM     90  C   UNL A   1      46.923  34.957  28.025  1.00  0.00     0.055 A 
ATOM     91  C   UNL A   1      47.466  34.200  30.245  1.00  0.00     0.041 A 
ATOM     92  F   UNL A   1      47.061  31.971  30.844  1.00  0.00    -0.206 F 
ATOM     93  C   UNL A   1      47.437  35.220  29.299  1.00  0.00     0.022 A 
BRANCH  90  94
ATOM     94  S   UNL A   1      46.958  36.250  26.752  1.00  0.00     0.124 S 
ATOM     95  O   UNL A   1      48.146  37.010  27.125  1.00  0.00    -0.237 OA
ATOM     96  O   UNL A   1      47.056  35.475  25.520  1.00  0.00    -0.237 OA
ATOM     97  O   UNL A   1      45.689  36.951  26.941  1.00  0.00    -0.744 OA
ENDBRANCH  90  94
ENDBRANCH  64  87
ENDBRANCH  38  39
ENDBRANCH  30  33
ENDBRANCH  28  29
ENDBRANCH  27  28
ENDBRANCH  26  27
ENDBRANCH   1  26
TORSDOF 19
ENDMDL
MODEL 2
REMARK VINA RESULT:     -11.5      5.954     11.642
REMARK SMILES C[C@H](C(=O)NCCCCCCNC(=O)c1ccc(-c2c3nc(c(-c4cc(S(=O)(=O)[O-])ccc4F)c4ccc([nH]4)c(-c4cc(S(=O)(=O)[O-])ccc4F)c4nc(c(-c5cc(S(=O)(=O)[O-])ccc5F)c5ccc2[nH]5)C=C4)C=C3)cc1)[C@H](C)[NH+]1CCN(c2ccccc2Cl)CC1
REMARK SMILES IDX 8 1 7 2 6 3 5 4 3 5 4 6 2 8 1 9 78 10 79 11 80 12 81 13
REMARK SMILES IDX 92 14 82 16 91 17 83 18 84 19 85 20 89 21 86 22 88 23 90 24
REMARK SMILES IDX 87 25 9 26 10 27 11 28 12 29 13 30 14 32 15 33 16 34 77 35
REMARK SMILES IDX 17 36 76 37 18 38 19 39 20 40 70 41 21 42 75 43 69 44 71 45
REMARK SMILES IDX 22 46 74 47 68 48 67 49 23 51 55 52 35 53 54 54 36 55 39 56
REMARK SMILES IDX 53 57 72 58 37 59 38 60 52 62 73 63 40 64 24 65 25 66 33 67
REMARK SMILES IDX 26 68 32 69 34 70 31 71 27 72 28 73 29 74 30 75 56 76 57 77
REMARK SMILES IDX 65 78 58 79 64 80 66 81 63 82 59 83 60 84 61 85 62 86 41 87
REMARK SMILES IDX 42 88 50 89 43 90 49 91 51 92 48 93 44 94 45 95 46 96 47 97
REMARK H PARENT 5 7 80 15 12 31 71 50 39 61
REMARK Flexibility Score: inf
ROOT
ATOM      1  C   UNL A   1      35.360  30.728  28.680  1.00  0.00     0.002 C 
ENDROOT
BRANCH   1   2
ATOM      2  C   UNL A   1      35.595  29.383  27.977  1.00  0.00     0.021 C 
BRANCH   2   3
ATOM      3  C   UNL A   1      34.501  28.963  26.996  1.00  0.00     0.116 C 
BRANCH   3   4
ATOM      4  N   UNL A   1      33.285  28.585  27.677  1.00  0.00    -0.356 N 
ATOM      5  C   UNL A   1      32.052  28.288  27.192  1.00  0.00     0.228 C 
ATOM      6  O   UNL A   1      31.241  27.829  28.003  1.00  0.00    -0.275 OA
ATOM      7  H   UNL A   1      33.363  28.532  28.658  1.00  0.00     0.163 HD
BRANCH   5   8
ATOM      8  C   UNL A   1      31.714  28.483  25.704  1.00  0.00     0.133 C 
ATOM      9  C   UNL A   1      31.718  29.990  25.361  1.00  0.00     0.024 C 
BRANCH   8  10
ATOM     10  C   UNL A   1      32.620  27.675  24.696  1.00  0.00     0.193 C 
ATOM     11  C   UNL A   1      33.244  28.646  23.673  1.00  0.00     0.076 C 
BRANCH  10  12
ATOM     12  N   UNL A   1      31.938  26.529  24.053  1.00  0.00    -0.329 N 
ATOM     13  C   UNL A   1      32.713  25.779  23.030  1.00  0.00     0.284 C 
ATOM     14  C   UNL A   1      31.412  25.540  25.037  1.00  0.00     0.284 C 
ATOM     15  H   UNL A   1      31.181  27.004  23.564  1.00  0.00     0.348 HD
ATOM     16  C   UNL A   1      33.784  24.787  23.560  1.00  0.00     0.178 C 
ATOM     17  C   UNL A   1      32.474  24.599  25.643  1.00  0.00     0.178 C 
ATOM     18  N   UNL A   1      33.182  23.905  24.566  1.00  0.00    -0.359 N 
BRANCH  18  19
ATOM     19  C   UNL A   1      33.411  22.545  24.619  1.00  0.00     0.056 A 
ATOM     20  C   UNL A   1      32.393  21.652  24.238  1.00  0.00     0.027 A 
ATOM     21  C   UNL A   1      34.634  21.967  25.039  1.00  0.00     0.064 A 
ATOM     22  C   UNL A   1      32.588  20.265  24.236  1.00  0.00     0.002 A 
ATOM     23  C   UNL A   1      34.830  20.580  25.031  1.00  0.00     0.023 A 
ATOM     24  Cl  UNL A   1      35.941  22.904  25.692  1.00  0.00    -0.082 Cl
ATOM     25  C   UNL A   1      33.809  19.729  24.624  1.00  0.00     0.002 A 
ENDBRANCH  18  19
ENDBRANCH  10  12
ENDBRANCH   8  10
ENDBRANCH   5   8
ENDBRANCH   3   4
ENDBRANCH   2   3
ENDBRANCH   1   2
BRANCH   1  26
ATOM     26  C   UNL A   1      35.087  31.926  27.765  1.00  0.00     0.002 C 
BRANCH  26  27
ATOM     27  C   UNL A   1      33.749  32.634  27.984  1.00  0.00     0.021 C 
BRANCH  27  28
ATOM     28  C   UNL A   1      33.805  34.152  27.895  1.00  0.00     0.116 C 
BRANCH  28  29
ATOM     29  N   UNL A   1      33.171  34.799  29.031  1.00  0.00    -0.352 N 
ATOM     30  C   UNL A   1      33.526  34.729  30.358  1.00  0.00     0.251 C 
ATOM     31  H   UNL A   1      32.387  35.358  28.826  1.00  0.00     0.163 HD
ATOM     32  O   UNL A   1      32.790  35.197  31.223  1.00  0.00    -0.269 OA
BRANCH  30  33
ATOM     33  C   UNL A   1      34.788  34.054  30.729  1.00  0.00     0.039 A 
ATOM     34  C   UNL A   1      36.003  34.579  30.285  1.00  0.00     0.014 A 
ATOM     35  C   UNL A   1      34.765  32.923  31.551  1.00  0.00     0.014 A 
ATOM     36  C   UNL A   1      37.204  34.008  30.720  1.00  0.00     0.010 A 
ATOM     37  C   UNL A   1      35.958  32.402  32.036  1.00  0.00     0.010 A 
ATOM     38  C   UNL A   1      37.190  32.936  31.624  1.00  0.00    -0.014 A 
BRANCH  38  39
ATOM     39  C   UNL A   1      38.439  32.319  32.140  1.00  0.00     0.031 A 
ATOM     40  C   UNL A   1      39.091  31.217  31.354  1.00  0.00     0.074 A 
ATOM     41  C   UNL A   1      38.914  32.659  33.354  1.00  0.00     0.049 A 
ATOM     42  N   UNL A   1      40.052  30.401  31.702  1.00  0.00    -0.248 NA
ATOM     43  C   UNL A   1      38.550  30.976  30.009  1.00  0.00     0.031 C 
ATOM     44  C   UNL A   1      38.351  33.691  34.224  1.00  0.00     0.029 A 
ATOM     45  N   UNL A   1      39.961  32.145  34.079  1.00  0.00    -0.354 N 
ATOM     46  C   UNL A   1      40.206  29.524  30.632  1.00  0.00     0.074 A 
ATOM     47  C   UNL A   1      39.199  29.879  29.655  1.00  0.00     0.031 C 
ATOM     48  C   UNL A   1      39.053  33.730  35.369  1.00  0.00     0.029 A 
ATOM     49  C   UNL A   1      40.082  32.693  35.335  1.00  0.00     0.049 A 
ATOM     50  H   UNL A   1      40.567  31.451  33.734  1.00  0.00     0.167 HD
ATOM     51  C   UNL A   1      41.113  28.528  30.476  1.00  0.00     0.034 A 
ATOM     52  C   UNL A   1      40.903  32.376  36.355  1.00  0.00     0.034 A 
ATOM     53  C   UNL A   1      42.121  28.206  31.459  1.00  0.00     0.049 A 
ATOM     54  C   UNL A   1      41.902  31.263  36.173  1.00  0.00     0.074 A 
ATOM     55  C   UNL A   1      43.131  27.264  31.384  1.00  0.00     0.029 A 
ATOM     56  N   UNL A   1      42.238  28.815  32.702  1.00  0.00    -0.354 N 
ATOM     57  N   UNL A   1      42.064  30.463  35.144  1.00  0.00    -0.248 NA
ATOM     58  C   UNL A   1      42.832  31.014  37.282  1.00  0.00     0.031 C 
ATOM     59  C   UNL A   1      43.817  27.258  32.604  1.00  0.00     0.029 A 
ATOM     60  C   UNL A   1      43.286  28.250  33.413  1.00  0.00     0.049 A 
ATOM     61  H   UNL A   1      41.661  29.542  33.031  1.00  0.00     0.167 HD
ATOM     62  C   UNL A   1      43.137  29.638  35.469  1.00  0.00     0.074 A 
ATOM     63  C   UNL A   1      43.579  30.034  36.792  1.00  0.00     0.031 C 
ATOM     64  C   UNL A   1      43.713  28.654  34.733  1.00  0.00     0.034 A 
BRANCH  51  65
ATOM     65  C   UNL A   1      41.019  27.702  29.214  1.00  0.00     0.023 A 
ATOM     66  C   UNL A   1      41.925  27.870  28.151  1.00  0.00     0.031 A 
ATOM     67  C   UNL A   1      39.966  26.786  29.037  1.00  0.00     0.131 A 
ATOM     68  C   UNL A   1      41.696  27.226  26.926  1.00  0.00     0.055 A 
ATOM     69  C   UNL A   1      39.802  26.072  27.848  1.00  0.00     0.041 A 
ATOM     70  F   UNL A   1      39.057  26.593  30.006  1.00  0.00    -0.206 F 
ATOM     71  C   UNL A   1      40.656  26.309  26.775  1.00  0.00     0.022 A 
BRANCH  68  72
ATOM     72  S   UNL A   1      42.653  27.764  25.481  1.00  0.00     0.124 S 
ATOM     73  O   UNL A   1      42.585  26.580  24.626  1.00  0.00    -0.237 OA
ATOM     74  O   UNL A   1      41.903  28.927  25.022  1.00  0.00    -0.237 OA
ATOM     75  O   UNL A   1      43.975  28.048  26.033  1.00  0.00    -0.744 OA
ENDBRANCH  68  72
ENDBRANCH  51  65
BRANCH  52  76
ATOM     76  C   UNL A   1      40.794  33.109  37.648  1.00  0.00     0.023 A 
ATOM     77  C   UNL A   1      39.888  32.703  38.639  1.00  0.00     0.031 A 
ATOM     78  C   UNL A   1      41.611  34.223  37.913  1.00  0.00     0.131 A 
ATOM     79  C   UNL A   1      39.802  33.422  39.842  1.00  0.00     0.055 A 
ATOM     80  C   UNL A   1      41.550  34.909  39.126  1.00  0.00     0.041 A 
ATOM     81  F   UNL A   1      42.502  34.642  37.001  1.00  0.00    -0.206 F 
ATOM     82  C   UNL A   1      40.636  34.513  40.097  1.00  0.00     0.022 A 
BRANCH  79  83
ATOM     83  S   UNL A   1      38.554  32.930  41.062  1.00  0.00     0.124 S 
ATOM     84  O   UNL A   1      37.314  33.160  40.327  1.00  0.00    -0.237 OA
ATOM     85  O   UNL A   1      38.904  31.536  41.312  1.00  0.00    -0.237 OA
ATOM     86  O   UNL A   1      38.795  33.839  42.181  1.00  0.00    -0.744 OA
ENDBRANCH  79  83
ENDBRANCH  52  76
BRANCH  64  87
ATOM     87  C   UNL A   1      44.928  27.975  35.313  1.00  0.00     0.023 A 
ATOM     88  C   UNL A   1      44.836  26.787  36.057  1.00  0.00     0.031 A 
ATOM     89  C   UNL A   1      46.205  28.516  35.076  1.00  0.00     0.131 A 
ATOM     90  C   UNL A   1      46.003  26.191  36.563  1.00  0.00     0.055 A 
ATOM     91  C   UNL A   1      47.364  27.895  35.543  1.00  0.00     0.041 A 
ATOM     92  F   UNL A   1      46.346  29.650  34.372  1.00  0.00    -0.206 F 
ATOM     93  C   UNL A   1      47.266  26.729  36.295  1.00  0.00     0.022 A 
BRANCH  90  94
ATOM     94  S   UNL A   1      45.850  24.721  37.615  1.00  0.00     0.124 S 
ATOM     95  O   UNL A   1      44.638  25.016  38.372  1.00  0.00    -0.237 OA
ATOM     96  O   UNL A   1      45.746  23.644  36.637  1.00  0.00    -0.237 OA
ATOM     97  O   UNL A   1      47.086  24.729  38.397  1.00  0.00    -0.744 OA
ENDBRANCH  90  94
ENDBRANCH  64  87
ENDBRANCH  38  39
ENDBRANCH  30  33
ENDBRANCH  28  29
ENDBRANCH  27  28
ENDBRANCH  26  27
ENDBRANCH   1  26
TORSDOF 19
ENDMDL
MODEL 3
REMARK VINA RESULT:     -11.4      5.988     11.369
REMARK SMILES C[C@H](C(=O)NCCCCCCNC(=O)c1ccc(-c2c3nc(c(-c4cc(S(=O)(=O)[O-])ccc4F)c4ccc([nH]4)c(-c4cc(S(=O)(=O)[O-])ccc4F)c4nc(c(-c5cc(S(=O)(=O)[O-])ccc5F)c5ccc2[nH]5)C=C4)C=C3)cc1)[C@H](C)[NH+]1CCN(c2ccccc2Cl)CC1
REMARK SMILES IDX 8 1 7 2 6 3 5 4 3 5 4 6 2 8 1 9 78 10 79 11 80 12 81 13
REMARK SMILES IDX 92 14 82 16 91 17 83 18 84 19 85 20 89 21 86 22 88 23 90 24
REMARK SMILES IDX 87 25 9 26 10 27 11 28 12 29 13 30 14 32 15 33 16 34 77 35
REMARK SMILES IDX 17 36 76 37 18 38 19 39 20 40 70 41 21 42 75 43 69 44 71 45
REMARK SMILES IDX 22 46 74 47 68 48 67 49 23 51 55 52 35 53 54 54 36 55 39 56
REMARK SMILES IDX 53 57 72 58 37 59 38 60 52 62 73 63 40 64 24 65 25 66 33 67
REMARK SMILES IDX 26 68 32 69 34 70 31 71 27 72 28 73 29 74 30 75 56 76 57 77
REMARK SMILES IDX 65 78 58 79 64 80 66 81 63 82 59 83 60 84 61 85 62 86 41 87
REMARK SMILES IDX 42 88 50 89 43 90 49 91 51 92 48 93 44 94 45 95 46 96 47 97
REMARK H PARENT 5 7 80 15 12 31 71 50 39 61
REMARK Flexibility Score: inf
ROOT
ATOM      1  C   UNL A   1      31.059  29.705  24.870  1.00  0.00     0.002 C 
ENDROOT
BRANCH   1   2
ATOM      2  C   UNL A   1      31.804  28.952  23.759  1.00  0.00     0.021 C 
BRANCH   2   3
ATOM      3  C   UNL A   1      33.194  28.442  24.137  1.00  0.00     0.116 C 
BRANCH   3   4
ATOM      4  N   UNL A   1      33.695  27.487  23.176  1.00  0.00    -0.356 N 
ATOM      5  C   UNL A   1      33.271  26.236  22.866  1.00  0.00     0.228 C 
ATOM      6  O   UNL A   1      33.791  25.712  21.874  1.00  0.00    -0.275 OA
ATOM      7  H   UNL A   1      34.474  27.797  22.659  1.00  0.00     0.163 HD
BRANCH   5   8
ATOM      8  C   UNL A   1      32.176  25.538  23.692  1.00  0.00     0.133 C 
ATOM      9  C   UNL A   1      31.095  24.968  22.746  1.00  0.00     0.024 C 
BRANCH   8  10
ATOM     10  C   UNL A   1      32.689  24.431  24.693  1.00  0.00     0.193 C 
ATOM     11  C   UNL A   1      33.061  25.087  26.038  1.00  0.00     0.076 C 
BRANCH  10  12
ATOM     12  N   UNL A   1      33.773  23.581  24.152  1.00  0.00    -0.329 N 
ATOM     13  C   UNL A   1      34.619  22.867  25.144  1.00  0.00     0.284 C 
ATOM     14  C   UNL A   1      33.285  22.575  23.166  1.00  0.00     0.284 C 
ATOM     15  H   UNL A   1      34.363  24.281  23.705  1.00  0.00     0.348 HD
ATOM     16  C   UNL A   1      34.007  21.596  25.791  1.00  0.00     0.178 C 
ATOM     17  C   UNL A   1      32.594  21.342  23.784  1.00  0.00     0.178 C 
ATOM     18  N   UNL A   1      33.499  20.705  24.742  1.00  0.00    -0.359 N 
BRANCH  18  19
ATOM     19  C   UNL A   1      33.691  19.338  24.747  1.00  0.00     0.056 A 
ATOM     20  C   UNL A   1      32.580  18.479  24.830  1.00  0.00     0.027 A 
ATOM     21  C   UNL A   1      34.963  18.720  24.669  1.00  0.00     0.064 A 
ATOM     22  C   UNL A   1      32.718  17.086  24.799  1.00  0.00     0.002 A 
ATOM     23  C   UNL A   1      35.100  17.326  24.631  1.00  0.00     0.023 A 
ATOM     24  Cl  UNL A   1      36.448  19.617  24.719  1.00  0.00    -0.082 Cl
ATOM     25  C   UNL A   1      33.977  16.509  24.690  1.00  0.00     0.002 A 
ENDBRANCH  18  19
ENDBRANCH  10  12
ENDBRANCH   8  10
ENDBRANCH   5   8
ENDBRANCH   3   4
ENDBRANCH   2   3
ENDBRANCH   1   2
BRANCH   1  26
ATOM     26  C   UNL A   1      31.908  30.148  26.067  1.00  0.00     0.002 C 
BRANCH  26  27
ATOM     27  C   UNL A   1      31.603  31.543  26.615  1.00  0.00     0.021 C 
BRANCH  27  28
ATOM     28  C   UNL A   1      32.821  32.331  27.075  1.00  0.00     0.116 C 
BRANCH  28  29
ATOM     29  N   UNL A   1      32.494  33.704  27.425  1.00  0.00    -0.352 N 
ATOM     30  C   UNL A   1      33.051  34.487  28.409  1.00  0.00     0.251 C 
ATOM     31  H   UNL A   1      31.783  34.126  26.891  1.00  0.00     0.163 HD
ATOM     32  O   UNL A   1      32.553  35.571  28.695  1.00  0.00    -0.269 OA
BRANCH  30  33
ATOM     33  C   UNL A   1      34.238  33.988  29.138  1.00  0.00     0.039 A 
ATOM     34  C   UNL A   1      34.082  32.982  30.094  1.00  0.00     0.014 A 
ATOM     35  C   UNL A   1      35.507  34.492  28.843  1.00  0.00     0.014 A 
ATOM     36  C   UNL A   1      35.211  32.432  30.710  1.00  0.00     0.010 A 
ATOM     37  C   UNL A   1      36.630  33.897  29.404  1.00  0.00     0.010 A 
ATOM     38  C   UNL A   1      36.495  32.863  30.345  1.00  0.00    -0.014 A 
BRANCH  38  39
ATOM     39  C   UNL A   1      37.725  32.285  30.947  1.00  0.00     0.031 A 
ATOM     40  C   UNL A   1      38.492  31.241  30.186  1.00  0.00     0.074 A 
ATOM     41  C   UNL A   1      38.079  32.604  32.207  1.00  0.00     0.049 A 
ATOM     42  N   UNL A   1      39.458  30.458  30.590  1.00  0.00    -0.248 NA
ATOM     43  C   UNL A   1      38.078  31.022  28.793  1.00  0.00     0.031 C 
ATOM     44  C   UNL A   1      37.396  33.580  33.056  1.00  0.00     0.029 A 
ATOM     45  N   UNL A   1      39.084  32.113  33.003  1.00  0.00    -0.354 N 
ATOM     46  C   UNL A   1      39.742  29.625  29.511  1.00  0.00     0.074 A 
ATOM     47  C   UNL A   1      38.806  29.968  28.462  1.00  0.00     0.031 C 
ATOM     48  C   UNL A   1      37.996  33.611  34.257  1.00  0.00     0.029 A 
ATOM     49  C   UNL A   1      39.073  32.623  34.281  1.00  0.00     0.049 A 
ATOM     50  H   UNL A   1      39.749  31.459  32.690  1.00  0.00     0.167 HD
ATOM     51  C   UNL A   1      40.706  28.677  29.403  1.00  0.00     0.034 A 
ATOM     52  C   UNL A   1      39.820  32.308  35.357  1.00  0.00     0.034 A 
ATOM     53  C   UNL A   1      41.642  28.367  30.458  1.00  0.00     0.049 A 
ATOM     54  C   UNL A   1      40.882  31.247  35.227  1.00  0.00     0.074 A 
ATOM     55  C   UNL A   1      42.698  27.475  30.442  1.00  0.00     0.029 A 
ATOM     56  N   UNL A   1      41.625  28.938  31.725  1.00  0.00    -0.354 N 
ATOM     57  N   UNL A   1      41.168  30.491  34.192  1.00  0.00    -0.248 NA
ATOM     58  C   UNL A   1      41.726  31.002  36.403  1.00  0.00     0.031 C 
ATOM     59  C   UNL A   1      43.279  27.457  31.715  1.00  0.00     0.029 A 
ATOM     60  C   UNL A   1      42.635  28.396  32.506  1.00  0.00     0.049 A 
ATOM     61  H   UNL A   1      40.988  29.626  32.025  1.00  0.00     0.167 HD
ATOM     62  C   UNL A   1      42.247  29.704  34.583  1.00  0.00     0.074 A 
ATOM     63  C   UNL A   1      42.557  30.074  35.950  1.00  0.00     0.031 C 
ATOM     64  C   UNL A   1      42.929  28.773  33.869  1.00  0.00     0.034 A 
BRANCH  51  65
ATOM     65  C   UNL A   1      40.758  27.891  28.113  1.00  0.00     0.023 A 
ATOM     66  C   UNL A   1      40.169  26.620  27.997  1.00  0.00     0.031 A 
ATOM     67  C   UNL A   1      41.471  28.385  27.005  1.00  0.00     0.131 A 
ATOM     68  C   UNL A   1      40.398  25.841  26.853  1.00  0.00     0.055 A 
ATOM     69  C   UNL A   1      41.610  27.645  25.829  1.00  0.00     0.041 A 
ATOM     70  F   UNL A   1      42.072  29.584  27.057  1.00  0.00    -0.206 F 
ATOM     71  C   UNL A   1      41.093  26.355  25.757  1.00  0.00     0.022 A 
BRANCH  68  72
ATOM     72  S   UNL A   1      39.951  24.084  26.905  1.00  0.00     0.124 S 
ATOM     73  O   UNL A   1      38.642  24.093  26.255  1.00  0.00    -0.237 OA
ATOM     74  O   UNL A   1      41.034  23.462  26.152  1.00  0.00    -0.237 OA
ATOM     75  O   UNL A   1      39.926  23.779  28.334  1.00  0.00    -0.744 OA
ENDBRANCH  68  72
ENDBRANCH  51  65
BRANCH  52  76
ATOM     76  C   UNL A   1      39.568  32.990  36.658  1.00  0.00     0.023 A 
ATOM     77  C   UNL A   1      38.664  32.462  37.591  1.00  0.00     0.031 A 
ATOM     78  C   UNL A   1      40.244  34.178  36.988  1.00  0.00     0.131 A 
ATOM     79  C   UNL A   1      38.440  33.136  38.803  1.00  0.00     0.055 A 
ATOM     80  C   UNL A   1      40.049  34.821  38.211  1.00  0.00     0.041 A 
ATOM     81  F   UNL A   1      41.128  34.715  36.132  1.00  0.00    -0.206 F 
ATOM     82  C   UNL A   1      39.136  34.304  39.124  1.00  0.00     0.022 A 
BRANCH  79  83
ATOM     83  S   UNL A   1      37.194  32.480  39.946  1.00  0.00     0.124 S 
ATOM     84  O   UNL A   1      37.257  33.446  41.038  1.00  0.00    -0.237 OA
ATOM     85  O   UNL A   1      35.985  32.510  39.129  1.00  0.00    -0.237 OA
ATOM     86  O   UNL A   1      37.693  31.144  40.264  1.00  0.00    -0.744 OA
ENDBRANCH  79  83
ENDBRANCH  52  76
BRANCH  64  87
ATOM     87  C   UNL A   1      44.122  28.129  34.530  1.00  0.00     0.023 A 
ATOM     88  C   UNL A   1      45.400  28.712  34.495  1.00  0.00     0.031 A 
ATOM     89  C   UNL A   1      43.957  26.926  35.241  1.00  0.00     0.131 A 
ATOM     90  C   UNL A   1      46.473  28.074  35.139  1.00  0.00     0.055 A 
ATOM     91  C   UNL A   1      45.017  26.322  35.917  1.00  0.00     0.041 A 
ATOM     92  F   UNL A   1      42.756  26.330  35.304  1.00  0.00    -0.206 F 
ATOM     93  C   UNL A   1      46.285  26.893  35.864  1.00  0.00     0.022 A 
BRANCH  90  94
ATOM     94  S   UNL A   1      48.134  28.786  34.985  1.00  0.00     0.124 S 
ATOM     95  O   UNL A   1      47.885  29.961  34.156  1.00  0.00    -0.237 OA
ATOM     96  O   UNL A   1      48.494  29.049  36.374  1.00  0.00    -0.237 OA
ATOM     97  O   UNL A   1      48.904  27.724  34.338  1.00  0.00    -0.744 OA
ENDBRANCH  90  94
ENDBRANCH  64  87
ENDBRANCH  38  39
ENDBRANCH  30  33
ENDBRANCH  28  29
ENDBRANCH  27  28
ENDBRANCH  26  27
ENDBRANCH   1  26
TORSDOF 19
ENDMDL
