MODEL 1
REMARK VINA RESULT:     -10.8      0.000      0.000
REMARK SMILES C[NH2+][C@]1(C(=O)NCCCCCCNC(=O)c2ccc(-c3c4nc(c(-c5cc(S(=O)(=O)[O-])ccc5F)c5ccc([nH]5)c(-c5cc(S(=O)(=O)[O-])ccc5F)c5nc(c(-c6cc(S(=O)(=O)[O-])ccc6F)c6ccc3[nH]6)C=C5)C=C4)cc2)CCC[C@@H]1CCOC[C@@H]1CCCO1
REMARK SMILES IDX 8 1 7 2 6 3 4 4 5 5 3 7 79 8 82 9 80 10 81 11 2 12 1 13
REMARK SMILES IDX 83 16 84 17 85 18 86 19 87 20 88 21 91 22 89 23 90 24 9 25
REMARK SMILES IDX 10 26 11 27 12 28 13 29 14 30 15 32 16 33 17 34 78 35 18 36
REMARK SMILES IDX 77 37 19 38 20 39 21 40 71 41 22 42 76 43 70 44 72 45 23 46
REMARK SMILES IDX 75 47 69 48 68 49 24 51 56 52 36 53 55 54 37 55 40 56 54 57
REMARK SMILES IDX 73 58 38 59 39 60 53 62 74 63 41 64 25 65 26 66 34 67 27 68
REMARK SMILES IDX 33 69 35 70 32 71 28 72 29 73 30 74 31 75 57 76 58 77 66 78
REMARK SMILES IDX 59 79 65 80 67 81 64 82 60 83 61 84 62 85 63 86 42 87 43 88
REMARK SMILES IDX 51 89 44 90 50 91 52 92 49 93 45 94 46 95 47 96 48 97
REMARK H PARENT 6 6 2 14 2 15 13 31 72 50 40 61
REMARK Flexibility Score: inf
ROOT
ATOM      1  C   UNL A   1      31.435  28.053  26.747  1.00  0.00     0.021 C 
ENDROOT
BRANCH   1   2
ATOM      2  C   UNL A   1      32.000  27.515  25.432  1.00  0.00     0.116 C 
BRANCH   2   3
ATOM      3  N   UNL A   1      31.182  26.418  24.958  1.00  0.00    -0.351 N 
ATOM      4  C   UNL A   1      31.465  25.339  24.184  1.00  0.00     0.281 C 
ATOM      5  O   UNL A   1      30.481  24.732  23.735  1.00  0.00    -0.268 OA
ATOM      6  H   UNL A   1      30.243  26.463  25.252  1.00  0.00     0.163 HD
BRANCH   4   7
ATOM      7  C   UNL A   1      32.907  24.767  23.953  1.00  0.00     0.178 C 
ATOM      8  C   UNL A   1      34.034  25.226  24.900  1.00  0.00     0.079 C 
ATOM      9  C   UNL A   1      32.916  23.230  24.219  1.00  0.00     0.063 C 
ATOM     10  C   UNL A   1      35.080  24.105  24.881  1.00  0.00     0.008 C 
ATOM     11  C   UNL A   1      34.422  22.915  24.177  1.00  0.00     0.011 C 
BRANCH   7  12
ATOM     12  N   UNL A   1      33.252  24.962  22.503  1.00  0.00    -0.336 N 
ATOM     13  C   UNL A   1      33.057  26.310  21.993  1.00  0.00     0.331 C 
ATOM     14  H   UNL A   1      34.233  24.717  22.377  1.00  0.00     0.346 HD
ATOM     15  H   UNL A   1      32.609  24.368  21.979  1.00  0.00     0.346 HD
ENDBRANCH   7  12
BRANCH   9  16
ATOM     16  C   UNL A   1      32.057  22.390  23.255  1.00  0.00     0.039 C 
BRANCH  16  17
ATOM     17  C   UNL A   1      32.382  20.893  23.193  1.00  0.00     0.161 C 
BRANCH  17  18
ATOM     18  O   UNL A   1      32.220  20.206  24.426  1.00  0.00    -0.379 OA
BRANCH  18  19
ATOM     19  C   UNL A   1      33.271  19.400  24.955  1.00  0.00     0.192 C 
BRANCH  19  20
ATOM     20  C   UNL A   1      33.327  17.915  24.554  1.00  0.00     0.144 C 
ATOM     21  C   UNL A   1      32.627  16.948  25.492  1.00  0.00     0.037 C 
ATOM     22  O   UNL A   1      34.677  17.448  24.397  1.00  0.00    -0.376 OA
ATOM     23  C   UNL A   1      33.396  15.669  25.302  1.00  0.00     0.031 C 
ATOM     24  C   UNL A   1      34.798  16.172  25.036  1.00  0.00     0.160 C 
ENDBRANCH  19  20
ENDBRANCH  18  19
ENDBRANCH  17  18
ENDBRANCH  16  17
ENDBRANCH   9  16
ENDBRANCH   4   7
ENDBRANCH   2   3
ENDBRANCH   1   2
BRANCH   1  25
ATOM     25  C   UNL A   1      31.893  29.485  27.059  1.00  0.00     0.002 C 
BRANCH  25  26
ATOM     26  C   UNL A   1      31.495  30.529  26.009  1.00  0.00     0.002 C 
BRANCH  26  27
ATOM     27  C   UNL A   1      31.434  31.970  26.526  1.00  0.00     0.021 C 
BRANCH  27  28
ATOM     28  C   UNL A   1      32.763  32.504  27.052  1.00  0.00     0.116 C 
BRANCH  28  29
ATOM     29  N   UNL A   1      32.636  33.868  27.540  1.00  0.00    -0.352 N 
ATOM     30  C   UNL A   1      33.267  34.468  28.598  1.00  0.00     0.251 C 
ATOM     31  H   UNL A   1      32.009  34.440  27.042  1.00  0.00     0.163 HD
ATOM     32  O   UNL A   1      32.852  35.548  29.025  1.00  0.00    -0.269 OA
BRANCH  30  33
ATOM     33  C   UNL A   1      34.429  33.812  29.234  1.00  0.00     0.039 A 
ATOM     34  C   UNL A   1      35.717  34.245  28.912  1.00  0.00     0.014 A 
ATOM     35  C   UNL A   1      34.246  32.763  30.141  1.00  0.00     0.014 A 
ATOM     36  C   UNL A   1      36.820  33.665  29.544  1.00  0.00     0.010 A 
ATOM     37  C   UNL A   1      35.340  32.237  30.823  1.00  0.00     0.010 A 
ATOM     38  C   UNL A   1      36.639  32.679  30.528  1.00  0.00    -0.014 A 
BRANCH  38  39
ATOM     39  C   UNL A   1      37.797  32.093  31.254  1.00  0.00     0.031 A 
ATOM     40  C   UNL A   1      38.599  30.986  30.626  1.00  0.00     0.074 A 
ATOM     41  C   UNL A   1      38.089  32.519  32.499  1.00  0.00     0.049 A 
ATOM     42  N   UNL A   1      39.592  30.296  31.124  1.00  0.00    -0.248 NA
ATOM     43  C   UNL A   1      38.211  30.582  29.266  1.00  0.00     0.031 C 
ATOM     44  C   UNL A   1      37.363  33.564  33.225  1.00  0.00     0.029 A 
ATOM     45  N   UNL A   1      39.067  32.125  33.378  1.00  0.00    -0.354 N 
ATOM     46  C   UNL A   1      39.942  29.371  30.146  1.00  0.00     0.074 A 
ATOM     47  C   UNL A   1      39.010  29.547  29.053  1.00  0.00     0.031 C 
ATOM     48  C   UNL A   1      37.937  33.746  34.425  1.00  0.00     0.029 A 
ATOM     49  C   UNL A   1      39.037  32.800  34.578  1.00  0.00     0.049 A 
ATOM     50  H   UNL A   1      39.726  31.425  33.170  1.00  0.00     0.167 HD
ATOM     51  C   UNL A   1      40.961  28.476  30.151  1.00  0.00     0.034 A 
ATOM     52  C   UNL A   1      39.803  32.663  35.679  1.00  0.00     0.034 A 
ATOM     53  C   UNL A   1      41.886  28.321  31.247  1.00  0.00     0.049 A 
ATOM     54  C   UNL A   1      40.906  31.635  35.674  1.00  0.00     0.074 A 
ATOM     55  C   UNL A   1      42.983  27.480  31.337  1.00  0.00     0.029 A 
ATOM     56  N   UNL A   1      41.821  29.016  32.449  1.00  0.00    -0.354 N 
ATOM     57  N   UNL A   1      41.253  30.799  34.722  1.00  0.00    -0.248 NA
ATOM     58  C   UNL A   1      41.728  31.540  36.887  1.00  0.00     0.031 C 
ATOM     59  C   UNL A   1      43.533  27.612  32.617  1.00  0.00     0.029 A 
ATOM     60  C   UNL A   1      42.835  28.596  33.297  1.00  0.00     0.049 A 
ATOM     61  H   UNL A   1      41.152  29.703  32.666  1.00  0.00     0.167 HD
ATOM     62  C   UNL A   1      42.355  30.103  35.211  1.00  0.00     0.074 A 
ATOM     63  C   UNL A   1      42.623  30.629  36.534  1.00  0.00     0.031 C 
ATOM     64  C   UNL A   1      43.085  29.122  34.619  1.00  0.00     0.034 A 
BRANCH  51  65
ATOM     65  C   UNL A   1      41.106  27.580  28.942  1.00  0.00     0.023 A 
ATOM     66  C   UNL A   1      42.095  27.809  27.967  1.00  0.00     0.031 A 
ATOM     67  C   UNL A   1      40.232  26.496  28.747  1.00  0.00     0.131 A 
ATOM     68  C   UNL A   1      42.134  27.017  26.809  1.00  0.00     0.055 A 
ATOM     69  C   UNL A   1      40.332  25.659  27.634  1.00  0.00     0.041 A 
ATOM     70  F   UNL A   1      39.254  26.240  29.630  1.00  0.00    -0.206 F 
ATOM     71  C   UNL A   1      41.278  25.927  26.648  1.00  0.00     0.022 A 
BRANCH  68  72
ATOM     72  S   UNL A   1      43.221  27.528  25.450  1.00  0.00     0.124 S 
ATOM     73  O   UNL A   1      43.727  26.240  24.977  1.00  0.00    -0.237 OA
ATOM     74  O   UNL A   1      42.303  28.221  24.554  1.00  0.00    -0.237 OA
ATOM     75  O   UNL A   1      44.215  28.375  26.106  1.00  0.00    -0.744 OA
ENDBRANCH  68  72
ENDBRANCH  51  65
BRANCH  52  76
ATOM     76  C   UNL A   1      39.554  33.507  36.883  1.00  0.00     0.023 A 
ATOM     77  C   UNL A   1      38.966  32.966  38.037  1.00  0.00     0.031 A 
ATOM     78  C   UNL A   1      39.858  34.882  36.882  1.00  0.00     0.131 A 
ATOM     79  C   UNL A   1      38.652  33.800  39.121  1.00  0.00     0.055 A 
ATOM     80  C   UNL A   1      39.598  35.695  37.985  1.00  0.00     0.041 A 
ATOM     81  F   UNL A   1      40.424  35.452  35.806  1.00  0.00    -0.206 F 
ATOM     82  C   UNL A   1      38.978  35.158  39.109  1.00  0.00     0.022 A 
BRANCH  79  83
ATOM     83  S   UNL A   1      37.726  33.101  40.513  1.00  0.00     0.124 S 
ATOM     84  O   UNL A   1      36.388  32.978  39.947  1.00  0.00    -0.237 OA
ATOM     85  O   UNL A   1      38.438  31.851  40.754  1.00  0.00    -0.237 OA
ATOM     86  O   UNL A   1      37.872  34.111  41.560  1.00  0.00    -0.744 OA
ENDBRANCH  79  83
ENDBRANCH  52  76
BRANCH  64  87
ATOM     87  C   UNL A   1      44.273  28.592  35.386  1.00  0.00     0.023 A 
ATOM     88  C   UNL A   1      44.166  27.488  36.251  1.00  0.00     0.031 A 
ATOM     89  C   UNL A   1      45.529  29.209  35.256  1.00  0.00     0.131 A 
ATOM     90  C   UNL A   1      45.281  27.072  36.995  1.00  0.00     0.055 A 
ATOM     91  C   UNL A   1      46.651  28.751  35.948  1.00  0.00     0.041 A 
ATOM     92  F   UNL A   1      45.689  30.270  34.447  1.00  0.00    -0.206 F 
ATOM     93  C   UNL A   1      46.527  27.685  36.835  1.00  0.00     0.022 A 
BRANCH  90  94
ATOM     94  S   UNL A   1      45.058  25.782  38.249  1.00  0.00     0.124 S 
ATOM     95  O   UNL A   1      46.391  25.698  38.838  1.00  0.00    -0.237 OA
ATOM     96  O   UNL A   1      44.021  26.351  39.102  1.00  0.00    -0.237 OA
ATOM     97  O   UNL A   1      44.649  24.614  37.471  1.00  0.00    -0.744 OA
ENDBRANCH  90  94
ENDBRANCH  64  87
ENDBRANCH  38  39
ENDBRANCH  30  33
ENDBRANCH  28  29
ENDBRANCH  27  28
ENDBRANCH  26  27
ENDBRANCH  25  26
ENDBRANCH   1  25
TORSDOF 22
ENDMDL
MODEL 2
REMARK VINA RESULT:     -10.4      1.915      2.270
REMARK SMILES C[NH2+][C@]1(C(=O)NCCCCCCNC(=O)c2ccc(-c3c4nc(c(-c5cc(S(=O)(=O)[O-])ccc5F)c5ccc([nH]5)c(-c5cc(S(=O)(=O)[O-])ccc5F)c5nc(c(-c6cc(S(=O)(=O)[O-])ccc6F)c6ccc3[nH]6)C=C5)C=C4)cc2)CCC[C@@H]1CCOC[C@@H]1CCCO1
REMARK SMILES IDX 8 1 7 2 6 3 4 4 5 5 3 7 79 8 82 9 80 10 81 11 2 12 1 13
REMARK SMILES IDX 83 16 84 17 85 18 86 19 87 20 88 21 91 22 89 23 90 24 9 25
REMARK SMILES IDX 10 26 11 27 12 28 13 29 14 30 15 32 16 33 17 34 78 35 18 36
REMARK SMILES IDX 77 37 19 38 20 39 21 40 71 41 22 42 76 43 70 44 72 45 23 46
REMARK SMILES IDX 75 47 69 48 68 49 24 51 56 52 36 53 55 54 37 55 40 56 54 57
REMARK SMILES IDX 73 58 38 59 39 60 53 62 74 63 41 64 25 65 26 66 34 67 27 68
REMARK SMILES IDX 33 69 35 70 32 71 28 72 29 73 30 74 31 75 57 76 58 77 66 78
REMARK SMILES IDX 59 79 65 80 67 81 64 82 60 83 61 84 62 85 63 86 42 87 43 88
REMARK SMILES IDX 51 89 44 90 50 91 52 92 49 93 45 94 46 95 47 96 48 97
REMARK H PARENT 6 6 2 14 2 15 13 31 72 50 40 61
REMARK Flexibility Score: inf
ROOT
ATOM      1  C   UNL A   1      31.414  27.891  26.785  1.00  0.00     0.021 C 
ENDROOT
BRANCH   1   2
ATOM      2  C   UNL A   1      31.252  27.439  25.333  1.00  0.00     0.116 C 
BRANCH   2   3
ATOM      3  N   UNL A   1      30.880  26.040  25.292  1.00  0.00    -0.351 N 
ATOM      4  C   UNL A   1      31.467  24.958  24.719  1.00  0.00     0.281 C 
ATOM      5  O   UNL A   1      30.753  23.946  24.636  1.00  0.00    -0.268 OA
ATOM      6  H   UNL A   1      30.044  25.834  25.771  1.00  0.00     0.163 HD
BRANCH   4   7
ATOM      7  C   UNL A   1      32.975  24.885  24.299  1.00  0.00     0.178 C 
ATOM      8  C   UNL A   1      34.044  25.224  25.359  1.00  0.00     0.079 C 
ATOM      9  C   UNL A   1      33.362  23.412  23.963  1.00  0.00     0.063 C 
ATOM     10  C   UNL A   1      35.315  24.483  24.924  1.00  0.00     0.008 C 
ATOM     11  C   UNL A   1      34.890  23.515  23.816  1.00  0.00     0.011 C 
BRANCH   7  12
ATOM     12  N   UNL A   1      33.140  25.681  23.034  1.00  0.00    -0.336 N 
ATOM     13  C   UNL A   1      33.671  27.023  23.208  1.00  0.00     0.331 C 
ATOM     14  H   UNL A   1      33.773  25.169  22.420  1.00  0.00     0.346 HD
ATOM     15  H   UNL A   1      32.202  25.797  22.652  1.00  0.00     0.346 HD
ENDBRANCH   7  12
BRANCH   9  16
ATOM     16  C   UNL A   1      32.640  22.804  22.745  1.00  0.00     0.039 C 
BRANCH  16  17
ATOM     17  C   UNL A   1      32.311  21.309  22.833  1.00  0.00     0.161 C 
BRANCH  17  18
ATOM     18  O   UNL A   1      32.956  20.628  23.900  1.00  0.00    -0.379 OA
BRANCH  18  19
ATOM     19  C   UNL A   1      32.388  19.445  24.458  1.00  0.00     0.192 C 
BRANCH  19  20
ATOM     20  C   UNL A   1      33.318  18.253  24.748  1.00  0.00     0.144 C 
ATOM     21  C   UNL A   1      33.805  17.482  23.535  1.00  0.00     0.037 C 
ATOM     22  O   UNL A   1      32.714  17.301  25.639  1.00  0.00    -0.376 OA
ATOM     23  C   UNL A   1      34.032  16.097  24.076  1.00  0.00     0.031 C 
ATOM     24  C   UNL A   1      32.953  15.983  25.131  1.00  0.00     0.160 C 
ENDBRANCH  19  20
ENDBRANCH  18  19
ENDBRANCH  17  18
ENDBRANCH  16  17
ENDBRANCH   9  16
ENDBRANCH   4   7
ENDBRANCH   2   3
ENDBRANCH   1   2
BRANCH   1  25
ATOM     25  C   UNL A   1      32.067  29.274  26.917  1.00  0.00     0.002 C 
BRANCH  25  26
ATOM     26  C   UNL A   1      31.546  30.326  25.932  1.00  0.00     0.002 C 
BRANCH  26  27
ATOM     27  C   UNL A   1      31.413  31.738  26.511  1.00  0.00     0.021 C 
BRANCH  27  28
ATOM     28  C   UNL A   1      32.701  32.293  27.113  1.00  0.00     0.116 C 
BRANCH  28  29
ATOM     29  N   UNL A   1      32.577  33.706  27.432  1.00  0.00    -0.352 N 
ATOM     30  C   UNL A   1      33.213  34.430  28.406  1.00  0.00     0.251 C 
ATOM     31  H   UNL A   1      31.949  34.214  26.870  1.00  0.00     0.163 HD
ATOM     32  O   UNL A   1      32.801  35.554  28.699  1.00  0.00    -0.269 OA
BRANCH  30  33
ATOM     33  C   UNL A   1      34.377  33.854  29.113  1.00  0.00     0.039 A 
ATOM     34  C   UNL A   1      34.164  32.916  30.125  1.00  0.00     0.014 A 
ATOM     35  C   UNL A   1      35.677  34.247  28.780  1.00  0.00     0.014 A 
ATOM     36  C   UNL A   1      35.259  32.329  30.765  1.00  0.00     0.010 A 
ATOM     37  C   UNL A   1      36.766  33.608  29.366  1.00  0.00     0.010 A 
ATOM     38  C   UNL A   1      36.569  32.646  30.368  1.00  0.00    -0.014 A 
BRANCH  38  39
ATOM     39  C   UNL A   1      37.744  31.987  30.997  1.00  0.00     0.031 A 
ATOM     40  C   UNL A   1      38.513  30.937  30.242  1.00  0.00     0.074 A 
ATOM     41  C   UNL A   1      38.082  32.294  32.264  1.00  0.00     0.049 A 
ATOM     42  N   UNL A   1      39.515  30.196  30.640  1.00  0.00    -0.248 NA
ATOM     43  C   UNL A   1      38.075  30.663  28.865  1.00  0.00     0.031 C 
ATOM     44  C   UNL A   1      37.393  33.273  33.108  1.00  0.00     0.029 A 
ATOM     45  N   UNL A   1      39.086  31.814  33.069  1.00  0.00    -0.354 N 
ATOM     46  C   UNL A   1      39.822  29.362  29.570  1.00  0.00     0.074 A 
ATOM     47  C   UNL A   1      38.856  29.646  28.530  1.00  0.00     0.031 C 
ATOM     48  C   UNL A   1      38.009  33.339  34.299  1.00  0.00     0.029 A 
ATOM     49  C   UNL A   1      39.104  32.375  34.326  1.00  0.00     0.049 A 
ATOM     50  H   UNL A   1      39.730  31.131  32.775  1.00  0.00     0.167 HD
ATOM     51  C   UNL A   1      40.831  28.463  29.457  1.00  0.00     0.034 A 
ATOM     52  C   UNL A   1      39.905  32.132  35.383  1.00  0.00     0.034 A 
ATOM     53  C   UNL A   1      41.792  28.201  30.501  1.00  0.00     0.049 A 
ATOM     54  C   UNL A   1      40.997  31.101  35.245  1.00  0.00     0.074 A 
ATOM     55  C   UNL A   1      42.882  27.348  30.476  1.00  0.00     0.029 A 
ATOM     56  N   UNL A   1      41.775  28.783  31.764  1.00  0.00    -0.354 N 
ATOM     57  N   UNL A   1      41.302  30.353  34.209  1.00  0.00    -0.248 NA
ATOM     58  C   UNL A   1      41.858  30.888  36.415  1.00  0.00     0.031 C 
ATOM     59  C   UNL A   1      43.476  27.357  31.743  1.00  0.00     0.029 A 
ATOM     60  C   UNL A   1      42.812  28.279  32.534  1.00  0.00     0.049 A 
ATOM     61  H   UNL A   1      41.120  29.452  32.066  1.00  0.00     0.167 HD
ATOM     62  C   UNL A   1      42.412  29.608  34.594  1.00  0.00     0.074 A 
ATOM     63  C   UNL A   1      42.731  30.007  35.950  1.00  0.00     0.031 C 
ATOM     64  C   UNL A   1      43.112  28.680  33.889  1.00  0.00     0.034 A 
BRANCH  51  65
ATOM     65  C   UNL A   1      40.926  27.682  28.166  1.00  0.00     0.023 A 
ATOM     66  C   UNL A   1      40.488  26.348  28.076  1.00  0.00     0.031 A 
ATOM     67  C   UNL A   1      41.483  28.268  27.016  1.00  0.00     0.131 A 
ATOM     68  C   UNL A   1      40.684  25.624  26.890  1.00  0.00     0.055 A 
ATOM     69  C   UNL A   1      41.596  27.568  25.813  1.00  0.00     0.041 A 
ATOM     70  F   UNL A   1      41.940  29.530  27.045  1.00  0.00    -0.206 F 
ATOM     71  C   UNL A   1      41.210  26.232  25.750  1.00  0.00     0.022 A 
BRANCH  68  72
ATOM     72  S   UNL A   1      40.382  23.835  26.910  1.00  0.00     0.124 S 
ATOM     73  O   UNL A   1      40.700  23.498  28.296  1.00  0.00    -0.237 OA
ATOM     74  O   UNL A   1      38.975  23.749  26.538  1.00  0.00    -0.237 OA
ATOM     75  O   UNL A   1      41.323  23.318  25.919  1.00  0.00    -0.744 OA
ENDBRANCH  68  72
ENDBRANCH  51  65
BRANCH  52  76
ATOM     76  C   UNL A   1      39.706  32.864  36.667  1.00  0.00     0.023 A 
ATOM     77  C   UNL A   1      38.897  32.332  37.684  1.00  0.00     0.031 A 
ATOM     78  C   UNL A   1      40.284  34.129  36.879  1.00  0.00     0.131 A 
ATOM     79  C   UNL A   1      38.646  33.082  38.844  1.00  0.00     0.055 A 
ATOM     80  C   UNL A   1      40.078  34.845  38.059  1.00  0.00     0.041 A 
ATOM     81  F   UNL A   1      41.068  34.684  35.942  1.00  0.00    -0.206 F 
ATOM     82  C   UNL A   1      39.243  34.329  39.045  1.00  0.00     0.022 A 
BRANCH  79  83
ATOM     83  S   UNL A   1      37.450  32.444  40.047  1.00  0.00     0.124 S 
ATOM     84  O   UNL A   1      37.045  33.662  40.738  1.00  0.00    -0.237 OA
ATOM     85  O   UNL A   1      36.447  31.832  39.182  1.00  0.00    -0.237 OA
ATOM     86  O   UNL A   1      38.239  31.506  40.844  1.00  0.00    -0.744 OA
ENDBRANCH  79  83
ENDBRANCH  52  76
BRANCH  64  87
ATOM     87  C   UNL A   1      44.319  28.073  34.563  1.00  0.00     0.023 A 
ATOM     88  C   UNL A   1      45.599  28.644  34.449  1.00  0.00     0.031 A 
ATOM     89  C   UNL A   1      44.187  26.896  35.321  1.00  0.00     0.131 A 
ATOM     90  C   UNL A   1      46.704  28.007  35.035  1.00  0.00     0.055 A 
ATOM     91  C   UNL A   1      45.277  26.302  35.957  1.00  0.00     0.041 A 
ATOM     92  F   UNL A   1      42.989  26.304  35.461  1.00  0.00    -0.206 F 
ATOM     93  C   UNL A   1      46.548  26.849  35.804  1.00  0.00     0.022 A 
BRANCH  90  94
ATOM     94  S   UNL A   1      48.363  28.656  34.698  1.00  0.00     0.124 S 
ATOM     95  O   UNL A   1      48.902  27.651  33.788  1.00  0.00    -0.237 OA
ATOM     96  O   UNL A   1      48.075  29.959  34.110  1.00  0.00    -0.237 OA
ATOM     97  O   UNL A   1      48.990  28.697  36.018  1.00  0.00    -0.744 OA
ENDBRANCH  90  94
ENDBRANCH  64  87
ENDBRANCH  38  39
ENDBRANCH  30  33
ENDBRANCH  28  29
ENDBRANCH  27  28
ENDBRANCH  26  27
ENDBRANCH  25  26
ENDBRANCH   1  25
TORSDOF 22
ENDMDL
MODEL 3
REMARK VINA RESULT:     -10.2      2.117      7.794
REMARK SMILES C[NH2+][C@]1(C(=O)NCCCCCCNC(=O)c2ccc(-c3c4nc(c(-c5cc(S(=O)(=O)[O-])ccc5F)c5ccc([nH]5)c(-c5cc(S(=O)(=O)[O-])ccc5F)c5nc(c(-c6cc(S(=O)(=O)[O-])ccc6F)c6ccc3[nH]6)C=C5)C=C4)cc2)CCC[C@@H]1CCOC[C@@H]1CCCO1
REMARK SMILES IDX 8 1 7 2 6 3 4 4 5 5 3 7 79 8 82 9 80 10 81 11 2 12 1 13
REMARK SMILES IDX 83 16 84 17 85 18 86 19 87 20 88 21 91 22 89 23 90 24 9 25
REMARK SMILES IDX 10 26 11 27 12 28 13 29 14 30 15 32 16 33 17 34 78 35 18 36
REMARK SMILES IDX 77 37 19 38 20 39 21 40 71 41 22 42 76 43 70 44 72 45 23 46
REMARK SMILES IDX 75 47 69 48 68 49 24 51 56 52 36 53 55 54 37 55 40 56 54 57
REMARK SMILES IDX 73 58 38 59 39 60 53 62 74 63 41 64 25 65 26 66 34 67 27 68
REMARK SMILES IDX 33 69 35 70 32 71 28 72 29 73 30 74 31 75 57 76 58 77 66 78
REMARK SMILES IDX 59 79 65 80 67 81 64 82 60 83 61 84 62 85 63 86 42 87 43 88
REMARK SMILES IDX 51 89 44 90 50 91 52 92 49 93 45 94 46 95 47 96 48 97
REMARK H PARENT 6 6 2 14 2 15 13 31 72 50 40 61
REMARK Flexibility Score: inf
ROOT
ATOM      1  C   UNL A   1      31.421  28.218  26.545  1.00  0.00     0.021 C 
ENDROOT
BRANCH   1   2
ATOM      2  C   UNL A   1      30.992  27.287  25.410  1.00  0.00     0.116 C 
BRANCH   2   3
ATOM      3  N   UNL A   1      30.945  25.921  25.886  1.00  0.00    -0.351 N 
ATOM      4  C   UNL A   1      31.645  24.810  25.538  1.00  0.00     0.281 C 
ATOM      5  O   UNL A   1      31.176  23.735  25.944  1.00  0.00    -0.268 OA
ATOM      6  H   UNL A   1      30.281  25.767  26.598  1.00  0.00     0.163 HD
BRANCH   4   7
ATOM      7  C   UNL A   1      33.027  24.828  24.798  1.00  0.00     0.178 C 
ATOM      8  C   UNL A   1      34.306  24.995  25.644  1.00  0.00     0.079 C 
ATOM      9  C   UNL A   1      33.295  23.439  24.142  1.00  0.00     0.063 C 
ATOM     10  C   UNL A   1      35.435  24.355  24.827  1.00  0.00     0.008 C 
ATOM     11  C   UNL A   1      34.759  23.585  23.689  1.00  0.00     0.011 C 
BRANCH   7  12
ATOM     12  N   UNL A   1      32.936  25.830  23.679  1.00  0.00    -0.336 N 
ATOM     13  C   UNL A   1      33.803  26.989  23.811  1.00  0.00     0.331 C 
ATOM     14  H   UNL A   1      33.176  25.353  22.810  1.00  0.00     0.346 HD
ATOM     15  H   UNL A   1      31.981  26.188  23.701  1.00  0.00     0.346 HD
ENDBRANCH   7  12
BRANCH   9  16
ATOM     16  C   UNL A   1      32.315  23.038  23.024  1.00  0.00     0.039 C 
BRANCH  16  17
ATOM     17  C   UNL A   1      32.140  21.533  22.787  1.00  0.00     0.161 C 
BRANCH  17  18
ATOM     18  O   UNL A   1      32.919  20.710  23.644  1.00  0.00    -0.379 OA
BRANCH  18  19
ATOM     19  C   UNL A   1      32.383  19.502  24.178  1.00  0.00     0.192 C 
BRANCH  19  20
ATOM     20  C   UNL A   1      33.361  18.386  24.588  1.00  0.00     0.144 C 
ATOM     21  C   UNL A   1      33.700  17.372  23.512  1.00  0.00     0.037 C 
ATOM     22  O   UNL A   1      32.892  17.649  25.730  1.00  0.00    -0.376 OA
ATOM     23  C   UNL A   1      34.016  16.129  24.297  1.00  0.00     0.031 C 
ATOM     24  C   UNL A   1      33.084  16.251  25.483  1.00  0.00     0.160 C 
ENDBRANCH  19  20
ENDBRANCH  18  19
ENDBRANCH  17  18
ENDBRANCH  16  17
ENDBRANCH   9  16
ENDBRANCH   4   7
ENDBRANCH   2   3
ENDBRANCH   1   2
BRANCH   1  25
ATOM     25  C   UNL A   1      32.146  29.478  26.051  1.00  0.00     0.002 C 
BRANCH  25  26
ATOM     26  C   UNL A   1      31.223  30.596  25.552  1.00  0.00     0.002 C 
BRANCH  26  27
ATOM     27  C   UNL A   1      31.217  31.859  26.418  1.00  0.00     0.021 C 
BRANCH  27  28
ATOM     28  C   UNL A   1      32.523  32.114  27.164  1.00  0.00     0.116 C 
BRANCH  28  29
ATOM     29  N   UNL A   1      32.711  33.527  27.448  1.00  0.00    -0.352 N 
ATOM     30  C   UNL A   1      33.619  34.128  28.280  1.00  0.00     0.251 C 
ATOM     31  H   UNL A   1      32.100  34.139  26.977  1.00  0.00     0.163 HD
ATOM     32  O   UNL A   1      33.471  35.310  28.595  1.00  0.00    -0.269 OA
BRANCH  30  33
ATOM     33  C   UNL A   1      34.761  33.352  28.808  1.00  0.00     0.039 A 
ATOM     34  C   UNL A   1      36.061  33.745  28.483  1.00  0.00     0.014 A 
ATOM     35  C   UNL A   1      34.547  32.232  29.618  1.00  0.00     0.014 A 
ATOM     36  C   UNL A   1      37.148  33.049  29.017  1.00  0.00     0.010 A 
ATOM     37  C   UNL A   1      35.630  31.586  30.208  1.00  0.00     0.010 A 
ATOM     38  C   UNL A   1      36.943  31.984  29.910  1.00  0.00    -0.014 A 
BRANCH  38  39
ATOM     39  C   UNL A   1      38.087  31.270  30.535  1.00  0.00     0.031 A 
ATOM     40  C   UNL A   1      38.529  31.627  31.928  1.00  0.00     0.074 A 
ATOM     41  C   UNL A   1      38.761  30.343  29.827  1.00  0.00     0.049 A 
ATOM     42  N   UNL A   1      39.546  31.176  32.616  1.00  0.00    -0.248 NA
ATOM     43  C   UNL A   1      37.738  32.651  32.628  1.00  0.00     0.031 C 
ATOM     44  C   UNL A   1      38.446  29.934  28.455  1.00  0.00     0.029 A 
ATOM     45  N   UNL A   1      39.853  29.578  30.156  1.00  0.00    -0.354 N 
ATOM     46  C   UNL A   1      39.525  31.865  33.824  1.00  0.00     0.074 A 
ATOM     47  C   UNL A   1      38.432  32.811  33.745  1.00  0.00     0.031 C 
ATOM     48  C   UNL A   1      39.306  28.977  28.073  1.00  0.00     0.029 A 
ATOM     49  C   UNL A   1      40.265  28.737  29.146  1.00  0.00     0.049 A 
ATOM     50  H   UNL A   1      40.300  29.627  31.031  1.00  0.00     0.167 HD
ATOM     51  C   UNL A   1      40.326  31.706  34.907  1.00  0.00     0.034 A 
ATOM     52  C   UNL A   1      41.304  27.880  29.089  1.00  0.00     0.034 A 
ATOM     53  C   UNL A   1      41.406  30.751  34.971  1.00  0.00     0.049 A 
ATOM     54  C   UNL A   1      42.204  27.748  30.292  1.00  0.00     0.074 A 
ATOM     55  C   UNL A   1      42.248  30.472  36.033  1.00  0.00     0.029 A 
ATOM     56  N   UNL A   1      41.799  29.922  33.926  1.00  0.00    -0.354 N 
ATOM     57  N   UNL A   1      42.141  28.375  31.445  1.00  0.00    -0.248 NA
ATOM     58  C   UNL A   1      43.307  26.784  30.191  1.00  0.00     0.031 C 
ATOM     59  C   UNL A   1      43.195  29.533  35.608  1.00  0.00     0.029 A 
ATOM     60  C   UNL A   1      42.893  29.160  34.309  1.00  0.00     0.049 A 
ATOM     61  H   UNL A   1      41.365  29.883  33.044  1.00  0.00     0.167 HD
ATOM     62  C   UNL A   1      43.177  27.855  32.216  1.00  0.00     0.074 A 
ATOM     63  C   UNL A   1      43.836  26.853  31.403  1.00  0.00     0.031 C 
ATOM     64  C   UNL A   1      43.547  28.171  33.484  1.00  0.00     0.034 A 
BRANCH  51  65
ATOM     65  C   UNL A   1      40.077  32.606  36.096  1.00  0.00     0.023 A 
ATOM     66  C   UNL A   1      39.207  32.232  37.135  1.00  0.00     0.031 A 
ATOM     67  C   UNL A   1      40.700  33.864  36.182  1.00  0.00     0.131 A 
ATOM     68  C   UNL A   1      38.924  33.135  38.172  1.00  0.00     0.055 A 
ATOM     69  C   UNL A   1      40.480  34.722  37.260  1.00  0.00     0.041 A 
ATOM     70  F   UNL A   1      41.523  34.286  35.210  1.00  0.00    -0.206 F 
ATOM     71  C   UNL A   1      39.575  34.367  38.256  1.00  0.00     0.022 A 
BRANCH  68  72
ATOM     72  S   UNL A   1      37.579  32.736  39.323  1.00  0.00     0.124 S 
ATOM     73  O   UNL A   1      37.934  31.378  39.729  1.00  0.00    -0.237 OA
ATOM     74  O   UNL A   1      37.722  33.767  40.344  1.00  0.00    -0.237 OA
ATOM     75  O   UNL A   1      36.379  32.838  38.495  1.00  0.00    -0.744 OA
ENDBRANCH  68  72
ENDBRANCH  51  65
BRANCH  52  76
ATOM     76  C   UNL A   1      41.562  27.086  27.854  1.00  0.00     0.023 A 
ATOM     77  C   UNL A   1      41.315  25.704  27.818  1.00  0.00     0.031 A 
ATOM     78  C   UNL A   1      42.105  27.687  26.703  1.00  0.00     0.131 A 
ATOM     79  C   UNL A   1      41.657  24.961  26.677  1.00  0.00     0.055 A 
ATOM     80  C   UNL A   1      42.389  26.953  25.551  1.00  0.00     0.041 A 
ATOM     81  F   UNL A   1      42.359  29.005  26.681  1.00  0.00    -0.206 F 
ATOM     82  C   UNL A   1      42.178  25.578  25.538  1.00  0.00     0.022 A 
BRANCH  79  83
ATOM     83  S   UNL A   1      41.496  23.156  26.739  1.00  0.00     0.124 S 
ATOM     84  O   UNL A   1      40.063  22.978  26.537  1.00  0.00    -0.237 OA
ATOM     85  O   UNL A   1      42.357  22.737  25.638  1.00  0.00    -0.237 OA
ATOM     86  O   UNL A   1      41.986  22.818  28.074  1.00  0.00    -0.744 OA
ENDBRANCH  79  83
ENDBRANCH  52  76
BRANCH  64  87
ATOM     87  C   UNL A   1      44.691  27.386  34.082  1.00  0.00     0.023 A 
ATOM     88  C   UNL A   1      46.021  27.833  33.999  1.00  0.00     0.031 A 
ATOM     89  C   UNL A   1      44.444  26.166  34.736  1.00  0.00     0.131 A 
ATOM     90  C   UNL A   1      47.059  27.038  34.509  1.00  0.00     0.055 A 
ATOM     91  C   UNL A   1      45.472  25.411  35.300  1.00  0.00     0.041 A 
ATOM     92  F   UNL A   1      43.192  25.689  34.842  1.00  0.00    -0.206 F 
ATOM     93  C   UNL A   1      46.791  25.838  35.175  1.00  0.00     0.022 A 
BRANCH  90  94
ATOM     94  S   UNL A   1      48.774  27.543  34.204  1.00  0.00     0.124 S 
ATOM     95  O   UNL A   1      49.174  28.060  35.508  1.00  0.00    -0.237 OA
ATOM     96  O   UNL A   1      49.400  26.291  33.796  1.00  0.00    -0.237 OA
ATOM     97  O   UNL A   1      48.653  28.548  33.149  1.00  0.00    -0.744 OA
ENDBRANCH  90  94
ENDBRANCH  64  87
ENDBRANCH  38  39
ENDBRANCH  30  33
ENDBRANCH  28  29
ENDBRANCH  27  28
ENDBRANCH  26  27
ENDBRANCH  25  26
ENDBRANCH   1  25
TORSDOF 22
ENDMDL
