MODEL 1
REMARK VINA RESULT:      -8.0      0.000      0.000
REMARK SMILES COc1ccc(-c2c(C(=O)NCCCCCCNC(=O)c3ccc(-c4c5nc(c(-c6cc(S(=O)(=O)[O-])ccc6F)c6ccc([nH]6)c(-c6cc(S(=O)(=O)[O-])ccc6F)c6nc(c(-c7cc(S(=O)(=O)[O-])ccc7F)c7ccc4[nH]7)C=C6)C=C5)cc3)sc3c2N=C(O)C[C@H]3c2ccc(OC)c(OC)c2)cc1
REMARK SMILES IDX 15 1 14 2 13 3 12 4 11 5 9 6 10 7 8 9 7 10 86 11 84 12 85 13
REMARK SMILES IDX 87 14 91 15 88 16 90 17 6 18 3 19 4 20 103 21 5 22 102 23
REMARK SMILES IDX 2 24 1 25 92 26 93 27 101 28 94 29 98 30 95 31 99 32 100 33
REMARK SMILES IDX 96 34 97 35 89 36 16 38 17 39 18 40 19 41 20 43 21 44 22 45
REMARK SMILES IDX 83 46 23 47 82 48 24 49 25 50 26 51 76 52 27 53 81 54 75 55
REMARK SMILES IDX 77 56 28 57 80 58 74 59 73 60 29 62 61 63 41 64 60 65 42 66
REMARK SMILES IDX 45 67 59 68 78 69 43 70 44 71 58 73 79 74 46 75 30 76 31 77
REMARK SMILES IDX 39 78 32 79 38 80 40 81 37 82 33 83 34 84 35 85 36 86 62 87
REMARK SMILES IDX 63 88 71 89 64 90 70 91 72 92 69 93 65 94 66 95 67 96 68 97
REMARK SMILES IDX 47 98 48 99 56 100 49 101 55 102 57 103 54 104 50 105 51 106
REMARK SMILES IDX 52 107 53 108
REMARK H PARENT 11 8 89 37 18 42 77 61 45 72
REMARK Flexibility Score: inf
ROOT
ATOM      1  C   UNL A   1      37.862  31.121  33.223  1.00  0.00     0.002 C 
ENDROOT
BRANCH   1   2
ATOM      2  C   UNL A   1      38.727  32.382  33.052  1.00  0.00     0.002 C 
BRANCH   2   3
ATOM      3  C   UNL A   1      40.248  32.246  33.019  1.00  0.00     0.021 C 
BRANCH   3   4
ATOM      4  C   UNL A   1      41.106  33.489  32.824  1.00  0.00     0.116 C 
BRANCH   4   5
ATOM      5  N   UNL A   1      40.760  34.691  33.530  1.00  0.00    -0.351 N 
ATOM      6  C   UNL A   1      41.011  35.080  34.837  1.00  0.00     0.262 C 
ATOM      7  O   UNL A   1      40.622  36.239  35.052  1.00  0.00    -0.268 OA
ATOM      8  H   UNL A   1      40.260  35.350  32.996  1.00  0.00     0.163 HD
BRANCH   6   9
ATOM      9  C   UNL A   1      41.657  34.273  35.907  1.00  0.00     0.102 A 
ATOM     10  C   UNL A   1      41.309  33.379  36.930  1.00  0.00     0.031 A 
ATOM     11  C   UNL A   1      42.435  32.893  37.662  1.00  0.00     0.090 A 
ATOM     12  S   UNL A   1      43.416  34.496  35.979  1.00  0.00    -0.131 S 
ATOM     13  C   UNL A   1      43.603  33.494  37.330  1.00  0.00     0.040 A 
ATOM     14  N   UNL A   1      42.290  31.995  38.728  1.00  0.00    -0.216 NA
ATOM     15  C   UNL A   1      44.866  33.322  38.095  1.00  0.00     0.071 C 
ATOM     16  C   UNL A   1      43.296  31.910  39.526  1.00  0.00     0.186 C 
ATOM     17  C   UNL A   1      44.616  32.622  39.444  1.00  0.00     0.111 C 
BRANCH  10  18
ATOM     18  C   UNL A   1      39.993  33.116  37.466  1.00  0.00    -0.014 A 
ATOM     19  C   UNL A   1      37.498  32.391  38.416  1.00  0.00     0.118 A 
ATOM     20  C   UNL A   1      38.252  33.354  39.096  1.00  0.00     0.047 A 
ATOM     21  C   UNL A   1      37.928  31.885  37.191  1.00  0.00     0.047 A 
ATOM     22  C   UNL A   1      39.509  33.728  38.620  1.00  0.00     0.012 A 
ATOM     23  C   UNL A   1      39.178  32.244  36.720  1.00  0.00     0.012 A 
BRANCH  19  24
ATOM     24  O   UNL A   1      36.354  31.967  39.033  1.00  0.00    -0.497 OA
ATOM     25  C   UNL A   1      36.600  31.462  40.346  1.00  0.00     0.278 C 
ENDBRANCH  19  24
ENDBRANCH  10  18
BRANCH  15  26
ATOM     26  C   UNL A   1      45.943  32.611  37.301  1.00  0.00    -0.035 A 
ATOM     27  C   UNL A   1      45.891  31.244  37.028  1.00  0.00     0.008 A 
ATOM     28  C   UNL A   1      47.035  33.359  36.840  1.00  0.00     0.054 A 
ATOM     29  C   UNL A   1      46.922  30.647  36.306  1.00  0.00     0.051 A 
ATOM     30  C   UNL A   1      48.085  32.770  36.124  1.00  0.00     0.161 A 
ATOM     31  C   UNL A   1      48.021  31.392  35.850  1.00  0.00     0.160 A 
BRANCH  30  32
ATOM     32  O   UNL A   1      49.171  33.491  35.701  1.00  0.00    -0.493 OA
ATOM     33  C   UNL A   1      48.961  34.843  35.311  1.00  0.00     0.278 C 
ENDBRANCH  30  32
BRANCH  31  34
ATOM     34  O   UNL A   1      48.925  30.613  35.176  1.00  0.00    -0.493 OA
ATOM     35  C   UNL A   1      49.089  29.266  35.588  1.00  0.00     0.278 C 
ENDBRANCH  31  34
ENDBRANCH  15  26
BRANCH  16  36
ATOM     36  O   UNL A   1      43.165  31.123  40.615  1.00  0.00    -0.496 OA
ATOM     37  H   UNL A   1      42.627  30.356  40.577  1.00  0.00     0.294 HD
ENDBRANCH  16  36
ENDBRANCH   6   9
ENDBRANCH   4   5
ENDBRANCH   3   4
ENDBRANCH   2   3
ENDBRANCH   1   2
BRANCH   1  38
ATOM     38  C   UNL A   1      36.357  31.184  32.920  1.00  0.00     0.021 C 
BRANCH  38  39
ATOM     39  C   UNL A   1      35.877  32.365  32.085  1.00  0.00     0.116 C 
BRANCH  39  40
ATOM     40  N   UNL A   1      35.154  32.014  30.857  1.00  0.00    -0.352 N 
ATOM     41  C   UNL A   1      35.690  31.623  29.628  1.00  0.00     0.251 C 
ATOM     42  H   UNL A   1      34.172  32.059  30.907  1.00  0.00     0.163 HD
ATOM     43  O   UNL A   1      35.037  31.729  28.603  1.00  0.00    -0.269 OA
BRANCH  41  44
ATOM     44  C   UNL A   1      37.066  31.071  29.594  1.00  0.00     0.039 A 
ATOM     45  C   UNL A   1      38.222  31.855  29.497  1.00  0.00     0.014 A 
ATOM     46  C   UNL A   1      37.177  29.695  29.686  1.00  0.00     0.014 A 
ATOM     47  C   UNL A   1      39.478  31.234  29.591  1.00  0.00     0.010 A 
ATOM     48  C   UNL A   1      38.376  29.131  30.012  1.00  0.00     0.010 A 
ATOM     49  C   UNL A   1      39.546  29.861  29.871  1.00  0.00    -0.014 A 
BRANCH  49  50
ATOM     50  C   UNL A   1      40.791  29.131  30.116  1.00  0.00     0.031 A 
ATOM     51  C   UNL A   1      41.105  28.852  31.545  1.00  0.00     0.074 A 
ATOM     52  C   UNL A   1      41.448  28.470  29.128  1.00  0.00     0.049 A 
ATOM     53  N   UNL A   1      42.089  29.311  32.241  1.00  0.00    -0.248 NA
ATOM     54  C   UNL A   1      40.156  28.060  32.338  1.00  0.00     0.031 C 
ATOM     55  C   UNL A   1      41.099  28.348  27.703  1.00  0.00     0.029 A 
ATOM     56  N   UNL A   1      42.511  27.630  29.228  1.00  0.00    -0.354 N 
ATOM     57  C   UNL A   1      42.020  28.690  33.488  1.00  0.00     0.074 A 
ATOM     58  C   UNL A   1      40.715  28.089  33.548  1.00  0.00     0.031 C 
ATOM     59  C   UNL A   1      41.754  27.297  27.158  1.00  0.00     0.029 A 
ATOM     60  C   UNL A   1      42.713  26.799  28.126  1.00  0.00     0.049 A 
ATOM     61  H   UNL A   1      43.096  27.609  30.019  1.00  0.00     0.167 HD
ATOM     62  C   UNL A   1      43.126  28.554  34.274  1.00  0.00     0.034 A 
ATOM     63  C   UNL A   1      43.598  25.770  28.019  1.00  0.00     0.034 A 
ATOM     64  C   UNL A   1      44.210  29.373  33.773  1.00  0.00     0.049 A 
ATOM     65  C   UNL A   1      44.650  26.033  29.037  1.00  0.00     0.074 A 
ATOM     66  C   UNL A   1      44.352  30.724  33.514  1.00  0.00     0.029 A 
ATOM     67  N   UNL A   1      45.205  28.759  33.042  1.00  0.00    -0.354 N 
ATOM     68  N   UNL A   1      45.433  27.080  28.995  1.00  0.00    -0.248 NA
ATOM     69  C   UNL A   1      44.470  25.450  30.361  1.00  0.00     0.031 C 
ATOM     70  C   UNL A   1      45.006  30.774  32.246  1.00  0.00     0.029 A 
ATOM     71  C   UNL A   1      45.327  29.467  31.870  1.00  0.00     0.049 A 
ATOM     72  H   UNL A   1      45.727  27.966  33.308  1.00  0.00     0.167 HD
ATOM     73  C   UNL A   1      45.483  27.547  30.301  1.00  0.00     0.074 A 
ATOM     74  C   UNL A   1      44.941  26.453  31.111  1.00  0.00     0.031 C 
ATOM     75  C   UNL A   1      45.669  28.872  30.589  1.00  0.00     0.034 A 
BRANCH  62  76
ATOM     76  C   UNL A   1      43.378  27.461  35.290  1.00  0.00     0.023 A 
ATOM     77  C   UNL A   1      43.875  27.859  36.548  1.00  0.00     0.031 A 
ATOM     78  C   UNL A   1      43.432  26.076  35.024  1.00  0.00     0.131 A 
ATOM     79  C   UNL A   1      44.490  26.939  37.413  1.00  0.00     0.055 A 
ATOM     80  C   UNL A   1      43.981  25.151  35.920  1.00  0.00     0.041 A 
ATOM     81  F   UNL A   1      43.051  25.548  33.856  1.00  0.00    -0.206 F 
ATOM     82  C   UNL A   1      44.547  25.584  37.107  1.00  0.00     0.022 A 
BRANCH  79  83
ATOM     83  S   UNL A   1      45.387  27.583  38.850  1.00  0.00     0.124 S 
ATOM     84  O   UNL A   1      44.701  28.851  39.080  1.00  0.00    -0.237 OA
ATOM     85  O   UNL A   1      45.160  26.537  39.840  1.00  0.00    -0.237 OA
ATOM     86  O   UNL A   1      46.761  27.698  38.366  1.00  0.00    -0.744 OA
ENDBRANCH  79  83
ENDBRANCH  62  76
BRANCH  63  87
ATOM     87  C   UNL A   1      43.390  24.459  27.331  1.00  0.00     0.023 A 
ATOM     88  C   UNL A   1      44.223  23.978  26.294  1.00  0.00     0.031 A 
ATOM     89  C   UNL A   1      42.467  23.530  27.869  1.00  0.00     0.131 A 
ATOM     90  C   UNL A   1      44.107  22.638  25.840  1.00  0.00     0.055 A 
ATOM     91  C   UNL A   1      42.357  22.211  27.418  1.00  0.00     0.041 A 
ATOM     92  F   UNL A   1      41.689  23.849  28.916  1.00  0.00    -0.206 F 
ATOM     93  C   UNL A   1      43.184  21.756  26.406  1.00  0.00     0.022 A 
BRANCH  90  94
ATOM     94  S   UNL A   1      45.227  21.977  24.557  1.00  0.00     0.124 S 
ATOM     95  O   UNL A   1      44.433  20.902  23.976  1.00  0.00    -0.237 OA
ATOM     96  O   UNL A   1      45.463  23.142  23.713  1.00  0.00    -0.237 OA
ATOM     97  O   UNL A   1      46.396  21.533  25.320  1.00  0.00    -0.744 OA
ENDBRANCH  90  94
ENDBRANCH  63  87
BRANCH  75  98
ATOM     98  C   UNL A   1      46.044  29.836  29.475  1.00  0.00     0.023 A 
ATOM     99  C   UNL A   1      45.135  30.415  28.558  1.00  0.00     0.031 A 
ATOM    100  C   UNL A   1      47.368  30.309  29.458  1.00  0.00     0.131 A 
ATOM    101  C   UNL A   1      45.570  31.426  27.674  1.00  0.00     0.055 A 
ATOM    102  C   UNL A   1      47.788  31.325  28.600  1.00  0.00     0.041 A 
ATOM    103  F   UNL A   1      48.278  29.819  30.318  1.00  0.00    -0.206 F 
ATOM    104  C   UNL A   1      46.891  31.885  27.701  1.00  0.00     0.022 A 
BRANCH 101 105
ATOM    105  S   UNL A   1      44.430  32.158  26.453  1.00  0.00     0.124 S 
ATOM    106  O   UNL A   1      43.903  33.334  27.138  1.00  0.00    -0.237 OA
ATOM    107  O   UNL A   1      45.307  32.422  25.315  1.00  0.00    -0.237 OA
ATOM    108  O   UNL A   1      43.446  31.097  26.228  1.00  0.00    -0.744 OA
ENDBRANCH 101 105
ENDBRANCH  75  98
ENDBRANCH  49  50
ENDBRANCH  41  44
ENDBRANCH  39  40
ENDBRANCH  38  39
ENDBRANCH   1  38
TORSDOF 22
ENDMDL
MODEL 2
REMARK VINA RESULT:      -7.8      3.186     11.314
REMARK SMILES COc1ccc(-c2c(C(=O)NCCCCCCNC(=O)c3ccc(-c4c5nc(c(-c6cc(S(=O)(=O)[O-])ccc6F)c6ccc([nH]6)c(-c6cc(S(=O)(=O)[O-])ccc6F)c6nc(c(-c7cc(S(=O)(=O)[O-])ccc7F)c7ccc4[nH]7)C=C6)C=C5)cc3)sc3c2N=C(O)C[C@H]3c2ccc(OC)c(OC)c2)cc1
REMARK SMILES IDX 15 1 14 2 13 3 12 4 11 5 9 6 10 7 8 9 7 10 86 11 84 12 85 13
REMARK SMILES IDX 87 14 91 15 88 16 90 17 6 18 3 19 4 20 103 21 5 22 102 23
REMARK SMILES IDX 2 24 1 25 92 26 93 27 101 28 94 29 98 30 95 31 99 32 100 33
REMARK SMILES IDX 96 34 97 35 89 36 16 38 17 39 18 40 19 41 20 43 21 44 22 45
REMARK SMILES IDX 83 46 23 47 82 48 24 49 25 50 26 51 76 52 27 53 81 54 75 55
REMARK SMILES IDX 77 56 28 57 80 58 74 59 73 60 29 62 61 63 41 64 60 65 42 66
REMARK SMILES IDX 45 67 59 68 78 69 43 70 44 71 58 73 79 74 46 75 30 76 31 77
REMARK SMILES IDX 39 78 32 79 38 80 40 81 37 82 33 83 34 84 35 85 36 86 62 87
REMARK SMILES IDX 63 88 71 89 64 90 70 91 72 92 69 93 65 94 66 95 67 96 68 97
REMARK SMILES IDX 47 98 48 99 56 100 49 101 55 102 57 103 54 104 50 105 51 106
REMARK SMILES IDX 52 107 53 108
REMARK H PARENT 11 8 89 37 18 42 77 61 45 72
REMARK Flexibility Score: inf
ROOT
ATOM      1  C   UNL A   1      47.014  32.048  29.764  1.00  0.00     0.002 C 
ENDROOT
BRANCH   1   2
ATOM      2  C   UNL A   1      47.072  30.558  30.140  1.00  0.00     0.002 C 
BRANCH   2   3
ATOM      3  C   UNL A   1      45.858  29.905  30.799  1.00  0.00     0.021 C 
BRANCH   3   4
ATOM      4  C   UNL A   1      45.949  28.459  31.267  1.00  0.00     0.116 C 
BRANCH   4   5
ATOM      5  N   UNL A   1      46.455  27.464  30.362  1.00  0.00    -0.351 N 
ATOM      6  C   UNL A   1      45.910  26.931  29.204  1.00  0.00     0.262 C 
ATOM      7  O   UNL A   1      46.697  26.147  28.647  1.00  0.00    -0.268 OA
ATOM      8  H   UNL A   1      47.337  27.101  30.604  1.00  0.00     0.163 HD
BRANCH   6   9
ATOM      9  C   UNL A   1      44.564  27.206  28.633  1.00  0.00     0.102 A 
ATOM     10  C   UNL A   1      43.921  28.142  27.810  1.00  0.00     0.031 A 
ATOM     11  C   UNL A   1      42.539  27.851  27.598  1.00  0.00     0.090 A 
ATOM     12  S   UNL A   1      43.340  26.029  29.149  1.00  0.00    -0.131 S 
ATOM     13  C   UNL A   1      42.077  26.819  28.343  1.00  0.00     0.040 A 
ATOM     14  N   UNL A   1      41.725  28.676  26.809  1.00  0.00    -0.216 NA
ATOM     15  C   UNL A   1      40.637  26.468  28.465  1.00  0.00     0.071 C 
ATOM     16  C   UNL A   1      40.458  28.532  26.977  1.00  0.00     0.186 C 
ATOM     17  C   UNL A   1      39.738  27.574  27.883  1.00  0.00     0.111 C 
BRANCH  10  18
ATOM     18  C   UNL A   1      44.409  29.437  27.395  1.00  0.00    -0.014 A 
ATOM     19  C   UNL A   1      45.413  31.814  26.398  1.00  0.00     0.118 A 
ATOM     20  C   UNL A   1      44.288  31.825  27.230  1.00  0.00     0.047 A 
ATOM     21  C   UNL A   1      46.118  30.634  26.170  1.00  0.00     0.047 A 
ATOM     22  C   UNL A   1      43.778  30.630  27.740  1.00  0.00     0.012 A 
ATOM     23  C   UNL A   1      45.612  29.445  26.664  1.00  0.00     0.012 A 
BRANCH  19  24
ATOM     24  O   UNL A   1      45.750  33.004  25.815  1.00  0.00    -0.497 OA
ATOM     25  C   UNL A   1      46.366  33.905  26.737  1.00  0.00     0.278 C 
ENDBRANCH  19  24
ENDBRANCH  10  18
BRANCH  15  26
ATOM     26  C   UNL A   1      40.307  25.119  27.858  1.00  0.00    -0.035 A 
ATOM     27  C   UNL A   1      39.156  24.902  27.100  1.00  0.00     0.008 A 
ATOM     28  C   UNL A   1      41.188  24.052  28.084  1.00  0.00     0.054 A 
ATOM     29  C   UNL A   1      38.901  23.634  26.583  1.00  0.00     0.051 A 
ATOM     30  C   UNL A   1      40.938  22.769  27.583  1.00  0.00     0.161 A 
ATOM     31  C   UNL A   1      39.778  22.561  26.815  1.00  0.00     0.160 A 
BRANCH  30  32
ATOM     32  O   UNL A   1      41.779  21.715  27.830  1.00  0.00    -0.493 OA
ATOM     33  C   UNL A   1      42.647  21.297  26.783  1.00  0.00     0.278 C 
ENDBRANCH  30  32
BRANCH  31  34
ATOM     34  O   UNL A   1      39.335  21.403  26.233  1.00  0.00    -0.493 OA
ATOM     35  C   UNL A   1      38.143  21.448  25.467  1.00  0.00     0.278 C 
ENDBRANCH  31  34
ENDBRANCH  15  26
BRANCH  16  36
ATOM     36  O   UNL A   1      39.640  29.367  26.302  1.00  0.00    -0.496 OA
ATOM     37  H   UNL A   1      38.971  29.838  26.758  1.00  0.00     0.294 HD
ENDBRANCH  16  36
ENDBRANCH   6   9
ENDBRANCH   4   5
ENDBRANCH   3   4
ENDBRANCH   2   3
ENDBRANCH   1   2
BRANCH   1  38
ATOM     38  C   UNL A   1      48.316  32.812  29.478  1.00  0.00     0.021 C 
BRANCH  38  39
ATOM     39  C   UNL A   1      48.349  34.280  29.884  1.00  0.00     0.116 C 
BRANCH  39  40
ATOM     40  N   UNL A   1      49.117  34.580  31.098  1.00  0.00    -0.352 N 
ATOM     41  C   UNL A   1      48.625  34.855  32.377  1.00  0.00     0.251 C 
ATOM     42  H   UNL A   1      50.096  34.587  31.000  1.00  0.00     0.163 HD
ATOM     43  O   UNL A   1      49.310  35.451  33.192  1.00  0.00    -0.269 OA
BRANCH  41  44
ATOM     44  C   UNL A   1      47.257  34.403  32.727  1.00  0.00     0.039 A 
ATOM     45  C   UNL A   1      46.108  35.186  32.562  1.00  0.00     0.014 A 
ATOM     46  C   UNL A   1      47.145  33.118  33.226  1.00  0.00     0.014 A 
ATOM     47  C   UNL A   1      44.851  34.615  32.817  1.00  0.00     0.010 A 
ATOM     48  C   UNL A   1      45.928  32.500  33.243  1.00  0.00     0.010 A 
ATOM     49  C   UNL A   1      44.768  33.252  33.141  1.00  0.00    -0.014 A 
BRANCH  49  50
ATOM     50  C   UNL A   1      43.511  32.519  33.305  1.00  0.00     0.031 A 
ATOM     51  C   UNL A   1      42.504  32.717  32.226  1.00  0.00     0.074 A 
ATOM     52  C   UNL A   1      43.383  31.491  34.181  1.00  0.00     0.049 A 
ATOM     53  N   UNL A   1      41.346  33.278  32.319  1.00  0.00    -0.248 NA
ATOM     54  C   UNL A   1      42.862  32.356  30.847  1.00  0.00     0.031 C 
ATOM     55  C   UNL A   1      44.385  30.924  35.099  1.00  0.00     0.029 A 
ATOM     56  N   UNL A   1      42.347  30.626  34.332  1.00  0.00    -0.354 N 
ATOM     57  C   UNL A   1      40.732  33.136  31.075  1.00  0.00     0.074 A 
ATOM     58  C   UNL A   1      41.777  32.739  30.171  1.00  0.00     0.031 C 
ATOM     59  C   UNL A   1      44.005  29.685  35.486  1.00  0.00     0.029 A 
ATOM     60  C   UNL A   1      42.653  29.449  35.016  1.00  0.00     0.049 A 
ATOM     61  H   UNL A   1      41.445  30.814  33.984  1.00  0.00     0.167 HD
ATOM     62  C   UNL A   1      39.374  33.158  30.949  1.00  0.00     0.034 A 
ATOM     63  C   UNL A   1      41.858  28.356  35.175  1.00  0.00     0.034 A 
ATOM     64  C   UNL A   1      38.758  33.630  32.171  1.00  0.00     0.049 A 
ATOM     65  C   UNL A   1      40.464  28.836  34.978  1.00  0.00     0.074 A 
ATOM     66  C   UNL A   1      38.876  34.785  32.922  1.00  0.00     0.029 A 
ATOM     67  N   UNL A   1      38.213  32.696  33.027  1.00  0.00    -0.354 N 
ATOM     68  N   UNL A   1      39.897  29.712  35.767  1.00  0.00    -0.248 NA
ATOM     69  C   UNL A   1      39.910  28.769  33.632  1.00  0.00     0.031 C 
ATOM     70  C   UNL A   1      38.949  34.323  34.271  1.00  0.00     0.029 A 
ATOM     71  C   UNL A   1      38.751  32.940  34.269  1.00  0.00     0.049 A 
ATOM     72  H   UNL A   1      37.564  31.992  32.795  1.00  0.00     0.167 HD
ATOM     73  C   UNL A   1      39.241  30.592  34.918  1.00  0.00     0.074 A 
ATOM     74  C   UNL A   1      39.213  29.911  33.621  1.00  0.00     0.031 C 
ATOM     75  C   UNL A   1      39.047  31.906  35.246  1.00  0.00     0.034 A 
BRANCH  62  76
ATOM     76  C   UNL A   1      38.559  32.461  29.881  1.00  0.00     0.023 A 
ATOM     77  C   UNL A   1      37.413  33.135  29.410  1.00  0.00     0.031 A 
ATOM     78  C   UNL A   1      38.665  31.104  29.508  1.00  0.00     0.131 A 
ATOM     79  C   UNL A   1      36.397  32.450  28.722  1.00  0.00     0.055 A 
ATOM     80  C   UNL A   1      37.683  30.443  28.760  1.00  0.00     0.041 A 
ATOM     81  F   UNL A   1      39.664  30.316  29.921  1.00  0.00    -0.206 F 
ATOM     82  C   UNL A   1      36.525  31.105  28.392  1.00  0.00     0.022 A 
BRANCH  79  83
ATOM     83  S   UNL A   1      34.825  33.307  28.444  1.00  0.00     0.124 S 
ATOM     84  O   UNL A   1      33.946  32.200  28.081  1.00  0.00    -0.237 OA
ATOM     85  O   UNL A   1      34.584  33.922  29.745  1.00  0.00    -0.237 OA
ATOM     86  O   UNL A   1      35.134  34.237  27.361  1.00  0.00    -0.744 OA
ENDBRANCH  79  83
ENDBRANCH  62  76
BRANCH  63  87
ATOM     87  C   UNL A   1      42.272  26.919  35.158  1.00  0.00     0.023 A 
ATOM     88  C   UNL A   1      43.145  26.367  34.192  1.00  0.00     0.031 A 
ATOM     89  C   UNL A   1      41.978  26.097  36.273  1.00  0.00     0.131 A 
ATOM     90  C   UNL A   1      43.672  25.060  34.361  1.00  0.00     0.055 A 
ATOM     91  C   UNL A   1      42.500  24.811  36.434  1.00  0.00     0.041 A 
ATOM     92  F   UNL A   1      41.233  26.551  37.294  1.00  0.00    -0.206 F 
ATOM     93  C   UNL A   1      43.357  24.288  35.482  1.00  0.00     0.022 A 
BRANCH  90  94
ATOM     94  S   UNL A   1      44.863  24.362  33.165  1.00  0.00     0.124 S 
ATOM     95  O   UNL A   1      45.049  25.466  32.232  1.00  0.00    -0.237 OA
ATOM     96  O   UNL A   1      46.001  24.024  34.011  1.00  0.00    -0.237 OA
ATOM     97  O   UNL A   1      44.154  23.206  32.611  1.00  0.00    -0.744 OA
ENDBRANCH  90  94
ENDBRANCH  63  87
BRANCH  75  98
ATOM     98  C   UNL A   1      39.359  32.380  36.657  1.00  0.00     0.023 A 
ATOM     99  C   UNL A   1      40.653  32.452  37.225  1.00  0.00     0.031 A 
ATOM    100  C   UNL A   1      38.299  32.938  37.393  1.00  0.00     0.131 A 
ATOM    101  C   UNL A   1      40.841  33.066  38.482  1.00  0.00     0.055 A 
ATOM    102  C   UNL A   1      38.492  33.565  38.623  1.00  0.00     0.041 A 
ATOM    103  F   UNL A   1      37.047  32.925  36.902  1.00  0.00    -0.206 F 
ATOM    104  C   UNL A   1      39.765  33.628  39.175  1.00  0.00     0.022 A 
BRANCH 101 105
ATOM    105  S   UNL A   1      42.492  33.133  39.255  1.00  0.00     0.124 S 
ATOM    106  O   UNL A   1      42.481  34.400  39.976  1.00  0.00    -0.237 OA
ATOM    107  O   UNL A   1      42.506  31.928  40.080  1.00  0.00    -0.237 OA
ATOM    108  O   UNL A   1      43.405  33.094  38.111  1.00  0.00    -0.744 OA
ENDBRANCH 101 105
ENDBRANCH  75  98
ENDBRANCH  49  50
ENDBRANCH  41  44
ENDBRANCH  39  40
ENDBRANCH  38  39
ENDBRANCH   1  38
TORSDOF 22
ENDMDL
MODEL 3
REMARK VINA RESULT:      -7.5      5.826     11.309
REMARK SMILES COc1ccc(-c2c(C(=O)NCCCCCCNC(=O)c3ccc(-c4c5nc(c(-c6cc(S(=O)(=O)[O-])ccc6F)c6ccc([nH]6)c(-c6cc(S(=O)(=O)[O-])ccc6F)c6nc(c(-c7cc(S(=O)(=O)[O-])ccc7F)c7ccc4[nH]7)C=C6)C=C5)cc3)sc3c2N=C(O)C[C@H]3c2ccc(OC)c(OC)c2)cc1
REMARK SMILES IDX 15 1 14 2 13 3 12 4 11 5 9 6 10 7 8 9 7 10 86 11 84 12 85 13
REMARK SMILES IDX 87 14 91 15 88 16 90 17 6 18 3 19 4 20 103 21 5 22 102 23
REMARK SMILES IDX 2 24 1 25 92 26 93 27 101 28 94 29 98 30 95 31 99 32 100 33
REMARK SMILES IDX 96 34 97 35 89 36 16 38 17 39 18 40 19 41 20 43 21 44 22 45
REMARK SMILES IDX 83 46 23 47 82 48 24 49 25 50 26 51 76 52 27 53 81 54 75 55
REMARK SMILES IDX 77 56 28 57 80 58 74 59 73 60 29 62 61 63 41 64 60 65 42 66
REMARK SMILES IDX 45 67 59 68 78 69 43 70 44 71 58 73 79 74 46 75 30 76 31 77
REMARK SMILES IDX 39 78 32 79 38 80 40 81 37 82 33 83 34 84 35 85 36 86 62 87
REMARK SMILES IDX 63 88 71 89 64 90 70 91 72 92 69 93 65 94 66 95 67 96 68 97
REMARK SMILES IDX 47 98 48 99 56 100 49 101 55 102 57 103 54 104 50 105 51 106
REMARK SMILES IDX 52 107 53 108
REMARK H PARENT 11 8 89 37 18 42 77 61 45 72
REMARK Flexibility Score: inf
ROOT
ATOM      1  C   UNL A   1      35.098  32.934  27.866  1.00  0.00     0.002 C 
ENDROOT
BRANCH   1   2
ATOM      2  C   UNL A   1      33.624  32.638  28.193  1.00  0.00     0.002 C 
BRANCH   2   3
ATOM      3  C   UNL A   1      32.813  31.751  27.250  1.00  0.00     0.021 C 
BRANCH   3   4
ATOM      4  C   UNL A   1      33.316  30.352  26.921  1.00  0.00     0.116 C 
BRANCH   4   5
ATOM      5  N   UNL A   1      33.904  30.108  25.633  1.00  0.00    -0.351 N 
ATOM      6  C   UNL A   1      33.468  29.335  24.568  1.00  0.00     0.262 C 
ATOM      7  O   UNL A   1      34.218  29.446  23.584  1.00  0.00    -0.268 OA
ATOM      8  H   UNL A   1      34.761  30.569  25.481  1.00  0.00     0.163 HD
BRANCH   6   9
ATOM      9  C   UNL A   1      32.269  28.454  24.527  1.00  0.00     0.102 A 
ATOM     10  C   UNL A   1      30.967  28.443  24.009  1.00  0.00     0.031 A 
ATOM     11  C   UNL A   1      30.252  27.242  24.305  1.00  0.00     0.090 A 
ATOM     12  S   UNL A   1      32.491  26.941  25.428  1.00  0.00    -0.131 S 
ATOM     13  C   UNL A   1      30.908  26.409  25.147  1.00  0.00     0.040 A 
ATOM     14  N   UNL A   1      28.931  27.047  23.879  1.00  0.00    -0.216 NA
ATOM     15  C   UNL A   1      30.288  25.212  25.773  1.00  0.00     0.071 C 
ATOM     16  C   UNL A   1      28.280  26.121  24.490  1.00  0.00     0.186 C 
ATOM     17  C   UNL A   1      28.761  25.201  25.577  1.00  0.00     0.111 C 
BRANCH  10  18
ATOM     18  C   UNL A   1      30.220  29.556  23.470  1.00  0.00    -0.014 A 
ATOM     19  C   UNL A   1      28.675  31.532  22.302  1.00  0.00     0.118 A 
ATOM     20  C   UNL A   1      29.082  31.659  23.635  1.00  0.00     0.047 A 
ATOM     21  C   UNL A   1      29.147  30.487  21.511  1.00  0.00     0.047 A 
ATOM     22  C   UNL A   1      29.865  30.669  24.230  1.00  0.00     0.012 A 
ATOM     23  C   UNL A   1      29.914  29.496  22.098  1.00  0.00     0.012 A 
BRANCH  19  24
ATOM     24  O   UNL A   1      27.782  32.462  21.847  1.00  0.00    -0.497 OA
ATOM     25  C   UNL A   1      27.892  32.676  20.440  1.00  0.00     0.278 C 
ENDBRANCH  19  24
ENDBRANCH  10  18
BRANCH  15  26
ATOM     26  C   UNL A   1      30.909  23.912  25.302  1.00  0.00    -0.035 A 
ATOM     27  C   UNL A   1      31.066  22.810  26.144  1.00  0.00     0.008 A 
ATOM     28  C   UNL A   1      31.352  23.827  23.975  1.00  0.00     0.054 A 
ATOM     29  C   UNL A   1      31.660  21.649  25.654  1.00  0.00     0.051 A 
ATOM     30  C   UNL A   1      31.963  22.671  23.473  1.00  0.00     0.161 A 
ATOM     31  C   UNL A   1      32.112  21.564  24.327  1.00  0.00     0.160 A 
BRANCH  30  32
ATOM     32  O   UNL A   1      32.428  22.595  22.186  1.00  0.00    -0.493 OA
ATOM     33  C   UNL A   1      33.263  23.648  21.717  1.00  0.00     0.278 C 
ENDBRANCH  30  32
BRANCH  31  34
ATOM     34  O   UNL A   1      32.675  20.345  24.055  1.00  0.00    -0.493 OA
ATOM     35  C   UNL A   1      32.398  19.265  24.931  1.00  0.00     0.278 C 
ENDBRANCH  31  34
ENDBRANCH  15  26
BRANCH  16  36
ATOM     36  O   UNL A   1      26.978  25.958  24.171  1.00  0.00    -0.496 OA
ATOM     37  H   UNL A   1      26.497  26.666  23.790  1.00  0.00     0.294 HD
ENDBRANCH  16  36
ENDBRANCH   6   9
ENDBRANCH   4   5
ENDBRANCH   3   4
ENDBRANCH   2   3
ENDBRANCH   1   2
BRANCH   1  38
ATOM     38  C   UNL A   1      36.191  31.959  28.332  1.00  0.00     0.021 C 
BRANCH  38  39
ATOM     39  C   UNL A   1      35.835  31.037  29.491  1.00  0.00     0.116 C 
BRANCH  39  40
ATOM     40  N   UNL A   1      35.647  31.699  30.787  1.00  0.00    -0.352 N 
ATOM     41  C   UNL A   1      36.244  31.377  32.008  1.00  0.00     0.251 C 
ATOM     42  H   UNL A   1      35.027  32.463  30.797  1.00  0.00     0.163 HD
ATOM     43  O   UNL A   1      35.739  31.733  33.060  1.00  0.00    -0.269 OA
BRANCH  41  44
ATOM     44  C   UNL A   1      37.507  30.600  32.001  1.00  0.00     0.039 A 
ATOM     45  C   UNL A   1      37.574  29.216  31.794  1.00  0.00     0.014 A 
ATOM     46  C   UNL A   1      38.672  31.320  32.194  1.00  0.00     0.014 A 
ATOM     47  C   UNL A   1      38.832  28.601  31.692  1.00  0.00     0.010 A 
ATOM     48  C   UNL A   1      39.875  30.769  31.861  1.00  0.00     0.010 A 
ATOM     49  C   UNL A   1      39.989  29.396  31.706  1.00  0.00    -0.014 A 
BRANCH  49  50
ATOM     50  C   UNL A   1      41.342  28.885  31.482  1.00  0.00     0.031 A 
ATOM     51  C   UNL A   1      42.071  28.438  32.701  1.00  0.00     0.074 A 
ATOM     52  C   UNL A   1      41.788  28.535  30.250  1.00  0.00     0.049 A 
ATOM     53  N   UNL A   1      43.135  28.953  33.220  1.00  0.00    -0.248 NA
ATOM     54  C   UNL A   1      41.496  27.359  33.516  1.00  0.00     0.031 C 
ATOM     55  C   UNL A   1      41.082  28.587  28.958  1.00  0.00     0.029 A 
ATOM     56  N   UNL A   1      42.944  27.907  29.910  1.00  0.00    -0.354 N 
ATOM     57  C   UNL A   1      43.497  28.132  34.287  1.00  0.00     0.074 A 
ATOM     58  C   UNL A   1      42.357  27.292  34.533  1.00  0.00     0.031 C 
ATOM     59  C   UNL A   1      41.702  27.785  28.063  1.00  0.00     0.029 A 
ATOM     60  C   UNL A   1      42.950  27.325  28.642  1.00  0.00     0.049 A 
ATOM     61  H   UNL A   1      43.721  27.866  30.513  1.00  0.00     0.167 HD
ATOM     62  C   UNL A   1      44.785  28.079  34.734  1.00  0.00     0.034 A 
ATOM     63  C   UNL A   1      43.906  26.514  28.110  1.00  0.00     0.034 A 
ATOM     64  C   UNL A   1      45.564  29.161  34.169  1.00  0.00     0.049 A 
ATOM     65  C   UNL A   1      45.150  26.799  28.875  1.00  0.00     0.074 A 
ATOM     66  C   UNL A   1      45.440  30.538  34.174  1.00  0.00     0.029 A 
ATOM     67  N   UNL A   1      46.396  28.876  33.107  1.00  0.00    -0.354 N 
ATOM     68  N   UNL A   1      45.737  27.969  28.865  1.00  0.00    -0.248 NA
ATOM     69  C   UNL A   1      45.423  25.982  30.049  1.00  0.00     0.031 C 
ATOM     70  C   UNL A   1      45.707  30.921  32.825  1.00  0.00     0.029 A 
ATOM     71  C   UNL A   1      46.092  29.780  32.116  1.00  0.00     0.049 A 
ATOM     72  H   UNL A   1      47.076  28.165  33.065  1.00  0.00     0.167 HD
ATOM     73  C   UNL A   1      46.077  28.213  30.188  1.00  0.00     0.074 A 
ATOM     74  C   UNL A   1      45.937  26.917  30.857  1.00  0.00     0.031 C 
ATOM     75  C   UNL A   1      46.148  29.482  30.695  1.00  0.00     0.034 A 
BRANCH  62  76
ATOM     76  C   UNL A   1      45.456  26.900  35.406  1.00  0.00     0.023 A 
ATOM     77  C   UNL A   1      45.332  25.647  34.770  1.00  0.00     0.031 A 
ATOM     78  C   UNL A   1      45.949  26.867  36.727  1.00  0.00     0.131 A 
ATOM     79  C   UNL A   1      45.574  24.450  35.466  1.00  0.00     0.055 A 
ATOM     80  C   UNL A   1      46.258  25.675  37.393  1.00  0.00     0.041 A 
ATOM     81  F   UNL A   1      46.071  27.965  37.482  1.00  0.00    -0.206 F 
ATOM     82  C   UNL A   1      46.037  24.456  36.777  1.00  0.00     0.022 A 
BRANCH  79  83
ATOM     83  S   UNL A   1      45.080  22.892  34.684  1.00  0.00     0.124 S 
ATOM     84  O   UNL A   1      45.173  23.232  33.268  1.00  0.00    -0.237 OA
ATOM     85  O   UNL A   1      46.086  21.968  35.194  1.00  0.00    -0.237 OA
ATOM     86  O   UNL A   1      43.724  22.678  35.186  1.00  0.00    -0.744 OA
ENDBRANCH  79  83
ENDBRANCH  62  76
BRANCH  63  87
ATOM     87  C   UNL A   1      43.703  25.321  27.233  1.00  0.00     0.023 A 
ATOM     88  C   UNL A   1      42.900  24.212  27.593  1.00  0.00     0.031 A 
ATOM     89  C   UNL A   1      44.130  25.367  25.885  1.00  0.00     0.131 A 
ATOM     90  C   UNL A   1      42.570  23.221  26.633  1.00  0.00     0.055 A 
ATOM     91  C   UNL A   1      43.801  24.389  24.943  1.00  0.00     0.041 A 
ATOM     92  F   UNL A   1      44.820  26.418  25.410  1.00  0.00    -0.206 F 
ATOM     93  C   UNL A   1      43.011  23.313  25.311  1.00  0.00     0.022 A 
BRANCH  90  94
ATOM     94  S   UNL A   1      41.471  21.825  27.058  1.00  0.00     0.124 S 
ATOM     95  O   UNL A   1      42.354  20.676  26.900  1.00  0.00    -0.237 OA
ATOM     96  O   UNL A   1      41.061  22.149  28.419  1.00  0.00    -0.237 OA
ATOM     97  O   UNL A   1      40.401  21.917  26.063  1.00  0.00    -0.744 OA
ENDBRANCH  90  94
ENDBRANCH  63  87
BRANCH  75  98
ATOM     98  C   UNL A   1      46.065  30.671  29.751  1.00  0.00     0.023 A 
ATOM     99  C   UNL A   1      47.129  31.154  28.954  1.00  0.00     0.031 A 
ATOM    100  C   UNL A   1      44.792  31.230  29.538  1.00  0.00     0.131 A 
ATOM    101  C   UNL A   1      46.892  32.158  27.990  1.00  0.00     0.055 A 
ATOM    102  C   UNL A   1      44.557  32.204  28.568  1.00  0.00     0.041 A 
ATOM    103  F   UNL A   1      43.733  30.801  30.244  1.00  0.00    -0.206 F 
ATOM    104  C   UNL A   1      45.608  32.675  27.792  1.00  0.00     0.022 A 
BRANCH 101 105
ATOM    105  S   UNL A   1      48.255  32.829  26.979  1.00  0.00     0.124 S 
ATOM    106  O   UNL A   1      47.569  33.612  25.957  1.00  0.00    -0.237 OA
ATOM    107  O   UNL A   1      49.030  33.591  27.955  1.00  0.00    -0.237 OA
ATOM    108  O   UNL A   1      48.926  31.629  26.475  1.00  0.00    -0.744 OA
ENDBRANCH 101 105
ENDBRANCH  75  98
ENDBRANCH  49  50
ENDBRANCH  41  44
ENDBRANCH  39  40
ENDBRANCH  38  39
ENDBRANCH   1  38
TORSDOF 22
ENDMDL
