MODEL 1
REMARK VINA RESULT:     -11.9      0.000      0.000
REMARK SMILES Cc1ccc(Cl)c(Nc2ccccc2C(=O)NCCCCCCNC(=O)c2ccc(-c3c4nc(c(-c5cc(S(=O)(=O)[O-])ccc5F)c5ccc([nH]5)c(-c5cc(S(=O)(=O)[O-])ccc5F)c5nc(c(-c6cc(S(=O)(=O)[O-])ccc6F)c6ccc3[nH]6)C=C5)C=C4)cc2)c1Cl
REMARK SMILES IDX 21 1 20 2 19 3 18 4 17 5 15 6 16 7 14 9 9 10 10 11 11 12
REMARK SMILES IDX 13 13 12 14 8 15 7 17 1 18 2 19 3 20 90 21 4 22 91 23 5 24
REMARK SMILES IDX 6 25 22 26 23 27 24 28 25 29 26 31 27 32 28 33 89 34 29 35
REMARK SMILES IDX 88 36 30 37 31 38 32 39 82 40 33 41 87 42 81 43 83 44 34 45
REMARK SMILES IDX 86 46 80 47 79 48 35 50 67 51 47 52 66 53 48 54 51 55 65 56
REMARK SMILES IDX 84 57 49 58 50 59 64 61 85 62 52 63 36 64 37 65 45 66 38 67
REMARK SMILES IDX 44 68 46 69 43 70 39 71 40 72 41 73 42 74 68 75 69 76 77 77
REMARK SMILES IDX 70 78 76 79 78 80 75 81 71 82 72 83 73 84 74 85 53 86 54 87
REMARK SMILES IDX 62 88 55 89 61 90 63 91 60 92 56 93 57 94 58 95 59 96
REMARK H PARENT 17 8 8 16 24 30 83 49 51 60
REMARK Flexibility Score: inf
ROOT
ATOM      1  C   UNL A   1      31.670  30.150  25.878  1.00  0.00     0.002 C 
ENDROOT
BRANCH   1   2
ATOM      2  C   UNL A   1      31.770  28.812  26.618  1.00  0.00     0.002 C 
BRANCH   2   3
ATOM      3  C   UNL A   1      32.986  27.915  26.336  1.00  0.00     0.021 C 
BRANCH   3   4
ATOM      4  C   UNL A   1      32.741  26.410  26.264  1.00  0.00     0.116 C 
BRANCH   4   5
ATOM      5  N   UNL A   1      31.382  26.010  26.543  1.00  0.00    -0.352 N 
ATOM      6  C   UNL A   1      30.712  24.851  26.238  1.00  0.00     0.253 C 
ATOM      7  O   UNL A   1      29.552  24.750  26.650  1.00  0.00    -0.269 OA
ATOM      8  H   UNL A   1      30.849  26.677  27.034  1.00  0.00     0.163 HD
BRANCH   6   9
ATOM      9  C   UNL A   1      31.251  23.778  25.346  1.00  0.00     0.063 A 
ATOM     10  C   UNL A   1      31.242  23.729  23.936  1.00  0.00     0.051 A 
ATOM     11  C   UNL A   1      31.773  22.575  23.310  1.00  0.00     0.027 A 
ATOM     12  C   UNL A   1      32.361  21.537  24.031  1.00  0.00     0.002 A 
ATOM     13  C   UNL A   1      31.873  22.724  26.059  1.00  0.00     0.016 A 
ATOM     14  C   UNL A   1      32.432  21.622  25.411  1.00  0.00     0.001 A 
BRANCH  10  15
ATOM     15  N   UNL A   1      30.871  24.752  23.042  1.00  0.00    -0.352 N 
ATOM     16  H   UNL A   1      30.428  24.406  22.234  1.00  0.00     0.167 HD
BRANCH  15  17
ATOM     17  C   UNL A   1      30.988  26.164  23.036  1.00  0.00     0.077 A 
ATOM     18  C   UNL A   1      28.944  29.416  23.001  1.00  0.00     0.046 C 
ATOM     19  C   UNL A   1      30.093  28.447  22.922  1.00  0.00    -0.030 A 
ATOM     20  C   UNL A   1      31.364  28.931  22.585  1.00  0.00     0.006 A 
ATOM     21  C   UNL A   1      29.921  27.071  23.195  1.00  0.00     0.069 A 
ATOM     22  C   UNL A   1      32.454  28.072  22.536  1.00  0.00     0.023 A 
ATOM     23  Cl  UNL A   1      28.415  26.561  23.904  1.00  0.00    -0.082 Cl
ATOM     24  C   UNL A   1      32.266  26.709  22.759  1.00  0.00     0.066 A 
ATOM     25  Cl  UNL A   1      33.656  25.674  22.638  1.00  0.00    -0.082 Cl
ENDBRANCH  15  17
ENDBRANCH  10  15
ENDBRANCH   6   9
ENDBRANCH   4   5
ENDBRANCH   3   4
ENDBRANCH   2   3
ENDBRANCH   1   2
BRANCH   1  26
ATOM     26  C   UNL A   1      31.564  31.418  26.726  1.00  0.00     0.021 C 
BRANCH  26  27
ATOM     27  C   UNL A   1      32.855  32.185  26.990  1.00  0.00     0.116 C 
BRANCH  27  28
ATOM     28  N   UNL A   1      32.625  33.541  27.450  1.00  0.00    -0.352 N 
ATOM     29  C   UNL A   1      33.239  34.255  28.450  1.00  0.00     0.251 C 
ATOM     30  H   UNL A   1      31.916  34.027  26.969  1.00  0.00     0.163 HD
ATOM     31  O   UNL A   1      32.775  35.357  28.759  1.00  0.00    -0.269 OA
BRANCH  29  32
ATOM     32  C   UNL A   1      34.419  33.726  29.180  1.00  0.00     0.039 A 
ATOM     33  C   UNL A   1      34.218  32.731  30.145  1.00  0.00     0.014 A 
ATOM     34  C   UNL A   1      35.708  34.224  28.972  1.00  0.00     0.014 A 
ATOM     35  C   UNL A   1      35.303  32.202  30.853  1.00  0.00     0.010 A 
ATOM     36  C   UNL A   1      36.799  33.648  29.629  1.00  0.00     0.010 A 
ATOM     37  C   UNL A   1      36.610  32.636  30.583  1.00  0.00    -0.014 A 
BRANCH  37  38
ATOM     38  C   UNL A   1      37.783  32.066  31.304  1.00  0.00     0.031 A 
ATOM     39  C   UNL A   1      38.608  30.980  30.665  1.00  0.00     0.074 A 
ATOM     40  C   UNL A   1      38.069  32.476  32.556  1.00  0.00     0.049 A 
ATOM     41  N   UNL A   1      39.600  30.286  31.165  1.00  0.00    -0.248 NA
ATOM     42  C   UNL A   1      38.248  30.607  29.289  1.00  0.00     0.031 C 
ATOM     43  C   UNL A   1      37.330  33.495  33.301  1.00  0.00     0.029 A 
ATOM     44  N   UNL A   1      39.049  32.072  33.430  1.00  0.00    -0.354 N 
ATOM     45  C   UNL A   1      39.966  29.378  30.175  1.00  0.00     0.074 A 
ATOM     46  C   UNL A   1      39.053  29.580  29.069  1.00  0.00     0.031 C 
ATOM     47  C   UNL A   1      37.887  33.644  34.514  1.00  0.00     0.029 A 
ATOM     48  C   UNL A   1      38.994  32.703  34.652  1.00  0.00     0.049 A 
ATOM     49  H   UNL A   1      39.727  31.395  33.204  1.00  0.00     0.167 HD
ATOM     50  C   UNL A   1      40.978  28.474  30.181  1.00  0.00     0.034 A 
ATOM     51  C   UNL A   1      39.737  32.532  35.765  1.00  0.00     0.034 A 
ATOM     52  C   UNL A   1      41.895  28.299  31.283  1.00  0.00     0.049 A 
ATOM     53  C   UNL A   1      40.850  31.515  35.755  1.00  0.00     0.074 A 
ATOM     54  C   UNL A   1      42.995  27.463  31.366  1.00  0.00     0.029 A 
ATOM     55  N   UNL A   1      41.814  28.966  32.499  1.00  0.00    -0.354 N 
ATOM     56  N   UNL A   1      41.212  30.697  34.795  1.00  0.00    -0.248 NA
ATOM     57  C   UNL A   1      41.660  31.407  36.975  1.00  0.00     0.031 C 
ATOM     58  C   UNL A   1      43.540  27.577  32.650  1.00  0.00     0.029 A 
ATOM     59  C   UNL A   1      42.825  28.537  33.348  1.00  0.00     0.049 A 
ATOM     60  H   UNL A   1      41.137  29.645  32.726  1.00  0.00     0.167 HD
ATOM     61  C   UNL A   1      42.309  29.996  35.287  1.00  0.00     0.074 A 
ATOM     62  C   UNL A   1      42.555  30.495  36.625  1.00  0.00     0.031 C 
ATOM     63  C   UNL A   1      43.051  29.031  34.685  1.00  0.00     0.034 A 
BRANCH  50  64
ATOM     64  C   UNL A   1      41.122  27.585  28.967  1.00  0.00     0.023 A 
ATOM     65  C   UNL A   1      42.113  27.814  27.996  1.00  0.00     0.031 A 
ATOM     66  C   UNL A   1      40.232  26.517  28.758  1.00  0.00     0.131 A 
ATOM     67  C   UNL A   1      42.136  27.043  26.823  1.00  0.00     0.055 A 
ATOM     68  C   UNL A   1      40.314  25.699  27.629  1.00  0.00     0.041 A 
ATOM     69  F   UNL A   1      39.254  26.259  29.641  1.00  0.00    -0.206 F 
ATOM     70  C   UNL A   1      41.260  25.972  26.644  1.00  0.00     0.022 A 
BRANCH  67  71
ATOM     71  S   UNL A   1      43.224  27.564  25.468  1.00  0.00     0.124 S 
ATOM     72  O   UNL A   1      44.194  28.399  26.173  1.00  0.00    -0.237 OA
ATOM     73  O   UNL A   1      43.726  26.291  24.962  1.00  0.00    -0.237 OA
ATOM     74  O   UNL A   1      42.329  28.286  24.568  1.00  0.00    -0.744 OA
ENDBRANCH  67  71
ENDBRANCH  50  64
BRANCH  51  75
ATOM     75  C   UNL A   1      39.442  33.324  36.992  1.00  0.00     0.023 A 
ATOM     76  C   UNL A   1      40.107  34.533  37.250  1.00  0.00     0.031 A 
ATOM     77  C   UNL A   1      38.505  32.869  37.936  1.00  0.00     0.131 A 
ATOM     78  C   UNL A   1      39.853  35.228  38.443  1.00  0.00     0.055 A 
ATOM     79  C   UNL A   1      38.223  33.587  39.099  1.00  0.00     0.041 A 
ATOM     80  F   UNL A   1      37.837  31.722  37.732  1.00  0.00    -0.206 F 
ATOM     81  C   UNL A   1      38.908  34.769  39.363  1.00  0.00     0.022 A 
BRANCH  78  82
ATOM     82  S   UNL A   1      40.825  36.716  38.806  1.00  0.00     0.124 S 
ATOM     83  O   UNL A   1      39.784  37.731  38.923  1.00  0.00    -0.237 OA
ATOM     84  O   UNL A   1      41.501  36.343  40.043  1.00  0.00    -0.237 OA
ATOM     85  O   UNL A   1      41.695  36.845  37.638  1.00  0.00    -0.744 OA
ENDBRANCH  78  82
ENDBRANCH  51  75
BRANCH  63  86
ATOM     86  C   UNL A   1      44.226  28.486  35.459  1.00  0.00     0.023 A 
ATOM     87  C   UNL A   1      44.085  27.423  36.368  1.00  0.00     0.031 A 
ATOM     88  C   UNL A   1      45.506  29.043  35.284  1.00  0.00     0.131 A 
ATOM     89  C   UNL A   1      45.195  26.982  37.104  1.00  0.00     0.055 A 
ATOM     90  C   UNL A   1      46.616  28.565  35.978  1.00  0.00     0.041 A 
ATOM     91  F   UNL A   1      45.695  30.061  34.428  1.00  0.00    -0.206 F 
ATOM     92  C   UNL A   1      46.463  27.536  36.903  1.00  0.00     0.022 A 
BRANCH  89  93
ATOM     93  S   UNL A   1      44.950  25.721  38.384  1.00  0.00     0.124 S 
ATOM     94  O   UNL A   1      46.317  25.277  38.638  1.00  0.00    -0.237 OA
ATOM     95  O   UNL A   1      44.319  26.483  39.458  1.00  0.00    -0.237 OA
ATOM     96  O   UNL A   1      44.087  24.736  37.736  1.00  0.00    -0.744 OA
ENDBRANCH  89  93
ENDBRANCH  63  86
ENDBRANCH  37  38
ENDBRANCH  29  32
ENDBRANCH  27  28
ENDBRANCH  26  27
ENDBRANCH   1  26
TORSDOF 18
ENDMDL
MODEL 2
REMARK VINA RESULT:     -11.5      1.740      2.999
REMARK SMILES Cc1ccc(Cl)c(Nc2ccccc2C(=O)NCCCCCCNC(=O)c2ccc(-c3c4nc(c(-c5cc(S(=O)(=O)[O-])ccc5F)c5ccc([nH]5)c(-c5cc(S(=O)(=O)[O-])ccc5F)c5nc(c(-c6cc(S(=O)(=O)[O-])ccc6F)c6ccc3[nH]6)C=C5)C=C4)cc2)c1Cl
REMARK SMILES IDX 21 1 20 2 19 3 18 4 17 5 15 6 16 7 14 9 9 10 10 11 11 12
REMARK SMILES IDX 13 13 12 14 8 15 7 17 1 18 2 19 3 20 90 21 4 22 91 23 5 24
REMARK SMILES IDX 6 25 22 26 23 27 24 28 25 29 26 31 27 32 28 33 89 34 29 35
REMARK SMILES IDX 88 36 30 37 31 38 32 39 82 40 33 41 87 42 81 43 83 44 34 45
REMARK SMILES IDX 86 46 80 47 79 48 35 50 67 51 47 52 66 53 48 54 51 55 65 56
REMARK SMILES IDX 84 57 49 58 50 59 64 61 85 62 52 63 36 64 37 65 45 66 38 67
REMARK SMILES IDX 44 68 46 69 43 70 39 71 40 72 41 73 42 74 68 75 69 76 77 77
REMARK SMILES IDX 70 78 76 79 78 80 75 81 71 82 72 83 73 84 74 85 53 86 54 87
REMARK SMILES IDX 62 88 55 89 61 90 63 91 60 92 56 93 57 94 58 95 59 96
REMARK H PARENT 17 8 8 16 24 30 83 49 51 60
REMARK Flexibility Score: inf
ROOT
ATOM      1  C   UNL A   1      31.486  30.604  25.754  1.00  0.00     0.002 C 
ENDROOT
BRANCH   1   2
ATOM      2  C   UNL A   1      32.259  29.438  26.381  1.00  0.00     0.002 C 
BRANCH   2   3
ATOM      3  C   UNL A   1      33.565  28.988  25.709  1.00  0.00     0.021 C 
BRANCH   3   4
ATOM      4  C   UNL A   1      34.136  27.635  26.129  1.00  0.00     0.116 C 
BRANCH   4   5
ATOM      5  N   UNL A   1      33.142  26.654  26.494  1.00  0.00    -0.352 N 
ATOM      6  C   UNL A   1      32.381  25.821  25.712  1.00  0.00     0.253 C 
ATOM      7  O   UNL A   1      31.635  25.030  26.298  1.00  0.00    -0.269 OA
ATOM      8  H   UNL A   1      32.987  26.566  27.462  1.00  0.00     0.163 HD
BRANCH   6   9
ATOM      9  C   UNL A   1      32.310  25.901  24.219  1.00  0.00     0.063 A 
ATOM     10  C   UNL A   1      33.161  25.294  23.273  1.00  0.00     0.051 A 
ATOM     11  C   UNL A   1      32.922  25.558  21.902  1.00  0.00     0.027 A 
ATOM     12  C   UNL A   1      31.844  26.328  21.466  1.00  0.00     0.002 A 
ATOM     13  C   UNL A   1      31.209  26.660  23.756  1.00  0.00     0.016 A 
ATOM     14  C   UNL A   1      30.970  26.864  22.397  1.00  0.00     0.001 A 
BRANCH  10  15
ATOM     15  N   UNL A   1      34.172  24.342  23.509  1.00  0.00    -0.352 N 
ATOM     16  H   UNL A   1      35.052  24.636  23.181  1.00  0.00     0.167 HD
BRANCH  15  17
ATOM     17  C   UNL A   1      34.215  23.060  24.109  1.00  0.00     0.077 A 
ATOM     18  C   UNL A   1      32.369  19.698  24.315  1.00  0.00     0.046 C 
ATOM     19  C   UNL A   1      33.322  20.826  24.601  1.00  0.00    -0.030 A 
ATOM     20  C   UNL A   1      34.185  20.721  25.700  1.00  0.00     0.006 A 
ATOM     21  C   UNL A   1      33.376  21.976  23.781  1.00  0.00     0.069 A 
ATOM     22  C   UNL A   1      35.102  21.728  25.974  1.00  0.00     0.023 A 
ATOM     23  Cl  UNL A   1      32.520  21.939  22.265  1.00  0.00    -0.082 Cl
ATOM     24  C   UNL A   1      35.115  22.879  25.189  1.00  0.00     0.066 A 
ATOM     25  Cl  UNL A   1      36.250  24.125  25.607  1.00  0.00    -0.082 Cl
ENDBRANCH  15  17
ENDBRANCH  10  15
ENDBRANCH   6   9
ENDBRANCH   4   5
ENDBRANCH   3   4
ENDBRANCH   2   3
ENDBRANCH   1   2
BRANCH   1  26
ATOM     26  C   UNL A   1      31.345  31.882  26.582  1.00  0.00     0.021 C 
BRANCH  26  27
ATOM     27  C   UNL A   1      32.615  32.441  27.215  1.00  0.00     0.116 C 
BRANCH  27  28
ATOM     28  N   UNL A   1      32.487  33.830  27.611  1.00  0.00    -0.352 N 
ATOM     29  C   UNL A   1      33.192  34.557  28.538  1.00  0.00     0.251 C 
ATOM     30  H   UNL A   1      31.782  34.332  27.141  1.00  0.00     0.163 HD
ATOM     31  O   UNL A   1      32.808  35.699  28.810  1.00  0.00    -0.269 OA
BRANCH  29  32
ATOM     32  C   UNL A   1      34.377  33.997  29.237  1.00  0.00     0.039 A 
ATOM     33  C   UNL A   1      34.170  33.087  30.281  1.00  0.00     0.014 A 
ATOM     34  C   UNL A   1      35.681  34.388  28.921  1.00  0.00     0.014 A 
ATOM     35  C   UNL A   1      35.259  32.532  30.963  1.00  0.00     0.010 A 
ATOM     36  C   UNL A   1      36.770  33.782  29.555  1.00  0.00     0.010 A 
ATOM     37  C   UNL A   1      36.573  32.853  30.588  1.00  0.00    -0.014 A 
BRANCH  37  38
ATOM     38  C   UNL A   1      37.748  32.253  31.281  1.00  0.00     0.031 A 
ATOM     39  C   UNL A   1      38.510  31.125  30.636  1.00  0.00     0.074 A 
ATOM     40  C   UNL A   1      38.092  32.674  32.515  1.00  0.00     0.049 A 
ATOM     41  N   UNL A   1      39.491  30.403  31.116  1.00  0.00    -0.248 NA
ATOM     42  C   UNL A   1      38.089  30.741  29.280  1.00  0.00     0.031 C 
ATOM     43  C   UNL A   1      37.416  33.734  33.264  1.00  0.00     0.029 A 
ATOM     44  N   UNL A   1      39.085  32.250  33.363  1.00  0.00    -0.354 N 
ATOM     45  C   UNL A   1      39.790  29.464  30.132  1.00  0.00     0.074 A 
ATOM     46  C   UNL A   1      38.848  29.680  29.053  1.00  0.00     0.031 C 
ATOM     47  C   UNL A   1      38.019  33.883  34.455  1.00  0.00     0.029 A 
ATOM     48  C   UNL A   1      39.095  32.904  34.574  1.00  0.00     0.049 A 
ATOM     49  H   UNL A   1      39.729  31.544  33.128  1.00  0.00     0.167 HD
ATOM     50  C   UNL A   1      40.768  28.523  30.122  1.00  0.00     0.034 A 
ATOM     51  C   UNL A   1      39.868  32.725  35.665  1.00  0.00     0.034 A 
ATOM     52  C   UNL A   1      41.714  28.334  31.196  1.00  0.00     0.049 A 
ATOM     53  C   UNL A   1      40.942  31.667  35.637  1.00  0.00     0.074 A 
ATOM     54  C   UNL A   1      42.785  27.458  31.259  1.00  0.00     0.029 A 
ATOM     55  N   UNL A   1      41.699  29.025  32.401  1.00  0.00    -0.354 N 
ATOM     56  N   UNL A   1      41.241  30.819  34.682  1.00  0.00    -0.248 NA
ATOM     57  C   UNL A   1      41.788  31.551  36.832  1.00  0.00     0.031 C 
ATOM     58  C   UNL A   1      43.377  27.575  32.522  1.00  0.00     0.029 A 
ATOM     59  C   UNL A   1      42.722  28.574  33.224  1.00  0.00     0.049 A 
ATOM     60  H   UNL A   1      41.056  29.733  32.637  1.00  0.00     0.167 HD
ATOM     61  C   UNL A   1      42.327  30.085  35.151  1.00  0.00     0.074 A 
ATOM     62  C   UNL A   1      42.637  30.600  36.470  1.00  0.00     0.031 C 
ATOM     63  C   UNL A   1      43.011  29.083  34.543  1.00  0.00     0.034 A 
BRANCH  50  64
ATOM     64  C   UNL A   1      40.837  27.608  28.922  1.00  0.00     0.023 A 
ATOM     65  C   UNL A   1      41.824  27.760  27.931  1.00  0.00     0.031 A 
ATOM     66  C   UNL A   1      39.881  26.592  28.745  1.00  0.00     0.131 A 
ATOM     67  C   UNL A   1      41.781  26.970  26.772  1.00  0.00     0.055 A 
ATOM     68  C   UNL A   1      39.894  25.752  27.628  1.00  0.00     0.041 A 
ATOM     69  F   UNL A   1      38.903  26.409  29.646  1.00  0.00    -0.206 F 
ATOM     70  C   UNL A   1      40.838  25.952  26.624  1.00  0.00     0.022 A 
BRANCH  67  71
ATOM     71  S   UNL A   1      42.876  27.401  25.391  1.00  0.00     0.124 S 
ATOM     72  O   UNL A   1      42.979  26.126  24.686  1.00  0.00    -0.237 OA
ATOM     73  O   UNL A   1      42.123  28.449  24.710  1.00  0.00    -0.237 OA
ATOM     74  O   UNL A   1      44.102  27.841  26.051  1.00  0.00    -0.744 OA
ENDBRANCH  67  71
ENDBRANCH  50  64
BRANCH  51  75
ATOM     75  C   UNL A   1      39.645  33.550  36.885  1.00  0.00     0.023 A 
ATOM     76  C   UNL A   1      38.951  33.036  37.990  1.00  0.00     0.031 A 
ATOM     77  C   UNL A   1      40.105  34.877  36.951  1.00  0.00     0.131 A 
ATOM     78  C   UNL A   1      38.703  33.857  39.103  1.00  0.00     0.055 A 
ATOM     79  C   UNL A   1      39.897  35.674  38.078  1.00  0.00     0.041 A 
ATOM     80  F   UNL A   1      40.781  35.414  35.922  1.00  0.00    -0.206 F 
ATOM     81  C   UNL A   1      39.182  35.167  39.158  1.00  0.00     0.022 A 
BRANCH  78  82
ATOM     82  S   UNL A   1      37.690  33.201  40.458  1.00  0.00     0.124 S 
ATOM     83  O   UNL A   1      36.442  32.886  39.771  1.00  0.00    -0.237 OA
ATOM     84  O   UNL A   1      38.483  32.062  40.904  1.00  0.00    -0.237 OA
ATOM     85  O   UNL A   1      37.621  34.317  41.399  1.00  0.00    -0.744 OA
ENDBRANCH  78  82
ENDBRANCH  51  75
BRANCH  63  86
ATOM     86  C   UNL A   1      44.190  28.508  35.288  1.00  0.00     0.023 A 
ATOM     87  C   UNL A   1      44.030  27.539  36.294  1.00  0.00     0.031 A 
ATOM     88  C   UNL A   1      45.495  28.940  34.985  1.00  0.00     0.131 A 
ATOM     89  C   UNL A   1      45.151  27.070  36.995  1.00  0.00     0.055 A 
ATOM     90  C   UNL A   1      46.610  28.430  35.649  1.00  0.00     0.041 A 
ATOM     91  F   UNL A   1      45.703  29.864  34.034  1.00  0.00    -0.206 F 
ATOM     92  C   UNL A   1      46.442  27.498  36.668  1.00  0.00     0.022 A 
BRANCH  89  93
ATOM     93  S   UNL A   1      44.898  25.944  38.395  1.00  0.00     0.124 S 
ATOM     94  O   UNL A   1      46.123  26.137  39.165  1.00  0.00    -0.237 OA
ATOM     95  O   UNL A   1      43.676  26.467  39.000  1.00  0.00    -0.237 OA
ATOM     96  O   UNL A   1      44.762  24.634  37.762  1.00  0.00    -0.744 OA
ENDBRANCH  89  93
ENDBRANCH  63  86
ENDBRANCH  37  38
ENDBRANCH  29  32
ENDBRANCH  27  28
ENDBRANCH  26  27
ENDBRANCH   1  26
TORSDOF 18
ENDMDL
MODEL 3
REMARK VINA RESULT:     -11.4      1.778      2.166
REMARK SMILES Cc1ccc(Cl)c(Nc2ccccc2C(=O)NCCCCCCNC(=O)c2ccc(-c3c4nc(c(-c5cc(S(=O)(=O)[O-])ccc5F)c5ccc([nH]5)c(-c5cc(S(=O)(=O)[O-])ccc5F)c5nc(c(-c6cc(S(=O)(=O)[O-])ccc6F)c6ccc3[nH]6)C=C5)C=C4)cc2)c1Cl
REMARK SMILES IDX 21 1 20 2 19 3 18 4 17 5 15 6 16 7 14 9 9 10 10 11 11 12
REMARK SMILES IDX 13 13 12 14 8 15 7 17 1 18 2 19 3 20 90 21 4 22 91 23 5 24
REMARK SMILES IDX 6 25 22 26 23 27 24 28 25 29 26 31 27 32 28 33 89 34 29 35
REMARK SMILES IDX 88 36 30 37 31 38 32 39 82 40 33 41 87 42 81 43 83 44 34 45
REMARK SMILES IDX 86 46 80 47 79 48 35 50 67 51 47 52 66 53 48 54 51 55 65 56
REMARK SMILES IDX 84 57 49 58 50 59 64 61 85 62 52 63 36 64 37 65 45 66 38 67
REMARK SMILES IDX 44 68 46 69 43 70 39 71 40 72 41 73 42 74 68 75 69 76 77 77
REMARK SMILES IDX 70 78 76 79 78 80 75 81 71 82 72 83 73 84 74 85 53 86 54 87
REMARK SMILES IDX 62 88 55 89 61 90 63 91 60 92 56 93 57 94 58 95 59 96
REMARK H PARENT 17 8 8 16 24 30 83 49 51 60
REMARK Flexibility Score: inf
ROOT
ATOM      1  C   UNL A   1      31.954  30.246  26.200  1.00  0.00     0.002 C 
ENDROOT
BRANCH   1   2
ATOM      2  C   UNL A   1      32.365  29.055  27.073  1.00  0.00     0.002 C 
BRANCH   2   3
ATOM      3  C   UNL A   1      33.741  28.416  26.830  1.00  0.00     0.021 C 
BRANCH   3   4
ATOM      4  C   UNL A   1      33.803  27.241  25.858  1.00  0.00     0.116 C 
BRANCH   4   5
ATOM      5  N   UNL A   1      33.071  26.072  26.284  1.00  0.00    -0.352 N 
ATOM      6  C   UNL A   1      33.342  24.737  26.110  1.00  0.00     0.253 C 
ATOM      7  O   UNL A   1      32.561  23.935  26.632  1.00  0.00    -0.269 OA
ATOM      8  H   UNL A   1      32.244  26.263  26.782  1.00  0.00     0.163 HD
BRANCH   6   9
ATOM      9  C   UNL A   1      34.435  24.207  25.236  1.00  0.00     0.063 A 
ATOM     10  C   UNL A   1      34.406  23.981  23.845  1.00  0.00     0.051 A 
ATOM     11  C   UNL A   1      35.559  23.422  23.241  1.00  0.00     0.027 A 
ATOM     12  C   UNL A   1      36.727  23.162  23.957  1.00  0.00     0.002 A 
ATOM     13  C   UNL A   1      35.637  23.958  25.941  1.00  0.00     0.016 A 
ATOM     14  C   UNL A   1      36.774  23.453  25.310  1.00  0.00     0.001 A 
BRANCH  10  15
ATOM     15  N   UNL A   1      33.400  24.354  22.932  1.00  0.00    -0.352 N 
ATOM     16  H   UNL A   1      33.485  23.893  22.067  1.00  0.00     0.167 HD
BRANCH  15  17
ATOM     17  C   UNL A   1      32.294  25.237  22.972  1.00  0.00     0.077 A 
ATOM     18  C   UNL A   1      31.320  28.951  22.850  1.00  0.00     0.046 C 
ATOM     19  C   UNL A   1      31.249  27.459  23.030  1.00  0.00    -0.030 A 
ATOM     20  C   UNL A   1      30.059  26.889  23.502  1.00  0.00     0.006 A 
ATOM     21  C   UNL A   1      32.346  26.623  22.720  1.00  0.00     0.069 A 
ATOM     22  C   UNL A   1      29.947  25.512  23.648  1.00  0.00     0.023 A 
ATOM     23  Cl  UNL A   1      33.685  27.321  21.854  1.00  0.00    -0.082 Cl
ATOM     24  C   UNL A   1      31.049  24.701  23.386  1.00  0.00     0.066 A 
ATOM     25  Cl  UNL A   1      30.866  22.991  23.632  1.00  0.00    -0.082 Cl
ENDBRANCH  15  17
ENDBRANCH  10  15
ENDBRANCH   6   9
ENDBRANCH   4   5
ENDBRANCH   3   4
ENDBRANCH   2   3
ENDBRANCH   1   2
BRANCH   1  26
ATOM     26  C   UNL A   1      31.763  31.595  26.893  1.00  0.00     0.021 C 
BRANCH  26  27
ATOM     27  C   UNL A   1      32.996  32.480  27.040  1.00  0.00     0.116 C 
BRANCH  27  28
ATOM     28  N   UNL A   1      32.696  33.782  27.603  1.00  0.00    -0.352 N 
ATOM     29  C   UNL A   1      33.259  34.439  28.669  1.00  0.00     0.251 C 
ATOM     30  H   UNL A   1      31.974  34.274  27.148  1.00  0.00     0.163 HD
ATOM     31  O   UNL A   1      32.739  35.490  29.057  1.00  0.00    -0.269 OA
BRANCH  29  32
ATOM     32  C   UNL A   1      34.449  33.905  29.380  1.00  0.00     0.039 A 
ATOM     33  C   UNL A   1      34.254  32.973  30.406  1.00  0.00     0.014 A 
ATOM     34  C   UNL A   1      35.746  34.340  29.090  1.00  0.00     0.014 A 
ATOM     35  C   UNL A   1      35.348  32.442  31.099  1.00  0.00     0.010 A 
ATOM     36  C   UNL A   1      36.842  33.759  29.734  1.00  0.00     0.010 A 
ATOM     37  C   UNL A   1      36.657  32.809  30.750  1.00  0.00    -0.014 A 
BRANCH  37  38
ATOM     38  C   UNL A   1      37.839  32.234  31.453  1.00  0.00     0.031 A 
ATOM     39  C   UNL A   1      38.648  31.143  30.803  1.00  0.00     0.074 A 
ATOM     40  C   UNL A   1      38.148  32.645  32.700  1.00  0.00     0.049 A 
ATOM     41  N   UNL A   1      39.643  30.443  31.289  1.00  0.00    -0.248 NA
ATOM     42  C   UNL A   1      38.262  30.768  29.435  1.00  0.00     0.031 C 
ATOM     43  C   UNL A   1      37.426  33.671  33.454  1.00  0.00     0.029 A 
ATOM     44  N   UNL A   1      39.140  32.238  33.559  1.00  0.00    -0.354 N 
ATOM     45  C   UNL A   1      39.988  29.531  30.295  1.00  0.00     0.074 A 
ATOM     46  C   UNL A   1      39.059  29.736  29.203  1.00  0.00     0.031 C 
ATOM     47  C   UNL A   1      38.004  33.818  34.658  1.00  0.00     0.029 A 
ATOM     48  C   UNL A   1      39.108  32.872  34.780  1.00  0.00     0.049 A 
ATOM     49  H   UNL A   1      39.810  31.557  33.323  1.00  0.00     0.167 HD
ATOM     50  C   UNL A   1      40.996  28.622  30.287  1.00  0.00     0.034 A 
ATOM     51  C   UNL A   1      39.868  32.699  35.881  1.00  0.00     0.034 A 
ATOM     52  C   UNL A   1      41.929  28.445  31.374  1.00  0.00     0.049 A 
ATOM     53  C   UNL A   1      40.976  31.677  35.855  1.00  0.00     0.074 A 
ATOM     54  C   UNL A   1      43.026  27.602  31.441  1.00  0.00     0.029 A 
ATOM     55  N   UNL A   1      41.872  29.114  32.590  1.00  0.00    -0.354 N 
ATOM     56  N   UNL A   1      41.317  30.854  34.891  1.00  0.00    -0.248 NA
ATOM     57  C   UNL A   1      41.804  31.567  37.062  1.00  0.00     0.031 C 
ATOM     58  C   UNL A   1      43.593  27.716  32.716  1.00  0.00     0.029 A 
ATOM     59  C   UNL A   1      42.894  28.682  33.423  1.00  0.00     0.049 A 
ATOM     60  H   UNL A   1      41.203  29.797  32.826  1.00  0.00     0.167 HD
ATOM     61  C   UNL A   1      42.418  30.148  35.367  1.00  0.00     0.074 A 
ATOM     62  C   UNL A   1      42.689  30.649  36.700  1.00  0.00     0.031 C 
ATOM     63  C   UNL A   1      43.144  29.178  34.755  1.00  0.00     0.034 A 
BRANCH  50  64
ATOM     64  C   UNL A   1      41.115  27.730  29.073  1.00  0.00     0.023 A 
ATOM     65  C   UNL A   1      42.119  27.923  28.108  1.00  0.00     0.031 A 
ATOM     66  C   UNL A   1      40.188  26.694  28.858  1.00  0.00     0.131 A 
ATOM     67  C   UNL A   1      42.121  27.153  26.935  1.00  0.00     0.055 A 
ATOM     68  C   UNL A   1      40.247  25.874  27.728  1.00  0.00     0.041 A 
ATOM     69  F   UNL A   1      39.196  26.471  29.734  1.00  0.00    -0.206 F 
ATOM     70  C   UNL A   1      41.208  26.115  26.749  1.00  0.00     0.022 A 
BRANCH  67  71
ATOM     71  S   UNL A   1      43.235  27.636  25.586  1.00  0.00     0.124 S 
ATOM     72  O   UNL A   1      42.290  28.102  24.575  1.00  0.00    -0.237 OA
ATOM     73  O   UNL A   1      44.059  28.663  26.213  1.00  0.00    -0.237 OA
ATOM     74  O   UNL A   1      43.929  26.394  25.254  1.00  0.00    -0.744 OA
ENDBRANCH  67  71
ENDBRANCH  50  64
BRANCH  51  75
ATOM     75  C   UNL A   1      39.598  33.496  37.110  1.00  0.00     0.023 A 
ATOM     76  C   UNL A   1      38.972  32.919  38.225  1.00  0.00     0.031 A 
ATOM     77  C   UNL A   1      39.943  34.858  37.177  1.00  0.00     0.131 A 
ATOM     78  C   UNL A   1      38.676  33.709  39.347  1.00  0.00     0.055 A 
ATOM     79  C   UNL A   1      39.688  35.628  38.312  1.00  0.00     0.041 A 
ATOM     80  F   UNL A   1      40.551  35.456  36.139  1.00  0.00    -0.206 F 
ATOM     81  C   UNL A   1      39.040  35.056  39.402  1.00  0.00     0.022 A 
BRANCH  78  82
ATOM     82  S   UNL A   1      37.749  32.963  40.716  1.00  0.00     0.124 S 
ATOM     83  O   UNL A   1      38.084  33.853  41.823  1.00  0.00    -0.237 OA
ATOM     84  O   UNL A   1      36.377  33.033  40.227  1.00  0.00    -0.237 OA
ATOM     85  O   UNL A   1      38.308  31.615  40.808  1.00  0.00    -0.744 OA
ENDBRANCH  78  82
ENDBRANCH  51  75
BRANCH  63  86
ATOM     86  C   UNL A   1      44.329  28.628  35.511  1.00  0.00     0.023 A 
ATOM     87  C   UNL A   1      44.195  27.575  36.433  1.00  0.00     0.031 A 
ATOM     88  C   UNL A   1      45.610  29.171  35.306  1.00  0.00     0.131 A 
ATOM     89  C   UNL A   1      45.315  27.129  37.150  1.00  0.00     0.055 A 
ATOM     90  C   UNL A   1      46.730  28.687  35.983  1.00  0.00     0.041 A 
ATOM     91  F   UNL A   1      45.793  30.179  34.438  1.00  0.00    -0.206 F 
ATOM     92  C   UNL A   1      46.585  27.668  36.920  1.00  0.00     0.022 A 
BRANCH  89  93
ATOM     93  S   UNL A   1      45.083  25.882  38.447  1.00  0.00     0.124 S 
ATOM     94  O   UNL A   1      46.458  25.603  38.849  1.00  0.00    -0.237 OA
ATOM     95  O   UNL A   1      44.266  26.595  39.424  1.00  0.00    -0.237 OA
ATOM     96  O   UNL A   1      44.405  24.788  37.755  1.00  0.00    -0.744 OA
ENDBRANCH  89  93
ENDBRANCH  63  86
ENDBRANCH  37  38
ENDBRANCH  29  32
ENDBRANCH  27  28
ENDBRANCH  26  27
ENDBRANCH   1  26
TORSDOF 18
ENDMDL
