MODEL 1
REMARK VINA RESULT:     -10.7      0.000      0.000
REMARK SMILES COc1cc(OC)cc(-c2ccc([C@@H](C)C(=O)NCCCCCCNC(=O)c3ccc(-c4c5nc(c(-c6cc(S(=O)(=O)[O-])ccc6F)c6ccc([nH]6)c(-c6cc(S(=O)(=O)[O-])ccc6F)c6nc(c(-c7cc(S(=O)(=O)[O-])ccc7F)c7ccc4[nH]7)C=C6)C=C5)cc3)cc2F)c1
REMARK SMILES IDX 21 1 20 2 19 3 18 4 16 5 17 6 14 8 15 9 13 10 10 11 11 12
REMARK SMILES IDX 92 13 12 14 91 15 93 16 9 17 3 18 4 19 94 20 5 21 8 22 2 23
REMARK SMILES IDX 1 24 6 25 7 26 22 27 23 28 24 29 25 30 26 31 27 33 28 34
REMARK SMILES IDX 29 35 90 36 30 37 89 38 31 39 32 40 33 41 83 42 34 43 88 44
REMARK SMILES IDX 82 45 84 46 35 47 87 48 81 49 80 50 36 52 68 53 48 54 67 55
REMARK SMILES IDX 49 56 52 57 66 58 85 59 50 60 51 61 65 63 86 64 53 65 37 66
REMARK SMILES IDX 38 67 46 68 39 69 45 70 47 71 44 72 40 73 41 74 42 75 43 76
REMARK SMILES IDX 69 77 70 78 78 79 71 80 77 81 79 82 76 83 72 84 73 85 74 86
REMARK SMILES IDX 75 87 54 88 55 89 63 90 56 91 62 92 64 93 61 94 57 95 58 96
REMARK SMILES IDX 59 97 60 98
REMARK H PARENT 18 7 25 32 84 51 52 62
REMARK Flexibility Score: inf
ROOT
ATOM      1  C   UNL A   1      32.892  28.074  25.048  1.00  0.00     0.002 C 
ENDROOT
BRANCH   1   2
ATOM      2  C   UNL A   1      32.485  29.369  24.338  1.00  0.00     0.021 C 
BRANCH   2   3
ATOM      3  C   UNL A   1      30.988  29.677  24.425  1.00  0.00     0.116 C 
BRANCH   3   4
ATOM      4  N   UNL A   1      30.450  30.100  23.148  1.00  0.00    -0.356 N 
ATOM      5  C   UNL A   1      29.544  29.526  22.311  1.00  0.00     0.227 C 
ATOM      6  O   UNL A   1      29.343  30.105  21.235  1.00  0.00    -0.274 OA
ATOM      7  H   UNL A   1      30.806  30.961  22.827  1.00  0.00     0.163 HD
BRANCH   5   8
ATOM      8  C   UNL A   1      28.775  28.237  22.637  1.00  0.00     0.105 C 
ATOM      9  C   UNL A   1      27.480  28.466  23.419  1.00  0.00     0.023 C 
BRANCH   8  10
ATOM     10  C   UNL A   1      29.667  27.113  23.140  1.00  0.00    -0.033 A 
ATOM     11  C   UNL A   1      31.226  24.911  24.096  1.00  0.00     0.018 A 
ATOM     12  C   UNL A   1      31.474  25.511  22.850  1.00  0.00     0.012 A 
ATOM     13  C   UNL A   1      30.179  25.452  24.853  1.00  0.00     0.131 A 
ATOM     14  C   UNL A   1      30.740  26.612  22.401  1.00  0.00     0.005 A 
ATOM     15  C   UNL A   1      29.402  26.517  24.384  1.00  0.00     0.044 A 
ATOM     16  F   UNL A   1      29.898  24.968  26.073  1.00  0.00    -0.206 F 
BRANCH  11  17
ATOM     17  C   UNL A   1      32.076  23.792  24.561  1.00  0.00    -0.008 A 
ATOM     18  C   UNL A   1      34.153  22.901  25.476  1.00  0.00     0.123 A 
ATOM     19  C   UNL A   1      33.619  21.612  25.445  1.00  0.00     0.092 A 
ATOM     20  C   UNL A   1      33.388  23.984  25.029  1.00  0.00     0.055 A 
ATOM     21  C   UNL A   1      32.323  21.391  24.990  1.00  0.00     0.123 A 
ATOM     22  C   UNL A   1      31.567  22.476  24.548  1.00  0.00     0.055 A 
BRANCH  18  23
ATOM     23  O   UNL A   1      35.452  22.986  25.901  1.00  0.00    -0.497 OA
ATOM     24  C   UNL A   1      36.177  21.763  25.875  1.00  0.00     0.278 C 
ENDBRANCH  18  23
BRANCH  21  25
ATOM     25  O   UNL A   1      31.906  20.089  25.015  1.00  0.00    -0.497 OA
ATOM     26  C   UNL A   1      32.531  19.194  24.100  1.00  0.00     0.278 C 
ENDBRANCH  21  25
ENDBRANCH  11  17
ENDBRANCH   8  10
ENDBRANCH   5   8
ENDBRANCH   3   4
ENDBRANCH   2   3
ENDBRANCH   1   2
BRANCH   1  27
ATOM     27  C   UNL A   1      32.216  27.836  26.405  1.00  0.00     0.002 C 
BRANCH  27  28
ATOM     28  C   UNL A   1      32.891  28.508  27.605  1.00  0.00     0.021 C 
BRANCH  28  29
ATOM     29  C   UNL A   1      34.117  29.351  27.259  1.00  0.00     0.116 C 
BRANCH  29  30
ATOM     30  N   UNL A   1      33.980  30.717  27.740  1.00  0.00    -0.352 N 
ATOM     31  C   UNL A   1      34.720  31.393  28.678  1.00  0.00     0.251 C 
ATOM     32  H   UNL A   1      33.249  31.233  27.331  1.00  0.00     0.163 HD
ATOM     33  O   UNL A   1      34.293  32.447  29.140  1.00  0.00    -0.269 OA
BRANCH  31  34
ATOM     34  C   UNL A   1      36.017  30.849  29.137  1.00  0.00     0.039 A 
ATOM     35  C   UNL A   1      36.026  29.806  30.067  1.00  0.00     0.014 A 
ATOM     36  C   UNL A   1      37.223  31.386  28.676  1.00  0.00     0.014 A 
ATOM     37  C   UNL A   1      37.242  29.266  30.493  1.00  0.00     0.010 A 
ATOM     38  C   UNL A   1      38.432  30.803  29.049  1.00  0.00     0.010 A 
ATOM     39  C   UNL A   1      38.455  29.739  29.966  1.00  0.00    -0.014 A 
BRANCH  39  40
ATOM     40  C   UNL A   1      39.756  29.142  30.366  1.00  0.00     0.031 A 
ATOM     41  C   UNL A   1      40.481  29.656  31.580  1.00  0.00     0.074 A 
ATOM     42  C   UNL A   1      40.310  28.179  29.603  1.00  0.00     0.049 A 
ATOM     43  N   UNL A   1      41.657  29.323  32.045  1.00  0.00    -0.248 NA
ATOM     44  C   UNL A   1      39.805  30.708  32.354  1.00  0.00     0.031 C 
ATOM     45  C   UNL A   1      39.717  27.623  28.385  1.00  0.00     0.029 A 
ATOM     46  N   UNL A   1      41.497  27.503  29.731  1.00  0.00    -0.354 N 
ATOM     47  C   UNL A   1      41.868  30.130  33.160  1.00  0.00     0.074 A 
ATOM     48  C   UNL A   1      40.723  31.011  33.259  1.00  0.00     0.031 C 
ATOM     49  C   UNL A   1      40.532  26.675  27.892  1.00  0.00     0.029 A 
ATOM     50  C   UNL A   1      41.725  26.588  28.729  1.00  0.00     0.049 A 
ATOM     51  H   UNL A   1      42.127  27.657  30.472  1.00  0.00     0.167 HD
ATOM     52  C   UNL A   1      42.906  30.120  34.032  1.00  0.00     0.034 A 
ATOM     53  C   UNL A   1      42.780  25.781  28.501  1.00  0.00     0.034 A 
ATOM     54  C   UNL A   1      44.036  29.227  33.923  1.00  0.00     0.049 A 
ATOM     55  C   UNL A   1      43.938  25.809  29.467  1.00  0.00     0.074 A 
ATOM     56  C   UNL A   1      45.118  29.097  34.776  1.00  0.00     0.029 A 
ATOM     57  N   UNL A   1      44.234  28.316  32.892  1.00  0.00    -0.354 N 
ATOM     58  N   UNL A   1      44.100  26.546  30.542  1.00  0.00    -0.248 NA
ATOM     59  C   UNL A   1      45.049  24.889  29.194  1.00  0.00     0.031 C 
ATOM     60  C   UNL A   1      46.001  28.159  34.227  1.00  0.00     0.029 A 
ATOM     61  C   UNL A   1      45.434  27.646  33.071  1.00  0.00     0.049 A 
ATOM     62  H   UNL A   1      43.612  28.169  32.142  1.00  0.00     0.167 HD
ATOM     63  C   UNL A   1      45.318  26.153  31.090  1.00  0.00     0.074 A 
ATOM     64  C   UNL A   1      45.839  25.106  30.235  1.00  0.00     0.031 C 
ATOM     65  C   UNL A   1      45.948  26.612  32.202  1.00  0.00     0.034 A 
BRANCH  52  66
ATOM     66  C   UNL A   1      42.876  31.124  35.160  1.00  0.00     0.023 A 
ATOM     67  C   UNL A   1      43.359  32.434  34.997  1.00  0.00     0.031 A 
ATOM     68  C   UNL A   1      42.384  30.760  36.427  1.00  0.00     0.131 A 
ATOM     69  C   UNL A   1      43.415  33.304  36.096  1.00  0.00     0.055 A 
ATOM     70  C   UNL A   1      42.364  31.659  37.496  1.00  0.00     0.041 A 
ATOM     71  F   UNL A   1      41.927  29.518  36.653  1.00  0.00    -0.206 F 
ATOM     72  C   UNL A   1      42.896  32.936  37.339  1.00  0.00     0.022 A 
BRANCH  69  73
ATOM     73  S   UNL A   1      44.312  34.870  35.915  1.00  0.00     0.124 S 
ATOM     74  O   UNL A   1      45.576  34.419  35.338  1.00  0.00    -0.237 OA
ATOM     75  O   UNL A   1      43.440  35.633  35.028  1.00  0.00    -0.237 OA
ATOM     76  O   UNL A   1      44.406  35.373  37.284  1.00  0.00    -0.744 OA
ENDBRANCH  69  73
ENDBRANCH  52  66
BRANCH  53  77
ATOM     77  C   UNL A   1      42.803  24.885  27.310  1.00  0.00     0.023 A 
ATOM     78  C   UNL A   1      42.237  23.601  27.360  1.00  0.00     0.031 A 
ATOM     79  C   UNL A   1      43.430  25.283  26.115  1.00  0.00     0.131 A 
ATOM     80  C   UNL A   1      42.351  22.743  26.256  1.00  0.00     0.055 A 
ATOM     81  C   UNL A   1      43.492  24.446  25.000  1.00  0.00     0.041 A 
ATOM     82  F   UNL A   1      43.982  26.502  26.011  1.00  0.00    -0.206 F 
ATOM     83  C   UNL A   1      42.962  23.160  25.071  1.00  0.00     0.022 A 
BRANCH  80  84
ATOM     84  S   UNL A   1      41.761  21.035  26.420  1.00  0.00     0.124 S 
ATOM     85  O   UNL A   1      42.560  20.348  25.411  1.00  0.00    -0.237 OA
ATOM     86  O   UNL A   1      42.087  20.737  27.811  1.00  0.00    -0.237 OA
ATOM     87  O   UNL A   1      40.334  21.138  26.124  1.00  0.00    -0.744 OA
ENDBRANCH  80  84
ENDBRANCH  53  77
BRANCH  65  88
ATOM     88  C   UNL A   1      47.250  25.946  32.576  1.00  0.00     0.023 A 
ATOM     89  C   UNL A   1      47.304  24.896  33.510  1.00  0.00     0.031 A 
ATOM     90  C   UNL A   1      48.457  26.379  31.997  1.00  0.00     0.131 A 
ATOM     91  C   UNL A   1      48.544  24.355  33.882  1.00  0.00     0.055 A 
ATOM     92  C   UNL A   1      49.680  25.793  32.324  1.00  0.00     0.041 A 
ATOM     93  F   UNL A   1      48.465  27.379  31.102  1.00  0.00    -0.206 F 
ATOM     94  C   UNL A   1      49.730  24.784  33.281  1.00  0.00     0.022 A 
BRANCH  91  95
ATOM     95  S   UNL A   1      48.596  23.145  35.231  1.00  0.00     0.124 S 
ATOM     96  O   UNL A   1      48.877  23.991  36.386  1.00  0.00    -0.237 OA
ATOM     97  O   UNL A   1      47.259  22.561  35.180  1.00  0.00    -0.237 OA
ATOM     98  O   UNL A   1      49.680  22.244  34.843  1.00  0.00    -0.744 OA
ENDBRANCH  91  95
ENDBRANCH  65  88
ENDBRANCH  39  40
ENDBRANCH  31  34
ENDBRANCH  29  30
ENDBRANCH  28  29
ENDBRANCH  27  28
ENDBRANCH   1  27
TORSDOF 20
ENDMDL
MODEL 2
REMARK VINA RESULT:     -10.3      5.465     10.526
REMARK SMILES COc1cc(OC)cc(-c2ccc([C@@H](C)C(=O)NCCCCCCNC(=O)c3ccc(-c4c5nc(c(-c6cc(S(=O)(=O)[O-])ccc6F)c6ccc([nH]6)c(-c6cc(S(=O)(=O)[O-])ccc6F)c6nc(c(-c7cc(S(=O)(=O)[O-])ccc7F)c7ccc4[nH]7)C=C6)C=C5)cc3)cc2F)c1
REMARK SMILES IDX 21 1 20 2 19 3 18 4 16 5 17 6 14 8 15 9 13 10 10 11 11 12
REMARK SMILES IDX 92 13 12 14 91 15 93 16 9 17 3 18 4 19 94 20 5 21 8 22 2 23
REMARK SMILES IDX 1 24 6 25 7 26 22 27 23 28 24 29 25 30 26 31 27 33 28 34
REMARK SMILES IDX 29 35 90 36 30 37 89 38 31 39 32 40 33 41 83 42 34 43 88 44
REMARK SMILES IDX 82 45 84 46 35 47 87 48 81 49 80 50 36 52 68 53 48 54 67 55
REMARK SMILES IDX 49 56 52 57 66 58 85 59 50 60 51 61 65 63 86 64 53 65 37 66
REMARK SMILES IDX 38 67 46 68 39 69 45 70 47 71 44 72 40 73 41 74 42 75 43 76
REMARK SMILES IDX 69 77 70 78 78 79 71 80 77 81 79 82 76 83 72 84 73 85 74 86
REMARK SMILES IDX 75 87 54 88 55 89 63 90 56 91 62 92 64 93 61 94 57 95 58 96
REMARK SMILES IDX 59 97 60 98
REMARK H PARENT 18 7 25 32 84 51 52 62
REMARK Flexibility Score: inf
ROOT
ATOM      1  C   UNL A   1      39.714  26.866  28.712  1.00  0.00     0.002 C 
ENDROOT
BRANCH   1   2
ATOM      2  C   UNL A   1      38.926  27.789  29.645  1.00  0.00     0.021 C 
BRANCH   2   3
ATOM      3  C   UNL A   1      38.147  28.887  28.916  1.00  0.00     0.116 C 
BRANCH   3   4
ATOM      4  N   UNL A   1      37.307  29.643  29.823  1.00  0.00    -0.356 N 
ATOM      5  C   UNL A   1      36.419  30.651  29.608  1.00  0.00     0.227 C 
ATOM      6  O   UNL A   1      35.903  31.155  30.613  1.00  0.00    -0.274 OA
ATOM      7  H   UNL A   1      37.394  29.379  30.768  1.00  0.00     0.163 HD
BRANCH   5   8
ATOM      8  C   UNL A   1      36.034  31.168  28.214  1.00  0.00     0.105 C 
ATOM      9  C   UNL A   1      35.894  32.690  28.131  1.00  0.00     0.023 C 
BRANCH   8  10
ATOM     10  C   UNL A   1      34.927  30.361  27.555  1.00  0.00    -0.033 A 
ATOM     11  C   UNL A   1      32.839  28.940  26.207  1.00  0.00     0.018 A 
ATOM     12  C   UNL A   1      34.080  28.345  26.489  1.00  0.00     0.012 A 
ATOM     13  C   UNL A   1      32.671  30.265  26.628  1.00  0.00     0.131 A 
ATOM     14  C   UNL A   1      35.084  29.025  27.183  1.00  0.00     0.005 A 
ATOM     15  C   UNL A   1      33.694  30.971  27.272  1.00  0.00     0.044 A 
ATOM     16  F   UNL A   1      31.503  30.899  26.437  1.00  0.00    -0.206 F 
BRANCH  11  17
ATOM     17  C   UNL A   1      31.779  28.158  25.532  1.00  0.00    -0.008 A 
ATOM     18  C   UNL A   1      30.227  26.280  25.421  1.00  0.00     0.123 A 
ATOM     19  C   UNL A   1      29.753  26.738  24.191  1.00  0.00     0.092 A 
ATOM     20  C   UNL A   1      31.240  26.982  26.084  1.00  0.00     0.055 A 
ATOM     21  C   UNL A   1      30.266  27.900  23.621  1.00  0.00     0.123 A 
ATOM     22  C   UNL A   1      31.273  28.593  24.289  1.00  0.00     0.055 A 
BRANCH  18  23
ATOM     23  O   UNL A   1      29.679  25.104  25.858  1.00  0.00    -0.497 OA
ATOM     24  C   UNL A   1      30.617  24.090  26.197  1.00  0.00     0.278 C 
ENDBRANCH  18  23
BRANCH  21  25
ATOM     25  O   UNL A   1      29.717  28.255  22.420  1.00  0.00    -0.497 OA
ATOM     26  C   UNL A   1      29.512  29.646  22.191  1.00  0.00     0.278 C 
ENDBRANCH  21  25
ENDBRANCH  11  17
ENDBRANCH   8  10
ENDBRANCH   5   8
ENDBRANCH   3   4
ENDBRANCH   2   3
ENDBRANCH   1   2
BRANCH   1  27
ATOM     27  C   UNL A   1      39.284  25.393  28.739  1.00  0.00     0.002 C 
BRANCH  27  28
ATOM     28  C   UNL A   1      39.627  24.584  27.484  1.00  0.00     0.021 C 
BRANCH  28  29
ATOM     29  C   UNL A   1      40.016  25.423  26.268  1.00  0.00     0.116 C 
BRANCH  29  30
ATOM     30  N   UNL A   1      41.324  25.047  25.754  1.00  0.00    -0.352 N 
ATOM     31  C   UNL A   1      42.484  25.778  25.692  1.00  0.00     0.251 C 
ATOM     32  H   UNL A   1      41.385  24.132  25.397  1.00  0.00     0.163 HD
ATOM     33  O   UNL A   1      43.410  25.384  24.988  1.00  0.00    -0.269 OA
BRANCH  31  34
ATOM     34  C   UNL A   1      42.614  27.035  26.461  1.00  0.00     0.039 A 
ATOM     35  C   UNL A   1      43.355  27.033  27.646  1.00  0.00     0.014 A 
ATOM     36  C   UNL A   1      41.979  28.206  26.033  1.00  0.00     0.014 A 
ATOM     37  C   UNL A   1      43.506  28.218  28.371  1.00  0.00     0.010 A 
ATOM     38  C   UNL A   1      42.187  29.399  26.720  1.00  0.00     0.010 A 
ATOM     39  C   UNL A   1      42.948  29.418  27.900  1.00  0.00    -0.014 A 
BRANCH  39  40
ATOM     40  C   UNL A   1      43.142  30.698  28.629  1.00  0.00     0.031 A 
ATOM     41  C   UNL A   1      44.245  31.639  28.225  1.00  0.00     0.074 A 
ATOM     42  C   UNL A   1      42.365  30.984  29.692  1.00  0.00     0.049 A 
ATOM     43  N   UNL A   1      44.624  32.759  28.782  1.00  0.00    -0.248 NA
ATOM     44  C   UNL A   1      45.045  31.248  27.054  1.00  0.00     0.031 C 
ATOM     45  C   UNL A   1      41.286  30.134  30.201  1.00  0.00     0.029 A 
ATOM     46  N   UNL A   1      42.365  32.061  30.542  1.00  0.00    -0.354 N 
ATOM     47  C   UNL A   1      45.714  33.204  28.038  1.00  0.00     0.074 A 
ATOM     48  C   UNL A   1      45.969  32.196  27.030  1.00  0.00     0.031 C 
ATOM     49  C   UNL A   1      40.714  30.733  31.259  1.00  0.00     0.029 A 
ATOM     50  C   UNL A   1      41.414  31.985  31.534  1.00  0.00     0.049 A 
ATOM     51  H   UNL A   1      42.988  32.819  30.451  1.00  0.00     0.167 HD
ATOM     52  C   UNL A   1      46.418  34.356  28.169  1.00  0.00     0.034 A 
ATOM     53  C   UNL A   1      41.144  32.820  32.557  1.00  0.00     0.034 A 
ATOM     54  C   UNL A   1      46.143  35.354  29.175  1.00  0.00     0.049 A 
ATOM     55  C   UNL A   1      41.961  34.080  32.701  1.00  0.00     0.074 A 
ATOM     56  C   UNL A   1      46.760  36.578  29.367  1.00  0.00     0.029 A 
ATOM     57  N   UNL A   1      45.174  35.241  30.164  1.00  0.00    -0.354 N 
ATOM     58  N   UNL A   1      42.958  34.508  31.961  1.00  0.00    -0.248 NA
ATOM     59  C   UNL A   1      41.608  34.973  33.812  1.00  0.00     0.031 C 
ATOM     60  C   UNL A   1      46.212  37.172  30.510  1.00  0.00     0.029 A 
ATOM     61  C   UNL A   1      45.199  36.356  30.988  1.00  0.00     0.049 A 
ATOM     62  H   UNL A   1      44.558  34.478  30.266  1.00  0.00     0.167 HD
ATOM     63  C   UNL A   1      43.329  35.736  32.500  1.00  0.00     0.074 A 
ATOM     64  C   UNL A   1      42.440  35.986  33.615  1.00  0.00     0.031 C 
ATOM     65  C   UNL A   1      44.313  36.585  32.106  1.00  0.00     0.034 A 
BRANCH  52  66
ATOM     66  C   UNL A   1      47.569  34.578  27.216  1.00  0.00     0.023 A 
ATOM     67  C   UNL A   1      48.883  34.199  27.543  1.00  0.00     0.031 A 
ATOM     68  C   UNL A   1      47.358  35.203  25.974  1.00  0.00     0.131 A 
ATOM     69  C   UNL A   1      49.942  34.519  26.681  1.00  0.00     0.055 A 
ATOM     70  C   UNL A   1      48.406  35.442  25.081  1.00  0.00     0.041 A 
ATOM     71  F   UNL A   1      46.130  35.606  25.611  1.00  0.00    -0.206 F 
ATOM     72  C   UNL A   1      49.710  35.114  25.439  1.00  0.00     0.022 A 
BRANCH  69  73
ATOM     73  S   UNL A   1      51.641  34.282  27.271  1.00  0.00     0.124 S 
ATOM     74  O   UNL A   1      52.146  35.653  27.273  1.00  0.00    -0.237 OA
ATOM     75  O   UNL A   1      51.437  33.674  28.582  1.00  0.00    -0.237 OA
ATOM     76  O   UNL A   1      52.236  33.408  26.263  1.00  0.00    -0.744 OA
ENDBRANCH  69  73
ENDBRANCH  52  66
BRANCH  53  77
ATOM     77  C   UNL A   1      40.063  32.497  33.532  1.00  0.00     0.023 A 
ATOM     78  C   UNL A   1      38.780  33.051  33.399  1.00  0.00     0.031 A 
ATOM     79  C   UNL A   1      40.310  31.663  34.638  1.00  0.00     0.131 A 
ATOM     80  C   UNL A   1      37.806  32.804  34.377  1.00  0.00     0.055 A 
ATOM     81  C   UNL A   1      39.321  31.376  35.580  1.00  0.00     0.041 A 
ATOM     82  F   UNL A   1      41.517  31.103  34.810  1.00  0.00    -0.206 F 
ATOM     83  C   UNL A   1      38.063  31.960  35.461  1.00  0.00     0.022 A 
BRANCH  80  84
ATOM     84  S   UNL A   1      36.219  33.675  34.262  1.00  0.00     0.124 S 
ATOM     85  O   UNL A   1      36.614  34.928  33.629  1.00  0.00    -0.237 OA
ATOM     86  O   UNL A   1      35.432  32.760  33.442  1.00  0.00    -0.237 OA
ATOM     87  O   UNL A   1      35.790  33.786  35.655  1.00  0.00    -0.744 OA
ENDBRANCH  80  84
ENDBRANCH  53  77
BRANCH  65  88
ATOM     88  C   UNL A   1      44.443  37.883  32.865  1.00  0.00     0.023 A 
ATOM     89  C   UNL A   1      43.738  39.039  32.483  1.00  0.00     0.031 A 
ATOM     90  C   UNL A   1      45.295  37.967  33.981  1.00  0.00     0.131 A 
ATOM     91  C   UNL A   1      43.943  40.243  33.174  1.00  0.00     0.055 A 
ATOM     92  C   UNL A   1      45.446  39.152  34.702  1.00  0.00     0.041 A 
ATOM     93  F   UNL A   1      45.994  36.896  34.389  1.00  0.00    -0.206 F 
ATOM     94  C   UNL A   1      44.779  40.302  34.292  1.00  0.00     0.022 A 
BRANCH  91  95
ATOM     95  S   UNL A   1      43.175  41.755  32.534  1.00  0.00     0.124 S 
ATOM     96  O   UNL A   1      41.824  41.301  32.221  1.00  0.00    -0.237 OA
ATOM     97  O   UNL A   1      43.294  42.669  33.665  1.00  0.00    -0.237 OA
ATOM     98  O   UNL A   1      43.999  42.095  31.374  1.00  0.00    -0.744 OA
ENDBRANCH  91  95
ENDBRANCH  65  88
ENDBRANCH  39  40
ENDBRANCH  31  34
ENDBRANCH  29  30
ENDBRANCH  28  29
ENDBRANCH  27  28
ENDBRANCH   1  27
TORSDOF 20
ENDMDL
MODEL 3
REMARK VINA RESULT:     -10.0      5.517     10.012
REMARK SMILES COc1cc(OC)cc(-c2ccc([C@@H](C)C(=O)NCCCCCCNC(=O)c3ccc(-c4c5nc(c(-c6cc(S(=O)(=O)[O-])ccc6F)c6ccc([nH]6)c(-c6cc(S(=O)(=O)[O-])ccc6F)c6nc(c(-c7cc(S(=O)(=O)[O-])ccc7F)c7ccc4[nH]7)C=C6)C=C5)cc3)cc2F)c1
REMARK SMILES IDX 21 1 20 2 19 3 18 4 16 5 17 6 14 8 15 9 13 10 10 11 11 12
REMARK SMILES IDX 92 13 12 14 91 15 93 16 9 17 3 18 4 19 94 20 5 21 8 22 2 23
REMARK SMILES IDX 1 24 6 25 7 26 22 27 23 28 24 29 25 30 26 31 27 33 28 34
REMARK SMILES IDX 29 35 90 36 30 37 89 38 31 39 32 40 33 41 83 42 34 43 88 44
REMARK SMILES IDX 82 45 84 46 35 47 87 48 81 49 80 50 36 52 68 53 48 54 67 55
REMARK SMILES IDX 49 56 52 57 66 58 85 59 50 60 51 61 65 63 86 64 53 65 37 66
REMARK SMILES IDX 38 67 46 68 39 69 45 70 47 71 44 72 40 73 41 74 42 75 43 76
REMARK SMILES IDX 69 77 70 78 78 79 71 80 77 81 79 82 76 83 72 84 73 85 74 86
REMARK SMILES IDX 75 87 54 88 55 89 63 90 56 91 62 92 64 93 61 94 57 95 58 96
REMARK SMILES IDX 59 97 60 98
REMARK H PARENT 18 7 25 32 84 51 52 62
REMARK Flexibility Score: inf
ROOT
ATOM      1  C   UNL A   1      39.417  27.550  28.786  1.00  0.00     0.002 C 
ENDROOT
BRANCH   1   2
ATOM      2  C   UNL A   1      38.301  28.302  29.516  1.00  0.00     0.021 C 
BRANCH   2   3
ATOM      3  C   UNL A   1      38.251  29.798  29.195  1.00  0.00     0.116 C 
BRANCH   3   4
ATOM      4  N   UNL A   1      37.274  30.492  30.010  1.00  0.00    -0.356 N 
ATOM      5  C   UNL A   1      36.258  31.336  29.686  1.00  0.00     0.227 C 
ATOM      6  O   UNL A   1      35.634  31.837  30.631  1.00  0.00    -0.274 OA
ATOM      7  H   UNL A   1      37.362  30.320  30.976  1.00  0.00     0.163 HD
BRANCH   5   8
ATOM      8  C   UNL A   1      35.856  31.676  28.243  1.00  0.00     0.105 C 
ATOM      9  C   UNL A   1      35.633  33.170  27.995  1.00  0.00     0.023 C 
BRANCH   8  10
ATOM     10  C   UNL A   1      34.801  30.742  27.674  1.00  0.00    -0.033 A 
ATOM     11  C   UNL A   1      32.812  29.065  26.480  1.00  0.00     0.018 A 
ATOM     12  C   UNL A   1      34.058  28.562  26.892  1.00  0.00     0.012 A 
ATOM     13  C   UNL A   1      32.588  30.430  26.692  1.00  0.00     0.131 A 
ATOM     14  C   UNL A   1      35.013  29.372  27.512  1.00  0.00     0.005 A 
ATOM     15  C   UNL A   1      33.563  31.259  27.259  1.00  0.00     0.044 A 
ATOM     16  F   UNL A   1      31.410  30.987  26.367  1.00  0.00    -0.206 F 
BRANCH  11  17
ATOM     17  C   UNL A   1      31.804  28.154  25.893  1.00  0.00    -0.008 A 
ATOM     18  C   UNL A   1      30.151  27.579  24.195  1.00  0.00     0.123 A 
ATOM     19  C   UNL A   1      29.916  26.358  24.830  1.00  0.00     0.092 A 
ATOM     20  C   UNL A   1      31.083  28.474  24.728  1.00  0.00     0.055 A 
ATOM     21  C   UNL A   1      30.616  26.011  25.982  1.00  0.00     0.123 A 
ATOM     22  C   UNL A   1      31.545  26.909  26.505  1.00  0.00     0.055 A 
BRANCH  18  23
ATOM     23  O   UNL A   1      29.370  27.826  23.097  1.00  0.00    -0.497 OA
ATOM     24  C   UNL A   1      30.005  28.562  22.059  1.00  0.00     0.278 C 
ENDBRANCH  18  23
BRANCH  21  25
ATOM     25  O   UNL A   1      30.310  24.787  26.508  1.00  0.00    -0.497 OA
ATOM     26  C   UNL A   1      31.246  23.737  26.284  1.00  0.00     0.278 C 
ENDBRANCH  21  25
ENDBRANCH  11  17
ENDBRANCH   8  10
ENDBRANCH   5   8
ENDBRANCH   3   4
ENDBRANCH   2   3
ENDBRANCH   1   2
BRANCH   1  27
ATOM     27  C   UNL A   1      39.295  26.021  28.812  1.00  0.00     0.002 C 
BRANCH  27  28
ATOM     28  C   UNL A   1      40.347  25.261  27.996  1.00  0.00     0.021 C 
BRANCH  28  29
ATOM     29  C   UNL A   1      40.316  25.543  26.495  1.00  0.00     0.116 C 
BRANCH  29  30
ATOM     30  N   UNL A   1      41.591  25.238  25.866  1.00  0.00    -0.352 N 
ATOM     31  C   UNL A   1      42.717  26.015  25.747  1.00  0.00     0.251 C 
ATOM     32  H   UNL A   1      41.658  24.341  25.467  1.00  0.00     0.163 HD
ATOM     33  O   UNL A   1      43.598  25.686  24.958  1.00  0.00    -0.269 OA
BRANCH  31  34
ATOM     34  C   UNL A   1      42.861  27.245  26.556  1.00  0.00     0.039 A 
ATOM     35  C   UNL A   1      43.742  27.245  27.641  1.00  0.00     0.014 A 
ATOM     36  C   UNL A   1      42.107  28.387  26.266  1.00  0.00     0.014 A 
ATOM     37  C   UNL A   1      43.906  28.406  28.401  1.00  0.00     0.010 A 
ATOM     38  C   UNL A   1      42.323  29.562  26.982  1.00  0.00     0.010 A 
ATOM     39  C   UNL A   1      43.221  29.584  28.060  1.00  0.00    -0.014 A 
BRANCH  39  40
ATOM     40  C   UNL A   1      43.423  30.842  28.824  1.00  0.00     0.031 A 
ATOM     41  C   UNL A   1      42.551  31.155  30.010  1.00  0.00     0.074 A 
ATOM     42  C   UNL A   1      44.351  31.729  28.413  1.00  0.00     0.049 A 
ATOM     43  N   UNL A   1      42.518  32.231  30.753  1.00  0.00    -0.248 NA
ATOM     44  C   UNL A   1      41.565  30.132  30.388  1.00  0.00     0.031 C 
ATOM     45  C   UNL A   1      45.234  31.553  27.258  1.00  0.00     0.029 A 
ATOM     46  N   UNL A   1      44.703  32.958  28.912  1.00  0.00    -0.354 N 
ATOM     47  C   UNL A   1      41.502  32.021  31.680  1.00  0.00     0.074 A 
ATOM     48  C   UNL A   1      40.905  30.740  31.362  1.00  0.00     0.031 C 
ATOM     49  C   UNL A   1      46.039  32.622  27.151  1.00  0.00     0.029 A 
ATOM     50  C   UNL A   1      45.701  33.581  28.199  1.00  0.00     0.049 A 
ATOM     51  H   UNL A   1      44.280  33.358  29.707  1.00  0.00     0.167 HD
ATOM     52  C   UNL A   1      41.119  32.810  32.715  1.00  0.00     0.034 A 
ATOM     53  C   UNL A   1      46.271  34.792  28.361  1.00  0.00     0.034 A 
ATOM     54  C   UNL A   1      41.733  34.080  33.024  1.00  0.00     0.049 A 
ATOM     55  C   UNL A   1      45.809  35.666  29.500  1.00  0.00     0.074 A 
ATOM     56  C   UNL A   1      41.459  34.937  34.076  1.00  0.00     0.029 A 
ATOM     57  N   UNL A   1      42.740  34.679  32.278  1.00  0.00    -0.354 N 
ATOM     58  N   UNL A   1      44.878  35.432  30.397  1.00  0.00    -0.248 NA
ATOM     59  C   UNL A   1      46.482  36.961  29.655  1.00  0.00     0.031 C 
ATOM     60  C   UNL A   1      42.250  36.082  33.926  1.00  0.00     0.029 A 
ATOM     61  C   UNL A   1      43.074  35.908  32.826  1.00  0.00     0.049 A 
ATOM     62  H   UNL A   1      43.156  34.289  31.475  1.00  0.00     0.167 HD
ATOM     63  C   UNL A   1      44.877  36.539  31.240  1.00  0.00     0.074 A 
ATOM     64  C   UNL A   1      45.909  37.431  30.754  1.00  0.00     0.031 C 
ATOM     65  C   UNL A   1      44.098  36.794  32.322  1.00  0.00     0.034 A 
BRANCH  52  66
ATOM     66  C   UNL A   1      39.967  32.329  33.567  1.00  0.00     0.023 A 
ATOM     67  C   UNL A   1      38.694  32.921  33.490  1.00  0.00     0.031 A 
ATOM     68  C   UNL A   1      40.149  31.284  34.490  1.00  0.00     0.131 A 
ATOM     69  C   UNL A   1      37.679  32.522  34.372  1.00  0.00     0.055 A 
ATOM     70  C   UNL A   1      39.110  30.833  35.308  1.00  0.00     0.041 A 
ATOM     71  F   UNL A   1      41.346  30.691  34.626  1.00  0.00    -0.206 F 
ATOM     72  C   UNL A   1      37.869  31.464  35.263  1.00  0.00     0.022 A 
BRANCH  69  73
ATOM     73  S   UNL A   1      36.157  33.506  34.442  1.00  0.00     0.124 S 
ATOM     74  O   UNL A   1      35.236  32.677  33.669  1.00  0.00    -0.237 OA
ATOM     75  O   UNL A   1      35.897  33.584  35.875  1.00  0.00    -0.237 OA
ATOM     76  O   UNL A   1      36.534  34.766  33.805  1.00  0.00    -0.744 OA
ENDBRANCH  69  73
ENDBRANCH  52  66
BRANCH  53  77
ATOM     77  C   UNL A   1      47.333  35.259  27.424  1.00  0.00     0.023 A 
ATOM     78  C   UNL A   1      48.688  35.000  27.680  1.00  0.00     0.031 A 
ATOM     79  C   UNL A   1      47.010  36.012  26.280  1.00  0.00     0.131 A 
ATOM     80  C   UNL A   1      49.674  35.527  26.832  1.00  0.00     0.055 A 
ATOM     81  C   UNL A   1      47.991  36.487  25.409  1.00  0.00     0.041 A 
ATOM     82  F   UNL A   1      45.729  36.284  25.985  1.00  0.00    -0.206 F 
ATOM     83  C   UNL A   1      49.335  36.258  25.691  1.00  0.00     0.022 A 
BRANCH  80  84
ATOM     84  S   UNL A   1      51.417  35.317  27.291  1.00  0.00     0.124 S 
ATOM     85  O   UNL A   1      52.092  35.626  26.036  1.00  0.00    -0.237 OA
ATOM     86  O   UNL A   1      51.566  36.299  28.361  1.00  0.00    -0.237 OA
ATOM     87  O   UNL A   1      51.491  33.921  27.715  1.00  0.00    -0.744 OA
ENDBRANCH  80  84
ENDBRANCH  53  77
BRANCH  65  88
ATOM     88  C   UNL A   1      44.370  38.074  33.075  1.00  0.00     0.023 A 
ATOM     89  C   UNL A   1      43.595  39.231  32.875  1.00  0.00     0.031 A 
ATOM     90  C   UNL A   1      45.429  38.139  33.999  1.00  0.00     0.131 A 
ATOM     91  C   UNL A   1      43.927  40.418  33.543  1.00  0.00     0.055 A 
ATOM     92  C   UNL A   1      45.715  39.306  34.707  1.00  0.00     0.041 A 
ATOM     93  F   UNL A   1      46.203  37.066  34.228  1.00  0.00    -0.206 F 
ATOM     94  C   UNL A   1      44.971  40.458  34.472  1.00  0.00     0.022 A 
BRANCH  91  95
ATOM     95  S   UNL A   1      43.036  41.937  33.113  1.00  0.00     0.124 S 
ATOM     96  O   UNL A   1      44.085  42.737  32.488  1.00  0.00    -0.237 OA
ATOM     97  O   UNL A   1      41.992  41.446  32.220  1.00  0.00    -0.237 OA
ATOM     98  O   UNL A   1      42.563  42.435  34.403  1.00  0.00    -0.744 OA
ENDBRANCH  91  95
ENDBRANCH  65  88
ENDBRANCH  39  40
ENDBRANCH  31  34
ENDBRANCH  29  30
ENDBRANCH  28  29
ENDBRANCH  27  28
ENDBRANCH   1  27
TORSDOF 20
ENDMDL
