MODEL 1
REMARK VINA RESULT:     -11.5      0.000      0.000
REMARK SMILES C[C@@H]1CN(C(=O)N2CCC(CC(=O)NCCCCCCNC(=O)c3ccc(-c4c5nc(c(-c6cc(S(=O)(=O)[O-])ccc6F)c6ccc([nH]6)c(-c6cc(S(=O)(=O)[O-])ccc6F)c6nc(c(-c7cc(S(=O)(=O)[O-])ccc7F)c7ccc4[nH]7)C=C6)C=C5)cc3)CC2)C[C@@H](C)S1
REMARK SMILES IDX 18 1 17 2 16 3 15 4 14 5 12 6 13 7 11 9 10 10 1 11 2 12 3 13
REMARK SMILES IDX 92 14 4 15 90 16 5 17 89 18 91 19 6 20 7 21 8 22 88 23 9 24
REMARK SMILES IDX 87 25 19 26 20 27 21 28 22 29 23 31 24 32 25 33 86 34 26 35
REMARK SMILES IDX 85 36 27 37 28 38 29 39 79 40 30 41 84 42 78 43 80 44 31 45
REMARK SMILES IDX 83 46 77 47 76 48 32 50 64 51 44 52 63 53 45 54 48 55 62 56
REMARK SMILES IDX 81 57 46 58 47 59 61 61 82 62 49 63 33 64 34 65 42 66 35 67
REMARK SMILES IDX 41 68 43 69 40 70 36 71 37 72 38 73 39 74 65 75 66 76 74 77
REMARK SMILES IDX 67 78 73 79 75 80 72 81 68 82 69 83 70 84 71 85 50 86 51 87
REMARK SMILES IDX 59 88 52 89 58 90 60 91 57 92 53 93 54 94 55 95 56 96
REMARK H PARENT 14 8 21 30 80 49 48 60
REMARK Flexibility Score: inf
ROOT
ATOM      1  C   UNL A   1      32.731  30.837  27.218  1.00  0.00     0.002 C 
ENDROOT
BRANCH   1   2
ATOM      2  C   UNL A   1      34.211  30.742  27.597  1.00  0.00     0.002 C 
BRANCH   2   3
ATOM      3  C   UNL A   1      34.830  29.356  27.414  1.00  0.00     0.021 C 
BRANCH   3   4
ATOM      4  C   UNL A   1      33.851  28.286  26.917  1.00  0.00     0.116 C 
BRANCH   4   5
ATOM      5  N   UNL A   1      34.076  28.004  25.507  1.00  0.00    -0.356 N 
ATOM      6  C   UNL A   1      33.214  27.980  24.450  1.00  0.00     0.220 C 
ATOM      7  O   UNL A   1      33.634  27.573  23.365  1.00  0.00    -0.275 OA
ATOM      8  H   UNL A   1      35.010  27.795  25.277  1.00  0.00     0.163 HD
BRANCH   6   9
ATOM      9  C   UNL A   1      31.782  28.466  24.589  1.00  0.00     0.103 C 
BRANCH   9  10
ATOM     10  C   UNL A   1      30.710  27.351  24.645  1.00  0.00     0.002 C 
ATOM     11  C   UNL A   1      34.318  24.330  25.658  1.00  0.00     0.021 C 
ATOM     12  C   UNL A   1      34.519  23.721  24.273  1.00  0.00     0.063 C 
ATOM     13  C   UNL A   1      33.231  23.708  23.425  1.00  0.00     0.135 C 
ATOM     14  S   UNL A   1      35.269  22.060  24.426  1.00  0.00    -0.152 SA
ATOM     15  N   UNL A   1      32.210  22.793  23.935  1.00  0.00    -0.322 N 
ATOM     16  C   UNL A   1      33.768  21.073  24.842  1.00  0.00     0.063 C 
ATOM     17  C   UNL A   1      31.219  23.169  24.834  1.00  0.00     0.320 C 
ATOM     18  C   UNL A   1      32.601  21.382  23.887  1.00  0.00     0.135 C 
ATOM     19  C   UNL A   1      34.149  19.596  24.788  1.00  0.00     0.021 C 
ATOM     20  O   UNL A   1      30.829  22.412  25.722  1.00  0.00    -0.248 OA
ATOM     21  N   UNL A   1      30.746  24.461  24.739  1.00  0.00    -0.325 N 
ATOM     22  C   UNL A   1      30.276  25.155  25.923  1.00  0.00     0.121 C 
ATOM     23  C   UNL A   1      30.283  25.050  23.497  1.00  0.00     0.121 C 
ATOM     24  C   UNL A   1      30.902  26.546  25.951  1.00  0.00     0.026 C 
ATOM     25  C   UNL A   1      30.767  26.485  23.375  1.00  0.00     0.026 C 
ENDBRANCH   9  10
ENDBRANCH   6   9
ENDBRANCH   4   5
ENDBRANCH   3   4
ENDBRANCH   2   3
ENDBRANCH   1   2
BRANCH   1  26
ATOM     26  C   UNL A   1      32.097  32.225  27.363  1.00  0.00     0.021 C 
BRANCH  26  27
ATOM     27  C   UNL A   1      33.034  33.403  27.103  1.00  0.00     0.116 C 
BRANCH  27  28
ATOM     28  N   UNL A   1      32.684  34.565  27.900  1.00  0.00    -0.352 N 
ATOM     29  C   UNL A   1      33.123  34.935  29.148  1.00  0.00     0.251 C 
ATOM     30  H   UNL A   1      32.035  35.179  27.485  1.00  0.00     0.163 HD
ATOM     31  O   UNL A   1      32.537  35.823  29.759  1.00  0.00    -0.269 OA
BRANCH  29  32
ATOM     32  C   UNL A   1      34.287  34.253  29.757  1.00  0.00     0.039 A 
ATOM     33  C   UNL A   1      35.573  34.593  29.327  1.00  0.00     0.014 A 
ATOM     34  C   UNL A   1      34.111  33.264  30.729  1.00  0.00     0.014 A 
ATOM     35  C   UNL A   1      36.684  33.982  29.915  1.00  0.00     0.010 A 
ATOM     36  C   UNL A   1      35.220  32.703  31.358  1.00  0.00     0.010 A 
ATOM     37  C   UNL A   1      36.519  33.053  30.956  1.00  0.00    -0.014 A 
BRANCH  37  38
ATOM     38  C   UNL A   1      37.690  32.433  31.629  1.00  0.00     0.031 A 
ATOM     39  C   UNL A   1      38.425  31.297  30.968  1.00  0.00     0.074 A 
ATOM     40  C   UNL A   1      38.053  32.850  32.858  1.00  0.00     0.049 A 
ATOM     41  N   UNL A   1      39.414  30.573  31.425  1.00  0.00    -0.248 NA
ATOM     42  C   UNL A   1      37.963  30.907  29.628  1.00  0.00     0.031 C 
ATOM     43  C   UNL A   1      37.396  33.918  33.614  1.00  0.00     0.029 A 
ATOM     44  N   UNL A   1      39.055  32.422  33.692  1.00  0.00    -0.354 N 
ATOM     45  C   UNL A   1      39.686  29.633  30.436  1.00  0.00     0.074 A 
ATOM     46  C   UNL A   1      38.715  29.845  29.383  1.00  0.00     0.031 C 
ATOM     47  C   UNL A   1      38.024  34.073  34.791  1.00  0.00     0.029 A 
ATOM     48  C   UNL A   1      39.098  33.091  34.894  1.00  0.00     0.049 A 
ATOM     49  H   UNL A   1      39.684  31.703  33.453  1.00  0.00     0.167 HD
ATOM     50  C   UNL A   1      40.665  28.696  30.400  1.00  0.00     0.034 A 
ATOM     51  C   UNL A   1      39.902  32.923  35.962  1.00  0.00     0.034 A 
ATOM     52  C   UNL A   1      41.633  28.507  31.454  1.00  0.00     0.049 A 
ATOM     53  C   UNL A   1      40.971  31.860  35.909  1.00  0.00     0.074 A 
ATOM     54  C   UNL A   1      42.700  27.626  31.499  1.00  0.00     0.029 A 
ATOM     55  N   UNL A   1      41.648  29.205  32.655  1.00  0.00    -0.354 N 
ATOM     56  N   UNL A   1      41.245  31.010  34.946  1.00  0.00    -0.248 NA
ATOM     57  C   UNL A   1      41.846  31.743  37.082  1.00  0.00     0.031 C 
ATOM     58  C   UNL A   1      43.317  27.744  32.749  1.00  0.00     0.029 A 
ATOM     59  C   UNL A   1      42.685  28.754  33.458  1.00  0.00     0.049 A 
ATOM     60  H   UNL A   1      41.013  29.918  32.901  1.00  0.00     0.167 HD
ATOM     61  C   UNL A   1      42.344  30.279  35.387  1.00  0.00     0.074 A 
ATOM     62  C   UNL A   1      42.690  30.797  36.695  1.00  0.00     0.031 C 
ATOM     63  C   UNL A   1      43.012  29.274  34.766  1.00  0.00     0.034 A 
BRANCH  50  64
ATOM     64  C   UNL A   1      40.717  27.790  29.191  1.00  0.00     0.023 A 
ATOM     65  C   UNL A   1      41.638  28.001  28.150  1.00  0.00     0.031 A 
ATOM     66  C   UNL A   1      39.814  26.721  29.062  1.00  0.00     0.131 A 
ATOM     67  C   UNL A   1      41.584  27.208  26.994  1.00  0.00     0.055 A 
ATOM     68  C   UNL A   1      39.820  25.882  27.945  1.00  0.00     0.041 A 
ATOM     69  F   UNL A   1      38.897  26.481  30.012  1.00  0.00    -0.206 F 
ATOM     70  C   UNL A   1      40.698  26.133  26.894  1.00  0.00     0.022 A 
BRANCH  67  71
ATOM     71  S   UNL A   1      42.585  27.696  25.562  1.00  0.00     0.124 S 
ATOM     72  O   UNL A   1      43.899  27.885  26.173  1.00  0.00    -0.237 OA
ATOM     73  O   UNL A   1      42.452  26.546  24.676  1.00  0.00    -0.237 OA
ATOM     74  O   UNL A   1      41.941  28.922  25.096  1.00  0.00    -0.744 OA
ENDBRANCH  67  71
ENDBRANCH  50  64
BRANCH  51  75
ATOM     75  C   UNL A   1      39.730  33.767  37.178  1.00  0.00     0.023 A 
ATOM     76  C   UNL A   1      38.996  33.304  38.282  1.00  0.00     0.031 A 
ATOM     77  C   UNL A   1      40.264  35.067  37.240  1.00  0.00     0.131 A 
ATOM     78  C   UNL A   1      38.775  34.149  39.381  1.00  0.00     0.055 A 
ATOM     79  C   UNL A   1      40.085  35.885  38.357  1.00  0.00     0.041 A 
ATOM     80  F   UNL A   1      40.979  35.555  36.215  1.00  0.00    -0.206 F 
ATOM     81  C   UNL A   1      39.325  35.432  39.431  1.00  0.00     0.022 A 
BRANCH  78  82
ATOM     82  S   UNL A   1      37.688  33.574  40.714  1.00  0.00     0.124 S 
ATOM     83  O   UNL A   1      37.360  34.825  41.389  1.00  0.00    -0.237 OA
ATOM     84  O   UNL A   1      36.603  32.944  39.968  1.00  0.00    -0.237 OA
ATOM     85  O   UNL A   1      38.534  32.657  41.472  1.00  0.00    -0.744 OA
ENDBRANCH  78  82
ENDBRANCH  51  75
BRANCH  63  86
ATOM     86  C   UNL A   1      44.213  28.704  35.481  1.00  0.00     0.023 A 
ATOM     87  C   UNL A   1      44.087  27.694  36.450  1.00  0.00     0.031 A 
ATOM     88  C   UNL A   1      45.500  29.193  35.195  1.00  0.00     0.131 A 
ATOM     89  C   UNL A   1      45.223  27.242  37.139  1.00  0.00     0.055 A 
ATOM     90  C   UNL A   1      46.633  28.698  35.842  1.00  0.00     0.041 A 
ATOM     91  F   UNL A   1      45.677  30.160  34.281  1.00  0.00    -0.206 F 
ATOM     92  C   UNL A   1      46.497  27.727  36.829  1.00  0.00     0.022 A 
BRANCH  89  93
ATOM     93  S   UNL A   1      45.005  26.077  38.511  1.00  0.00     0.124 S 
ATOM     94  O   UNL A   1      44.914  24.800  37.813  1.00  0.00    -0.237 OA
ATOM     95  O   UNL A   1      46.216  26.290  39.297  1.00  0.00    -0.237 OA
ATOM     96  O   UNL A   1      43.767  26.524  39.148  1.00  0.00    -0.744 OA
ENDBRANCH  89  93
ENDBRANCH  63  86
ENDBRANCH  37  38
ENDBRANCH  29  32
ENDBRANCH  27  28
ENDBRANCH  26  27
ENDBRANCH   1  26
TORSDOF 17
ENDMDL
MODEL 2
REMARK VINA RESULT:     -11.3      1.353      7.754
REMARK SMILES C[C@@H]1CN(C(=O)N2CCC(CC(=O)NCCCCCCNC(=O)c3ccc(-c4c5nc(c(-c6cc(S(=O)(=O)[O-])ccc6F)c6ccc([nH]6)c(-c6cc(S(=O)(=O)[O-])ccc6F)c6nc(c(-c7cc(S(=O)(=O)[O-])ccc7F)c7ccc4[nH]7)C=C6)C=C5)cc3)CC2)C[C@@H](C)S1
REMARK SMILES IDX 18 1 17 2 16 3 15 4 14 5 12 6 13 7 11 9 10 10 1 11 2 12 3 13
REMARK SMILES IDX 92 14 4 15 90 16 5 17 89 18 91 19 6 20 7 21 8 22 88 23 9 24
REMARK SMILES IDX 87 25 19 26 20 27 21 28 22 29 23 31 24 32 25 33 86 34 26 35
REMARK SMILES IDX 85 36 27 37 28 38 29 39 79 40 30 41 84 42 78 43 80 44 31 45
REMARK SMILES IDX 83 46 77 47 76 48 32 50 64 51 44 52 63 53 45 54 48 55 62 56
REMARK SMILES IDX 81 57 46 58 47 59 61 61 82 62 49 63 33 64 34 65 42 66 35 67
REMARK SMILES IDX 41 68 43 69 40 70 36 71 37 72 38 73 39 74 65 75 66 76 74 77
REMARK SMILES IDX 67 78 73 79 75 80 72 81 68 82 69 83 70 84 71 85 50 86 51 87
REMARK SMILES IDX 59 88 52 89 58 90 60 91 57 92 53 93 54 94 55 95 56 96
REMARK H PARENT 14 8 21 30 80 49 48 60
REMARK Flexibility Score: inf
ROOT
ATOM      1  C   UNL A   1      35.496  33.210  27.991  1.00  0.00     0.002 C 
ENDROOT
BRANCH   1   2
ATOM      2  C   UNL A   1      34.870  31.865  28.370  1.00  0.00     0.002 C 
BRANCH   2   3
ATOM      3  C   UNL A   1      35.444  30.660  27.625  1.00  0.00     0.021 C 
BRANCH   3   4
ATOM      4  C   UNL A   1      34.394  29.640  27.169  1.00  0.00     0.116 C 
BRANCH   4   5
ATOM      5  N   UNL A   1      33.141  30.307  26.849  1.00  0.00    -0.356 N 
ATOM      6  C   UNL A   1      32.261  30.116  25.825  1.00  0.00     0.220 C 
ATOM      7  O   UNL A   1      31.330  30.914  25.699  1.00  0.00    -0.275 OA
ATOM      8  H   UNL A   1      32.885  31.019  27.479  1.00  0.00     0.163 HD
BRANCH   6   9
ATOM      9  C   UNL A   1      32.398  28.936  24.878  1.00  0.00     0.103 C 
BRANCH   9  10
ATOM     10  C   UNL A   1      31.187  27.971  24.848  1.00  0.00     0.002 C 
ATOM     11  C   UNL A   1      34.340  24.445  25.740  1.00  0.00     0.021 C 
ATOM     12  C   UNL A   1      34.495  23.896  24.323  1.00  0.00     0.063 C 
ATOM     13  C   UNL A   1      33.238  24.103  23.454  1.00  0.00     0.135 C 
ATOM     14  S   UNL A   1      35.016  22.144  24.389  1.00  0.00    -0.152 SA
ATOM     15  N   UNL A   1      32.092  23.303  23.891  1.00  0.00    -0.322 N 
ATOM     16  C   UNL A   1      33.388  21.342  24.719  1.00  0.00     0.063 C 
ATOM     17  C   UNL A   1      31.137  23.755  24.793  1.00  0.00     0.320 C 
ATOM     18  C   UNL A   1      32.297  21.858  23.764  1.00  0.00     0.135 C 
ATOM     19  C   UNL A   1      33.572  19.834  24.583  1.00  0.00     0.021 C 
ATOM     20  O   UNL A   1      30.629  23.007  25.627  1.00  0.00    -0.248 OA
ATOM     21  N   UNL A   1      30.841  25.102  24.768  1.00  0.00    -0.325 N 
ATOM     22  C   UNL A   1      30.436  25.783  25.983  1.00  0.00     0.121 C 
ATOM     23  C   UNL A   1      30.491  25.817  23.556  1.00  0.00     0.121 C 
ATOM     24  C   UNL A   1      31.239  27.074  26.106  1.00  0.00     0.026 C 
ATOM     25  C   UNL A   1      31.162  27.180  23.529  1.00  0.00     0.026 C 
ENDBRANCH   9  10
ENDBRANCH   6   9
ENDBRANCH   4   5
ENDBRANCH   3   4
ENDBRANCH   2   3
ENDBRANCH   1   2
BRANCH   1  26
ATOM     26  C   UNL A   1      34.556  34.418  28.046  1.00  0.00     0.021 C 
BRANCH  26  27
ATOM     27  C   UNL A   1      33.203  34.165  28.709  1.00  0.00     0.116 C 
BRANCH  27  28
ATOM     28  N   UNL A   1      32.954  35.083  29.807  1.00  0.00    -0.352 N 
ATOM     29  C   UNL A   1      33.495  35.107  31.069  1.00  0.00     0.251 C 
ATOM     30  H   UNL A   1      32.298  35.794  29.618  1.00  0.00     0.163 HD
ATOM     31  O   UNL A   1      32.987  35.813  31.934  1.00  0.00    -0.269 OA
BRANCH  29  32
ATOM     32  C   UNL A   1      34.675  34.271  31.385  1.00  0.00     0.039 A 
ATOM     33  C   UNL A   1      35.953  34.812  31.216  1.00  0.00     0.014 A 
ATOM     34  C   UNL A   1      34.524  32.951  31.820  1.00  0.00     0.014 A 
ATOM     35  C   UNL A   1      37.077  34.048  31.542  1.00  0.00     0.010 A 
ATOM     36  C   UNL A   1      35.642  32.214  32.204  1.00  0.00     0.010 A 
ATOM     37  C   UNL A   1      36.931  32.753  32.066  1.00  0.00    -0.014 A 
BRANCH  37  38
ATOM     38  C   UNL A   1      38.113  31.945  32.467  1.00  0.00     0.031 A 
ATOM     39  C   UNL A   1      38.825  32.240  33.759  1.00  0.00     0.074 A 
ATOM     40  C   UNL A   1      38.581  30.990  31.639  1.00  0.00     0.049 A 
ATOM     41  N   UNL A   1      39.916  31.707  34.246  1.00  0.00    -0.248 NA
ATOM     42  C   UNL A   1      38.246  33.297  34.602  1.00  0.00     0.031 C 
ATOM     43  C   UNL A   1      37.998  30.637  30.343  1.00  0.00     0.029 A 
ATOM     44  N   UNL A   1      39.659  30.148  31.757  1.00  0.00    -0.354 N 
ATOM     45  C   UNL A   1      40.164  32.372  35.443  1.00  0.00     0.074 A 
ATOM     46  C   UNL A   1      39.139  33.386  35.575  1.00  0.00     0.031 C 
ATOM     47  C   UNL A   1      38.713  29.639  29.797  1.00  0.00     0.029 A 
ATOM     48  C   UNL A   1      39.829  29.311  30.678  1.00  0.00     0.049 A 
ATOM     49  H   UNL A   1      40.255  30.144  32.541  1.00  0.00     0.167 HD
ATOM     50  C   UNL A   1      41.140  32.143  36.356  1.00  0.00     0.034 A 
ATOM     51  C   UNL A   1      40.782  28.394  30.422  1.00  0.00     0.034 A 
ATOM     52  C   UNL A   1      42.146  31.117  36.213  1.00  0.00     0.049 A 
ATOM     53  C   UNL A   1      41.870  28.171  31.442  1.00  0.00     0.074 A 
ATOM     54  C   UNL A   1      43.148  30.762  37.100  1.00  0.00     0.029 A 
ATOM     55  N   UNL A   1      42.284  30.285  35.109  1.00  0.00    -0.354 N 
ATOM     56  N   UNL A   1      42.063  28.775  32.592  1.00  0.00    -0.248 NA
ATOM     57  C   UNL A   1      42.863  27.133  31.133  1.00  0.00     0.031 C 
ATOM     58  C   UNL A   1      43.930  29.765  36.506  1.00  0.00     0.029 A 
ATOM     59  C   UNL A   1      43.371  29.441  35.279  1.00  0.00     0.049 A 
ATOM     60  H   UNL A   1      41.696  30.295  34.319  1.00  0.00     0.167 HD
ATOM     61  C   UNL A   1      43.180  28.168  33.156  1.00  0.00     0.074 A 
ATOM     62  C   UNL A   1      43.610  27.143  32.228  1.00  0.00     0.031 C 
ATOM     63  C   UNL A   1      43.795  28.430  34.339  1.00  0.00     0.034 A 
BRANCH  50  64
ATOM     64  C   UNL A   1      41.176  33.037  37.574  1.00  0.00     0.023 A 
ATOM     65  C   UNL A   1      40.487  32.705  38.753  1.00  0.00     0.031 A 
ATOM     66  C   UNL A   1      41.884  34.250  37.547  1.00  0.00     0.131 A 
ATOM     67  C   UNL A   1      40.453  33.611  39.824  1.00  0.00     0.055 A 
ATOM     68  C   UNL A   1      41.917  35.110  38.647  1.00  0.00     0.041 A 
ATOM     69  F   UNL A   1      42.546  34.632  36.442  1.00  0.00    -0.206 F 
ATOM     70  C   UNL A   1      41.184  34.800  39.790  1.00  0.00     0.022 A 
BRANCH  67  71
ATOM     71  S   UNL A   1      39.319  33.281  41.202  1.00  0.00     0.124 S 
ATOM     72  O   UNL A   1      38.845  31.938  40.876  1.00  0.00    -0.237 OA
ATOM     73  O   UNL A   1      40.194  33.387  42.363  1.00  0.00    -0.237 OA
ATOM     74  O   UNL A   1      38.314  34.335  41.078  1.00  0.00    -0.744 OA
ENDBRANCH  67  71
ENDBRANCH  50  64
BRANCH  51  75
ATOM     75  C   UNL A   1      40.764  27.621  29.148  1.00  0.00     0.023 A 
ATOM     76  C   UNL A   1      41.667  27.912  28.113  1.00  0.00     0.031 A 
ATOM     77  C   UNL A   1      39.817  26.605  28.929  1.00  0.00     0.131 A 
ATOM     78  C   UNL A   1      41.576  27.229  26.891  1.00  0.00     0.055 A 
ATOM     79  C   UNL A   1      39.763  25.892  27.730  1.00  0.00     0.041 A 
ATOM     80  F   UNL A   1      38.935  26.282  29.888  1.00  0.00    -0.206 F 
ATOM     81  C   UNL A   1      40.638  26.212  26.696  1.00  0.00     0.022 A 
BRANCH  78  82
ATOM     82  S   UNL A   1      42.652  27.745  25.525  1.00  0.00     0.124 S 
ATOM     83  O   UNL A   1      41.940  28.909  25.010  1.00  0.00    -0.237 OA
ATOM     84  O   UNL A   1      43.909  28.014  26.216  1.00  0.00    -0.237 OA
ATOM     85  O   UNL A   1      42.666  26.580  24.644  1.00  0.00    -0.744 OA
ENDBRANCH  78  82
ENDBRANCH  51  75
BRANCH  63  86
ATOM     86  C   UNL A   1      44.969  27.557  34.709  1.00  0.00     0.023 A 
ATOM     87  C   UNL A   1      44.804  26.357  35.421  1.00  0.00     0.031 A 
ATOM     88  C   UNL A   1      46.274  27.943  34.353  1.00  0.00     0.131 A 
ATOM     89  C   UNL A   1      45.930  25.612  35.804  1.00  0.00     0.055 A 
ATOM     90  C   UNL A   1      47.385  27.168  34.684  1.00  0.00     0.041 A 
ATOM     91  F   UNL A   1      46.489  29.081  33.674  1.00  0.00    -0.206 F 
ATOM     92  C   UNL A   1      47.218  26.001  35.426  1.00  0.00     0.022 A 
BRANCH  89  93
ATOM     93  S   UNL A   1      45.698  24.172  36.882  1.00  0.00     0.124 S 
ATOM     94  O   UNL A   1      44.834  24.711  37.926  1.00  0.00    -0.237 OA
ATOM     95  O   UNL A   1      45.082  23.204  35.981  1.00  0.00    -0.237 OA
ATOM     96  O   UNL A   1      47.056  23.841  37.311  1.00  0.00    -0.744 OA
ENDBRANCH  89  93
ENDBRANCH  63  86
ENDBRANCH  37  38
ENDBRANCH  29  32
ENDBRANCH  27  28
ENDBRANCH  26  27
ENDBRANCH   1  26
TORSDOF 17
ENDMDL
MODEL 3
REMARK VINA RESULT:     -11.3      1.581      7.608
REMARK SMILES C[C@@H]1CN(C(=O)N2CCC(CC(=O)NCCCCCCNC(=O)c3ccc(-c4c5nc(c(-c6cc(S(=O)(=O)[O-])ccc6F)c6ccc([nH]6)c(-c6cc(S(=O)(=O)[O-])ccc6F)c6nc(c(-c7cc(S(=O)(=O)[O-])ccc7F)c7ccc4[nH]7)C=C6)C=C5)cc3)CC2)C[C@@H](C)S1
REMARK SMILES IDX 18 1 17 2 16 3 15 4 14 5 12 6 13 7 11 9 10 10 1 11 2 12 3 13
REMARK SMILES IDX 92 14 4 15 90 16 5 17 89 18 91 19 6 20 7 21 8 22 88 23 9 24
REMARK SMILES IDX 87 25 19 26 20 27 21 28 22 29 23 31 24 32 25 33 86 34 26 35
REMARK SMILES IDX 85 36 27 37 28 38 29 39 79 40 30 41 84 42 78 43 80 44 31 45
REMARK SMILES IDX 83 46 77 47 76 48 32 50 64 51 44 52 63 53 45 54 48 55 62 56
REMARK SMILES IDX 81 57 46 58 47 59 61 61 82 62 49 63 33 64 34 65 42 66 35 67
REMARK SMILES IDX 41 68 43 69 40 70 36 71 37 72 38 73 39 74 65 75 66 76 74 77
REMARK SMILES IDX 67 78 73 79 75 80 72 81 68 82 69 83 70 84 71 85 50 86 51 87
REMARK SMILES IDX 59 88 52 89 58 90 60 91 57 92 53 93 54 94 55 95 56 96
REMARK H PARENT 14 8 21 30 80 49 48 60
REMARK Flexibility Score: inf
ROOT
ATOM      1  C   UNL A   1      32.695  30.994  27.251  1.00  0.00     0.002 C 
ENDROOT
BRANCH   1   2
ATOM      2  C   UNL A   1      34.202  30.879  27.492  1.00  0.00     0.002 C 
BRANCH   2   3
ATOM      3  C   UNL A   1      34.741  29.449  27.504  1.00  0.00     0.021 C 
BRANCH   3   4
ATOM      4  C   UNL A   1      33.765  28.401  26.957  1.00  0.00     0.116 C 
BRANCH   4   5
ATOM      5  N   UNL A   1      34.050  28.119  25.558  1.00  0.00    -0.356 N 
ATOM      6  C   UNL A   1      33.235  28.094  24.466  1.00  0.00     0.220 C 
ATOM      7  O   UNL A   1      33.701  27.688  23.399  1.00  0.00    -0.275 OA
ATOM      8  H   UNL A   1      34.994  27.909  25.368  1.00  0.00     0.163 HD
BRANCH   6   9
ATOM      9  C   UNL A   1      31.799  28.582  24.543  1.00  0.00     0.103 C 
BRANCH   9  10
ATOM     10  C   UNL A   1      30.728  27.465  24.609  1.00  0.00     0.002 C 
ATOM     11  C   UNL A   1      34.340  24.455  25.636  1.00  0.00     0.021 C 
ATOM     12  C   UNL A   1      34.539  23.837  24.255  1.00  0.00     0.063 C 
ATOM     13  C   UNL A   1      33.249  23.816  23.410  1.00  0.00     0.135 C 
ATOM     14  S   UNL A   1      35.291  22.177  24.418  1.00  0.00    -0.152 SA
ATOM     15  N   UNL A   1      32.229  22.904  23.929  1.00  0.00    -0.322 N 
ATOM     16  C   UNL A   1      33.791  21.192  24.845  1.00  0.00     0.063 C 
ATOM     17  C   UNL A   1      31.240  23.286  24.828  1.00  0.00     0.320 C 
ATOM     18  C   UNL A   1      32.622  21.493  23.890  1.00  0.00     0.135 C 
ATOM     19  C   UNL A   1      34.173  19.715  24.801  1.00  0.00     0.021 C 
ATOM     20  O   UNL A   1      30.853  22.534  25.722  1.00  0.00    -0.248 OA
ATOM     21  N   UNL A   1      30.766  24.577  24.725  1.00  0.00    -0.325 N 
ATOM     22  C   UNL A   1      30.298  25.279  25.904  1.00  0.00     0.121 C 
ATOM     23  C   UNL A   1      30.300  25.156  23.479  1.00  0.00     0.121 C 
ATOM     24  C   UNL A   1      30.924  26.670  25.921  1.00  0.00     0.026 C 
ATOM     25  C   UNL A   1      30.782  26.591  23.345  1.00  0.00     0.026 C 
ENDBRANCH   9  10
ENDBRANCH   6   9
ENDBRANCH   4   5
ENDBRANCH   3   4
ENDBRANCH   2   3
ENDBRANCH   1   2
BRANCH   1  26
ATOM     26  C   UNL A   1      32.127  32.417  27.268  1.00  0.00     0.021 C 
BRANCH  26  27
ATOM     27  C   UNL A   1      33.163  33.536  27.182  1.00  0.00     0.116 C 
BRANCH  27  28
ATOM     28  N   UNL A   1      32.922  34.580  28.164  1.00  0.00    -0.352 N 
ATOM     29  C   UNL A   1      33.447  34.734  29.423  1.00  0.00     0.251 C 
ATOM     30  H   UNL A   1      32.288  35.280  27.885  1.00  0.00     0.163 HD
ATOM     31  O   UNL A   1      32.945  35.546  30.194  1.00  0.00    -0.269 OA
BRANCH  29  32
ATOM     32  C   UNL A   1      34.601  33.912  29.851  1.00  0.00     0.039 A 
ATOM     33  C   UNL A   1      35.887  34.292  29.457  1.00  0.00     0.014 A 
ATOM     34  C   UNL A   1      34.415  32.757  30.617  1.00  0.00     0.014 A 
ATOM     35  C   UNL A   1      36.990  33.546  29.880  1.00  0.00     0.010 A 
ATOM     36  C   UNL A   1      35.519  32.053  31.091  1.00  0.00     0.010 A 
ATOM     37  C   UNL A   1      36.819  32.437  30.725  1.00  0.00    -0.014 A 
BRANCH  37  38
ATOM     38  C   UNL A   1      37.984  31.663  31.227  1.00  0.00     0.031 A 
ATOM     39  C   UNL A   1      38.574  31.979  32.575  1.00  0.00     0.074 A 
ATOM     40  C   UNL A   1      38.548  30.720  30.446  1.00  0.00     0.049 A 
ATOM     41  N   UNL A   1      39.634  31.477  33.155  1.00  0.00    -0.248 NA
ATOM     42  C   UNL A   1      37.896  33.020  33.362  1.00  0.00     0.031 C 
ATOM     43  C   UNL A   1      38.087  30.350  29.106  1.00  0.00     0.029 A 
ATOM     44  N   UNL A   1      39.634  29.909  30.658  1.00  0.00    -0.354 N 
ATOM     45  C   UNL A   1      39.760  32.149  34.367  1.00  0.00     0.074 A 
ATOM     46  C   UNL A   1      38.700  33.134  34.408  1.00  0.00     0.031 C 
ATOM     47  C   UNL A   1      38.874  29.373  28.626  1.00  0.00     0.029 A 
ATOM     48  C   UNL A   1      39.919  29.077  29.600  1.00  0.00     0.049 A 
ATOM     49  H   UNL A   1      40.161  29.922  31.490  1.00  0.00     0.167 HD
ATOM     50  C   UNL A   1      40.661  31.948  35.360  1.00  0.00     0.034 A 
ATOM     51  C   UNL A   1      40.916  28.186  29.430  1.00  0.00     0.034 A 
ATOM     52  C   UNL A   1      41.703  30.951  35.308  1.00  0.00     0.049 A 
ATOM     53  C   UNL A   1      41.919  27.994  30.539  1.00  0.00     0.074 A 
ATOM     54  C   UNL A   1      42.635  30.624  36.278  1.00  0.00     0.029 A 
ATOM     55  N   UNL A   1      41.959  30.122  34.222  1.00  0.00    -0.354 N 
ATOM     56  N   UNL A   1      41.995  28.605  31.699  1.00  0.00    -0.248 NA
ATOM     57  C   UNL A   1      42.962  26.985  30.320  1.00  0.00     0.031 C 
ATOM     58  C   UNL A   1      43.492  29.649  35.756  1.00  0.00     0.029 A 
ATOM     59  C   UNL A   1      43.050  29.309  34.486  1.00  0.00     0.049 A 
ATOM     60  H   UNL A   1      41.440  30.115  33.384  1.00  0.00     0.167 HD
ATOM     61  C   UNL A   1      43.077  28.029  32.360  1.00  0.00     0.074 A 
ATOM     62  C   UNL A   1      43.612  27.016  31.474  1.00  0.00     0.031 C 
ATOM     63  C   UNL A   1      43.580  28.309  33.589  1.00  0.00     0.034 A 
BRANCH  50  64
ATOM     64  C   UNL A   1      40.568  32.843  36.574  1.00  0.00     0.023 A 
ATOM     65  C   UNL A   1      39.737  32.526  37.663  1.00  0.00     0.031 A 
ATOM     66  C   UNL A   1      41.295  34.044  36.632  1.00  0.00     0.131 A 
ATOM     67  C   UNL A   1      39.593  33.435  38.723  1.00  0.00     0.055 A 
ATOM     68  C   UNL A   1      41.212  34.905  37.728  1.00  0.00     0.041 A 
ATOM     69  F   UNL A   1      42.090  34.412  35.614  1.00  0.00    -0.206 F 
ATOM     70  C   UNL A   1      40.344  34.611  38.776  1.00  0.00     0.022 A 
BRANCH  67  71
ATOM     71  S   UNL A   1      38.297  33.127  39.956  1.00  0.00     0.124 S 
ATOM     72  O   UNL A   1      38.315  34.375  40.717  1.00  0.00    -0.237 OA
ATOM     73  O   UNL A   1      37.120  32.901  39.127  1.00  0.00    -0.237 OA
ATOM     74  O   UNL A   1      38.786  31.957  40.682  1.00  0.00    -0.744 OA
ENDBRANCH  67  71
ENDBRANCH  50  64
BRANCH  51  75
ATOM     75  C   UNL A   1      41.028  27.412  28.161  1.00  0.00     0.023 A 
ATOM     76  C   UNL A   1      40.745  26.038  28.124  1.00  0.00     0.031 A 
ATOM     77  C   UNL A   1      41.459  28.028  26.972  1.00  0.00     0.131 A 
ATOM     78  C   UNL A   1      40.940  25.314  26.938  1.00  0.00     0.055 A 
ATOM     79  C   UNL A   1      41.603  27.314  25.781  1.00  0.00     0.041 A 
ATOM     80  F   UNL A   1      41.737  29.342  26.951  1.00  0.00    -0.206 F 
ATOM     81  C   UNL A   1      41.355  25.944  25.763  1.00  0.00     0.022 A 
BRANCH  78  82
ATOM     82  S   UNL A   1      40.720  23.514  26.973  1.00  0.00     0.124 S 
ATOM     83  O   UNL A   1      41.586  23.088  25.880  1.00  0.00    -0.237 OA
ATOM     84  O   UNL A   1      41.173  23.180  28.319  1.00  0.00    -0.237 OA
ATOM     85  O   UNL A   1      39.288  23.341  26.740  1.00  0.00    -0.744 OA
ENDBRANCH  78  82
ENDBRANCH  51  75
BRANCH  63  86
ATOM     86  C   UNL A   1      44.743  27.470  34.061  1.00  0.00     0.023 A 
ATOM     87  C   UNL A   1      44.551  26.250  34.732  1.00  0.00     0.031 A 
ATOM     88  C   UNL A   1      46.062  27.908  33.846  1.00  0.00     0.131 A 
ATOM     89  C   UNL A   1      45.659  25.536  35.214  1.00  0.00     0.055 A 
ATOM     90  C   UNL A   1      47.161  27.165  34.275  1.00  0.00     0.041 A 
ATOM     91  F   UNL A   1      46.302  29.067  33.212  1.00  0.00    -0.206 F 
ATOM     92  C   UNL A   1      46.964  25.978  34.975  1.00  0.00     0.022 A 
BRANCH  89  93
ATOM     93  S   UNL A   1      45.372  24.067  36.237  1.00  0.00     0.124 S 
ATOM     94  O   UNL A   1      44.275  23.415  35.532  1.00  0.00    -0.237 OA
ATOM     95  O   UNL A   1      46.662  23.388  36.176  1.00  0.00    -0.237 OA
ATOM     96  O   UNL A   1      45.026  24.621  37.545  1.00  0.00    -0.744 OA
ENDBRANCH  89  93
ENDBRANCH  63  86
ENDBRANCH  37  38
ENDBRANCH  29  32
ENDBRANCH  27  28
ENDBRANCH  26  27
ENDBRANCH   1  26
TORSDOF 17
ENDMDL
