MODEL 1
REMARK VINA RESULT:     -12.3      0.000      0.000
REMARK SMILES C[C@H]1CC[C@H]([NH2+]Cc2c(C(=O)NCCCCCCNC(=O)c3ccc(-c4c5nc(c(-c6cc(S(=O)(=O)[O-])ccc6F)c6ccc([nH]6)c(-c6cc(S(=O)(=O)[O-])ccc6F)c6nc(c(-c7cc(S(=O)(=O)[O-])ccc7F)c7ccc4[nH]7)C=C6)C=C5)cc3)n(Cc3ccccc3F)c3ccccc23)CC1
REMARK SMILES IDX 15 1 14 2 13 3 12 4 10 5 11 6 9 8 8 9 99 10 85 11 94 12
REMARK SMILES IDX 98 13 95 14 97 15 96 16 7 17 6 18 5 21 1 22 2 23 3 24 101 25
REMARK SMILES IDX 4 26 100 27 86 28 87 29 88 30 92 31 89 32 91 33 93 34 90 35
REMARK SMILES IDX 16 36 17 37 18 38 19 39 20 40 21 42 22 43 23 44 84 45 24 46
REMARK SMILES IDX 83 47 25 48 26 49 27 50 77 51 28 52 82 53 76 54 78 55 29 56
REMARK SMILES IDX 81 57 75 58 74 59 30 61 62 62 42 63 61 64 43 65 46 66 60 67
REMARK SMILES IDX 79 68 44 69 45 70 59 72 80 73 47 74 31 75 32 76 40 77 33 78
REMARK SMILES IDX 39 79 41 80 38 81 34 82 35 83 36 84 37 85 63 86 64 87 72 88
REMARK SMILES IDX 65 89 71 90 73 91 70 92 66 93 67 94 68 95 69 96 48 97 49 98
REMARK SMILES IDX 57 99 50 100 56 101 58 102 55 103 51 104 52 105 53 106
REMARK SMILES IDX 54 107
REMARK H PARENT 12 7 6 19 6 20 19 41 78 60 46 71
REMARK Flexibility Score: inf
ROOT
ATOM      1  C   UNL A   1      39.164  23.505  27.295  1.00  0.00     0.002 C 
ENDROOT
BRANCH   1   2
ATOM      2  C   UNL A   1      38.519  24.335  26.170  1.00  0.00     0.021 C 
BRANCH   2   3
ATOM      3  C   UNL A   1      37.149  23.851  25.710  1.00  0.00     0.116 C 
BRANCH   3   4
ATOM      4  N   UNL A   1      37.031  23.341  24.370  1.00  0.00    -0.351 N 
ATOM      5  C   UNL A   1      35.907  23.187  23.580  1.00  0.00     0.268 C 
ATOM      6  O   UNL A   1      36.170  22.887  22.412  1.00  0.00    -0.268 OA
ATOM      7  H   UNL A   1      37.877  23.060  23.952  1.00  0.00     0.163 HD
BRANCH   5   8
ATOM      8  C   UNL A   1      34.515  23.291  24.063  1.00  0.00     0.117 A 
ATOM      9  C   UNL A   1      33.377  24.011  23.640  1.00  0.00     0.045 A 
ATOM     10  C   UNL A   1      32.494  24.045  24.769  1.00  0.00     0.009 A 
ATOM     11  N   UNL A   1      33.983  22.427  25.060  1.00  0.00    -0.331 N 
ATOM     12  C   UNL A   1      32.738  22.884  25.479  1.00  0.00     0.049 A 
ATOM     13  C   UNL A   1      31.395  24.854  25.127  1.00  0.00     0.011 A 
ATOM     14  C   UNL A   1      31.788  22.389  26.391  1.00  0.00     0.027 A 
ATOM     15  C   UNL A   1      30.556  24.462  26.170  1.00  0.00     0.001 A 
ATOM     16  C   UNL A   1      30.725  23.218  26.761  1.00  0.00     0.002 A 
BRANCH   9  17
ATOM     17  C   UNL A   1      32.923  24.688  22.372  1.00  0.00     0.300 C 
BRANCH  17  18
ATOM     18  N   UNL A   1      33.635  25.875  21.948  1.00  0.00    -0.340 N 
ATOM     19  H   UNL A   1      34.620  25.690  22.140  1.00  0.00     0.346 HD
ATOM     20  H   UNL A   1      33.297  25.971  20.990  1.00  0.00     0.346 HD
BRANCH  18  21
ATOM     21  C   UNL A   1      33.375  27.217  22.470  1.00  0.00     0.182 C 
ATOM     22  C   UNL A   1      31.270  29.926  25.281  1.00  0.00     0.007 C 
ATOM     23  C   UNL A   1      31.854  28.720  24.559  1.00  0.00    -0.014 C 
ATOM     24  C   UNL A   1      33.379  28.813  24.463  1.00  0.00     0.009 C 
ATOM     25  C   UNL A   1      31.274  28.573  23.153  1.00  0.00     0.009 C 
ATOM     26  C   UNL A   1      33.933  27.529  23.860  1.00  0.00     0.065 C 
ATOM     27  C   UNL A   1      31.832  27.334  22.463  1.00  0.00     0.065 C 
ENDBRANCH  18  21
ENDBRANCH  17  18
ENDBRANCH   9  17
BRANCH  11  28
ATOM     28  C   UNL A   1      34.551  21.152  25.540  1.00  0.00     0.161 C 
BRANCH  28  29
ATOM     29  C   UNL A   1      34.084  19.926  24.785  1.00  0.00     0.008 A 
ATOM     30  C   UNL A   1      32.816  19.845  24.183  1.00  0.00     0.008 A 
ATOM     31  C   UNL A   1      34.939  18.838  24.597  1.00  0.00     0.128 A 
ATOM     32  C   UNL A   1      32.398  18.709  23.486  1.00  0.00     0.001 A 
ATOM     33  C   UNL A   1      34.529  17.692  23.911  1.00  0.00     0.039 A 
ATOM     34  F   UNL A   1      36.204  18.887  25.035  1.00  0.00    -0.207 F 
ATOM     35  C   UNL A   1      33.251  17.621  23.364  1.00  0.00     0.003 A 
ENDBRANCH  28  29
ENDBRANCH  11  28
ENDBRANCH   5   8
ENDBRANCH   3   4
ENDBRANCH   2   3
ENDBRANCH   1   2
BRANCH   1  36
ATOM     36  C   UNL A   1      39.931  22.222  26.916  1.00  0.00     0.002 C 
BRANCH  36  37
ATOM     37  C   UNL A   1      41.022  21.698  27.860  1.00  0.00     0.021 C 
BRANCH  37  38
ATOM     38  C   UNL A   1      42.290  21.170  27.190  1.00  0.00     0.116 C 
BRANCH  38  39
ATOM     39  N   UNL A   1      42.564  21.783  25.910  1.00  0.00    -0.352 N 
ATOM     40  C   UNL A   1      42.842  23.034  25.446  1.00  0.00     0.251 C 
ATOM     41  H   UNL A   1      42.547  21.121  25.180  1.00  0.00     0.163 HD
ATOM     42  O   UNL A   1      43.126  23.091  24.245  1.00  0.00    -0.269 OA
BRANCH  40  43
ATOM     43  C   UNL A   1      42.783  24.300  26.227  1.00  0.00     0.039 A 
ATOM     44  C   UNL A   1      43.409  24.544  27.449  1.00  0.00     0.014 A 
ATOM     45  C   UNL A   1      41.949  25.303  25.688  1.00  0.00     0.014 A 
ATOM     46  C   UNL A   1      43.136  25.720  28.151  1.00  0.00     0.010 A 
ATOM     47  C   UNL A   1      41.679  26.477  26.381  1.00  0.00     0.010 A 
ATOM     48  C   UNL A   1      42.233  26.663  27.640  1.00  0.00    -0.014 A 
BRANCH  48  49
ATOM     49  C   UNL A   1      41.956  27.862  28.432  1.00  0.00     0.031 A 
ATOM     50  C   UNL A   1      42.848  29.022  28.143  1.00  0.00     0.074 A 
ATOM     51  C   UNL A   1      40.927  27.978  29.297  1.00  0.00     0.049 A 
ATOM     52  N   UNL A   1      43.728  29.564  28.920  1.00  0.00    -0.248 NA
ATOM     53  C   UNL A   1      42.849  29.555  26.774  1.00  0.00     0.031 C 
ATOM     54  C   UNL A   1      39.784  27.077  29.479  1.00  0.00     0.029 A 
ATOM     55  N   UNL A   1      40.642  29.001  30.152  1.00  0.00    -0.354 N 
ATOM     56  C   UNL A   1      44.283  30.622  28.201  1.00  0.00     0.074 A 
ATOM     57  C   UNL A   1      43.808  30.480  26.848  1.00  0.00     0.031 C 
ATOM     58  C   UNL A   1      38.830  27.704  30.207  1.00  0.00     0.029 A 
ATOM     59  C   UNL A   1      39.357  28.975  30.675  1.00  0.00     0.049 A 
ATOM     60  H   UNL A   1      41.296  29.701  30.380  1.00  0.00     0.167 HD
ATOM     61  C   UNL A   1      44.965  31.638  28.806  1.00  0.00     0.034 A 
ATOM     62  C   UNL A   1      38.746  29.954  31.391  1.00  0.00     0.034 A 
ATOM     63  C   UNL A   1      45.300  31.308  30.163  1.00  0.00     0.049 A 
ATOM     64  C   UNL A   1      39.793  30.854  31.928  1.00  0.00     0.074 A 
ATOM     65  C   UNL A   1      46.130  30.385  30.763  1.00  0.00     0.029 A 
ATOM     66  N   UNL A   1      44.461  31.764  31.150  1.00  0.00    -0.354 N 
ATOM     67  N   UNL A   1      40.640  30.516  32.858  1.00  0.00    -0.248 NA
ATOM     68  C   UNL A   1      40.175  31.998  31.115  1.00  0.00     0.031 C 
ATOM     69  C   UNL A   1      45.445  29.990  31.946  1.00  0.00     0.029 A 
ATOM     70  C   UNL A   1      44.268  30.737  32.038  1.00  0.00     0.049 A 
ATOM     71  H   UNL A   1      44.068  32.664  31.208  1.00  0.00     0.167 HD
ATOM     72  C   UNL A   1      41.838  31.083  32.451  1.00  0.00     0.074 A 
ATOM     73  C   UNL A   1      41.469  32.067  31.436  1.00  0.00     0.031 C 
ATOM     74  C   UNL A   1      43.036  30.510  32.769  1.00  0.00     0.034 A 
BRANCH  61  75
ATOM     75  C   UNL A   1      45.072  33.044  28.269  1.00  0.00     0.023 A 
ATOM     76  C   UNL A   1      46.215  33.515  27.598  1.00  0.00     0.031 A 
ATOM     77  C   UNL A   1      43.939  33.884  28.218  1.00  0.00     0.131 A 
ATOM     78  C   UNL A   1      46.226  34.753  26.943  1.00  0.00     0.055 A 
ATOM     79  C   UNL A   1      43.927  35.090  27.505  1.00  0.00     0.041 A 
ATOM     80  F   UNL A   1      42.789  33.533  28.816  1.00  0.00    -0.206 F 
ATOM     81  C   UNL A   1      45.076  35.532  26.862  1.00  0.00     0.022 A 
BRANCH  78  82
ATOM     82  S   UNL A   1      47.746  35.369  26.168  1.00  0.00     0.124 S 
ATOM     83  O   UNL A   1      47.402  36.756  25.890  1.00  0.00    -0.237 OA
ATOM     84  O   UNL A   1      48.725  35.155  27.229  1.00  0.00    -0.237 OA
ATOM     85  O   UNL A   1      47.903  34.504  24.999  1.00  0.00    -0.744 OA
ENDBRANCH  78  82
ENDBRANCH  61  75
BRANCH  62  86
ATOM     86  C   UNL A   1      37.356  30.438  31.198  1.00  0.00     0.023 A 
ATOM     87  C   UNL A   1      36.853  30.584  29.892  1.00  0.00     0.031 A 
ATOM     88  C   UNL A   1      36.653  31.073  32.237  1.00  0.00     0.131 A 
ATOM     89  C   UNL A   1      35.735  31.389  29.647  1.00  0.00     0.055 A 
ATOM     90  C   UNL A   1      35.520  31.860  31.992  1.00  0.00     0.041 A 
ATOM     91  F   UNL A   1      37.101  31.009  33.501  1.00  0.00    -0.206 F 
ATOM     92  C   UNL A   1      35.066  32.035  30.688  1.00  0.00     0.022 A 
BRANCH  89  93
ATOM     93  S   UNL A   1      35.190  31.703  27.946  1.00  0.00     0.124 S 
ATOM     94  O   UNL A   1      35.929  32.916  27.605  1.00  0.00    -0.237 OA
ATOM     95  O   UNL A   1      35.627  30.489  27.267  1.00  0.00    -0.237 OA
ATOM     96  O   UNL A   1      33.746  31.875  28.075  1.00  0.00    -0.744 OA
ENDBRANCH  89  93
ENDBRANCH  62  86
BRANCH  74  97
ATOM     97  C   UNL A   1      43.063  29.382  33.779  1.00  0.00     0.023 A 
ATOM     98  C   UNL A   1      43.634  29.665  35.032  1.00  0.00     0.031 A 
ATOM     99  C   UNL A   1      42.779  28.035  33.486  1.00  0.00     0.131 A 
ATOM    100  C   UNL A   1      43.954  28.630  35.916  1.00  0.00     0.055 A 
ATOM    101  C   UNL A   1      43.028  27.009  34.405  1.00  0.00     0.041 A 
ATOM    102  F   UNL A   1      42.337  27.656  32.279  1.00  0.00    -0.206 F 
ATOM    103  C   UNL A   1      43.637  27.302  35.621  1.00  0.00     0.022 A 
BRANCH 100 104
ATOM    104  S   UNL A   1      44.947  28.971  37.392  1.00  0.00     0.124 S 
ATOM    105  O   UNL A   1      44.333  28.096  38.386  1.00  0.00    -0.237 OA
ATOM    106  O   UNL A   1      46.289  28.581  36.958  1.00  0.00    -0.237 OA
ATOM    107  O   UNL A   1      44.765  30.401  37.619  1.00  0.00    -0.744 OA
ENDBRANCH 100 104
ENDBRANCH  74  97
ENDBRANCH  48  49
ENDBRANCH  40  43
ENDBRANCH  38  39
ENDBRANCH  37  38
ENDBRANCH  36  37
ENDBRANCH   1  36
TORSDOF 21
ENDMDL
MODEL 2
REMARK VINA RESULT:     -12.0      2.764      8.285
REMARK SMILES C[C@H]1CC[C@H]([NH2+]Cc2c(C(=O)NCCCCCCNC(=O)c3ccc(-c4c5nc(c(-c6cc(S(=O)(=O)[O-])ccc6F)c6ccc([nH]6)c(-c6cc(S(=O)(=O)[O-])ccc6F)c6nc(c(-c7cc(S(=O)(=O)[O-])ccc7F)c7ccc4[nH]7)C=C6)C=C5)cc3)n(Cc3ccccc3F)c3ccccc23)CC1
REMARK SMILES IDX 15 1 14 2 13 3 12 4 10 5 11 6 9 8 8 9 99 10 85 11 94 12
REMARK SMILES IDX 98 13 95 14 97 15 96 16 7 17 6 18 5 21 1 22 2 23 3 24 101 25
REMARK SMILES IDX 4 26 100 27 86 28 87 29 88 30 92 31 89 32 91 33 93 34 90 35
REMARK SMILES IDX 16 36 17 37 18 38 19 39 20 40 21 42 22 43 23 44 84 45 24 46
REMARK SMILES IDX 83 47 25 48 26 49 27 50 77 51 28 52 82 53 76 54 78 55 29 56
REMARK SMILES IDX 81 57 75 58 74 59 30 61 62 62 42 63 61 64 43 65 46 66 60 67
REMARK SMILES IDX 79 68 44 69 45 70 59 72 80 73 47 74 31 75 32 76 40 77 33 78
REMARK SMILES IDX 39 79 41 80 38 81 34 82 35 83 36 84 37 85 63 86 64 87 72 88
REMARK SMILES IDX 65 89 71 90 73 91 70 92 66 93 67 94 68 95 69 96 48 97 49 98
REMARK SMILES IDX 57 99 50 100 56 101 58 102 55 103 51 104 52 105 53 106
REMARK SMILES IDX 54 107
REMARK H PARENT 12 7 6 19 6 20 19 41 78 60 46 71
REMARK Flexibility Score: inf
ROOT
ATOM      1  C   UNL A   1      32.554  27.289  26.048  1.00  0.00     0.002 C 
ENDROOT
BRANCH   1   2
ATOM      2  C   UNL A   1      33.655  26.529  25.288  1.00  0.00     0.021 C 
BRANCH   2   3
ATOM      3  C   UNL A   1      33.654  25.017  25.485  1.00  0.00     0.116 C 
BRANCH   3   4
ATOM      4  N   UNL A   1      32.643  24.450  26.337  1.00  0.00    -0.351 N 
ATOM      5  C   UNL A   1      32.188  23.148  26.421  1.00  0.00     0.268 C 
ATOM      6  O   UNL A   1      31.436  22.955  27.380  1.00  0.00    -0.268 OA
ATOM      7  H   UNL A   1      32.210  25.085  26.953  1.00  0.00     0.163 HD
BRANCH   5   8
ATOM      8  C   UNL A   1      32.489  22.083  25.442  1.00  0.00     0.117 A 
ATOM      9  C   UNL A   1      32.105  21.835  24.107  1.00  0.00     0.045 A 
ATOM     10  C   UNL A   1      32.347  20.440  23.884  1.00  0.00     0.009 A 
ATOM     11  N   UNL A   1      33.491  21.098  25.665  1.00  0.00    -0.331 N 
ATOM     12  C   UNL A   1      33.410  20.102  24.698  1.00  0.00     0.049 A 
ATOM     13  C   UNL A   1      31.885  19.508  22.930  1.00  0.00     0.011 A 
ATOM     14  C   UNL A   1      34.174  18.948  24.440  1.00  0.00     0.027 A 
ATOM     15  C   UNL A   1      32.521  18.274  22.803  1.00  0.00     0.001 A 
ATOM     16  C   UNL A   1      33.683  18.019  23.517  1.00  0.00     0.002 A 
BRANCH   9  17
ATOM     17  C   UNL A   1      31.551  22.645  22.963  1.00  0.00     0.300 C 
BRANCH  17  18
ATOM     18  N   UNL A   1      30.484  23.580  23.252  1.00  0.00    -0.340 N 
ATOM     19  H   UNL A   1      29.873  23.564  22.435  1.00  0.00     0.346 HD
ATOM     20  H   UNL A   1      30.161  23.232  24.154  1.00  0.00     0.346 HD
BRANCH  18  21
ATOM     21  C   UNL A   1      30.696  24.995  23.561  1.00  0.00     0.182 C 
ATOM     22  C   UNL A   1      30.494  29.272  22.406  1.00  0.00     0.007 C 
ATOM     23  C   UNL A   1      30.334  27.761  22.486  1.00  0.00    -0.014 C 
ATOM     24  C   UNL A   1      29.709  27.336  23.817  1.00  0.00     0.009 C 
ATOM     25  C   UNL A   1      31.674  27.046  22.313  1.00  0.00     0.009 C 
ATOM     26  C   UNL A   1      29.442  25.837  23.802  1.00  0.00     0.065 C 
ATOM     27  C   UNL A   1      31.489  25.533  22.345  1.00  0.00     0.065 C 
ENDBRANCH  18  21
ENDBRANCH  17  18
ENDBRANCH   9  17
BRANCH  11  28
ATOM     28  C   UNL A   1      34.569  21.125  26.673  1.00  0.00     0.161 C 
BRANCH  28  29
ATOM     29  C   UNL A   1      35.816  21.870  26.249  1.00  0.00     0.008 A 
ATOM     30  C   UNL A   1      36.027  23.227  26.552  1.00  0.00     0.008 A 
ATOM     31  C   UNL A   1      36.851  21.207  25.587  1.00  0.00     0.128 A 
ATOM     32  C   UNL A   1      37.184  23.903  26.157  1.00  0.00     0.001 A 
ATOM     33  C   UNL A   1      38.008  21.874  25.178  1.00  0.00     0.039 A 
ATOM     34  F   UNL A   1      36.779  19.887  25.369  1.00  0.00    -0.207 F 
ATOM     35  C   UNL A   1      38.171  23.229  25.452  1.00  0.00     0.003 A 
ENDBRANCH  28  29
ENDBRANCH  11  28
ENDBRANCH   5   8
ENDBRANCH   3   4
ENDBRANCH   2   3
ENDBRANCH   1   2
BRANCH   1  36
ATOM     36  C   UNL A   1      32.578  28.832  26.029  1.00  0.00     0.002 C 
BRANCH  36  37
ATOM     37  C   UNL A   1      33.297  29.581  27.161  1.00  0.00     0.021 C 
BRANCH  37  38
ATOM     38  C   UNL A   1      33.527  31.074  26.934  1.00  0.00     0.116 C 
BRANCH  38  39
ATOM     39  N   UNL A   1      33.791  31.809  28.151  1.00  0.00    -0.352 N 
ATOM     40  C   UNL A   1      34.815  31.917  29.045  1.00  0.00     0.251 C 
ATOM     41  H   UNL A   1      33.031  32.384  28.400  1.00  0.00     0.163 HD
ATOM     42  O   UNL A   1      34.654  32.777  29.916  1.00  0.00    -0.269 OA
BRANCH  40  43
ATOM     43  C   UNL A   1      36.044  31.078  29.087  1.00  0.00     0.039 A 
ATOM     44  C   UNL A   1      36.092  29.695  29.260  1.00  0.00     0.014 A 
ATOM     45  C   UNL A   1      37.262  31.787  29.014  1.00  0.00     0.014 A 
ATOM     46  C   UNL A   1      37.320  29.057  29.444  1.00  0.00     0.010 A 
ATOM     47  C   UNL A   1      38.487  31.155  29.191  1.00  0.00     0.010 A 
ATOM     48  C   UNL A   1      38.513  29.794  29.460  1.00  0.00    -0.014 A 
BRANCH  48  49
ATOM     49  C   UNL A   1      39.769  29.081  29.691  1.00  0.00     0.031 A 
ATOM     50  C   UNL A   1      40.303  29.186  31.079  1.00  0.00     0.074 A 
ATOM     51  C   UNL A   1      40.379  28.303  28.772  1.00  0.00     0.049 A 
ATOM     52  N   UNL A   1      41.380  29.781  31.477  1.00  0.00    -0.248 NA
ATOM     53  C   UNL A   1      39.461  28.680  32.172  1.00  0.00     0.031 C 
ATOM     54  C   UNL A   1      39.857  27.835  27.483  1.00  0.00     0.029 A 
ATOM     55  N   UNL A   1      41.591  27.684  28.846  1.00  0.00    -0.354 N 
ATOM     56  C   UNL A   1      41.448  29.581  32.856  1.00  0.00     0.074 A 
ATOM     57  C   UNL A   1      40.177  29.024  33.243  1.00  0.00     0.031 C 
ATOM     58  C   UNL A   1      40.642  26.835  27.018  1.00  0.00     0.029 A 
ATOM     59  C   UNL A   1      41.801  26.706  27.884  1.00  0.00     0.049 A 
ATOM     60  H   UNL A   1      42.265  27.914  29.528  1.00  0.00     0.167 HD
ATOM     61  C   UNL A   1      42.608  29.737  33.559  1.00  0.00     0.034 A 
ATOM     62  C   UNL A   1      42.822  25.811  27.837  1.00  0.00     0.034 A 
ATOM     63  C   UNL A   1      43.604  30.419  32.782  1.00  0.00     0.049 A 
ATOM     64  C   UNL A   1      43.921  26.322  28.688  1.00  0.00     0.074 A 
ATOM     65  C   UNL A   1      43.735  31.693  32.272  1.00  0.00     0.029 A 
ATOM     66  N   UNL A   1      44.528  29.648  32.122  1.00  0.00    -0.354 N 
ATOM     67  N   UNL A   1      44.644  27.367  28.400  1.00  0.00    -0.248 NA
ATOM     68  C   UNL A   1      43.931  25.917  30.085  1.00  0.00     0.031 C 
ATOM     69  C   UNL A   1      44.388  31.522  31.019  1.00  0.00     0.029 A 
ATOM     70  C   UNL A   1      44.676  30.164  30.860  1.00  0.00     0.049 A 
ATOM     71  H   UNL A   1      44.999  28.865  32.488  1.00  0.00     0.167 HD
ATOM     72  C   UNL A   1      44.809  28.013  29.615  1.00  0.00     0.074 A 
ATOM     73  C   UNL A   1      44.443  27.025  30.626  1.00  0.00     0.031 C 
ATOM     74  C   UNL A   1      44.956  29.369  29.680  1.00  0.00     0.034 A 
BRANCH  61  75
ATOM     75  C   UNL A   1      42.942  29.013  34.840  1.00  0.00     0.023 A 
ATOM     76  C   UNL A   1      42.509  27.701  35.106  1.00  0.00     0.031 A 
ATOM     77  C   UNL A   1      43.895  29.541  35.738  1.00  0.00     0.131 A 
ATOM     78  C   UNL A   1      42.983  26.980  36.210  1.00  0.00     0.055 A 
ATOM     79  C   UNL A   1      44.420  28.796  36.802  1.00  0.00     0.041 A 
ATOM     80  F   UNL A   1      44.385  30.781  35.578  1.00  0.00    -0.206 F 
ATOM     81  C   UNL A   1      43.964  27.507  37.043  1.00  0.00     0.022 A 
BRANCH  78  82
ATOM     82  S   UNL A   1      42.334  25.326  36.573  1.00  0.00     0.124 S 
ATOM     83  O   UNL A   1      42.106  24.791  35.237  1.00  0.00    -0.237 OA
ATOM     84  O   UNL A   1      43.441  24.732  37.316  1.00  0.00    -0.237 OA
ATOM     85  O   UNL A   1      41.134  25.599  37.364  1.00  0.00    -0.744 OA
ENDBRANCH  78  82
ENDBRANCH  61  75
BRANCH  62  86
ATOM     86  C   UNL A   1      42.698  24.361  27.545  1.00  0.00     0.023 A 
ATOM     87  C   UNL A   1      43.624  23.752  26.679  1.00  0.00     0.031 A 
ATOM     88  C   UNL A   1      41.511  23.660  27.820  1.00  0.00     0.131 A 
ATOM     89  C   UNL A   1      43.329  22.526  26.071  1.00  0.00     0.055 A 
ATOM     90  C   UNL A   1      41.228  22.422  27.229  1.00  0.00     0.041 A 
ATOM     91  F   UNL A   1      40.567  24.201  28.606  1.00  0.00    -0.206 F 
ATOM     92  C   UNL A   1      42.133  21.857  26.335  1.00  0.00     0.022 A 
BRANCH  89  93
ATOM     93  S   UNL A   1      44.455  21.827  24.832  1.00  0.00     0.124 S 
ATOM     94  O   UNL A   1      45.763  22.065  25.436  1.00  0.00    -0.237 OA
ATOM     95  O   UNL A   1      44.024  20.434  24.794  1.00  0.00    -0.237 OA
ATOM     96  O   UNL A   1      44.175  22.612  23.634  1.00  0.00    -0.744 OA
ENDBRANCH  89  93
ENDBRANCH  62  86
BRANCH  74  97
ATOM     97  C   UNL A   1      45.185  30.144  28.399  1.00  0.00     0.023 A 
ATOM     98  C   UNL A   1      46.499  30.569  28.140  1.00  0.00     0.031 A 
ATOM     99  C   UNL A   1      44.163  30.661  27.580  1.00  0.00     0.131 A 
ATOM    100  C   UNL A   1      46.756  31.514  27.141  1.00  0.00     0.055 A 
ATOM    101  C   UNL A   1      44.433  31.547  26.531  1.00  0.00     0.041 A 
ATOM    102  F   UNL A   1      42.871  30.401  27.819  1.00  0.00    -0.206 F 
ATOM    103  C   UNL A   1      45.733  31.994  26.320  1.00  0.00     0.022 A 
BRANCH 100 104
ATOM    104  S   UNL A   1      48.395  32.271  27.007  1.00  0.00     0.124 S 
ATOM    105  O   UNL A   1      49.225  31.140  26.604  1.00  0.00    -0.237 OA
ATOM    106  O   UNL A   1      48.182  33.289  25.978  1.00  0.00    -0.237 OA
ATOM    107  O   UNL A   1      48.656  32.793  28.344  1.00  0.00    -0.744 OA
ENDBRANCH 100 104
ENDBRANCH  74  97
ENDBRANCH  48  49
ENDBRANCH  40  43
ENDBRANCH  38  39
ENDBRANCH  37  38
ENDBRANCH  36  37
ENDBRANCH   1  36
TORSDOF 21
ENDMDL
MODEL 3
REMARK VINA RESULT:     -11.5      4.192     10.104
REMARK SMILES C[C@H]1CC[C@H]([NH2+]Cc2c(C(=O)NCCCCCCNC(=O)c3ccc(-c4c5nc(c(-c6cc(S(=O)(=O)[O-])ccc6F)c6ccc([nH]6)c(-c6cc(S(=O)(=O)[O-])ccc6F)c6nc(c(-c7cc(S(=O)(=O)[O-])ccc7F)c7ccc4[nH]7)C=C6)C=C5)cc3)n(Cc3ccccc3F)c3ccccc23)CC1
REMARK SMILES IDX 15 1 14 2 13 3 12 4 10 5 11 6 9 8 8 9 99 10 85 11 94 12
REMARK SMILES IDX 98 13 95 14 97 15 96 16 7 17 6 18 5 21 1 22 2 23 3 24 101 25
REMARK SMILES IDX 4 26 100 27 86 28 87 29 88 30 92 31 89 32 91 33 93 34 90 35
REMARK SMILES IDX 16 36 17 37 18 38 19 39 20 40 21 42 22 43 23 44 84 45 24 46
REMARK SMILES IDX 83 47 25 48 26 49 27 50 77 51 28 52 82 53 76 54 78 55 29 56
REMARK SMILES IDX 81 57 75 58 74 59 30 61 62 62 42 63 61 64 43 65 46 66 60 67
REMARK SMILES IDX 79 68 44 69 45 70 59 72 80 73 47 74 31 75 32 76 40 77 33 78
REMARK SMILES IDX 39 79 41 80 38 81 34 82 35 83 36 84 37 85 63 86 64 87 72 88
REMARK SMILES IDX 65 89 71 90 73 91 70 92 66 93 67 94 68 95 69 96 48 97 49 98
REMARK SMILES IDX 57 99 50 100 56 101 58 102 55 103 51 104 52 105 53 106
REMARK SMILES IDX 54 107
REMARK H PARENT 12 7 6 19 6 20 19 41 78 60 46 71
REMARK Flexibility Score: inf
ROOT
ATOM      1  C   UNL A   1      40.721  33.582  30.647  1.00  0.00     0.002 C 
ENDROOT
BRANCH   1   2
ATOM      2  C   UNL A   1      40.246  32.118  30.651  1.00  0.00     0.021 C 
BRANCH   2   3
ATOM      3  C   UNL A   1      38.914  31.866  29.953  1.00  0.00     0.116 C 
BRANCH   3   4
ATOM      4  N   UNL A   1      38.111  30.764  30.413  1.00  0.00    -0.351 N 
ATOM      5  C   UNL A   1      36.740  30.600  30.383  1.00  0.00     0.268 C 
ATOM      6  O   UNL A   1      36.379  29.461  30.695  1.00  0.00    -0.268 OA
ATOM      7  H   UNL A   1      38.614  30.015  30.806  1.00  0.00     0.163 HD
BRANCH   5   8
ATOM      8  C   UNL A   1      35.766  31.670  30.086  1.00  0.00     0.117 A 
ATOM      9  C   UNL A   1      34.959  31.986  28.972  1.00  0.00     0.045 A 
ATOM     10  C   UNL A   1      34.605  33.367  29.126  1.00  0.00     0.009 A 
ATOM     11  N   UNL A   1      35.293  32.573  31.079  1.00  0.00    -0.331 N 
ATOM     12  C   UNL A   1      34.569  33.602  30.487  1.00  0.00     0.049 A 
ATOM     13  C   UNL A   1      34.130  34.359  28.242  1.00  0.00     0.011 A 
ATOM     14  C   UNL A   1      33.867  34.706  31.006  1.00  0.00     0.027 A 
ATOM     15  C   UNL A   1      33.608  35.548  28.750  1.00  0.00     0.001 A 
ATOM     16  C   UNL A   1      33.434  35.696  30.119  1.00  0.00     0.002 A 
BRANCH   9  17
ATOM     17  C   UNL A   1      34.429  31.255  27.766  1.00  0.00     0.300 C 
BRANCH  17  18
ATOM     18  N   UNL A   1      33.557  30.121  27.992  1.00  0.00    -0.340 N 
ATOM     19  H   UNL A   1      34.043  29.528  28.664  1.00  0.00     0.346 HD
ATOM     20  H   UNL A   1      32.688  30.593  28.242  1.00  0.00     0.346 HD
BRANCH  18  21
ATOM     21  C   UNL A   1      33.090  29.223  26.935  1.00  0.00     0.182 C 
ATOM     22  C   UNL A   1      32.386  28.345  22.645  1.00  0.00     0.007 C 
ATOM     23  C   UNL A   1      32.842  28.941  23.969  1.00  0.00    -0.014 C 
ATOM     24  C   UNL A   1      33.613  27.916  24.805  1.00  0.00     0.009 C 
ATOM     25  C   UNL A   1      31.660  29.463  24.786  1.00  0.00     0.009 C 
ATOM     26  C   UNL A   1      34.167  28.587  26.055  1.00  0.00     0.065 C 
ATOM     27  C   UNL A   1      32.139  30.100  26.085  1.00  0.00     0.065 C 
ENDBRANCH  18  21
ENDBRANCH  17  18
ENDBRANCH   9  17
BRANCH  11  28
ATOM     28  C   UNL A   1      35.408  32.438  32.544  1.00  0.00     0.161 C 
BRANCH  28  29
ATOM     29  C   UNL A   1      36.780  32.745  33.104  1.00  0.00     0.008 A 
ATOM     30  C   UNL A   1      37.610  31.756  33.659  1.00  0.00     0.008 A 
ATOM     31  C   UNL A   1      37.308  34.036  33.026  1.00  0.00     0.128 A 
ATOM     32  C   UNL A   1      38.876  32.051  34.170  1.00  0.00     0.001 A 
ATOM     33  C   UNL A   1      38.568  34.346  33.543  1.00  0.00     0.039 A 
ATOM     34  F   UNL A   1      36.629  35.008  32.403  1.00  0.00    -0.207 F 
ATOM     35  C   UNL A   1      39.350  33.355  34.129  1.00  0.00     0.003 A 
ENDBRANCH  28  29
ENDBRANCH  11  28
ENDBRANCH   5   8
ENDBRANCH   3   4
ENDBRANCH   2   3
ENDBRANCH   1   2
BRANCH   1  36
ATOM     36  C   UNL A   1      41.565  34.078  29.455  1.00  0.00     0.002 C 
BRANCH  36  37
ATOM     37  C   UNL A   1      41.610  35.583  29.147  1.00  0.00     0.021 C 
BRANCH  37  38
ATOM     38  C   UNL A   1      41.710  35.960  27.670  1.00  0.00     0.116 C 
BRANCH  38  39
ATOM     39  N   UNL A   1      43.038  36.363  27.265  1.00  0.00    -0.352 N 
ATOM     40  C   UNL A   1      44.230  35.748  27.017  1.00  0.00     0.251 C 
ATOM     41  H   UNL A   1      43.098  37.337  27.133  1.00  0.00     0.163 HD
ATOM     42  O   UNL A   1      45.113  36.490  26.574  1.00  0.00    -0.269 OA
BRANCH  40  43
ATOM     43  C   UNL A   1      44.560  34.321  27.275  1.00  0.00     0.039 A 
ATOM     44  C   UNL A   1      44.248  33.241  26.450  1.00  0.00     0.014 A 
ATOM     45  C   UNL A   1      45.184  34.060  28.514  1.00  0.00     0.014 A 
ATOM     46  C   UNL A   1      44.474  31.936  26.893  1.00  0.00     0.010 A 
ATOM     47  C   UNL A   1      45.414  32.762  28.956  1.00  0.00     0.010 A 
ATOM     48  C   UNL A   1      45.010  31.696  28.166  1.00  0.00    -0.014 A 
BRANCH  48  49
ATOM     49  C   UNL A   1      45.194  30.310  28.594  1.00  0.00     0.031 A 
ATOM     50  C   UNL A   1      46.323  29.594  27.932  1.00  0.00     0.074 A 
ATOM     51  C   UNL A   1      44.479  29.718  29.575  1.00  0.00     0.049 A 
ATOM     52  N   UNL A   1      46.263  28.596  27.112  1.00  0.00    -0.248 NA
ATOM     53  C   UNL A   1      47.673  30.147  28.104  1.00  0.00     0.031 C 
ATOM     54  C   UNL A   1      43.561  30.339  30.535  1.00  0.00     0.029 A 
ATOM     55  N   UNL A   1      44.497  28.416  29.977  1.00  0.00    -0.354 N 
ATOM     56  C   UNL A   1      47.582  28.278  26.790  1.00  0.00     0.074 A 
ATOM     57  C   UNL A   1      48.392  29.348  27.314  1.00  0.00     0.031 C 
ATOM     58  C   UNL A   1      43.300  29.466  31.535  1.00  0.00     0.029 A 
ATOM     59  C   UNL A   1      43.895  28.182  31.205  1.00  0.00     0.049 A 
ATOM     60  H   UNL A   1      44.906  27.698  29.439  1.00  0.00     0.167 HD
ATOM     61  C   UNL A   1      47.932  27.071  26.255  1.00  0.00     0.034 A 
ATOM     62  C   UNL A   1      43.933  27.034  31.930  1.00  0.00     0.034 A 
ATOM     63  C   UNL A   1      46.781  26.352  25.788  1.00  0.00     0.049 A 
ATOM     64  C   UNL A   1      44.314  25.928  31.021  1.00  0.00     0.074 A 
ATOM     65  C   UNL A   1      45.860  26.540  24.779  1.00  0.00     0.029 A 
ATOM     66  N   UNL A   1      46.235  25.416  26.632  1.00  0.00    -0.354 N 
ATOM     67  N   UNL A   1      43.548  25.464  30.074  1.00  0.00    -0.248 NA
ATOM     68  C   UNL A   1      45.730  25.626  30.889  1.00  0.00     0.031 C 
ATOM     69  C   UNL A   1      44.628  26.070  25.314  1.00  0.00     0.029 A 
ATOM     70  C   UNL A   1      44.873  25.565  26.593  1.00  0.00     0.049 A 
ATOM     71  H   UNL A   1      46.733  24.757  27.168  1.00  0.00     0.167 HD
ATOM     72  C   UNL A   1      44.415  25.234  29.017  1.00  0.00     0.074 A 
ATOM     73  C   UNL A   1      45.751  25.249  29.608  1.00  0.00     0.031 C 
ATOM     74  C   UNL A   1      43.993  25.331  27.722  1.00  0.00     0.034 A 
BRANCH  61  75
ATOM     75  C   UNL A   1      49.280  26.414  26.421  1.00  0.00     0.023 A 
ATOM     76  C   UNL A   1      50.310  26.545  25.473  1.00  0.00     0.031 A 
ATOM     77  C   UNL A   1      49.645  25.820  27.648  1.00  0.00     0.131 A 
ATOM     78  C   UNL A   1      51.609  26.089  25.731  1.00  0.00     0.055 A 
ATOM     79  C   UNL A   1      50.959  25.426  27.933  1.00  0.00     0.041 A 
ATOM     80  F   UNL A   1      48.745  25.651  28.631  1.00  0.00    -0.206 F 
ATOM     81  C   UNL A   1      51.951  25.560  26.971  1.00  0.00     0.022 A 
BRANCH  78  82
ATOM     82  S   UNL A   1      52.889  26.192  24.450  1.00  0.00     0.124 S 
ATOM     83  O   UNL A   1      53.395  24.826  24.418  1.00  0.00    -0.237 OA
ATOM     84  O   UNL A   1      52.110  26.609  23.288  1.00  0.00    -0.237 OA
ATOM     85  O   UNL A   1      53.810  27.201  24.971  1.00  0.00    -0.744 OA
ENDBRANCH  78  82
ENDBRANCH  61  75
BRANCH  62  86
ATOM     86  C   UNL A   1      44.174  26.933  33.391  1.00  0.00     0.023 A 
ATOM     87  C   UNL A   1      43.099  26.624  34.245  1.00  0.00     0.031 A 
ATOM     88  C   UNL A   1      45.335  27.463  33.978  1.00  0.00     0.131 A 
ATOM     89  C   UNL A   1      43.178  26.902  35.615  1.00  0.00     0.055 A 
ATOM     90  C   UNL A   1      45.420  27.720  35.353  1.00  0.00     0.041 A 
ATOM     91  F   UNL A   1      46.382  27.819  33.216  1.00  0.00    -0.206 F 
ATOM     92  C   UNL A   1      44.329  27.455  36.176  1.00  0.00     0.022 A 
BRANCH  89  93
ATOM     93  S   UNL A   1      41.732  26.652  36.682  1.00  0.00     0.124 S 
ATOM     94  O   UNL A   1      42.347  26.245  37.943  1.00  0.00    -0.237 OA
ATOM     95  O   UNL A   1      41.126  27.978  36.676  1.00  0.00    -0.237 OA
ATOM     96  O   UNL A   1      40.979  25.605  35.997  1.00  0.00    -0.744 OA
ENDBRANCH  89  93
ENDBRANCH  62  86
BRANCH  74  97
ATOM     97  C   UNL A   1      42.510  25.452  27.442  1.00  0.00     0.023 A 
ATOM     98  C   UNL A   1      41.946  26.735  27.547  1.00  0.00     0.031 A 
ATOM     99  C   UNL A   1      41.625  24.363  27.316  1.00  0.00     0.131 A 
ATOM    100  C   UNL A   1      40.557  26.900  27.581  1.00  0.00     0.055 A 
ATOM    101  C   UNL A   1      40.238  24.539  27.272  1.00  0.00     0.041 A 
ATOM    102  F   UNL A   1      42.063  23.097  27.320  1.00  0.00    -0.206 F 
ATOM    103  C   UNL A   1      39.696  25.812  27.425  1.00  0.00     0.022 A 
BRANCH 100 104
ATOM    104  S   UNL A   1      39.844  28.509  28.006  1.00  0.00     0.124 S 
ATOM    105  O   UNL A   1      39.943  29.233  26.743  1.00  0.00    -0.237 OA
ATOM    106  O   UNL A   1      38.487  28.147  28.417  1.00  0.00    -0.237 OA
ATOM    107  O   UNL A   1      40.700  29.004  29.079  1.00  0.00    -0.744 OA
ENDBRANCH 100 104
ENDBRANCH  74  97
ENDBRANCH  48  49
ENDBRANCH  40  43
ENDBRANCH  38  39
ENDBRANCH  37  38
ENDBRANCH  36  37
ENDBRANCH   1  36
TORSDOF 21
ENDMDL
