MODEL 1
REMARK VINA RESULT:     -12.9      0.000      0.000
REMARK SMILES CC1=C(C)C[C@@H](C(=O)NCCCCCCNC(=O)c2ccc(-c3c4nc(c(-c5cc(S(=O)(=O)[O-])ccc5F)c5ccc([nH]5)c(-c5cc(S(=O)(=O)[O-])ccc5F)c5nc(c(-c6cc(S(=O)(=O)[O-])ccc6F)c6ccc3[nH]6)C=C5)C=C4)cc2)[C@@H](C(=O)N2CCN(c3cccc(C(F)(F)F)c3)CC2)C1
REMARK SMILES IDX 12 1 11 2 10 3 9 4 7 5 8 6 6 8 1 9 2 10 3 11 101 12 4 13
REMARK SMILES IDX 5 14 82 15 83 16 84 17 85 18 86 19 100 20 87 21 99 22 88 23
REMARK SMILES IDX 89 24 90 25 98 26 91 27 93 28 92 29 94 30 95 31 96 32 97 33
REMARK SMILES IDX 13 34 14 35 15 36 16 37 17 38 18 40 19 41 20 42 81 43 21 44
REMARK SMILES IDX 80 45 22 46 23 47 24 48 74 49 25 50 79 51 73 52 75 53 26 54
REMARK SMILES IDX 78 55 72 56 71 57 27 59 59 60 39 61 58 62 40 63 43 64 57 65
REMARK SMILES IDX 76 66 41 67 42 68 56 70 77 71 44 72 28 73 29 74 37 75 30 76
REMARK SMILES IDX 36 77 38 78 35 79 31 80 32 81 33 82 34 83 60 84 61 85 69 86
REMARK SMILES IDX 62 87 68 88 70 89 67 90 63 91 64 92 65 93 66 94 45 95 46 96
REMARK SMILES IDX 54 97 47 98 53 99 55 100 52 101 48 102 49 103 50 104 51 105
REMARK H PARENT 9 7 16 39 75 58 43 69
REMARK Flexibility Score: inf
ROOT
ATOM      1  C   UNL A   1      33.878  31.378  27.728  1.00  0.00     0.002 C 
ENDROOT
BRANCH   1   2
ATOM      2  C   UNL A   1      34.933  30.272  27.746  1.00  0.00     0.021 C 
BRANCH   2   3
ATOM      3  C   UNL A   1      34.478  28.943  27.157  1.00  0.00     0.116 C 
BRANCH   3   4
ATOM      4  N   UNL A   1      33.159  28.572  27.616  1.00  0.00    -0.356 N 
ATOM      5  C   UNL A   1      32.059  28.198  26.925  1.00  0.00     0.224 C 
ATOM      6  O   UNL A   1      31.048  27.920  27.581  1.00  0.00    -0.275 OA
ATOM      7  H   UNL A   1      33.042  28.596  28.593  1.00  0.00     0.163 HD
BRANCH   5   8
ATOM      8  C   UNL A   1      32.029  28.064  25.405  1.00  0.00     0.095 C 
ATOM      9  C   UNL A   1      28.211  28.129  23.127  1.00  0.00     0.039 C 
ATOM     10  C   UNL A   1      29.592  28.224  23.735  1.00  0.00    -0.074 C 
ATOM     11  C   UNL A   1      30.222  29.368  24.061  1.00  0.00    -0.074 C 
ATOM     12  C   UNL A   1      30.189  26.861  24.014  1.00  0.00     0.045 C 
ATOM     13  C   UNL A   1      29.687  30.759  23.827  1.00  0.00     0.039 C 
ATOM     14  C   UNL A   1      31.574  29.360  24.721  1.00  0.00     0.045 C 
ATOM     15  C   UNL A   1      31.523  26.743  24.811  1.00  0.00     0.095 C 
BRANCH  15  16
ATOM     16  C   UNL A   1      31.428  25.529  25.767  1.00  0.00     0.226 C 
ATOM     17  O   UNL A   1      30.419  25.377  26.465  1.00  0.00    -0.275 OA
ATOM     18  N   UNL A   1      32.396  24.545  25.784  1.00  0.00    -0.339 N 
ATOM     19  C   UNL A   1      32.096  23.292  26.497  1.00  0.00     0.141 C 
ATOM     20  C   UNL A   1      33.685  24.498  25.078  1.00  0.00     0.141 C 
ATOM     21  C   UNL A   1      32.018  22.135  25.488  1.00  0.00     0.138 C 
ATOM     22  C   UNL A   1      33.805  23.279  24.139  1.00  0.00     0.138 C 
ATOM     23  N   UNL A   1      33.289  22.056  24.758  1.00  0.00    -0.368 N 
BRANCH  23  24
ATOM     24  C   UNL A   1      33.991  20.875  24.756  1.00  0.00     0.037 A 
ATOM     25  C   UNL A   1      35.364  20.862  25.018  1.00  0.00     0.026 A 
ATOM     26  C   UNL A   1      33.366  19.668  24.428  1.00  0.00     0.039 A 
ATOM     27  C   UNL A   1      36.101  19.679  24.961  1.00  0.00     0.003 A 
ATOM     28  C   UNL A   1      34.096  18.472  24.331  1.00  0.00     0.058 A 
ATOM     29  C   UNL A   1      35.470  18.488  24.612  1.00  0.00     0.013 A 
BRANCH  28  30
ATOM     30  C   UNL A   1      33.431  17.190  23.900  1.00  0.00     0.416 C 
ATOM     31  F   UNL A   1      32.499  16.761  24.796  1.00  0.00    -0.166 F 
ATOM     32  F   UNL A   1      32.773  17.318  22.714  1.00  0.00    -0.166 F 
ATOM     33  F   UNL A   1      34.294  16.148  23.735  1.00  0.00    -0.166 F 
ENDBRANCH  28  30
ENDBRANCH  23  24
ENDBRANCH  15  16
ENDBRANCH   5   8
ENDBRANCH   3   4
ENDBRANCH   2   3
ENDBRANCH   1   2
BRANCH   1  34
ATOM     34  C   UNL A   1      34.332  32.725  28.295  1.00  0.00     0.002 C 
BRANCH  34  35
ATOM     35  C   UNL A   1      33.294  33.849  28.234  1.00  0.00     0.021 C 
BRANCH  35  36
ATOM     36  C   UNL A   1      33.673  35.131  28.969  1.00  0.00     0.116 C 
BRANCH  36  37
ATOM     37  N   UNL A   1      32.886  35.333  30.171  1.00  0.00    -0.352 N 
ATOM     38  C   UNL A   1      33.117  34.899  31.450  1.00  0.00     0.251 C 
ATOM     39  H   UNL A   1      32.064  35.860  30.049  1.00  0.00     0.163 HD
ATOM     40  O   UNL A   1      32.240  35.034  32.299  1.00  0.00    -0.269 OA
BRANCH  38  41
ATOM     41  C   UNL A   1      34.400  34.252  31.799  1.00  0.00     0.039 A 
ATOM     42  C   UNL A   1      34.364  33.030  32.476  1.00  0.00     0.014 A 
ATOM     43  C   UNL A   1      35.628  34.848  31.494  1.00  0.00     0.014 A 
ATOM     44  C   UNL A   1      35.556  32.391  32.816  1.00  0.00     0.010 A 
ATOM     45  C   UNL A   1      36.818  34.178  31.777  1.00  0.00     0.010 A 
ATOM     46  C   UNL A   1      36.793  32.949  32.453  1.00  0.00    -0.014 A 
BRANCH  46  47
ATOM     47  C   UNL A   1      38.055  32.247  32.793  1.00  0.00     0.031 A 
ATOM     48  C   UNL A   1      38.788  32.565  34.066  1.00  0.00     0.074 A 
ATOM     49  C   UNL A   1      38.556  31.341  31.932  1.00  0.00     0.049 A 
ATOM     50  N   UNL A   1      39.871  32.018  34.557  1.00  0.00    -0.248 NA
ATOM     51  C   UNL A   1      38.249  33.665  34.877  1.00  0.00     0.031 C 
ATOM     52  C   UNL A   1      37.981  31.012  30.626  1.00  0.00     0.029 A 
ATOM     53  N   UNL A   1      39.660  30.534  32.023  1.00  0.00    -0.354 N 
ATOM     54  C   UNL A   1      40.146  32.709  35.733  1.00  0.00     0.074 A 
ATOM     55  C   UNL A   1      39.156  33.762  35.835  1.00  0.00     0.031 C 
ATOM     56  C   UNL A   1      38.726  30.057  30.046  1.00  0.00     0.029 A 
ATOM     57  C   UNL A   1      39.836  29.718  30.930  1.00  0.00     0.049 A 
ATOM     58  H   UNL A   1      40.269  30.538  32.796  1.00  0.00     0.167 HD
ATOM     59  C   UNL A   1      41.114  32.470  36.654  1.00  0.00     0.034 A 
ATOM     60  C   UNL A   1      40.780  28.792  30.675  1.00  0.00     0.034 A 
ATOM     61  C   UNL A   1      42.094  31.416  36.527  1.00  0.00     0.049 A 
ATOM     62  C   UNL A   1      41.817  28.505  31.726  1.00  0.00     0.074 A 
ATOM     63  C   UNL A   1      43.082  31.038  37.420  1.00  0.00     0.029 A 
ATOM     64  N   UNL A   1      42.219  30.575  35.425  1.00  0.00    -0.354 N 
ATOM     65  N   UNL A   1      42.011  29.100  32.880  1.00  0.00    -0.248 NA
ATOM     66  C   UNL A   1      42.740  27.398  31.452  1.00  0.00     0.031 C 
ATOM     67  C   UNL A   1      43.840  30.015  36.835  1.00  0.00     0.029 A 
ATOM     68  C   UNL A   1      43.281  29.701  35.606  1.00  0.00     0.049 A 
ATOM     69  H   UNL A   1      41.637  30.597  34.633  1.00  0.00     0.167 HD
ATOM     70  C   UNL A   1      43.072  28.430  33.479  1.00  0.00     0.074 A 
ATOM     71  C   UNL A   1      43.455  27.367  32.568  1.00  0.00     0.031 C 
ATOM     72  C   UNL A   1      43.677  28.669  34.672  1.00  0.00     0.034 A 
BRANCH  59  73
ATOM     73  C   UNL A   1      41.163  33.390  37.853  1.00  0.00     0.023 A 
ATOM     74  C   UNL A   1      40.437  33.112  39.027  1.00  0.00     0.031 A 
ATOM     75  C   UNL A   1      41.890  34.593  37.805  1.00  0.00     0.131 A 
ATOM     76  C   UNL A   1      40.365  34.065  40.054  1.00  0.00     0.055 A 
ATOM     77  C   UNL A   1      41.890  35.497  38.872  1.00  0.00     0.041 A 
ATOM     78  F   UNL A   1      42.589  34.927  36.711  1.00  0.00    -0.206 F 
ATOM     79  C   UNL A   1      41.107  35.247  39.995  1.00  0.00     0.022 A 
BRANCH  76  80
ATOM     80  S   UNL A   1      39.148  33.821  41.377  1.00  0.00     0.124 S 
ATOM     81  O   UNL A   1      37.894  33.815  40.628  1.00  0.00    -0.237 OA
ATOM     82  O   UNL A   1      39.559  32.545  41.951  1.00  0.00    -0.237 OA
ATOM     83  O   UNL A   1      39.342  34.985  42.240  1.00  0.00    -0.744 OA
ENDBRANCH  76  80
ENDBRANCH  59  73
BRANCH  60  84
ATOM     84  C   UNL A   1      40.770  28.066  29.376  1.00  0.00     0.023 A 
ATOM     85  C   UNL A   1      41.681  28.382  28.356  1.00  0.00     0.031 A 
ATOM     86  C   UNL A   1      39.848  27.031  29.145  1.00  0.00     0.131 A 
ATOM     87  C   UNL A   1      41.629  27.688  27.137  1.00  0.00     0.055 A 
ATOM     88  C   UNL A   1      39.825  26.318  27.947  1.00  0.00     0.041 A 
ATOM     89  F   UNL A   1      38.969  26.681  30.099  1.00  0.00    -0.206 F 
ATOM     90  C   UNL A   1      40.715  26.652  26.930  1.00  0.00     0.022 A 
BRANCH  87  91
ATOM     91  S   UNL A   1      42.757  28.182  25.805  1.00  0.00     0.124 S 
ATOM     92  O   UNL A   1      42.608  29.633  25.811  1.00  0.00    -0.237 OA
ATOM     93  O   UNL A   1      44.035  27.667  26.284  1.00  0.00    -0.237 OA
ATOM     94  O   UNL A   1      42.215  27.502  24.631  1.00  0.00    -0.744 OA
ENDBRANCH  87  91
ENDBRANCH  60  84
BRANCH  72  95
ATOM     95  C   UNL A   1      44.808  27.744  35.054  1.00  0.00     0.023 A 
ATOM     96  C   UNL A   1      44.565  26.478  35.616  1.00  0.00     0.031 A 
ATOM     97  C   UNL A   1      46.144  28.152  34.897  1.00  0.00     0.131 A 
ATOM     98  C   UNL A   1      45.638  25.696  36.068  1.00  0.00     0.055 A 
ATOM     99  C   UNL A   1      47.210  27.341  35.290  1.00  0.00     0.041 A 
ATOM    100  F   UNL A   1      46.435  29.351  34.369  1.00  0.00    -0.206 F 
ATOM    101  C   UNL A   1      46.960  26.113  35.895  1.00  0.00     0.022 A 
BRANCH  98 102
ATOM    102  S   UNL A   1      45.278  24.179  36.998  1.00  0.00     0.124 S 
ATOM    103  O   UNL A   1      46.611  23.613  37.182  1.00  0.00    -0.237 OA
ATOM    104  O   UNL A   1      44.632  24.697  38.199  1.00  0.00    -0.237 OA
ATOM    105  O   UNL A   1      44.405  23.425  36.100  1.00  0.00    -0.744 OA
ENDBRANCH  98 102
ENDBRANCH  72  95
ENDBRANCH  46  47
ENDBRANCH  38  41
ENDBRANCH  36  37
ENDBRANCH  35  36
ENDBRANCH  34  35
ENDBRANCH   1  34
TORSDOF 19
ENDMDL
MODEL 2
REMARK VINA RESULT:     -12.5      0.970      7.351
REMARK SMILES CC1=C(C)C[C@@H](C(=O)NCCCCCCNC(=O)c2ccc(-c3c4nc(c(-c5cc(S(=O)(=O)[O-])ccc5F)c5ccc([nH]5)c(-c5cc(S(=O)(=O)[O-])ccc5F)c5nc(c(-c6cc(S(=O)(=O)[O-])ccc6F)c6ccc3[nH]6)C=C5)C=C4)cc2)[C@@H](C(=O)N2CCN(c3cccc(C(F)(F)F)c3)CC2)C1
REMARK SMILES IDX 12 1 11 2 10 3 9 4 7 5 8 6 6 8 1 9 2 10 3 11 101 12 4 13
REMARK SMILES IDX 5 14 82 15 83 16 84 17 85 18 86 19 100 20 87 21 99 22 88 23
REMARK SMILES IDX 89 24 90 25 98 26 91 27 93 28 92 29 94 30 95 31 96 32 97 33
REMARK SMILES IDX 13 34 14 35 15 36 16 37 17 38 18 40 19 41 20 42 81 43 21 44
REMARK SMILES IDX 80 45 22 46 23 47 24 48 74 49 25 50 79 51 73 52 75 53 26 54
REMARK SMILES IDX 78 55 72 56 71 57 27 59 59 60 39 61 58 62 40 63 43 64 57 65
REMARK SMILES IDX 76 66 41 67 42 68 56 70 77 71 44 72 28 73 29 74 37 75 30 76
REMARK SMILES IDX 36 77 38 78 35 79 31 80 32 81 33 82 34 83 60 84 61 85 69 86
REMARK SMILES IDX 62 87 68 88 70 89 67 90 63 91 64 92 65 93 66 94 45 95 46 96
REMARK SMILES IDX 54 97 47 98 53 99 55 100 52 101 48 102 49 103 50 104 51 105
REMARK H PARENT 9 7 16 39 75 58 43 69
REMARK Flexibility Score: inf
ROOT
ATOM      1  C   UNL A   1      35.177  30.967  27.565  1.00  0.00     0.002 C 
ENDROOT
BRANCH   1   2
ATOM      2  C   UNL A   1      35.318  29.452  27.714  1.00  0.00     0.021 C 
BRANCH   2   3
ATOM      3  C   UNL A   1      34.467  28.632  26.753  1.00  0.00     0.116 C 
BRANCH   3   4
ATOM      4  N   UNL A   1      33.153  28.363  27.289  1.00  0.00    -0.356 N 
ATOM      5  C   UNL A   1      31.987  28.085  26.666  1.00  0.00     0.224 C 
ATOM      6  O   UNL A   1      30.998  27.882  27.381  1.00  0.00    -0.275 OA
ATOM      7  H   UNL A   1      33.098  28.387  28.272  1.00  0.00     0.163 HD
BRANCH   5   8
ATOM      8  C   UNL A   1      31.854  27.969  25.150  1.00  0.00     0.095 C 
ATOM      9  C   UNL A   1      27.902  28.204  23.124  1.00  0.00     0.039 C 
ATOM     10  C   UNL A   1      29.323  28.240  23.643  1.00  0.00    -0.074 C 
ATOM     11  C   UNL A   1      30.016  29.355  23.937  1.00  0.00    -0.074 C 
ATOM     12  C   UNL A   1      29.883  26.852  23.871  1.00  0.00     0.045 C 
ATOM     13  C   UNL A   1      29.522  30.768  23.749  1.00  0.00     0.039 C 
ATOM     14  C   UNL A   1      31.406  29.288  24.508  1.00  0.00     0.045 C 
ATOM     15  C   UNL A   1      31.259  26.674  24.579  1.00  0.00     0.095 C 
BRANCH  15  16
ATOM     16  C   UNL A   1      31.179  25.454  25.530  1.00  0.00     0.226 C 
ATOM     17  O   UNL A   1      30.139  25.239  26.162  1.00  0.00    -0.275 OA
ATOM     18  N   UNL A   1      32.203  24.533  25.610  1.00  0.00    -0.339 N 
ATOM     19  C   UNL A   1      31.936  23.262  26.305  1.00  0.00     0.141 C 
ATOM     20  C   UNL A   1      33.535  24.566  24.988  1.00  0.00     0.141 C 
ATOM     21  C   UNL A   1      31.995  22.104  25.295  1.00  0.00     0.138 C 
ATOM     22  C   UNL A   1      33.790  23.359  24.060  1.00  0.00     0.138 C 
ATOM     23  N   UNL A   1      33.312  22.105  24.647  1.00  0.00    -0.368 N 
BRANCH  23  24
ATOM     24  C   UNL A   1      34.084  20.970  24.693  1.00  0.00     0.037 A 
ATOM     25  C   UNL A   1      35.445  21.047  25.006  1.00  0.00     0.026 A 
ATOM     26  C   UNL A   1      33.547  19.723  24.363  1.00  0.00     0.039 A 
ATOM     27  C   UNL A   1      36.254  19.911  24.997  1.00  0.00     0.003 A 
ATOM     28  C   UNL A   1      34.352  18.572  24.314  1.00  0.00     0.058 A 
ATOM     29  C   UNL A   1      35.711  18.677  24.646  1.00  0.00     0.013 A 
BRANCH  28  30
ATOM     30  C   UNL A   1      33.784  17.245  23.882  1.00  0.00     0.416 C 
ATOM     31  F   UNL A   1      32.519  17.044  24.346  1.00  0.00    -0.166 F 
ATOM     32  F   UNL A   1      33.703  17.130  22.526  1.00  0.00    -0.166 F 
ATOM     33  F   UNL A   1      34.509  16.170  24.302  1.00  0.00    -0.166 F 
ENDBRANCH  28  30
ENDBRANCH  23  24
ENDBRANCH  15  16
ENDBRANCH   5   8
ENDBRANCH   3   4
ENDBRANCH   2   3
ENDBRANCH   1   2
BRANCH   1  34
ATOM     34  C   UNL A   1      34.029  31.598  28.357  1.00  0.00     0.002 C 
BRANCH  34  35
ATOM     35  C   UNL A   1      33.163  32.595  27.582  1.00  0.00     0.021 C 
BRANCH  35  36
ATOM     36  C   UNL A   1      33.694  34.024  27.534  1.00  0.00     0.116 C 
BRANCH  36  37
ATOM     37  N   UNL A   1      33.071  34.879  28.526  1.00  0.00    -0.352 N 
ATOM     38  C   UNL A   1      33.293  34.957  29.876  1.00  0.00     0.251 C 
ATOM     39  H   UNL A   1      32.387  35.495  28.177  1.00  0.00     0.163 HD
ATOM     40  O   UNL A   1      32.539  35.633  30.572  1.00  0.00    -0.269 OA
BRANCH  38  41
ATOM     41  C   UNL A   1      34.413  34.215  30.494  1.00  0.00     0.039 A 
ATOM     42  C   UNL A   1      35.713  34.501  30.069  1.00  0.00     0.014 A 
ATOM     43  C   UNL A   1      34.192  33.225  31.457  1.00  0.00     0.014 A 
ATOM     44  C   UNL A   1      36.791  33.822  30.636  1.00  0.00     0.010 A 
ATOM     45  C   UNL A   1      35.274  32.594  32.068  1.00  0.00     0.010 A 
ATOM     46  C   UNL A   1      36.584  32.876  31.652  1.00  0.00    -0.014 A 
BRANCH  46  47
ATOM     47  C   UNL A   1      37.740  32.180  32.269  1.00  0.00     0.031 A 
ATOM     48  C   UNL A   1      38.462  31.091  31.527  1.00  0.00     0.074 A 
ATOM     49  C   UNL A   1      38.119  32.514  33.518  1.00  0.00     0.049 A 
ATOM     50  N   UNL A   1      39.523  30.410  31.880  1.00  0.00    -0.248 NA
ATOM     51  C   UNL A   1      37.894  30.692  30.231  1.00  0.00     0.031 C 
ATOM     52  C   UNL A   1      37.442  33.493  34.369  1.00  0.00     0.029 A 
ATOM     53  N   UNL A   1      39.161  32.066  34.286  1.00  0.00    -0.354 N 
ATOM     54  C   UNL A   1      39.749  29.501  30.851  1.00  0.00     0.074 A 
ATOM     55  C   UNL A   1      38.669  29.671  29.902  1.00  0.00     0.031 C 
ATOM     56  C   UNL A   1      38.098  33.587  35.537  1.00  0.00     0.029 A 
ATOM     57  C   UNL A   1      39.231  32.668  35.521  1.00  0.00     0.049 A 
ATOM     58  H   UNL A   1      39.799  31.381  33.985  1.00  0.00     0.167 HD
ATOM     59  C   UNL A   1      40.778  28.627  30.700  1.00  0.00     0.034 A 
ATOM     60  C   UNL A   1      40.115  32.503  36.524  1.00  0.00     0.034 A 
ATOM     61  C   UNL A   1      41.843  28.472  31.663  1.00  0.00     0.049 A 
ATOM     62  C   UNL A   1      41.275  31.568  36.321  1.00  0.00     0.074 A 
ATOM     63  C   UNL A   1      42.967  27.667  31.592  1.00  0.00     0.029 A 
ATOM     64  N   UNL A   1      41.908  29.130  32.888  1.00  0.00    -0.354 N 
ATOM     65  N   UNL A   1      41.535  30.781  35.303  1.00  0.00    -0.248 NA
ATOM     66  C   UNL A   1      42.279  31.526  37.391  1.00  0.00     0.031 C 
ATOM     67  C   UNL A   1      43.677  27.791  32.794  1.00  0.00     0.029 A 
ATOM     68  C   UNL A   1      43.037  28.729  33.589  1.00  0.00     0.049 A 
ATOM     69  H   UNL A   1      41.249  29.785  33.210  1.00  0.00     0.167 HD
ATOM     70  C   UNL A   1      42.742  30.158  35.602  1.00  0.00     0.074 A 
ATOM     71  C   UNL A   1      43.170  30.685  36.884  1.00  0.00     0.031 C 
ATOM     72  C   UNL A   1      43.434  29.235  34.885  1.00  0.00     0.034 A 
BRANCH  59  73
ATOM     73  C   UNL A   1      40.767  27.763  29.458  1.00  0.00     0.023 A 
ATOM     74  C   UNL A   1      41.671  27.978  28.401  1.00  0.00     0.031 A 
ATOM     75  C   UNL A   1      39.801  26.753  29.296  1.00  0.00     0.131 A 
ATOM     76  C   UNL A   1      41.526  27.275  27.196  1.00  0.00     0.055 A 
ATOM     77  C   UNL A   1      39.722  25.991  28.126  1.00  0.00     0.041 A 
ATOM     78  F   UNL A   1      38.899  26.508  30.257  1.00  0.00    -0.206 F 
ATOM     79  C   UNL A   1      40.572  26.265  27.059  1.00  0.00     0.022 A 
BRANCH  76  80
ATOM     80  S   UNL A   1      42.478  27.827  25.753  1.00  0.00     0.124 S 
ATOM     81  O   UNL A   1      43.820  27.955  26.315  1.00  0.00    -0.237 OA
ATOM     82  O   UNL A   1      42.280  26.734  24.808  1.00  0.00    -0.237 OA
ATOM     83  O   UNL A   1      41.843  29.092  25.386  1.00  0.00    -0.744 OA
ENDBRANCH  76  80
ENDBRANCH  59  73
BRANCH  60  84
ATOM     84  C   UNL A   1      39.938  33.255  37.795  1.00  0.00     0.023 A 
ATOM     85  C   UNL A   1      39.228  32.707  38.875  1.00  0.00     0.031 A 
ATOM     86  C   UNL A   1      40.492  34.538  37.948  1.00  0.00     0.131 A 
ATOM     87  C   UNL A   1      39.065  33.454  40.052  1.00  0.00     0.055 A 
ATOM     88  C   UNL A   1      40.360  35.260  39.134  1.00  0.00     0.041 A 
ATOM     89  F   UNL A   1      41.195  35.095  36.949  1.00  0.00    -0.206 F 
ATOM     90  C   UNL A   1      39.635  34.722  40.192  1.00  0.00     0.022 A 
BRANCH  87  91
ATOM     91  S   UNL A   1      38.064  32.757  41.394  1.00  0.00     0.124 S 
ATOM     92  O   UNL A   1      38.135  31.328  41.108  1.00  0.00    -0.237 OA
ATOM     93  O   UNL A   1      38.786  33.210  42.578  1.00  0.00    -0.237 OA
ATOM     94  O   UNL A   1      36.753  33.370  41.196  1.00  0.00    -0.744 OA
ENDBRANCH  87  91
ENDBRANCH  60  84
BRANCH  72  95
ATOM     95  C   UNL A   1      44.736  28.755  35.480  1.00  0.00     0.023 A 
ATOM     96  C   UNL A   1      44.774  27.716  36.426  1.00  0.00     0.031 A 
ATOM     97  C   UNL A   1      45.949  29.376  35.132  1.00  0.00     0.131 A 
ATOM     98  C   UNL A   1      45.986  27.377  37.046  1.00  0.00     0.055 A 
ATOM     99  C   UNL A   1      47.162  28.991  35.705  1.00  0.00     0.041 A 
ATOM    100  F   UNL A   1      45.972  30.375  34.236  1.00  0.00    -0.206 F 
ATOM    101  C   UNL A   1      47.183  27.998  36.680  1.00  0.00     0.022 A 
BRANCH  98 102
ATOM    102  S   UNL A   1      45.958  26.199  38.426  1.00  0.00     0.124 S 
ATOM    103  O   UNL A   1      44.763  26.612  39.154  1.00  0.00    -0.237 OA
ATOM    104  O   UNL A   1      45.875  24.915  37.737  1.00  0.00    -0.237 OA
ATOM    105  O   UNL A   1      47.222  26.450  39.117  1.00  0.00    -0.744 OA
ENDBRANCH  98 102
ENDBRANCH  72  95
ENDBRANCH  46  47
ENDBRANCH  38  41
ENDBRANCH  36  37
ENDBRANCH  35  36
ENDBRANCH  34  35
ENDBRANCH   1  34
TORSDOF 19
ENDMDL
MODEL 3
REMARK VINA RESULT:     -12.1      6.200     12.235
REMARK SMILES CC1=C(C)C[C@@H](C(=O)NCCCCCCNC(=O)c2ccc(-c3c4nc(c(-c5cc(S(=O)(=O)[O-])ccc5F)c5ccc([nH]5)c(-c5cc(S(=O)(=O)[O-])ccc5F)c5nc(c(-c6cc(S(=O)(=O)[O-])ccc6F)c6ccc3[nH]6)C=C5)C=C4)cc2)[C@@H](C(=O)N2CCN(c3cccc(C(F)(F)F)c3)CC2)C1
REMARK SMILES IDX 12 1 11 2 10 3 9 4 7 5 8 6 6 8 1 9 2 10 3 11 101 12 4 13
REMARK SMILES IDX 5 14 82 15 83 16 84 17 85 18 86 19 100 20 87 21 99 22 88 23
REMARK SMILES IDX 89 24 90 25 98 26 91 27 93 28 92 29 94 30 95 31 96 32 97 33
REMARK SMILES IDX 13 34 14 35 15 36 16 37 17 38 18 40 19 41 20 42 81 43 21 44
REMARK SMILES IDX 80 45 22 46 23 47 24 48 74 49 25 50 79 51 73 52 75 53 26 54
REMARK SMILES IDX 78 55 72 56 71 57 27 59 59 60 39 61 58 62 40 63 43 64 57 65
REMARK SMILES IDX 76 66 41 67 42 68 56 70 77 71 44 72 28 73 29 74 37 75 30 76
REMARK SMILES IDX 36 77 38 78 35 79 31 80 32 81 33 82 34 83 60 84 61 85 69 86
REMARK SMILES IDX 62 87 68 88 70 89 67 90 63 91 64 92 65 93 66 94 45 95 46 96
REMARK SMILES IDX 54 97 47 98 53 99 55 100 52 101 48 102 49 103 50 104 51 105
REMARK H PARENT 9 7 16 39 75 58 43 69
REMARK Flexibility Score: inf
ROOT
ATOM      1  C   UNL A   1      38.303  19.498  25.294  1.00  0.00     0.002 C 
ENDROOT
BRANCH   1   2
ATOM      2  C   UNL A   1      37.305  20.417  24.590  1.00  0.00     0.021 C 
BRANCH   2   3
ATOM      3  C   UNL A   1      35.853  20.223  25.005  1.00  0.00     0.116 C 
BRANCH   3   4
ATOM      4  N   UNL A   1      35.469  21.124  26.067  1.00  0.00    -0.356 N 
ATOM      5  C   UNL A   1      34.247  21.486  26.516  1.00  0.00     0.224 C 
ATOM      6  O   UNL A   1      34.206  22.280  27.464  1.00  0.00    -0.275 OA
ATOM      7  H   UNL A   1      36.222  21.543  26.542  1.00  0.00     0.163 HD
BRANCH   5   8
ATOM      8  C   UNL A   1      32.945  20.933  25.942  1.00  0.00     0.095 C 
ATOM      9  C   UNL A   1      32.924  17.934  22.658  1.00  0.00     0.039 C 
ATOM     10  C   UNL A   1      32.762  18.841  23.858  1.00  0.00    -0.074 C 
ATOM     11  C   UNL A   1      32.872  18.457  25.143  1.00  0.00    -0.074 C 
ATOM     12  C   UNL A   1      32.526  20.282  23.459  1.00  0.00     0.045 C 
ATOM     13  C   UNL A   1      33.119  17.047  25.618  1.00  0.00     0.039 C 
ATOM     14  C   UNL A   1      32.756  19.446  26.271  1.00  0.00     0.045 C 
ATOM     15  C   UNL A   1      32.522  21.401  24.543  1.00  0.00     0.095 C 
BRANCH  15  16
ATOM     16  C   UNL A   1      33.232  22.653  23.972  1.00  0.00     0.226 C 
ATOM     17  O   UNL A   1      34.115  22.520  23.118  1.00  0.00    -0.275 OA
ATOM     18  N   UNL A   1      32.829  23.929  24.311  1.00  0.00    -0.339 N 
ATOM     19  C   UNL A   1      33.351  25.053  23.515  1.00  0.00     0.141 C 
ATOM     20  C   UNL A   1      31.833  24.356  25.305  1.00  0.00     0.141 C 
ATOM     21  C   UNL A   1      32.195  25.713  22.744  1.00  0.00     0.138 C 
ATOM     22  C   UNL A   1      30.685  25.178  24.682  1.00  0.00     0.138 C 
ATOM     23  N   UNL A   1      31.174  26.152  23.704  1.00  0.00    -0.368 N 
BRANCH  23  24
ATOM     24  C   UNL A   1      30.784  27.468  23.714  1.00  0.00     0.037 A 
ATOM     25  C   UNL A   1      31.582  28.444  24.320  1.00  0.00     0.026 A 
ATOM     26  C   UNL A   1      29.551  27.856  23.181  1.00  0.00     0.039 A 
ATOM     27  C   UNL A   1      31.170  29.774  24.391  1.00  0.00     0.003 A 
ATOM     28  C   UNL A   1      29.102  29.184  23.272  1.00  0.00     0.058 A 
ATOM     29  C   UNL A   1      29.930  30.143  23.874  1.00  0.00     0.013 A 
BRANCH  28  30
ATOM     30  C   UNL A   1      27.739  29.580  22.766  1.00  0.00     0.416 C 
ATOM     31  F   UNL A   1      27.219  30.641  23.443  1.00  0.00    -0.166 F 
ATOM     32  F   UNL A   1      27.760  29.953  21.454  1.00  0.00    -0.166 F 
ATOM     33  F   UNL A   1      26.807  28.589  22.855  1.00  0.00    -0.166 F 
ENDBRANCH  28  30
ENDBRANCH  23  24
ENDBRANCH  15  16
ENDBRANCH   5   8
ENDBRANCH   3   4
ENDBRANCH   2   3
ENDBRANCH   1   2
BRANCH   1  34
ATOM     34  C   UNL A   1      39.626  20.154  25.697  1.00  0.00     0.002 C 
BRANCH  34  35
ATOM     35  C   UNL A   1      40.781  19.189  25.982  1.00  0.00     0.021 C 
BRANCH  35  36
ATOM     36  C   UNL A   1      42.137  19.844  26.222  1.00  0.00     0.116 C 
BRANCH  36  37
ATOM     37  N   UNL A   1      43.092  19.539  25.173  1.00  0.00    -0.352 N 
ATOM     38  C   UNL A   1      44.036  20.343  24.590  1.00  0.00     0.251 C 
ATOM     39  H   UNL A   1      43.055  18.618  24.830  1.00  0.00     0.163 HD
ATOM     40  O   UNL A   1      44.637  19.943  23.597  1.00  0.00    -0.269 OA
BRANCH  38  41
ATOM     41  C   UNL A   1      44.310  21.691  25.134  1.00  0.00     0.039 A 
ATOM     42  C   UNL A   1      43.848  22.801  24.422  1.00  0.00     0.014 A 
ATOM     43  C   UNL A   1      45.038  21.869  26.315  1.00  0.00     0.014 A 
ATOM     44  C   UNL A   1      44.086  24.085  24.911  1.00  0.00     0.010 A 
ATOM     45  C   UNL A   1      45.219  23.150  26.836  1.00  0.00     0.010 A 
ATOM     46  C   UNL A   1      44.757  24.271  26.131  1.00  0.00    -0.014 A 
BRANCH  46  47
ATOM     47  C   UNL A   1      44.979  25.640  26.658  1.00  0.00     0.031 A 
ATOM     48  C   UNL A   1      46.338  26.279  26.577  1.00  0.00     0.074 A 
ATOM     49  C   UNL A   1      43.956  26.296  27.237  1.00  0.00     0.049 A 
ATOM     50  N   UNL A   1      46.709  27.483  26.932  1.00  0.00    -0.248 NA
ATOM     51  C   UNL A   1      47.428  25.440  26.060  1.00  0.00     0.031 C 
ATOM     52  C   UNL A   1      42.616  25.745  27.451  1.00  0.00     0.029 A 
ATOM     53  N   UNL A   1      43.883  27.563  27.754  1.00  0.00    -0.354 N 
ATOM     54  C   UNL A   1      48.077  27.546  26.684  1.00  0.00     0.074 A 
ATOM     55  C   UNL A   1      48.475  26.233  26.221  1.00  0.00     0.031 C 
ATOM     56  C   UNL A   1      41.848  26.678  28.037  1.00  0.00     0.029 A 
ATOM     57  C   UNL A   1      42.642  27.882  28.252  1.00  0.00     0.049 A 
ATOM     58  H   UNL A   1      44.646  28.185  27.768  1.00  0.00     0.167 HD
ATOM     59  C   UNL A   1      48.914  28.608  26.804  1.00  0.00     0.034 A 
ATOM     60  C   UNL A   1      42.192  29.023  28.811  1.00  0.00     0.034 A 
ATOM     61  C   UNL A   1      48.494  29.908  27.274  1.00  0.00     0.049 A 
ATOM     62  C   UNL A   1      43.119  30.205  28.892  1.00  0.00     0.074 A 
ATOM     63  C   UNL A   1      49.234  31.073  27.380  1.00  0.00     0.029 A 
ATOM     64  N   UNL A   1      47.216  30.213  27.731  1.00  0.00    -0.354 N 
ATOM     65  N   UNL A   1      44.388  30.284  28.565  1.00  0.00    -0.248 NA
ATOM     66  C   UNL A   1      42.541  31.459  29.386  1.00  0.00     0.031 C 
ATOM     67  C   UNL A   1      48.425  32.061  27.957  1.00  0.00     0.029 A 
ATOM     68  C   UNL A   1      47.156  31.536  28.144  1.00  0.00     0.049 A 
ATOM     69  H   UNL A   1      46.463  29.580  27.757  1.00  0.00     0.167 HD
ATOM     70  C   UNL A   1      44.759  31.604  28.802  1.00  0.00     0.074 A 
ATOM     71  C   UNL A   1      43.568  32.288  29.271  1.00  0.00     0.031 C 
ATOM     72  C   UNL A   1      45.971  32.197  28.646  1.00  0.00     0.034 A 
BRANCH  59  73
ATOM     73  C   UNL A   1      50.367  28.380  26.447  1.00  0.00     0.023 A 
ATOM     74  C   UNL A   1      50.805  28.372  25.110  1.00  0.00     0.031 A 
ATOM     75  C   UNL A   1      51.316  28.102  27.446  1.00  0.00     0.131 A 
ATOM     76  C   UNL A   1      52.119  27.989  24.801  1.00  0.00     0.055 A 
ATOM     77  C   UNL A   1      52.648  27.814  27.137  1.00  0.00     0.041 A 
ATOM     78  F   UNL A   1      50.962  28.077  28.740  1.00  0.00    -0.206 F 
ATOM     79  C   UNL A   1      53.052  27.734  25.807  1.00  0.00     0.022 A 
BRANCH  76  80
ATOM     80  S   UNL A   1      52.537  27.653  23.067  1.00  0.00     0.124 S 
ATOM     81  O   UNL A   1      53.539  26.599  23.204  1.00  0.00    -0.237 OA
ATOM     82  O   UNL A   1      51.253  27.249  22.506  1.00  0.00    -0.237 OA
ATOM     83  O   UNL A   1      53.054  28.933  22.585  1.00  0.00    -0.744 OA
ENDBRANCH  76  80
ENDBRANCH  59  73
BRANCH  60  84
ATOM     84  C   UNL A   1      40.796  29.096  29.317  1.00  0.00     0.023 A 
ATOM     85  C   UNL A   1      40.509  28.993  30.687  1.00  0.00     0.031 A 
ATOM     86  C   UNL A   1      39.723  29.283  28.427  1.00  0.00     0.131 A 
ATOM     87  C   UNL A   1      39.177  29.047  31.126  1.00  0.00     0.055 A 
ATOM     88  C   UNL A   1      38.405  29.375  28.872  1.00  0.00     0.041 A 
ATOM     89  F   UNL A   1      39.950  29.405  27.109  1.00  0.00    -0.206 F 
ATOM     90  C   UNL A   1      38.124  29.248  30.229  1.00  0.00     0.022 A 
BRANCH  87  91
ATOM     91  S   UNL A   1      38.831  28.818  32.891  1.00  0.00     0.124 S 
ATOM     92  O   UNL A   1      39.919  27.934  33.296  1.00  0.00    -0.237 OA
ATOM     93  O   UNL A   1      38.896  30.186  33.394  1.00  0.00    -0.237 OA
ATOM     94  O   UNL A   1      37.499  28.216  32.902  1.00  0.00    -0.744 OA
ENDBRANCH  87  91
ENDBRANCH  60  84
BRANCH  72  95
ATOM     95  C   UNL A   1      46.050  33.668  28.978  1.00  0.00     0.023 A 
ATOM     96  C   UNL A   1      45.585  34.650  28.085  1.00  0.00     0.031 A 
ATOM     97  C   UNL A   1      46.641  34.096  30.180  1.00  0.00     0.131 A 
ATOM     98  C   UNL A   1      45.783  36.008  28.373  1.00  0.00     0.055 A 
ATOM     99  C   UNL A   1      46.777  35.450  30.491  1.00  0.00     0.041 A 
ATOM    100  F   UNL A   1      47.105  33.202  31.069  1.00  0.00    -0.206 F 
ATOM    101  C   UNL A   1      46.363  36.415  29.578  1.00  0.00     0.022 A 
BRANCH  98 102
ATOM    102  S   UNL A   1      45.385  37.236  27.097  1.00  0.00     0.124 S 
ATOM    103  O   UNL A   1      46.484  37.060  26.153  1.00  0.00    -0.237 OA
ATOM    104  O   UNL A   1      44.072  36.794  26.639  1.00  0.00    -0.237 OA
ATOM    105  O   UNL A   1      45.393  38.503  27.826  1.00  0.00    -0.744 OA
ENDBRANCH  98 102
ENDBRANCH  72  95
ENDBRANCH  46  47
ENDBRANCH  38  41
ENDBRANCH  36  37
ENDBRANCH  35  36
ENDBRANCH  34  35
ENDBRANCH   1  34
TORSDOF 19
ENDMDL
