MODEL 1
REMARK VINA RESULT:     -11.7      0.000      0.000
REMARK SMILES CCCc1cc2c(cc1Cl)C=C(C(=O)NCCCCCCNC(=O)c1ccc(-c3c4nc(c(-c5cc(S(=O)(=O)[O-])ccc5F)c5ccc([nH]5)c(-c5cc(S(=O)(=O)[O-])ccc5F)c5nc(c(-c6cc(S(=O)(=O)[O-])ccc6F)c6ccc3[nH]6)C=C5)C=C4)cc1)[C@H](C(F)(F)F)O2
REMARK SMILES IDX 19 1 18 2 17 3 16 4 15 5 13 6 14 7 12 9 4 10 5 11 9 12 6 13
REMARK SMILES IDX 8 14 10 15 7 16 93 17 11 18 88 19 3 20 2 21 1 22 89 23 90 24
REMARK SMILES IDX 91 25 92 26 20 27 21 28 22 29 23 30 24 32 25 33 26 34 87 35
REMARK SMILES IDX 27 36 86 37 28 38 29 39 30 40 80 41 31 42 85 43 79 44 81 45
REMARK SMILES IDX 32 46 84 47 78 48 77 49 33 51 65 52 45 53 64 54 46 55 49 56
REMARK SMILES IDX 63 57 82 58 47 59 48 60 62 62 83 63 50 64 34 65 35 66 43 67
REMARK SMILES IDX 36 68 42 69 44 70 41 71 37 72 38 73 39 74 40 75 66 76 67 77
REMARK SMILES IDX 75 78 68 79 74 80 76 81 73 82 69 83 70 84 71 85 72 86 51 87
REMARK SMILES IDX 52 88 60 89 53 90 59 91 61 92 58 93 54 94 55 95 56 96 57 97
REMARK H PARENT 15 8 22 31 81 50 49 61
REMARK Flexibility Score: inf
ROOT
ATOM      1  C   UNL A   1      31.778  30.585  26.888  1.00  0.00     0.002 C 
ENDROOT
BRANCH   1   2
ATOM      2  C   UNL A   1      31.784  29.939  25.498  1.00  0.00     0.002 C 
BRANCH   2   3
ATOM      3  C   UNL A   1      33.037  29.128  25.153  1.00  0.00     0.021 C 
BRANCH   3   4
ATOM      4  C   UNL A   1      33.278  28.950  23.656  1.00  0.00     0.116 C 
BRANCH   4   5
ATOM      5  N   UNL A   1      32.056  28.610  22.953  1.00  0.00    -0.352 N 
ATOM      6  C   UNL A   1      31.332  27.496  22.701  1.00  0.00     0.251 C 
ATOM      7  O   UNL A   1      30.328  27.677  22.002  1.00  0.00    -0.270 OA
ATOM      8  H   UNL A   1      31.640  29.406  22.549  1.00  0.00     0.163 HD
BRANCH   6   9
ATOM      9  C   UNL A   1      31.646  26.121  23.192  1.00  0.00     0.067 C 
ATOM     10  C   UNL A   1      33.975  21.753  24.209  1.00  0.00    -0.026 A 
ATOM     11  C   UNL A   1      32.632  22.172  24.202  1.00  0.00     0.052 A 
ATOM     12  C   UNL A   1      34.958  22.671  23.802  1.00  0.00     0.045 A 
ATOM     13  C   UNL A   1      32.294  23.469  23.815  1.00  0.00     0.128 A 
ATOM     14  C   UNL A   1      34.603  23.945  23.344  1.00  0.00     0.032 A 
ATOM     15  Cl  UNL A   1      36.648  22.321  23.886  1.00  0.00    -0.084 Cl
ATOM     16  C   UNL A   1      33.269  24.347  23.352  1.00  0.00     0.019 A 
ATOM     17  O   UNL A   1      30.977  23.824  23.895  1.00  0.00    -0.475 OA
ATOM     18  C   UNL A   1      32.872  25.665  22.876  1.00  0.00     0.025 C 
ATOM     19  C   UNL A   1      30.727  25.258  24.015  1.00  0.00     0.314 C 
BRANCH  10  20
ATOM     20  C   UNL A   1      34.283  20.346  24.671  1.00  0.00     0.037 C 
BRANCH  20  21
ATOM     21  C   UNL A   1      33.236  19.743  25.618  1.00  0.00     0.001 C 
ATOM     22  C   UNL A   1      32.530  18.514  25.063  1.00  0.00     0.004 C 
ENDBRANCH  20  21
ENDBRANCH  10  20
BRANCH  19  23
ATOM     23  C   UNL A   1      30.691  25.681  25.500  1.00  0.00     0.429 C 
ATOM     24  F   UNL A   1      29.891  24.882  26.246  1.00  0.00    -0.167 F 
ATOM     25  F   UNL A   1      31.928  25.609  26.049  1.00  0.00    -0.167 F 
ATOM     26  F   UNL A   1      30.246  26.946  25.677  1.00  0.00    -0.167 F 
ENDBRANCH  19  23
ENDBRANCH   6   9
ENDBRANCH   4   5
ENDBRANCH   3   4
ENDBRANCH   2   3
ENDBRANCH   1   2
BRANCH   1  27
ATOM     27  C   UNL A   1      31.456  32.080  26.917  1.00  0.00     0.021 C 
BRANCH  27  28
ATOM     28  C   UNL A   1      32.669  32.995  26.798  1.00  0.00     0.116 C 
BRANCH  28  29
ATOM     29  N   UNL A   1      32.544  34.183  27.626  1.00  0.00    -0.352 N 
ATOM     30  C   UNL A   1      33.240  34.524  28.762  1.00  0.00     0.251 C 
ATOM     31  H   UNL A   1      31.866  34.835  27.333  1.00  0.00     0.163 HD
ATOM     32  O   UNL A   1      32.870  35.472  29.448  1.00  0.00    -0.269 OA
BRANCH  30  33
ATOM     33  C   UNL A   1      34.411  33.716  29.162  1.00  0.00     0.039 A 
ATOM     34  C   UNL A   1      34.234  32.461  29.751  1.00  0.00     0.014 A 
ATOM     35  C   UNL A   1      35.694  34.237  28.982  1.00  0.00     0.014 A 
ATOM     36  C   UNL A   1      35.325  31.803  30.307  1.00  0.00     0.010 A 
ATOM     37  C   UNL A   1      36.798  33.532  29.468  1.00  0.00     0.010 A 
ATOM     38  C   UNL A   1      36.619  32.334  30.177  1.00  0.00    -0.014 A 
BRANCH  38  39
ATOM     39  C   UNL A   1      37.773  31.624  30.788  1.00  0.00     0.031 A 
ATOM     40  C   UNL A   1      38.190  31.917  32.204  1.00  0.00     0.074 A 
ATOM     41  C   UNL A   1      38.426  30.689  30.069  1.00  0.00     0.049 A 
ATOM     42  N   UNL A   1      39.185  31.415  32.888  1.00  0.00    -0.248 NA
ATOM     43  C   UNL A   1      37.388  32.900  32.950  1.00  0.00     0.031 C 
ATOM     44  C   UNL A   1      38.091  30.310  28.696  1.00  0.00     0.029 A 
ATOM     45  N   UNL A   1      39.489  29.881  30.387  1.00  0.00    -0.354 N 
ATOM     46  C   UNL A   1      39.143  32.032  34.134  1.00  0.00     0.074 A 
ATOM     47  C   UNL A   1      38.042  32.970  34.102  1.00  0.00     0.031 C 
ATOM     48  C   UNL A   1      38.901  29.316  28.306  1.00  0.00     0.029 A 
ATOM     49  C   UNL A   1      39.867  29.041  29.366  1.00  0.00     0.049 A 
ATOM     50  H   UNL A   1      39.938  29.901  31.264  1.00  0.00     0.167 HD
ATOM     51  C   UNL A   1      39.940  31.820  35.208  1.00  0.00     0.034 A 
ATOM     52  C   UNL A   1      40.889  28.165  29.277  1.00  0.00     0.034 A 
ATOM     53  C   UNL A   1      41.016  30.862  35.228  1.00  0.00     0.049 A 
ATOM     54  C   UNL A   1      41.799  27.993  30.466  1.00  0.00     0.074 A 
ATOM     55  C   UNL A   1      41.860  30.550  36.279  1.00  0.00     0.029 A 
ATOM     56  N   UNL A   1      41.399  30.064  34.159  1.00  0.00    -0.354 N 
ATOM     57  N   UNL A   1      41.721  28.554  31.649  1.00  0.00    -0.248 NA
ATOM     58  C   UNL A   1      42.938  27.078  30.312  1.00  0.00     0.031 C 
ATOM     59  C   UNL A   1      42.792  29.616  35.828  1.00  0.00     0.029 A 
ATOM     60  C   UNL A   1      42.487  29.285  34.516  1.00  0.00     0.049 A 
ATOM     61  H   UNL A   1      40.961  30.052  33.277  1.00  0.00     0.167 HD
ATOM     62  C   UNL A   1      42.789  28.051  32.386  1.00  0.00     0.074 A 
ATOM     63  C   UNL A   1      43.482  27.117  31.522  1.00  0.00     0.031 C 
ATOM     64  C   UNL A   1      43.164  28.344  33.655  1.00  0.00     0.034 A 
BRANCH  51  65
ATOM     65  C   UNL A   1      39.694  32.612  36.469  1.00  0.00     0.023 A 
ATOM     66  C   UNL A   1      38.751  32.159  37.412  1.00  0.00     0.031 A 
ATOM     67  C   UNL A   1      40.275  33.877  36.668  1.00  0.00     0.131 A 
ATOM     68  C   UNL A   1      38.388  32.981  38.487  1.00  0.00     0.055 A 
ATOM     69  C   UNL A   1      39.940  34.675  37.762  1.00  0.00     0.041 A 
ATOM     70  F   UNL A   1      41.179  34.356  35.797  1.00  0.00    -0.206 F 
ATOM     71  C   UNL A   1      38.982  34.233  38.670  1.00  0.00     0.022 A 
BRANCH  68  72
ATOM     72  S   UNL A   1      37.082  32.491  39.646  1.00  0.00     0.124 S 
ATOM     73  O   UNL A   1      37.265  33.456  40.728  1.00  0.00    -0.237 OA
ATOM     74  O   UNL A   1      35.876  32.675  38.843  1.00  0.00    -0.237 OA
ATOM     75  O   UNL A   1      37.412  31.110  39.983  1.00  0.00    -0.744 OA
ENDBRANCH  68  72
ENDBRANCH  51  65
BRANCH  52  76
ATOM     76  C   UNL A   1      41.067  27.380  28.020  1.00  0.00     0.023 A 
ATOM     77  C   UNL A   1      40.735  26.013  27.967  1.00  0.00     0.031 A 
ATOM     78  C   UNL A   1      41.678  27.953  26.893  1.00  0.00     0.131 A 
ATOM     79  C   UNL A   1      41.092  25.250  26.848  1.00  0.00     0.055 A 
ATOM     80  C   UNL A   1      41.962  27.205  25.749  1.00  0.00     0.041 A 
ATOM     81  F   UNL A   1      42.024  29.250  26.898  1.00  0.00    -0.206 F 
ATOM     82  C   UNL A   1      41.688  25.841  25.731  1.00  0.00     0.022 A 
BRANCH  79  83
ATOM     83  S   UNL A   1      40.934  23.442  26.869  1.00  0.00     0.124 S 
ATOM     84  O   UNL A   1      41.884  23.041  25.838  1.00  0.00    -0.237 OA
ATOM     85  O   UNL A   1      41.321  23.125  28.243  1.00  0.00    -0.237 OA
ATOM     86  O   UNL A   1      39.526  23.216  26.557  1.00  0.00    -0.744 OA
ENDBRANCH  79  83
ENDBRANCH  52  76
BRANCH  64  87
ATOM     87  C   UNL A   1      44.384  27.663  34.227  1.00  0.00     0.023 A 
ATOM     88  C   UNL A   1      44.245  26.464  34.952  1.00  0.00     0.031 A 
ATOM     89  C   UNL A   1      45.641  28.291  34.212  1.00  0.00     0.131 A 
ATOM     90  C   UNL A   1      45.329  25.963  35.683  1.00  0.00     0.055 A 
ATOM     91  C   UNL A   1      46.733  27.758  34.899  1.00  0.00     0.041 A 
ATOM     92  F   UNL A   1      45.821  29.441  33.541  1.00  0.00    -0.206 F 
ATOM     93  C   UNL A   1      46.574  26.599  35.652  1.00  0.00     0.022 A 
BRANCH  90  94
ATOM     94  S   UNL A   1      45.137  24.527  36.775  1.00  0.00     0.124 S 
ATOM     95  O   UNL A   1      46.487  24.369  37.309  1.00  0.00    -0.237 OA
ATOM     96  O   UNL A   1      44.139  25.001  37.730  1.00  0.00    -0.237 OA
ATOM     97  O   UNL A   1      44.695  23.461  35.882  1.00  0.00    -0.744 OA
ENDBRANCH  90  94
ENDBRANCH  64  87
ENDBRANCH  38  39
ENDBRANCH  30  33
ENDBRANCH  28  29
ENDBRANCH  27  28
ENDBRANCH   1  27
TORSDOF 19
ENDMDL
MODEL 2
REMARK VINA RESULT:     -11.5      5.728     11.051
REMARK SMILES CCCc1cc2c(cc1Cl)C=C(C(=O)NCCCCCCNC(=O)c1ccc(-c3c4nc(c(-c5cc(S(=O)(=O)[O-])ccc5F)c5ccc([nH]5)c(-c5cc(S(=O)(=O)[O-])ccc5F)c5nc(c(-c6cc(S(=O)(=O)[O-])ccc6F)c6ccc3[nH]6)C=C5)C=C4)cc1)[C@H](C(F)(F)F)O2
REMARK SMILES IDX 19 1 18 2 17 3 16 4 15 5 13 6 14 7 12 9 4 10 5 11 9 12 6 13
REMARK SMILES IDX 8 14 10 15 7 16 93 17 11 18 88 19 3 20 2 21 1 22 89 23 90 24
REMARK SMILES IDX 91 25 92 26 20 27 21 28 22 29 23 30 24 32 25 33 26 34 87 35
REMARK SMILES IDX 27 36 86 37 28 38 29 39 30 40 80 41 31 42 85 43 79 44 81 45
REMARK SMILES IDX 32 46 84 47 78 48 77 49 33 51 65 52 45 53 64 54 46 55 49 56
REMARK SMILES IDX 63 57 82 58 47 59 48 60 62 62 83 63 50 64 34 65 35 66 43 67
REMARK SMILES IDX 36 68 42 69 44 70 41 71 37 72 38 73 39 74 40 75 66 76 67 77
REMARK SMILES IDX 75 78 68 79 74 80 76 81 73 82 69 83 70 84 71 85 72 86 51 87
REMARK SMILES IDX 52 88 60 89 53 90 59 91 61 92 58 93 54 94 55 95 56 96 57 97
REMARK H PARENT 15 8 22 31 81 50 49 61
REMARK Flexibility Score: inf
ROOT
ATOM      1  C   UNL A   1      37.205  20.342  24.993  1.00  0.00     0.002 C 
ENDROOT
BRANCH   1   2
ATOM      2  C   UNL A   1      37.265  21.767  24.431  1.00  0.00     0.002 C 
BRANCH   2   3
ATOM      3  C   UNL A   1      37.708  22.848  25.422  1.00  0.00     0.021 C 
BRANCH   3   4
ATOM      4  C   UNL A   1      36.577  23.741  25.926  1.00  0.00     0.116 C 
BRANCH   4   5
ATOM      5  N   UNL A   1      35.473  22.962  26.452  1.00  0.00    -0.352 N 
ATOM      6  C   UNL A   1      34.122  22.983  26.387  1.00  0.00     0.251 C 
ATOM      7  O   UNL A   1      33.558  22.102  27.046  1.00  0.00    -0.270 OA
ATOM      8  H   UNL A   1      35.793  22.215  27.007  1.00  0.00     0.163 HD
BRANCH   6   9
ATOM      9  C   UNL A   1      33.301  23.952  25.601  1.00  0.00     0.067 C 
ATOM     10  C   UNL A   1      30.819  28.083  24.079  1.00  0.00    -0.026 A 
ATOM     11  C   UNL A   1      30.776  26.722  23.721  1.00  0.00     0.052 A 
ATOM     12  C   UNL A   1      31.675  28.465  25.126  1.00  0.00     0.045 A 
ATOM     13  C   UNL A   1      31.575  25.788  24.381  1.00  0.00     0.128 A 
ATOM     14  C   UNL A   1      32.416  27.510  25.832  1.00  0.00     0.032 A 
ATOM     15  Cl  UNL A   1      31.912  30.118  25.575  1.00  0.00    -0.084 Cl
ATOM     16  C   UNL A   1      32.369  26.169  25.458  1.00  0.00     0.019 A 
ATOM     17  O   UNL A   1      31.528  24.497  23.935  1.00  0.00    -0.475 OA
ATOM     18  C   UNL A   1      33.126  25.155  26.178  1.00  0.00     0.025 C 
ATOM     19  C   UNL A   1      32.706  23.691  24.243  1.00  0.00     0.314 C 
BRANCH  10  20
ATOM     20  C   UNL A   1      29.955  29.053  23.306  1.00  0.00     0.037 C 
BRANCH  20  21
ATOM     21  C   UNL A   1      28.578  28.505  22.911  1.00  0.00     0.001 C 
ATOM     22  C   UNL A   1      27.430  29.475  23.151  1.00  0.00     0.004 C 
ENDBRANCH  20  21
ENDBRANCH  10  20
BRANCH  19  23
ATOM     23  C   UNL A   1      33.750  23.799  23.110  1.00  0.00     0.429 C 
ATOM     24  F   UNL A   1      34.611  22.753  23.099  1.00  0.00    -0.167 F 
ATOM     25  F   UNL A   1      33.143  23.811  21.898  1.00  0.00    -0.167 F 
ATOM     26  F   UNL A   1      34.504  24.919  23.193  1.00  0.00    -0.167 F 
ENDBRANCH  19  23
ENDBRANCH   6   9
ENDBRANCH   4   5
ENDBRANCH   3   4
ENDBRANCH   2   3
ENDBRANCH   1   2
BRANCH   1  27
ATOM     27  C   UNL A   1      38.528  19.573  24.977  1.00  0.00     0.021 C 
BRANCH  27  28
ATOM     28  C   UNL A   1      39.361  19.713  26.246  1.00  0.00     0.116 C 
BRANCH  28  29
ATOM     29  N   UNL A   1      40.673  19.101  26.112  1.00  0.00    -0.352 N 
ATOM     30  C   UNL A   1      41.911  19.698  26.118  1.00  0.00     0.251 C 
ATOM     31  H   UNL A   1      40.675  18.122  26.002  1.00  0.00     0.163 HD
ATOM     32  O   UNL A   1      42.905  19.055  25.796  1.00  0.00    -0.269 OA
BRANCH  30  33
ATOM     33  C   UNL A   1      42.023  21.126  26.482  1.00  0.00     0.039 A 
ATOM     34  C   UNL A   1      41.886  22.116  25.505  1.00  0.00     0.014 A 
ATOM     35  C   UNL A   1      42.307  21.474  27.804  1.00  0.00     0.014 A 
ATOM     36  C   UNL A   1      42.195  23.436  25.815  1.00  0.00     0.010 A 
ATOM     37  C   UNL A   1      42.535  22.813  28.131  1.00  0.00     0.010 A 
ATOM     38  C   UNL A   1      42.529  23.798  27.131  1.00  0.00    -0.014 A 
BRANCH  38  39
ATOM     39  C   UNL A   1      42.868  25.211  27.443  1.00  0.00     0.031 A 
ATOM     40  C   UNL A   1      44.226  25.765  27.108  1.00  0.00     0.074 A 
ATOM     41  C   UNL A   1      41.933  26.004  28.005  1.00  0.00     0.049 A 
ATOM     42  N   UNL A   1      44.704  26.961  27.332  1.00  0.00    -0.248 NA
ATOM     43  C   UNL A   1      45.172  24.860  26.434  1.00  0.00     0.031 C 
ATOM     44  C   UNL A   1      40.577  25.576  28.351  1.00  0.00     0.029 A 
ATOM     45  N   UNL A   1      41.968  27.327  28.370  1.00  0.00    -0.354 N 
ATOM     46  C   UNL A   1      46.007  26.950  26.846  1.00  0.00     0.074 A 
ATOM     47  C   UNL A   1      46.258  25.617  26.344  1.00  0.00     0.031 C 
ATOM     48  C   UNL A   1      39.897  26.624  28.836  1.00  0.00     0.029 A 
ATOM     49  C   UNL A   1      40.789  27.778  28.915  1.00  0.00     0.049 A 
ATOM     50  H   UNL A   1      42.762  27.897  28.253  1.00  0.00     0.167 HD
ATOM     51  C   UNL A   1      46.903  27.965  26.810  1.00  0.00     0.034 A 
ATOM     52  C   UNL A   1      40.463  28.976  29.444  1.00  0.00     0.034 A 
ATOM     53  C   UNL A   1      46.625  29.294  27.293  1.00  0.00     0.049 A 
ATOM     54  C   UNL A   1      41.498  30.070  29.446  1.00  0.00     0.074 A 
ATOM     55  C   UNL A   1      47.456  30.400  27.270  1.00  0.00     0.029 A 
ATOM     56  N   UNL A   1      45.436  29.701  27.882  1.00  0.00    -0.354 N 
ATOM     57  N   UNL A   1      42.712  30.055  28.948  1.00  0.00    -0.248 NA
ATOM     58  C   UNL A   1      41.130  31.341  30.085  1.00  0.00     0.031 C 
ATOM     59  C   UNL A   1      46.797  31.453  27.903  1.00  0.00     0.029 A 
ATOM     60  C   UNL A   1      45.525  31.031  28.256  1.00  0.00     0.049 A 
ATOM     61  H   UNL A   1      44.646  29.128  28.013  1.00  0.00     0.167 HD
ATOM     62  C   UNL A   1      43.248  31.314  29.199  1.00  0.00     0.074 A 
ATOM     63  C   UNL A   1      42.214  32.077  29.869  1.00  0.00     0.031 C 
ATOM     64  C   UNL A   1      44.484  31.790  28.909  1.00  0.00     0.034 A 
BRANCH  51  65
ATOM     65  C   UNL A   1      48.270  27.714  26.221  1.00  0.00     0.023 A 
ATOM     66  C   UNL A   1      48.460  27.786  24.827  1.00  0.00     0.031 A 
ATOM     67  C   UNL A   1      49.340  27.262  27.014  1.00  0.00     0.131 A 
ATOM     68  C   UNL A   1      49.675  27.373  24.266  1.00  0.00     0.055 A 
ATOM     69  C   UNL A   1      50.563  26.891  26.454  1.00  0.00     0.041 A 
ATOM     70  F   UNL A   1      49.210  27.174  28.348  1.00  0.00    -0.206 F 
ATOM     71  C   UNL A   1      50.730  26.933  25.072  1.00  0.00     0.022 A 
BRANCH  68  72
ATOM     72  S   UNL A   1      49.913  27.324  22.469  1.00  0.00     0.124 S 
ATOM     73  O   UNL A   1      48.829  26.438  22.049  1.00  0.00    -0.237 OA
ATOM     74  O   UNL A   1      49.749  28.727  22.101  1.00  0.00    -0.237 OA
ATOM     75  O   UNL A   1      51.257  26.780  22.307  1.00  0.00    -0.744 OA
ENDBRANCH  68  72
ENDBRANCH  51  65
BRANCH  52  76
ATOM     76  C   UNL A   1      39.085  29.184  29.980  1.00  0.00     0.023 A 
ATOM     77  C   UNL A   1      38.116  29.881  29.235  1.00  0.00     0.031 A 
ATOM     78  C   UNL A   1      38.755  28.793  31.287  1.00  0.00     0.131 A 
ATOM     79  C   UNL A   1      36.900  30.239  29.831  1.00  0.00     0.055 A 
ATOM     80  C   UNL A   1      37.511  29.083  31.851  1.00  0.00     0.041 A 
ATOM     81  F   UNL A   1      39.649  28.135  32.043  1.00  0.00    -0.206 F 
ATOM     82  C   UNL A   1      36.584  29.829  31.129  1.00  0.00     0.022 A 
BRANCH  79  83
ATOM     83  S   UNL A   1      35.755  31.373  28.996  1.00  0.00     0.124 S 
ATOM     84  O   UNL A   1      35.048  31.975  30.122  1.00  0.00    -0.237 OA
ATOM     85  O   UNL A   1      36.678  32.256  28.285  1.00  0.00    -0.237 OA
ATOM     86  O   UNL A   1      34.959  30.496  28.145  1.00  0.00    -0.744 OA
ENDBRANCH  79  83
ENDBRANCH  52  76
BRANCH  64  87
ATOM     87  C   UNL A   1      44.828  33.206  29.303  1.00  0.00     0.023 A 
ATOM     88  C   UNL A   1      44.785  34.234  28.342  1.00  0.00     0.031 A 
ATOM     89  C   UNL A   1      45.369  33.498  30.567  1.00  0.00     0.131 A 
ATOM     90  C   UNL A   1      45.330  35.489  28.640  1.00  0.00     0.055 A 
ATOM     91  C   UNL A   1      45.862  34.766  30.876  1.00  0.00     0.041 A 
ATOM     92  F   UNL A   1      45.439  32.548  31.514  1.00  0.00    -0.206 F 
ATOM     93  C   UNL A   1      45.860  35.762  29.904  1.00  0.00     0.022 A 
BRANCH  90  94
ATOM     94  S   UNL A   1      45.460  36.777  27.368  1.00  0.00     0.124 S 
ATOM     95  O   UNL A   1      45.920  36.014  26.210  1.00  0.00    -0.237 OA
ATOM     96  O   UNL A   1      44.087  37.266  27.288  1.00  0.00    -0.237 OA
ATOM     97  O   UNL A   1      46.432  37.717  27.917  1.00  0.00    -0.744 OA
ENDBRANCH  90  94
ENDBRANCH  64  87
ENDBRANCH  38  39
ENDBRANCH  30  33
ENDBRANCH  28  29
ENDBRANCH  27  28
ENDBRANCH   1  27
TORSDOF 19
ENDMDL
MODEL 3
REMARK VINA RESULT:     -11.4      2.114      7.860
REMARK SMILES CCCc1cc2c(cc1Cl)C=C(C(=O)NCCCCCCNC(=O)c1ccc(-c3c4nc(c(-c5cc(S(=O)(=O)[O-])ccc5F)c5ccc([nH]5)c(-c5cc(S(=O)(=O)[O-])ccc5F)c5nc(c(-c6cc(S(=O)(=O)[O-])ccc6F)c6ccc3[nH]6)C=C5)C=C4)cc1)[C@H](C(F)(F)F)O2
REMARK SMILES IDX 19 1 18 2 17 3 16 4 15 5 13 6 14 7 12 9 4 10 5 11 9 12 6 13
REMARK SMILES IDX 8 14 10 15 7 16 93 17 11 18 88 19 3 20 2 21 1 22 89 23 90 24
REMARK SMILES IDX 91 25 92 26 20 27 21 28 22 29 23 30 24 32 25 33 26 34 87 35
REMARK SMILES IDX 27 36 86 37 28 38 29 39 30 40 80 41 31 42 85 43 79 44 81 45
REMARK SMILES IDX 32 46 84 47 78 48 77 49 33 51 65 52 45 53 64 54 46 55 49 56
REMARK SMILES IDX 63 57 82 58 47 59 48 60 62 62 83 63 50 64 34 65 35 66 43 67
REMARK SMILES IDX 36 68 42 69 44 70 41 71 37 72 38 73 39 74 40 75 66 76 67 77
REMARK SMILES IDX 75 78 68 79 74 80 76 81 73 82 69 83 70 84 71 85 72 86 51 87
REMARK SMILES IDX 52 88 60 89 53 90 59 91 61 92 58 93 54 94 55 95 56 96 57 97
REMARK H PARENT 15 8 22 31 81 50 49 61
REMARK Flexibility Score: inf
ROOT
ATOM      1  C   UNL A   1      31.259  28.830  24.752  1.00  0.00     0.002 C 
ENDROOT
BRANCH   1   2
ATOM      2  C   UNL A   1      31.060  27.707  23.727  1.00  0.00     0.002 C 
BRANCH   2   3
ATOM      3  C   UNL A   1      32.338  27.190  23.059  1.00  0.00     0.021 C 
BRANCH   3   4
ATOM      4  C   UNL A   1      32.956  25.972  23.742  1.00  0.00     0.116 C 
BRANCH   4   5
ATOM      5  N   UNL A   1      32.287  25.662  24.991  1.00  0.00    -0.352 N 
ATOM      6  C   UNL A   1      32.165  24.596  25.814  1.00  0.00     0.251 C 
ATOM      7  O   UNL A   1      31.440  24.781  26.799  1.00  0.00    -0.270 OA
ATOM      8  H   UNL A   1      31.786  26.437  25.333  1.00  0.00     0.163 HD
BRANCH   6   9
ATOM      9  C   UNL A   1      32.823  23.268  25.626  1.00  0.00     0.067 C 
ATOM     10  C   UNL A   1      33.858  18.532  24.200  1.00  0.00    -0.026 A 
ATOM     11  C   UNL A   1      34.332  19.376  25.222  1.00  0.00     0.052 A 
ATOM     12  C   UNL A   1      32.824  19.005  23.375  1.00  0.00     0.045 A 
ATOM     13  C   UNL A   1      33.795  20.652  25.394  1.00  0.00     0.128 A 
ATOM     14  C   UNL A   1      32.241  20.257  23.604  1.00  0.00     0.032 A 
ATOM     15  Cl  UNL A   1      32.245  18.117  22.011  1.00  0.00    -0.084 Cl
ATOM     16  C   UNL A   1      32.728  21.084  24.614  1.00  0.00     0.019 A 
ATOM     17  O   UNL A   1      34.349  21.440  26.365  1.00  0.00    -0.475 OA
ATOM     18  C   UNL A   1      32.135  22.388  24.875  1.00  0.00     0.025 C 
ATOM     19  C   UNL A   1      34.169  22.876  26.177  1.00  0.00     0.314 C 
BRANCH  10  20
ATOM     20  C   UNL A   1      34.502  17.173  24.041  1.00  0.00     0.037 C 
BRANCH  20  21
ATOM     21  C   UNL A   1      34.277  16.219  25.221  1.00  0.00     0.001 C 
ATOM     22  C   UNL A   1      32.817  16.043  25.610  1.00  0.00     0.004 C 
ENDBRANCH  20  21
ENDBRANCH  10  20
BRANCH  19  23
ATOM     23  C   UNL A   1      35.336  23.467  25.357  1.00  0.00     0.429 C 
ATOM     24  F   UNL A   1      36.482  22.759  25.503  1.00  0.00    -0.167 F 
ATOM     25  F   UNL A   1      35.045  23.460  24.033  1.00  0.00    -0.167 F 
ATOM     26  F   UNL A   1      35.627  24.744  25.697  1.00  0.00    -0.167 F 
ENDBRANCH  19  23
ENDBRANCH   6   9
ENDBRANCH   4   5
ENDBRANCH   3   4
ENDBRANCH   2   3
ENDBRANCH   1   2
BRANCH   1  27
ATOM     27  C   UNL A   1      32.633  29.502  24.733  1.00  0.00     0.021 C 
BRANCH  27  28
ATOM     28  C   UNL A   1      33.263  29.702  26.106  1.00  0.00     0.116 C 
BRANCH  28  29
ATOM     29  N   UNL A   1      33.055  31.048  26.614  1.00  0.00    -0.352 N 
ATOM     30  C   UNL A   1      33.790  31.746  27.543  1.00  0.00     0.251 C 
ATOM     31  H   UNL A   1      32.279  31.527  26.242  1.00  0.00     0.163 HD
ATOM     32  O   UNL A   1      33.360  32.800  28.002  1.00  0.00    -0.269 OA
BRANCH  30  33
ATOM     33  C   UNL A   1      35.082  31.196  28.004  1.00  0.00     0.039 A 
ATOM     34  C   UNL A   1      35.165  29.875  28.456  1.00  0.00     0.014 A 
ATOM     35  C   UNL A   1      36.209  32.019  28.020  1.00  0.00     0.014 A 
ATOM     36  C   UNL A   1      36.329  29.433  29.075  1.00  0.00     0.010 A 
ATOM     37  C   UNL A   1      37.403  31.543  28.568  1.00  0.00     0.010 A 
ATOM     38  C   UNL A   1      37.459  30.264  29.143  1.00  0.00    -0.014 A 
BRANCH  38  39
ATOM     39  C   UNL A   1      38.692  29.780  29.819  1.00  0.00     0.031 A 
ATOM     40  C   UNL A   1      39.570  28.748  29.165  1.00  0.00     0.074 A 
ATOM     41  C   UNL A   1      39.032  30.299  31.016  1.00  0.00     0.049 A 
ATOM     42  N   UNL A   1      40.663  28.193  29.618  1.00  0.00    -0.248 NA
ATOM     43  C   UNL A   1      39.170  28.278  27.828  1.00  0.00     0.031 C 
ATOM     44  C   UNL A   1      38.266  31.321  31.730  1.00  0.00     0.029 A 
ATOM     45  N   UNL A   1      40.107  30.057  31.835  1.00  0.00    -0.354 N 
ATOM     46  C   UNL A   1      41.072  27.297  28.637  1.00  0.00     0.074 A 
ATOM     47  C   UNL A   1      40.091  27.358  27.575  1.00  0.00     0.031 C 
ATOM     48  C   UNL A   1      38.914  31.649  32.856  1.00  0.00     0.029 A 
ATOM     49  C   UNL A   1      40.099  30.805  32.989  1.00  0.00     0.049 A 
ATOM     50  H   UNL A   1      40.816  29.409  31.617  1.00  0.00     0.167 HD
ATOM     51  C   UNL A   1      42.174  26.510  28.619  1.00  0.00     0.034 A 
ATOM     52  C   UNL A   1      40.933  30.800  34.050  1.00  0.00     0.034 A 
ATOM     53  C   UNL A   1      43.153  26.482  29.677  1.00  0.00     0.049 A 
ATOM     54  C   UNL A   1      42.118  29.870  34.032  1.00  0.00     0.074 A 
ATOM     55  C   UNL A   1      44.321  25.742  29.737  1.00  0.00     0.029 A 
ATOM     56  N   UNL A   1      43.086  27.218  30.851  1.00  0.00    -0.354 N 
ATOM     57  N   UNL A   1      42.512  29.058  33.079  1.00  0.00    -0.248 NA
ATOM     58  C   UNL A   1      42.969  29.845  35.229  1.00  0.00     0.031 C 
ATOM     59  C   UNL A   1      44.923  25.980  30.971  1.00  0.00     0.029 A 
ATOM     60  C   UNL A   1      44.175  26.925  31.655  1.00  0.00     0.049 A 
ATOM     61  H   UNL A   1      42.371  27.856  31.078  1.00  0.00     0.167 HD
ATOM     62  C   UNL A   1      43.664  28.437  33.554  1.00  0.00     0.074 A 
ATOM     63  C   UNL A   1      43.919  28.990  34.869  1.00  0.00     0.031 C 
ATOM     64  C   UNL A   1      44.431  27.492  32.959  1.00  0.00     0.034 A 
BRANCH  51  65
ATOM     65  C   UNL A   1      42.415  25.615  27.428  1.00  0.00     0.023 A 
ATOM     66  C   UNL A   1      41.868  24.317  27.400  1.00  0.00     0.031 A 
ATOM     67  C   UNL A   1      43.298  25.984  26.398  1.00  0.00     0.131 A 
ATOM     68  C   UNL A   1      42.241  23.424  26.388  1.00  0.00     0.055 A 
ATOM     69  C   UNL A   1      43.635  25.104  25.369  1.00  0.00     0.041 A 
ATOM     70  F   UNL A   1      43.847  27.209  26.378  1.00  0.00    -0.206 F 
ATOM     71  C   UNL A   1      43.116  23.812  25.369  1.00  0.00     0.022 A 
BRANCH  68  72
ATOM     72  S   UNL A   1      41.664  21.704  26.392  1.00  0.00     0.124 S 
ATOM     73  O   UNL A   1      40.338  21.833  25.790  1.00  0.00    -0.237 OA
ATOM     74  O   UNL A   1      42.665  21.045  25.559  1.00  0.00    -0.237 OA
ATOM     75  O   UNL A   1      41.671  21.335  27.803  1.00  0.00    -0.744 OA
ENDBRANCH  68  72
ENDBRANCH  51  65
BRANCH  52  76
ATOM     76  C   UNL A   1      40.670  31.731  35.186  1.00  0.00     0.023 A 
ATOM     77  C   UNL A   1      39.600  31.507  36.072  1.00  0.00     0.031 A 
ATOM     78  C   UNL A   1      41.409  32.916  35.333  1.00  0.00     0.131 A 
ATOM     79  C   UNL A   1      39.247  32.491  37.006  1.00  0.00     0.055 A 
ATOM     80  C   UNL A   1      41.104  33.858  36.317  1.00  0.00     0.041 A 
ATOM     81  F   UNL A   1      42.433  33.181  34.506  1.00  0.00    -0.206 F 
ATOM     82  C   UNL A   1      40.004  33.657  37.145  1.00  0.00     0.022 A 
BRANCH  79  83
ATOM     83  S   UNL A   1      37.711  32.355  37.962  1.00  0.00     0.124 S 
ATOM     84  O   UNL A   1      36.792  33.176  37.180  1.00  0.00    -0.237 OA
ATOM     85  O   UNL A   1      37.461  30.915  37.922  1.00  0.00    -0.237 OA
ATOM     86  O   UNL A   1      38.072  32.883  39.273  1.00  0.00    -0.744 OA
ENDBRANCH  79  83
ENDBRANCH  52  76
BRANCH  64  87
ATOM     87  C   UNL A   1      45.637  26.963  33.698  1.00  0.00     0.023 A 
ATOM     88  C   UNL A   1      45.503  25.861  34.565  1.00  0.00     0.031 A 
ATOM     89  C   UNL A   1      46.859  27.657  33.685  1.00  0.00     0.131 A 
ATOM     90  C   UNL A   1      46.553  25.524  35.428  1.00  0.00     0.055 A 
ATOM     91  C   UNL A   1      47.921  27.282  34.509  1.00  0.00     0.041 A 
ATOM     92  F   UNL A   1      47.031  28.719  32.881  1.00  0.00    -0.206 F 
ATOM     93  C   UNL A   1      47.764  26.223  35.397  1.00  0.00     0.022 A 
BRANCH  90  94
ATOM     94  S   UNL A   1      46.350  24.232  36.686  1.00  0.00     0.124 S 
ATOM     95  O   UNL A   1      47.183  24.737  37.775  1.00  0.00    -0.237 OA
ATOM     96  O   UNL A   1      44.911  24.269  36.932  1.00  0.00    -0.237 OA
ATOM     97  O   UNL A   1      46.846  23.024  36.035  1.00  0.00    -0.744 OA
ENDBRANCH  90  94
ENDBRANCH  64  87
ENDBRANCH  38  39
ENDBRANCH  30  33
ENDBRANCH  28  29
ENDBRANCH  27  28
ENDBRANCH   1  27
TORSDOF 19
ENDMDL
