MODEL 1
REMARK VINA RESULT:     -11.4      0.000      0.000
REMARK SMILES Cc1cccc(C[NH+]2CCC(OCC(=O)NCCCCCCNC(=O)c3ccc(-c4c5nc(c(-c6cc(S(=O)(=O)[O-])ccc6F)c6ccc([nH]6)c(-c6cc(S(=O)(=O)[O-])ccc6F)c6nc(c(-c7cc(S(=O)(=O)[O-])ccc7F)c7ccc4[nH]7)C=C6)C=C5)cc3)CC2)n1
REMARK SMILES IDX 19 1 18 2 17 3 16 4 14 5 15 6 13 8 12 9 11 10 8 11 9 12
REMARK SMILES IDX 90 13 10 15 89 16 7 17 6 18 1 19 2 20 3 21 91 22 4 23 5 24
REMARK SMILES IDX 20 25 21 26 22 27 23 28 24 29 25 31 26 32 27 33 88 34 28 35
REMARK SMILES IDX 87 36 29 37 30 38 31 39 81 40 32 41 86 42 80 43 82 44 33 45
REMARK SMILES IDX 85 46 79 47 78 48 34 50 66 51 46 52 65 53 47 54 50 55 64 56
REMARK SMILES IDX 83 57 48 58 49 59 63 61 84 62 51 63 35 64 36 65 44 66 37 67
REMARK SMILES IDX 43 68 45 69 42 70 38 71 39 72 40 73 41 74 67 75 68 76 76 77
REMARK SMILES IDX 69 78 75 79 77 80 74 81 70 82 71 83 72 84 73 85 52 86 53 87
REMARK SMILES IDX 61 88 54 89 60 90 62 91 59 92 55 93 56 94 57 95 58 96
REMARK H PARENT 16 7 8 14 23 30 82 49 50 60
REMARK Flexibility Score: inf
ROOT
ATOM      1  C   UNL A   1      31.571  29.672  25.445  1.00  0.00     0.002 C 
ENDROOT
BRANCH   1   2
ATOM      2  C   UNL A   1      32.685  29.117  24.550  1.00  0.00     0.021 C 
BRANCH   2   3
ATOM      3  C   UNL A   1      32.305  28.929  23.079  1.00  0.00     0.116 C 
BRANCH   3   4
ATOM      4  N   UNL A   1      33.139  27.972  22.379  1.00  0.00    -0.354 N 
ATOM      5  C   UNL A   1      32.823  26.706  21.976  1.00  0.00     0.246 C 
ATOM      6  O   UNL A   1      33.605  26.102  21.239  1.00  0.00    -0.272 OA
ATOM      7  H   UNL A   1      34.052  28.273  22.168  1.00  0.00     0.163 HD
BRANCH   5   8
ATOM      8  C   UNL A   1      31.505  26.073  22.441  1.00  0.00     0.260 C 
BRANCH   8   9
ATOM      9  O   UNL A   1      31.352  25.772  23.818  1.00  0.00    -0.368 OA
BRANCH   9  10
ATOM     10  C   UNL A   1      32.092  24.668  24.349  1.00  0.00     0.130 C 
ATOM     11  N   UNL A   1      32.518  21.913  25.132  1.00  0.00    -0.330 N 
ATOM     12  C   UNL A   1      32.363  22.934  26.173  1.00  0.00     0.265 C 
ATOM     13  C   UNL A   1      33.205  22.466  23.957  1.00  0.00     0.265 C 
ATOM     14  H   UNL A   1      31.573  21.638  24.862  1.00  0.00     0.348 HD
ATOM     15  C   UNL A   1      31.517  24.105  25.654  1.00  0.00     0.093 C 
ATOM     16  C   UNL A   1      32.348  23.551  23.340  1.00  0.00     0.093 C 
BRANCH  11  17
ATOM     17  C   UNL A   1      33.171  20.673  25.604  1.00  0.00     0.319 C 
BRANCH  17  18
ATOM     18  C   UNL A   1      33.218  19.519  24.617  1.00  0.00     0.095 A 
ATOM     19  C   UNL A   1      34.815  16.214  24.651  1.00  0.00     0.067 C 
ATOM     20  C   UNL A   1      34.008  17.375  24.154  1.00  0.00     0.038 A 
ATOM     21  C   UNL A   1      33.177  17.269  23.049  1.00  0.00     0.023 A 
ATOM     22  N   UNL A   1      34.062  18.495  24.904  1.00  0.00    -0.252 NA
ATOM     23  C   UNL A   1      32.368  18.352  22.714  1.00  0.00     0.004 A 
ATOM     24  C   UNL A   1      32.374  19.490  23.514  1.00  0.00     0.030 A 
ENDBRANCH  17  18
ENDBRANCH  11  17
ENDBRANCH   9  10
ENDBRANCH   8   9
ENDBRANCH   5   8
ENDBRANCH   3   4
ENDBRANCH   2   3
ENDBRANCH   1   2
BRANCH   1  25
ATOM     25  C   UNL A   1      32.047  30.250  26.782  1.00  0.00     0.002 C 
BRANCH  25  26
ATOM     26  C   UNL A   1      31.781  31.746  26.969  1.00  0.00     0.021 C 
BRANCH  26  27
ATOM     27  C   UNL A   1      33.034  32.598  27.148  1.00  0.00     0.116 C 
BRANCH  27  28
ATOM     28  N   UNL A   1      32.715  33.945  27.590  1.00  0.00    -0.352 N 
ATOM     29  C   UNL A   1      33.192  34.633  28.678  1.00  0.00     0.251 C 
ATOM     30  H   UNL A   1      32.068  34.434  27.031  1.00  0.00     0.163 HD
ATOM     31  O   UNL A   1      32.647  35.681  29.023  1.00  0.00    -0.269 OA
BRANCH  29  32
ATOM     32  C   UNL A   1      34.339  34.100  29.445  1.00  0.00     0.039 A 
ATOM     33  C   UNL A   1      34.095  33.246  30.524  1.00  0.00     0.014 A 
ATOM     34  C   UNL A   1      35.652  34.440  29.106  1.00  0.00     0.014 A 
ATOM     35  C   UNL A   1      35.169  32.689  31.222  1.00  0.00     0.010 A 
ATOM     36  C   UNL A   1      36.721  33.824  29.754  1.00  0.00     0.010 A 
ATOM     37  C   UNL A   1      36.492  32.942  30.822  1.00  0.00    -0.014 A 
BRANCH  37  38
ATOM     38  C   UNL A   1      37.641  32.302  31.517  1.00  0.00     0.031 A 
ATOM     39  C   UNL A   1      38.366  31.148  30.876  1.00  0.00     0.074 A 
ATOM     40  C   UNL A   1      38.009  32.735  32.740  1.00  0.00     0.049 A 
ATOM     41  N   UNL A   1      39.351  30.426  31.346  1.00  0.00    -0.248 NA
ATOM     42  C   UNL A   1      37.908  30.741  29.540  1.00  0.00     0.031 C 
ATOM     43  C   UNL A   1      37.367  33.827  33.478  1.00  0.00     0.029 A 
ATOM     44  N   UNL A   1      39.009  32.314  33.581  1.00  0.00    -0.354 N 
ATOM     45  C   UNL A   1      39.635  29.484  30.363  1.00  0.00     0.074 A 
ATOM     46  C   UNL A   1      38.666  29.680  29.306  1.00  0.00     0.031 C 
ATOM     47  C   UNL A   1      38.011  34.009  34.642  1.00  0.00     0.029 A 
ATOM     48  C   UNL A   1      39.075  33.017  34.763  1.00  0.00     0.049 A 
ATOM     49  H   UNL A   1      39.623  31.577  33.360  1.00  0.00     0.167 HD
ATOM     50  C   UNL A   1      40.633  28.565  30.327  1.00  0.00     0.034 A 
ATOM     51  C   UNL A   1      39.890  32.871  35.827  1.00  0.00     0.034 A 
ATOM     52  C   UNL A   1      41.591  28.377  31.389  1.00  0.00     0.049 A 
ATOM     53  C   UNL A   1      40.946  31.792  35.790  1.00  0.00     0.074 A 
ATOM     54  C   UNL A   1      42.647  27.484  31.449  1.00  0.00     0.029 A 
ATOM     55  N   UNL A   1      41.612  29.093  32.579  1.00  0.00    -0.354 N 
ATOM     56  N   UNL A   1      41.221  30.933  34.836  1.00  0.00    -0.248 NA
ATOM     57  C   UNL A   1      41.811  31.673  36.972  1.00  0.00     0.031 C 
ATOM     58  C   UNL A   1      43.262  27.613  32.699  1.00  0.00     0.029 A 
ATOM     59  C   UNL A   1      42.645  28.644  33.387  1.00  0.00     0.049 A 
ATOM     60  H   UNL A   1      40.985  29.815  32.814  1.00  0.00     0.167 HD
ATOM     61  C   UNL A   1      42.318  30.203  35.288  1.00  0.00     0.074 A 
ATOM     62  C   UNL A   1      42.664  30.736  36.588  1.00  0.00     0.031 C 
ATOM     63  C   UNL A   1      42.982  29.185  34.683  1.00  0.00     0.034 A 
BRANCH  50  64
ATOM     64  C   UNL A   1      40.723  27.688  29.101  1.00  0.00     0.023 A 
ATOM     65  C   UNL A   1      41.662  27.944  28.085  1.00  0.00     0.031 A 
ATOM     66  C   UNL A   1      39.860  26.591  28.935  1.00  0.00     0.131 A 
ATOM     67  C   UNL A   1      41.669  27.161  26.922  1.00  0.00     0.055 A 
ATOM     68  C   UNL A   1      39.928  25.763  27.812  1.00  0.00     0.041 A 
ATOM     69  F   UNL A   1      38.928  26.308  29.858  1.00  0.00    -0.206 F 
ATOM     70  C   UNL A   1      40.827  26.055  26.790  1.00  0.00     0.022 A 
BRANCH  67  71
ATOM     71  S   UNL A   1      42.695  27.697  25.525  1.00  0.00     0.124 S 
ATOM     72  O   UNL A   1      43.970  27.967  26.185  1.00  0.00    -0.237 OA
ATOM     73  O   UNL A   1      42.663  26.534  24.647  1.00  0.00    -0.237 OA
ATOM     74  O   UNL A   1      41.999  28.879  25.023  1.00  0.00    -0.744 OA
ENDBRANCH  67  71
ENDBRANCH  50  64
BRANCH  51  75
ATOM     75  C   UNL A   1      39.748  33.748  37.028  1.00  0.00     0.023 A 
ATOM     76  C   UNL A   1      39.129  33.275  38.196  1.00  0.00     0.031 A 
ATOM     77  C   UNL A   1      40.148  35.096  36.998  1.00  0.00     0.131 A 
ATOM     78  C   UNL A   1      38.858  34.158  39.253  1.00  0.00     0.055 A 
ATOM     79  C   UNL A   1      39.942  35.952  38.081  1.00  0.00     0.041 A 
ATOM     80  F   UNL A   1      40.745  35.605  35.908  1.00  0.00    -0.206 F 
ATOM     81  C   UNL A   1      39.274  35.490  39.210  1.00  0.00     0.022 A 
BRANCH  78  82
ATOM     82  S   UNL A   1      37.827  33.571  40.626  1.00  0.00     0.124 S 
ATOM     83  O   UNL A   1      37.539  34.815  41.332  1.00  0.00    -0.237 OA
ATOM     84  O   UNL A   1      36.707  32.957  39.921  1.00  0.00    -0.237 OA
ATOM     85  O   UNL A   1      38.704  32.639  41.334  1.00  0.00    -0.744 OA
ENDBRANCH  78  82
ENDBRANCH  51  75
BRANCH  63  86
ATOM     86  C   UNL A   1      44.189  28.628  35.400  1.00  0.00     0.023 A 
ATOM     87  C   UNL A   1      44.078  27.595  36.349  1.00  0.00     0.031 A 
ATOM     88  C   UNL A   1      45.468  29.154  35.145  1.00  0.00     0.131 A 
ATOM     89  C   UNL A   1      45.214  27.168  37.054  1.00  0.00     0.055 A 
ATOM     90  C   UNL A   1      46.604  28.677  35.798  1.00  0.00     0.041 A 
ATOM     91  F   UNL A   1      45.634  30.143  34.251  1.00  0.00    -0.206 F 
ATOM     92  C   UNL A   1      46.479  27.690  36.771  1.00  0.00     0.022 A 
BRANCH  89  93
ATOM     93  S   UNL A   1      44.999  25.998  38.422  1.00  0.00     0.124 S 
ATOM     94  O   UNL A   1      46.353  25.908  38.960  1.00  0.00    -0.237 OA
ATOM     95  O   UNL A   1      44.023  26.681  39.265  1.00  0.00    -0.237 OA
ATOM     96  O   UNL A   1      44.510  24.787  37.765  1.00  0.00    -0.744 OA
ENDBRANCH  89  93
ENDBRANCH  63  86
ENDBRANCH  37  38
ENDBRANCH  29  32
ENDBRANCH  27  28
ENDBRANCH  26  27
ENDBRANCH  25  26
ENDBRANCH   1  25
TORSDOF 20
ENDMDL
MODEL 2
REMARK VINA RESULT:     -11.1      1.298      7.845
REMARK SMILES Cc1cccc(C[NH+]2CCC(OCC(=O)NCCCCCCNC(=O)c3ccc(-c4c5nc(c(-c6cc(S(=O)(=O)[O-])ccc6F)c6ccc([nH]6)c(-c6cc(S(=O)(=O)[O-])ccc6F)c6nc(c(-c7cc(S(=O)(=O)[O-])ccc7F)c7ccc4[nH]7)C=C6)C=C5)cc3)CC2)n1
REMARK SMILES IDX 19 1 18 2 17 3 16 4 14 5 15 6 13 8 12 9 11 10 8 11 9 12
REMARK SMILES IDX 90 13 10 15 89 16 7 17 6 18 1 19 2 20 3 21 91 22 4 23 5 24
REMARK SMILES IDX 20 25 21 26 22 27 23 28 24 29 25 31 26 32 27 33 88 34 28 35
REMARK SMILES IDX 87 36 29 37 30 38 31 39 81 40 32 41 86 42 80 43 82 44 33 45
REMARK SMILES IDX 85 46 79 47 78 48 34 50 66 51 46 52 65 53 47 54 50 55 64 56
REMARK SMILES IDX 83 57 48 58 49 59 63 61 84 62 51 63 35 64 36 65 44 66 37 67
REMARK SMILES IDX 43 68 45 69 42 70 38 71 39 72 40 73 41 74 67 75 68 76 76 77
REMARK SMILES IDX 69 78 75 79 77 80 74 81 70 82 71 83 72 84 73 85 52 86 53 87
REMARK SMILES IDX 61 88 54 89 60 90 62 91 59 92 55 93 56 94 57 95 58 96
REMARK H PARENT 16 7 8 14 23 30 82 49 50 60
REMARK Flexibility Score: inf
ROOT
ATOM      1  C   UNL A   1      31.821  29.045  25.765  1.00  0.00     0.002 C 
ENDROOT
BRANCH   1   2
ATOM      2  C   UNL A   1      33.039  29.231  24.852  1.00  0.00     0.021 C 
BRANCH   2   3
ATOM      3  C   UNL A   1      32.760  29.075  23.356  1.00  0.00     0.116 C 
BRANCH   3   4
ATOM      4  N   UNL A   1      33.439  27.945  22.751  1.00  0.00    -0.354 N 
ATOM      5  C   UNL A   1      32.891  26.861  22.127  1.00  0.00     0.246 C 
ATOM      6  O   UNL A   1      33.633  26.085  21.520  1.00  0.00    -0.272 OA
ATOM      7  H   UNL A   1      34.422  27.961  22.799  1.00  0.00     0.163 HD
BRANCH   5   8
ATOM      8  C   UNL A   1      31.374  26.641  22.187  1.00  0.00     0.260 C 
BRANCH   8   9
ATOM      9  O   UNL A   1      30.786  26.358  23.446  1.00  0.00    -0.368 OA
BRANCH   9  10
ATOM     10  C   UNL A   1      31.191  25.164  24.122  1.00  0.00     0.130 C 
ATOM     11  N   UNL A   1      33.000  23.012  24.816  1.00  0.00    -0.330 N 
ATOM     12  C   UNL A   1      31.829  22.719  23.983  1.00  0.00     0.265 C 
ATOM     13  C   UNL A   1      32.697  24.070  25.789  1.00  0.00     0.265 C 
ATOM     14  H   UNL A   1      33.723  23.347  24.178  1.00  0.00     0.348 HD
ATOM     15  C   UNL A   1      31.407  23.965  23.192  1.00  0.00     0.093 C 
ATOM     16  C   UNL A   1      32.387  25.355  25.051  1.00  0.00     0.093 C 
BRANCH  11  17
ATOM     17  C   UNL A   1      33.577  21.821  25.476  1.00  0.00     0.319 C 
BRANCH  17  18
ATOM     18  C   UNL A   1      35.067  21.601  25.284  1.00  0.00     0.095 A 
ATOM     19  C   UNL A   1      38.043  23.638  25.971  1.00  0.00     0.067 C 
ATOM     20  C   UNL A   1      37.218  22.472  25.519  1.00  0.00     0.038 A 
ATOM     21  C   UNL A   1      37.786  21.240  25.232  1.00  0.00     0.023 A 
ATOM     22  N   UNL A   1      35.883  22.665  25.505  1.00  0.00    -0.252 NA
ATOM     23  C   UNL A   1      36.947  20.170  24.931  1.00  0.00     0.004 A 
ATOM     24  C   UNL A   1      35.567  20.344  24.971  1.00  0.00     0.030 A 
ENDBRANCH  17  18
ENDBRANCH  11  17
ENDBRANCH   9  10
ENDBRANCH   8   9
ENDBRANCH   5   8
ENDBRANCH   3   4
ENDBRANCH   2   3
ENDBRANCH   1   2
BRANCH   1  25
ATOM     25  C   UNL A   1      31.802  29.944  27.006  1.00  0.00     0.002 C 
BRANCH  25  26
ATOM     26  C   UNL A   1      31.783  31.446  26.714  1.00  0.00     0.021 C 
BRANCH  26  27
ATOM     27  C   UNL A   1      33.050  32.191  27.123  1.00  0.00     0.116 C 
BRANCH  27  28
ATOM     28  N   UNL A   1      32.761  33.535  27.592  1.00  0.00    -0.352 N 
ATOM     29  C   UNL A   1      33.288  34.206  28.667  1.00  0.00     0.251 C 
ATOM     30  H   UNL A   1      32.096  34.036  27.065  1.00  0.00     0.163 HD
ATOM     31  O   UNL A   1      32.766  35.255  29.046  1.00  0.00    -0.269 OA
BRANCH  29  32
ATOM     32  C   UNL A   1      34.460  33.655  29.381  1.00  0.00     0.039 A 
ATOM     33  C   UNL A   1      34.253  32.782  30.453  1.00  0.00     0.014 A 
ATOM     34  C   UNL A   1      35.762  33.996  28.999  1.00  0.00     0.014 A 
ATOM     35  C   UNL A   1      35.349  32.209  31.100  1.00  0.00     0.010 A 
ATOM     36  C   UNL A   1      36.851  33.364  29.596  1.00  0.00     0.010 A 
ATOM     37  C   UNL A   1      36.658  32.464  30.655  1.00  0.00    -0.014 A 
BRANCH  37  38
ATOM     38  C   UNL A   1      37.829  31.806  31.295  1.00  0.00     0.031 A 
ATOM     39  C   UNL A   1      38.288  32.241  32.662  1.00  0.00     0.074 A 
ATOM     40  C   UNL A   1      38.500  30.843  30.632  1.00  0.00     0.049 A 
ATOM     41  N   UNL A   1      39.316  31.829  33.360  1.00  0.00    -0.248 NA
ATOM     42  C   UNL A   1      37.499  33.292  33.321  1.00  0.00     0.031 C 
ATOM     43  C   UNL A   1      38.171  30.353  29.291  1.00  0.00     0.029 A 
ATOM     44  N   UNL A   1      39.599  30.101  30.991  1.00  0.00    -0.354 N 
ATOM     45  C   UNL A   1      39.294  32.565  34.540  1.00  0.00     0.074 A 
ATOM     46  C   UNL A   1      38.195  33.502  34.427  1.00  0.00     0.031 C 
ATOM     47  C   UNL A   1      39.025  29.372  28.958  1.00  0.00     0.029 A 
ATOM     48  C   UNL A   1      39.997  29.198  30.032  1.00  0.00     0.049 A 
ATOM     49  H   UNL A   1      40.060  30.207  31.855  1.00  0.00     0.167 HD
ATOM     50  C   UNL A   1      40.090  32.447  35.632  1.00  0.00     0.034 A 
ATOM     51  C   UNL A   1      41.034  28.335  30.015  1.00  0.00     0.034 A 
ATOM     52  C   UNL A   1      41.184  31.512  35.731  1.00  0.00     0.049 A 
ATOM     53  C   UNL A   1      41.949  28.276  31.215  1.00  0.00     0.074 A 
ATOM     54  C   UNL A   1      42.046  31.303  36.795  1.00  0.00     0.029 A 
ATOM     55  N   UNL A   1      41.571  30.628  34.731  1.00  0.00    -0.354 N 
ATOM     56  N   UNL A   1      41.891  28.957  32.337  1.00  0.00    -0.248 NA
ATOM     57  C   UNL A   1      43.064  27.321  31.150  1.00  0.00     0.031 C 
ATOM     58  C   UNL A   1      42.992  30.345  36.413  1.00  0.00     0.029 A 
ATOM     59  C   UNL A   1      42.671  29.893  35.144  1.00  0.00     0.049 A 
ATOM     60  H   UNL A   1      41.126  30.537  33.857  1.00  0.00     0.167 HD
ATOM     61  C   UNL A   1      42.935  28.478  33.125  1.00  0.00     0.074 A 
ATOM     62  C   UNL A   1      43.591  27.440  32.358  1.00  0.00     0.031 C 
ATOM     63  C   UNL A   1      43.317  28.858  34.371  1.00  0.00     0.034 A 
BRANCH  50  64
ATOM     64  C   UNL A   1      39.809  33.365  36.797  1.00  0.00     0.023 A 
ATOM     65  C   UNL A   1      39.198  32.891  37.972  1.00  0.00     0.031 A 
ATOM     66  C   UNL A   1      40.144  34.730  36.737  1.00  0.00     0.131 A 
ATOM     67  C   UNL A   1      38.876  33.782  39.005  1.00  0.00     0.055 A 
ATOM     68  C   UNL A   1      39.898  35.596  37.804  1.00  0.00     0.041 A 
ATOM     69  F   UNL A   1      40.709  35.247  35.635  1.00  0.00    -0.206 F 
ATOM     70  C   UNL A   1      39.247  35.127  38.941  1.00  0.00     0.022 A 
BRANCH  67  71
ATOM     71  S   UNL A   1      37.841  33.187  40.370  1.00  0.00     0.124 S 
ATOM     72  O   UNL A   1      36.561  32.980  39.698  1.00  0.00    -0.237 OA
ATOM     73  O   UNL A   1      38.542  31.982  40.796  1.00  0.00    -0.237 OA
ATOM     74  O   UNL A   1      37.863  34.294  41.324  1.00  0.00    -0.744 OA
ENDBRANCH  67  71
ENDBRANCH  50  64
BRANCH  51  75
ATOM     75  C   UNL A   1      41.286  27.462  28.830  1.00  0.00     0.023 A 
ATOM     76  C   UNL A   1      42.303  27.771  27.911  1.00  0.00     0.031 A 
ATOM     77  C   UNL A   1      40.461  26.359  28.547  1.00  0.00     0.131 A 
ATOM     78  C   UNL A   1      42.419  27.036  26.721  1.00  0.00     0.055 A 
ATOM     79  C   UNL A   1      40.628  25.586  27.397  1.00  0.00     0.041 A 
ATOM     80  F   UNL A   1      39.472  26.016  29.388  1.00  0.00    -0.206 F 
ATOM     81  C   UNL A   1      41.599  25.936  26.465  1.00  0.00     0.022 A 
BRANCH  78  82
ATOM     82  S   UNL A   1      43.568  27.629  25.449  1.00  0.00     0.124 S 
ATOM     83  O   UNL A   1      44.437  26.471  25.271  1.00  0.00    -0.237 OA
ATOM     84  O   UNL A   1      42.666  27.932  24.343  1.00  0.00    -0.237 OA
ATOM     85  O   UNL A   1      44.197  28.792  26.075  1.00  0.00    -0.744 OA
ENDBRANCH  78  82
ENDBRANCH  51  75
BRANCH  63  86
ATOM     86  C   UNL A   1      44.461  28.101  35.002  1.00  0.00     0.023 A 
ATOM     87  C   UNL A   1      44.257  26.908  35.718  1.00  0.00     0.031 A 
ATOM     88  C   UNL A   1      45.774  28.593  34.901  1.00  0.00     0.131 A 
ATOM     89  C   UNL A   1      45.338  26.284  36.361  1.00  0.00     0.055 A 
ATOM     90  C   UNL A   1      46.856  27.931  35.483  1.00  0.00     0.041 A 
ATOM     91  F   UNL A   1      46.029  29.729  34.231  1.00  0.00    -0.206 F 
ATOM     92  C   UNL A   1      46.638  26.779  36.232  1.00  0.00     0.022 A 
BRANCH  89  93
ATOM     93  S   UNL A   1      45.005  24.879  37.457  1.00  0.00     0.124 S 
ATOM     94  O   UNL A   1      45.312  25.438  38.770  1.00  0.00    -0.237 OA
ATOM     95  O   UNL A   1      43.595  24.607  37.195  1.00  0.00    -0.237 OA
ATOM     96  O   UNL A   1      45.932  23.851  36.988  1.00  0.00    -0.744 OA
ENDBRANCH  89  93
ENDBRANCH  63  86
ENDBRANCH  37  38
ENDBRANCH  29  32
ENDBRANCH  27  28
ENDBRANCH  26  27
ENDBRANCH  25  26
ENDBRANCH   1  25
TORSDOF 20
ENDMDL
MODEL 3
REMARK VINA RESULT:     -10.9      5.959     10.698
REMARK SMILES Cc1cccc(C[NH+]2CCC(OCC(=O)NCCCCCCNC(=O)c3ccc(-c4c5nc(c(-c6cc(S(=O)(=O)[O-])ccc6F)c6ccc([nH]6)c(-c6cc(S(=O)(=O)[O-])ccc6F)c6nc(c(-c7cc(S(=O)(=O)[O-])ccc7F)c7ccc4[nH]7)C=C6)C=C5)cc3)CC2)n1
REMARK SMILES IDX 19 1 18 2 17 3 16 4 14 5 15 6 13 8 12 9 11 10 8 11 9 12
REMARK SMILES IDX 90 13 10 15 89 16 7 17 6 18 1 19 2 20 3 21 91 22 4 23 5 24
REMARK SMILES IDX 20 25 21 26 22 27 23 28 24 29 25 31 26 32 27 33 88 34 28 35
REMARK SMILES IDX 87 36 29 37 30 38 31 39 81 40 32 41 86 42 80 43 82 44 33 45
REMARK SMILES IDX 85 46 79 47 78 48 34 50 66 51 46 52 65 53 47 54 50 55 64 56
REMARK SMILES IDX 83 57 48 58 49 59 63 61 84 62 51 63 35 64 36 65 44 66 37 67
REMARK SMILES IDX 43 68 45 69 42 70 38 71 39 72 40 73 41 74 67 75 68 76 76 77
REMARK SMILES IDX 69 78 75 79 77 80 74 81 70 82 71 83 72 84 73 85 52 86 53 87
REMARK SMILES IDX 61 88 54 89 60 90 62 91 59 92 55 93 56 94 57 95 58 96
REMARK H PARENT 16 7 8 14 23 30 82 49 50 60
REMARK Flexibility Score: inf
ROOT
ATOM      1  C   UNL A   1      40.399  22.321  26.488  1.00  0.00     0.002 C 
ENDROOT
BRANCH   1   2
ATOM      2  C   UNL A   1      38.942  22.800  26.496  1.00  0.00     0.021 C 
BRANCH   2   3
ATOM      3  C   UNL A   1      38.015  22.075  25.518  1.00  0.00     0.116 C 
BRANCH   3   4
ATOM      4  N   UNL A   1      36.766  21.640  26.114  1.00  0.00    -0.354 N 
ATOM      5  C   UNL A   1      35.515  21.655  25.567  1.00  0.00     0.246 C 
ATOM      6  O   UNL A   1      34.598  21.083  26.160  1.00  0.00    -0.272 OA
ATOM      7  H   UNL A   1      36.828  21.290  27.031  1.00  0.00     0.163 HD
BRANCH   5   8
ATOM      8  C   UNL A   1      35.283  22.372  24.230  1.00  0.00     0.260 C 
BRANCH   8   9
ATOM      9  O   UNL A   1      33.986  22.326  23.659  1.00  0.00    -0.368 OA
BRANCH   9  10
ATOM     10  C   UNL A   1      33.223  23.535  23.630  1.00  0.00     0.130 C 
ATOM     11  N   UNL A   1      32.558  26.253  24.378  1.00  0.00    -0.330 N 
ATOM     12  C   UNL A   1      31.704  25.156  24.845  1.00  0.00     0.265 C 
ATOM     13  C   UNL A   1      33.100  25.961  23.044  1.00  0.00     0.265 C 
ATOM     14  H   UNL A   1      33.331  26.312  25.042  1.00  0.00     0.348 HD
ATOM     15  C   UNL A   1      32.512  23.854  24.950  1.00  0.00     0.093 C 
ATOM     16  C   UNL A   1      34.001  24.747  23.124  1.00  0.00     0.093 C 
BRANCH  11  17
ATOM     17  C   UNL A   1      31.903  27.577  24.416  1.00  0.00     0.319 C 
BRANCH  17  18
ATOM     18  C   UNL A   1      32.478  28.585  25.396  1.00  0.00     0.095 A 
ATOM     19  C   UNL A   1      31.372  31.872  26.599  1.00  0.00     0.067 C 
ATOM     20  C   UNL A   1      32.227  30.652  26.447  1.00  0.00     0.038 A 
ATOM     21  C   UNL A   1      33.265  30.372  27.323  1.00  0.00     0.023 A 
ATOM     22  N   UNL A   1      31.864  29.794  25.471  1.00  0.00    -0.252 NA
ATOM     23  C   UNL A   1      33.943  29.162  27.192  1.00  0.00     0.004 A 
ATOM     24  C   UNL A   1      33.538  28.246  26.227  1.00  0.00     0.030 A 
ENDBRANCH  17  18
ENDBRANCH  11  17
ENDBRANCH   9  10
ENDBRANCH   8   9
ENDBRANCH   5   8
ENDBRANCH   3   4
ENDBRANCH   2   3
ENDBRANCH   1   2
BRANCH   1  25
ATOM     25  C   UNL A   1      40.806  21.478  27.700  1.00  0.00     0.002 C 
BRANCH  25  26
ATOM     26  C   UNL A   1      41.407  20.111  27.363  1.00  0.00     0.021 C 
BRANCH  26  27
ATOM     27  C   UNL A   1      41.412  19.766  25.877  1.00  0.00     0.116 C 
BRANCH  27  28
ATOM     28  N   UNL A   1      42.717  19.308  25.431  1.00  0.00    -0.352 N 
ATOM     29  C   UNL A   1      43.857  20.038  25.206  1.00  0.00     0.251 C 
ATOM     30  H   UNL A   1      42.796  18.340  25.269  1.00  0.00     0.163 HD
ATOM     31  O   UNL A   1      44.807  19.520  24.619  1.00  0.00    -0.269 OA
BRANCH  29  32
ATOM     32  C   UNL A   1      43.930  21.450  25.645  1.00  0.00     0.039 A 
ATOM     33  C   UNL A   1      44.350  21.734  26.947  1.00  0.00     0.014 A 
ATOM     34  C   UNL A   1      43.585  22.492  24.778  1.00  0.00     0.014 A 
ATOM     35  C   UNL A   1      44.480  23.062  27.358  1.00  0.00     0.010 A 
ATOM     36  C   UNL A   1      43.789  23.815  25.165  1.00  0.00     0.010 A 
ATOM     37  C   UNL A   1      44.236  24.116  26.460  1.00  0.00    -0.014 A 
BRANCH  37  38
ATOM     38  C   UNL A   1      44.435  25.534  26.868  1.00  0.00     0.031 A 
ATOM     39  C   UNL A   1      45.797  26.167  26.765  1.00  0.00     0.074 A 
ATOM     40  C   UNL A   1      43.398  26.239  27.364  1.00  0.00     0.049 A 
ATOM     41  N   UNL A   1      46.181  27.366  27.121  1.00  0.00    -0.248 NA
ATOM     42  C   UNL A   1      46.873  25.333  26.208  1.00  0.00     0.031 C 
ATOM     43  C   UNL A   1      42.035  25.729  27.538  1.00  0.00     0.029 A 
ATOM     44  N   UNL A   1      43.323  27.535  27.812  1.00  0.00    -0.354 N 
ATOM     45  C   UNL A   1      47.539  27.434  26.826  1.00  0.00     0.074 A 
ATOM     46  C   UNL A   1      47.925  26.127  26.335  1.00  0.00     0.031 C 
ATOM     47  C   UNL A   1      41.257  26.709  28.023  1.00  0.00     0.029 A 
ATOM     48  C   UNL A   1      42.069  27.901  28.246  1.00  0.00     0.049 A 
ATOM     49  H   UNL A   1      44.095  28.145  27.823  1.00  0.00     0.167 HD
ATOM     50  C   UNL A   1      48.379  28.495  26.920  1.00  0.00     0.034 A 
ATOM     51  C   UNL A   1      41.627  29.060  28.774  1.00  0.00     0.034 A 
ATOM     52  C   UNL A   1      47.983  29.792  27.414  1.00  0.00     0.049 A 
ATOM     53  C   UNL A   1      42.601  30.203  28.936  1.00  0.00     0.074 A 
ATOM     54  C   UNL A   1      48.751  30.937  27.541  1.00  0.00     0.029 A 
ATOM     55  N   UNL A   1      46.711  30.118  27.865  1.00  0.00    -0.354 N 
ATOM     56  N   UNL A   1      43.875  30.258  28.619  1.00  0.00    -0.248 NA
ATOM     57  C   UNL A   1      42.073  31.445  29.516  1.00  0.00     0.031 C 
ATOM     58  C   UNL A   1      47.963  31.932  28.129  1.00  0.00     0.029 A 
ATOM     59  C   UNL A   1      46.680  31.437  28.292  1.00  0.00     0.049 A 
ATOM     60  H   UNL A   1      45.942  29.502  27.878  1.00  0.00     0.167 HD
ATOM     61  C   UNL A   1      44.284  31.555  28.921  1.00  0.00     0.074 A 
ATOM     62  C   UNL A   1      43.120  32.251  29.425  1.00  0.00     0.031 C 
ATOM     63  C   UNL A   1      45.511  32.122  28.792  1.00  0.00     0.034 A 
BRANCH  50  64
ATOM     64  C   UNL A   1      49.811  28.286  26.490  1.00  0.00     0.023 A 
ATOM     65  C   UNL A   1      50.209  28.471  25.154  1.00  0.00     0.031 A 
ATOM     66  C   UNL A   1      50.792  27.889  27.418  1.00  0.00     0.131 A 
ATOM     67  C   UNL A   1      51.528  28.191  24.769  1.00  0.00     0.055 A 
ATOM     68  C   UNL A   1      52.123  27.694  27.044  1.00  0.00     0.041 A 
ATOM     69  F   UNL A   1      50.470  27.676  28.703  1.00  0.00    -0.206 F 
ATOM     70  C   UNL A   1      52.495  27.831  25.710  1.00  0.00     0.022 A 
BRANCH  67  71
ATOM     71  S   UNL A   1      51.926  28.167  22.999  1.00  0.00     0.124 S 
ATOM     72  O   UNL A   1      53.233  27.515  23.001  1.00  0.00    -0.237 OA
ATOM     73  O   UNL A   1      50.825  27.393  22.439  1.00  0.00    -0.237 OA
ATOM     74  O   UNL A   1      51.944  29.582  22.634  1.00  0.00    -0.744 OA
ENDBRANCH  67  71
ENDBRANCH  50  64
BRANCH  51  75
ATOM     75  C   UNL A   1      40.206  29.214  29.207  1.00  0.00     0.023 A 
ATOM     76  C   UNL A   1      39.850  29.111  30.562  1.00  0.00     0.031 A 
ATOM     77  C   UNL A   1      39.171  29.375  28.268  1.00  0.00     0.131 A 
ATOM     78  C   UNL A   1      38.496  29.094  30.932  1.00  0.00     0.055 A 
ATOM     79  C   UNL A   1      37.829  29.431  28.650  1.00  0.00     0.041 A 
ATOM     80  F   UNL A   1      39.450  29.478  26.959  1.00  0.00    -0.206 F 
ATOM     81  C   UNL A   1      37.484  29.269  29.987  1.00  0.00     0.022 A 
BRANCH  78  82
ATOM     82  S   UNL A   1      38.076  28.698  32.652  1.00  0.00     0.124 S 
ATOM     83  O   UNL A   1      36.728  29.246  32.761  1.00  0.00    -0.237 OA
ATOM     84  O   UNL A   1      38.182  27.243  32.661  1.00  0.00    -0.237 OA
ATOM     85  O   UNL A   1      39.101  29.402  33.422  1.00  0.00    -0.744 OA
ENDBRANCH  78  82
ENDBRANCH  51  75
BRANCH  63  86
ATOM     86  C   UNL A   1      45.634  33.585  29.146  1.00  0.00     0.023 A 
ATOM     87  C   UNL A   1      45.402  34.600  28.200  1.00  0.00     0.031 A 
ATOM     88  C   UNL A   1      46.011  33.968  30.445  1.00  0.00     0.131 A 
ATOM     89  C   UNL A   1      45.612  35.942  28.550  1.00  0.00     0.055 A 
ATOM     90  C   UNL A   1      46.150  35.308  30.807  1.00  0.00     0.041 A 
ATOM     91  F   UNL A   1      46.248  33.042  31.389  1.00  0.00    -0.206 F 
ATOM     92  C   UNL A   1      45.967  36.304  29.852  1.00  0.00     0.022 A 
BRANCH  89  93
ATOM     93  S   UNL A   1      45.522  37.204  27.251  1.00  0.00     0.124 S 
ATOM     94  O   UNL A   1      46.066  38.377  27.927  1.00  0.00    -0.237 OA
ATOM     95  O   UNL A   1      46.356  36.630  26.200  1.00  0.00    -0.237 OA
ATOM     96  O   UNL A   1      44.095  37.274  26.939  1.00  0.00    -0.744 OA
ENDBRANCH  89  93
ENDBRANCH  63  86
ENDBRANCH  37  38
ENDBRANCH  29  32
ENDBRANCH  27  28
ENDBRANCH  26  27
ENDBRANCH  25  26
ENDBRANCH   1  25
TORSDOF 20
ENDMDL
