MODEL 1
REMARK VINA RESULT:     -11.2      0.000      0.000
REMARK SMILES Cc1ccc(S(=O)(=O)Nc2ccc(C(=O)CCC(=O)NCCCCCCNC(=O)c3ccc(-c4c5nc(c(-c6cc(S(=O)(=O)[O-])ccc6F)c6ccc([nH]6)c(-c6cc(S(=O)(=O)[O-])ccc6F)c6nc(c(-c7cc(S(=O)(=O)[O-])ccc7F)c7ccc4[nH]7)C=C6)C=C5)cc3)cc2)c(C)c1
REMARK SMILES IDX 22 1 21 2 20 3 18 4 19 5 17 7 16 8 14 9 15 10 13 11 10 12
REMARK SMILES IDX 11 13 94 14 12 15 93 16 9 17 6 19 7 20 8 21 5 22 1 23 2 24
REMARK SMILES IDX 3 25 97 26 4 27 95 28 96 29 23 30 24 31 25 32 26 33 27 34
REMARK SMILES IDX 28 35 29 37 30 38 31 39 92 40 32 41 91 42 33 43 34 44 35 45
REMARK SMILES IDX 85 46 36 47 90 48 84 49 86 50 37 51 89 52 83 53 82 54 38 56
REMARK SMILES IDX 70 57 50 58 69 59 51 60 54 61 68 62 87 63 52 64 53 65 67 67
REMARK SMILES IDX 88 68 55 69 39 70 40 71 48 72 41 73 47 74 49 75 46 76 42 77
REMARK SMILES IDX 43 78 44 79 45 80 71 81 72 82 80 83 73 84 79 85 81 86 78 87
REMARK SMILES IDX 74 88 75 89 76 90 77 91 56 92 57 93 65 94 58 95 64 96 66 97
REMARK SMILES IDX 63 98 59 99 60 100 61 101 62 102
REMARK H PARENT 20 6 9 18 27 36 86 55 54 66
REMARK Flexibility Score: inf
ROOT
ATOM      1  C   UNL A   1      39.692  27.754  27.725  1.00  0.00     0.021 C 
ENDROOT
BRANCH   1   2
ATOM      2  C   UNL A   1      40.421  26.468  28.439  1.00  0.00     0.116 C 
BRANCH   2   3
ATOM      3  N   UNL A   1      40.796  25.545  27.341  1.00  0.00    -0.356 N 
ATOM      4  C   UNL A   1      40.142  24.393  26.957  1.00  0.00     0.220 C 
ATOM      5  O   UNL A   1      40.789  23.527  26.363  1.00  0.00    -0.275 OA
ATOM      6  H   UNL A   1      41.603  25.781  26.828  1.00  0.00     0.163 HD
BRANCH   4   7
ATOM      7  C   UNL A   1      38.649  24.190  27.275  1.00  0.00     0.108 C 
BRANCH   7   8
ATOM      8  C   UNL A   1      37.704  24.073  26.046  1.00  0.00     0.091 C 
BRANCH   8   9
ATOM      9  C   UNL A   1      37.242  22.641  25.652  1.00  0.00     0.163 C 
ATOM     10  O   UNL A   1      38.027  21.720  25.461  1.00  0.00    -0.294 OA
BRANCH   9  11
ATOM     11  C   UNL A   1      35.787  22.436  25.312  1.00  0.00     0.018 A 
ATOM     12  C   UNL A   1      32.628  24.215  24.899  1.00  0.00     0.049 A 
ATOM     13  C   UNL A   1      33.780  24.046  23.492  1.00  0.00     0.027 A 
ATOM     14  C   UNL A   1      33.039  23.461  26.467  1.00  0.00     0.027 A 
ATOM     15  C   UNL A   1      35.344  23.144  23.689  1.00  0.00     0.014 A 
ATOM     16  C   UNL A   1      34.618  22.571  26.668  1.00  0.00     0.014 A 
BRANCH  12  17
ATOM     17  N   UNL A   1      31.288  24.629  24.570  1.00  0.00    -0.280 N 
ATOM     18  H   UNL A   1      30.903  24.258  23.743  1.00  0.00     0.180 HD
BRANCH  17  19
ATOM     19  S   UNL A   1      30.322  25.673  25.442  1.00  0.00     0.262 S 
ATOM     20  O   UNL A   1      30.026  25.068  26.722  1.00  0.00    -0.201 OA
ATOM     21  O   UNL A   1      29.265  26.053  24.529  1.00  0.00    -0.201 OA
BRANCH  19  22
ATOM     22  C   UNL A   1      31.305  27.115  25.710  1.00  0.00     0.090 A 
ATOM     23  C   UNL A   1      31.902  31.214  26.664  1.00  0.00     0.044 C 
ATOM     24  C   UNL A   1      31.841  29.762  26.306  1.00  0.00    -0.051 A 
ATOM     25  C   UNL A   1      31.898  28.801  27.314  1.00  0.00     0.005 A 
ATOM     26  C   UNL A   1      31.749  29.347  24.970  1.00  0.00     0.008 A 
ATOM     27  C   UNL A   1      31.657  27.467  27.010  1.00  0.00     0.023 A 
ATOM     28  C   UNL A   1      31.493  28.008  24.652  1.00  0.00    -0.030 A 
ATOM     29  C   UNL A   1      31.566  27.539  23.226  1.00  0.00     0.046 C 
ENDBRANCH  19  22
ENDBRANCH  17  19
ENDBRANCH  12  17
ENDBRANCH   9  11
ENDBRANCH   8   9
ENDBRANCH   7   8
ENDBRANCH   4   7
ENDBRANCH   2   3
ENDBRANCH   1   2
BRANCH   1  30
ATOM     30  C   UNL A   1      38.184  29.272  28.083  1.00  0.00     0.002 C 
BRANCH  30  31
ATOM     31  C   UNL A   1      36.780  29.399  29.058  1.00  0.00     0.002 C 
BRANCH  31  32
ATOM     32  C   UNL A   1      35.426  29.685  28.420  1.00  0.00     0.021 C 
BRANCH  32  33
ATOM     33  C   UNL A   1      35.237  31.169  28.226  1.00  0.00     0.116 C 
BRANCH  33  34
ATOM     34  N   UNL A   1      34.486  31.765  29.337  1.00  0.00    -0.352 N 
ATOM     35  C   UNL A   1      34.975  32.269  30.518  1.00  0.00     0.251 C 
ATOM     36  H   UNL A   1      33.509  31.809  29.220  1.00  0.00     0.163 HD
ATOM     37  O   UNL A   1      34.234  32.507  31.463  1.00  0.00    -0.269 OA
BRANCH  35  38
ATOM     38  C   UNL A   1      36.427  32.482  30.602  1.00  0.00     0.039 A 
ATOM     39  C   UNL A   1      37.141  32.022  31.708  1.00  0.00     0.014 A 
ATOM     40  C   UNL A   1      37.080  32.996  29.479  1.00  0.00     0.014 A 
ATOM     41  C   UNL A   1      38.532  32.008  31.648  1.00  0.00     0.010 A 
ATOM     42  C   UNL A   1      38.443  32.831  29.363  1.00  0.00     0.010 A 
ATOM     43  C   UNL A   1      39.186  32.369  30.458  1.00  0.00    -0.014 A 
BRANCH  43  44
ATOM     44  C   UNL A   1      40.659  32.348  30.330  1.00  0.00     0.031 A 
ATOM     45  C   UNL A   1      41.357  33.612  29.912  1.00  0.00     0.074 A 
ATOM     46  C   UNL A   1      41.331  31.191  30.480  1.00  0.00     0.049 A 
ATOM     47  N   UNL A   1      42.609  33.802  29.598  1.00  0.00    -0.248 NA
ATOM     48  C   UNL A   1      40.515  34.814  29.773  1.00  0.00     0.031 C 
ATOM     49  C   UNL A   1      40.731  29.898  30.817  1.00  0.00     0.029 A 
ATOM     50  N   UNL A   1      42.666  30.911  30.347  1.00  0.00    -0.354 N 
ATOM     51  C   UNL A   1      42.693  35.130  29.193  1.00  0.00     0.074 A 
ATOM     52  C   UNL A   1      41.354  35.669  29.216  1.00  0.00     0.031 C 
ATOM     53  C   UNL A   1      41.698  28.969  30.887  1.00  0.00     0.029 A 
ATOM     54  C   UNL A   1      42.975  29.586  30.547  1.00  0.00     0.049 A 
ATOM     55  H   UNL A   1      43.341  31.594  30.129  1.00  0.00     0.167 HD
ATOM     56  C   UNL A   1      43.797  35.842  28.864  1.00  0.00     0.034 A 
ATOM     57  C   UNL A   1      44.155  28.944  30.442  1.00  0.00     0.034 A 
ATOM     58  C   UNL A   1      45.120  35.276  28.883  1.00  0.00     0.049 A 
ATOM     59  C   UNL A   1      45.373  29.749  30.069  1.00  0.00     0.074 A 
ATOM     60  C   UNL A   1      46.330  35.909  28.672  1.00  0.00     0.029 A 
ATOM     61  N   UNL A   1      45.402  33.933  29.109  1.00  0.00    -0.354 N 
ATOM     62  N   UNL A   1      45.459  31.029  29.785  1.00  0.00    -0.248 NA
ATOM     63  C   UNL A   1      46.650  29.030  30.008  1.00  0.00     0.031 C 
ATOM     64  C   UNL A   1      47.334  34.934  28.685  1.00  0.00     0.029 A 
ATOM     65  C   UNL A   1      46.763  33.707  28.987  1.00  0.00     0.049 A 
ATOM     66  H   UNL A   1      44.733  33.245  29.325  1.00  0.00     0.167 HD
ATOM     67  C   UNL A   1      46.802  31.272  29.517  1.00  0.00     0.074 A 
ATOM     68  C   UNL A   1      47.491  30.008  29.702  1.00  0.00     0.031 C 
ATOM     69  C   UNL A   1      47.414  32.427  29.151  1.00  0.00     0.034 A 
BRANCH  56  70
ATOM     70  C   UNL A   1      43.599  37.277  28.437  1.00  0.00     0.023 A 
ATOM     71  C   UNL A   1      43.660  38.343  29.353  1.00  0.00     0.031 A 
ATOM     72  C   UNL A   1      43.281  37.580  27.101  1.00  0.00     0.131 A 
ATOM     73  C   UNL A   1      43.312  39.640  28.946  1.00  0.00     0.055 A 
ATOM     74  C   UNL A   1      43.030  38.888  26.682  1.00  0.00     0.041 A 
ATOM     75  F   UNL A   1      43.180  36.606  26.184  1.00  0.00    -0.206 F 
ATOM     76  C   UNL A   1      43.025  39.925  27.611  1.00  0.00     0.022 A 
BRANCH  73  77
ATOM     77  S   UNL A   1      43.066  40.908  30.220  1.00  0.00     0.124 S 
ATOM     78  O   UNL A   1      43.975  41.960  29.771  1.00  0.00    -0.237 OA
ATOM     79  O   UNL A   1      41.642  41.201  30.101  1.00  0.00    -0.237 OA
ATOM     80  O   UNL A   1      43.464  40.236  31.455  1.00  0.00    -0.744 OA
ENDBRANCH  73  77
ENDBRANCH  56  70
BRANCH  57  81
ATOM     81  C   UNL A   1      44.229  27.470  30.663  1.00  0.00     0.023 A 
ATOM     82  C   UNL A   1      44.120  26.564  29.596  1.00  0.00     0.031 A 
ATOM     83  C   UNL A   1      44.417  26.945  31.956  1.00  0.00     0.131 A 
ATOM     84  C   UNL A   1      44.170  25.182  29.844  1.00  0.00     0.055 A 
ATOM     85  C   UNL A   1      44.515  25.573  32.190  1.00  0.00     0.041 A 
ATOM     86  F   UNL A   1      44.535  27.766  33.011  1.00  0.00    -0.206 F 
ATOM     87  C   UNL A   1      44.383  24.681  31.131  1.00  0.00     0.022 A 
BRANCH  84  88
ATOM     88  S   UNL A   1      43.891  24.038  28.464  1.00  0.00     0.124 S 
ATOM     89  O   UNL A   1      42.746  23.271  28.940  1.00  0.00    -0.237 OA
ATOM     90  O   UNL A   1      43.635  24.955  27.358  1.00  0.00    -0.237 OA
ATOM     91  O   UNL A   1      45.148  23.298  28.378  1.00  0.00    -0.744 OA
ENDBRANCH  84  88
ENDBRANCH  57  81
BRANCH  69  92
ATOM     92  C   UNL A   1      48.905  32.370  28.931  1.00  0.00     0.023 A 
ATOM     93  C   UNL A   1      49.449  31.862  27.739  1.00  0.00     0.031 A 
ATOM     94  C   UNL A   1      49.788  32.850  29.914  1.00  0.00     0.131 A 
ATOM     95  C   UNL A   1      50.840  31.805  27.578  1.00  0.00     0.055 A 
ATOM     96  C   UNL A   1      51.168  32.851  29.720  1.00  0.00     0.041 A 
ATOM     97  F   UNL A   1      49.319  33.343  31.072  1.00  0.00    -0.206 F 
ATOM     98  C   UNL A   1      51.703  32.317  28.551  1.00  0.00     0.022 A 
BRANCH  95  99
ATOM     99  S   UNL A   1      51.510  30.976  26.112  1.00  0.00     0.124 S 
ATOM    100  O   UNL A   1      52.825  30.549  26.582  1.00  0.00    -0.237 OA
ATOM    101  O   UNL A   1      50.539  29.913  25.880  1.00  0.00    -0.237 OA
ATOM    102  O   UNL A   1      51.527  32.032  25.101  1.00  0.00    -0.744 OA
ENDBRANCH  95  99
ENDBRANCH  69  92
ENDBRANCH  43  44
ENDBRANCH  35  38
ENDBRANCH  33  34
ENDBRANCH  32  33
ENDBRANCH  31  32
ENDBRANCH  30  31
ENDBRANCH   1  30
TORSDOF 22
ENDMDL
MODEL 2
REMARK VINA RESULT:     -11.0      3.095      8.168
REMARK SMILES Cc1ccc(S(=O)(=O)Nc2ccc(C(=O)CCC(=O)NCCCCCCNC(=O)c3ccc(-c4c5nc(c(-c6cc(S(=O)(=O)[O-])ccc6F)c6ccc([nH]6)c(-c6cc(S(=O)(=O)[O-])ccc6F)c6nc(c(-c7cc(S(=O)(=O)[O-])ccc7F)c7ccc4[nH]7)C=C6)C=C5)cc3)cc2)c(C)c1
REMARK SMILES IDX 22 1 21 2 20 3 18 4 19 5 17 7 16 8 14 9 15 10 13 11 10 12
REMARK SMILES IDX 11 13 94 14 12 15 93 16 9 17 6 19 7 20 8 21 5 22 1 23 2 24
REMARK SMILES IDX 3 25 97 26 4 27 95 28 96 29 23 30 24 31 25 32 26 33 27 34
REMARK SMILES IDX 28 35 29 37 30 38 31 39 92 40 32 41 91 42 33 43 34 44 35 45
REMARK SMILES IDX 85 46 36 47 90 48 84 49 86 50 37 51 89 52 83 53 82 54 38 56
REMARK SMILES IDX 70 57 50 58 69 59 51 60 54 61 68 62 87 63 52 64 53 65 67 67
REMARK SMILES IDX 88 68 55 69 39 70 40 71 48 72 41 73 47 74 49 75 46 76 42 77
REMARK SMILES IDX 43 78 44 79 45 80 71 81 72 82 80 83 73 84 79 85 81 86 78 87
REMARK SMILES IDX 74 88 75 89 76 90 77 91 56 92 57 93 65 94 58 95 64 96 66 97
REMARK SMILES IDX 63 98 59 99 60 100 61 101 62 102
REMARK H PARENT 20 6 9 18 27 36 86 55 54 66
REMARK Flexibility Score: inf
ROOT
ATOM      1  C   UNL A   1      38.347  28.407  30.792  1.00  0.00     0.021 C 
ENDROOT
BRANCH   1   2
ATOM      2  C   UNL A   1      37.210  29.475  31.304  1.00  0.00     0.116 C 
BRANCH   2   3
ATOM      3  N   UNL A   1      37.164  30.550  30.285  1.00  0.00    -0.356 N 
ATOM      4  C   UNL A   1      36.704  30.454  28.988  1.00  0.00     0.220 C 
ATOM      5  O   UNL A   1      37.130  31.260  28.159  1.00  0.00    -0.275 OA
ATOM      6  H   UNL A   1      37.502  31.432  30.565  1.00  0.00     0.163 HD
BRANCH   4   7
ATOM      7  C   UNL A   1      35.696  29.361  28.587  1.00  0.00     0.108 C 
BRANCH   7   8
ATOM      8  C   UNL A   1      35.238  29.374  27.102  1.00  0.00     0.091 C 
BRANCH   8   9
ATOM      9  C   UNL A   1      33.810  29.919  26.814  1.00  0.00     0.163 C 
ATOM     10  O   UNL A   1      33.355  30.913  27.367  1.00  0.00    -0.294 OA
BRANCH   9  11
ATOM     11  C   UNL A   1      32.890  29.080  25.963  1.00  0.00     0.018 A 
ATOM     12  C   UNL A   1      32.557  25.779  24.442  1.00  0.00     0.049 A 
ATOM     13  C   UNL A   1      31.976  26.069  26.149  1.00  0.00     0.027 A 
ATOM     14  C   UNL A   1      33.247  27.137  23.506  1.00  0.00     0.027 A 
ATOM     15  C   UNL A   1      32.123  27.716  26.902  1.00  0.00     0.014 A 
ATOM     16  C   UNL A   1      33.409  28.785  24.269  1.00  0.00     0.014 A 
BRANCH  12  17
ATOM     17  N   UNL A   1      32.093  24.567  23.817  1.00  0.00    -0.280 N 
ATOM     18  H   UNL A   1      31.152  24.323  23.973  1.00  0.00     0.180 HD
BRANCH  17  19
ATOM     19  S   UNL A   1      32.984  23.534  22.856  1.00  0.00     0.262 S 
ATOM     20  O   UNL A   1      33.477  24.274  21.716  1.00  0.00    -0.201 OA
ATOM     21  O   UNL A   1      32.145  22.366  22.688  1.00  0.00    -0.201 OA
BRANCH  19  22
ATOM     22  C   UNL A   1      34.358  23.036  23.847  1.00  0.00     0.090 A 
ATOM     23  C   UNL A   1      37.628  20.516  24.859  1.00  0.00     0.044 C 
ATOM     24  C   UNL A   1      36.508  21.481  24.628  1.00  0.00    -0.051 A 
ATOM     25  C   UNL A   1      36.720  22.603  23.827  1.00  0.00     0.005 A 
ATOM     26  C   UNL A   1      35.251  21.292  25.220  1.00  0.00     0.008 A 
ATOM     27  C   UNL A   1      35.644  23.400  23.458  1.00  0.00     0.023 A 
ATOM     28  C   UNL A   1      34.157  22.080  24.845  1.00  0.00    -0.030 A 
ATOM     29  C   UNL A   1      32.861  21.989  25.602  1.00  0.00     0.046 C 
ENDBRANCH  19  22
ENDBRANCH  17  19
ENDBRANCH  12  17
ENDBRANCH   9  11
ENDBRANCH   8   9
ENDBRANCH   7   8
ENDBRANCH   4   7
ENDBRANCH   2   3
ENDBRANCH   1   2
BRANCH   1  30
ATOM     30  C   UNL A   1      39.080  27.429  29.000  1.00  0.00     0.002 C 
BRANCH  30  31
ATOM     31  C   UNL A   1      39.345  25.808  28.510  1.00  0.00     0.002 C 
BRANCH  31  32
ATOM     32  C   UNL A   1      40.235  25.506  27.310  1.00  0.00     0.021 C 
BRANCH  32  33
ATOM     33  C   UNL A   1      41.632  25.160  27.763  1.00  0.00     0.116 C 
BRANCH  33  34
ATOM     34  N   UNL A   1      42.487  24.787  26.630  1.00  0.00    -0.352 N 
ATOM     35  C   UNL A   1      43.231  25.611  25.820  1.00  0.00     0.251 C 
ATOM     36  H   UNL A   1      42.535  23.825  26.426  1.00  0.00     0.163 HD
ATOM     37  O   UNL A   1      43.699  25.210  24.763  1.00  0.00    -0.269 OA
BRANCH  35  38
ATOM     38  C   UNL A   1      43.412  27.000  26.268  1.00  0.00     0.039 A 
ATOM     39  C   UNL A   1      42.541  27.997  25.831  1.00  0.00     0.014 A 
ATOM     40  C   UNL A   1      44.361  27.249  27.262  1.00  0.00     0.014 A 
ATOM     41  C   UNL A   1      42.576  29.239  26.460  1.00  0.00     0.010 A 
ATOM     42  C   UNL A   1      44.282  28.421  27.984  1.00  0.00     0.010 A 
ATOM     43  C   UNL A   1      43.414  29.440  27.569  1.00  0.00    -0.014 A 
BRANCH  43  44
ATOM     44  C   UNL A   1      43.473  30.729  28.291  1.00  0.00     0.031 A 
ATOM     45  C   UNL A   1      44.566  31.698  27.934  1.00  0.00     0.074 A 
ATOM     46  C   UNL A   1      42.630  30.967  29.313  1.00  0.00     0.049 A 
ATOM     47  N   UNL A   1      44.905  32.816  28.516  1.00  0.00    -0.248 NA
ATOM     48  C   UNL A   1      45.432  31.325  26.800  1.00  0.00     0.031 C 
ATOM     49  C   UNL A   1      41.581  30.056  29.778  1.00  0.00     0.029 A 
ATOM     50  N   UNL A   1      42.536  32.039  30.161  1.00  0.00    -0.354 N 
ATOM     51  C   UNL A   1      46.039  33.256  27.842  1.00  0.00     0.074 A 
ATOM     52  C   UNL A   1      46.380  32.243  26.871  1.00  0.00     0.031 C 
ATOM     53  C   UNL A   1      40.935  30.620  30.812  1.00  0.00     0.029 A 
ATOM     54  C   UNL A   1      41.557  31.903  31.118  1.00  0.00     0.049 A 
ATOM     55  H   UNL A   1      43.114  32.834  30.092  1.00  0.00     0.167 HD
ATOM     56  C   UNL A   1      46.714  34.419  28.000  1.00  0.00     0.034 A 
ATOM     57  C   UNL A   1      41.221  32.715  32.139  1.00  0.00     0.034 A 
ATOM     58  C   UNL A   1      46.325  35.419  28.960  1.00  0.00     0.049 A 
ATOM     59  C   UNL A   1      41.986  34.003  32.305  1.00  0.00     0.074 A 
ATOM     60  C   UNL A   1      46.856  36.680  29.153  1.00  0.00     0.029 A 
ATOM     61  N   UNL A   1      45.315  35.258  29.902  1.00  0.00    -0.354 N 
ATOM     62  N   UNL A   1      42.996  34.459  31.597  1.00  0.00    -0.248 NA
ATOM     63  C   UNL A   1      41.566  34.887  33.398  1.00  0.00     0.031 C 
ATOM     64  C   UNL A   1      46.226  37.246  30.266  1.00  0.00     0.029 A 
ATOM     65  C   UNL A   1      45.244  36.375  30.717  1.00  0.00     0.049 A 
ATOM     66  H   UNL A   1      44.735  34.467  29.978  1.00  0.00     0.167 HD
ATOM     67  C   UNL A   1      43.329  35.688  32.156  1.00  0.00     0.074 A 
ATOM     68  C   UNL A   1      42.392  35.912  33.241  1.00  0.00     0.031 C 
ATOM     69  C   UNL A   1      44.315  36.555  31.810  1.00  0.00     0.034 A 
BRANCH  56  70
ATOM     70  C   UNL A   1      47.937  34.637  27.141  1.00  0.00     0.023 A 
ATOM     71  C   UNL A   1      49.231  34.322  27.594  1.00  0.00     0.031 A 
ATOM     72  C   UNL A   1      47.815  35.231  25.872  1.00  0.00     0.131 A 
ATOM     73  C   UNL A   1      50.352  34.688  26.832  1.00  0.00     0.055 A 
ATOM     74  C   UNL A   1      48.929  35.504  25.077  1.00  0.00     0.041 A 
ATOM     75  F   UNL A   1      46.611  35.580  25.394  1.00  0.00    -0.206 F 
ATOM     76  C   UNL A   1      50.208  35.252  25.564  1.00  0.00     0.022 A 
BRANCH  73  77
ATOM     77  S   UNL A   1      51.992  34.582  27.600  1.00  0.00     0.124 S 
ATOM     78  O   UNL A   1      51.655  34.611  29.022  1.00  0.00    -0.237 OA
ATOM     79  O   UNL A   1      52.497  33.313  27.089  1.00  0.00    -0.237 OA
ATOM     80  O   UNL A   1      52.679  35.773  27.106  1.00  0.00    -0.744 OA
ENDBRANCH  73  77
ENDBRANCH  56  70
BRANCH  57  81
ATOM     81  C   UNL A   1      40.140  32.320  33.087  1.00  0.00     0.023 A 
ATOM     82  C   UNL A   1      38.832  32.812  32.953  1.00  0.00     0.031 A 
ATOM     83  C   UNL A   1      40.403  31.432  34.148  1.00  0.00     0.131 A 
ATOM     84  C   UNL A   1      37.845  32.438  33.879  1.00  0.00     0.055 A 
ATOM     85  C   UNL A   1      39.406  31.024  35.036  1.00  0.00     0.041 A 
ATOM     86  F   UNL A   1      41.634  30.924  34.320  1.00  0.00    -0.206 F 
ATOM     87  C   UNL A   1      38.119  31.535  34.909  1.00  0.00     0.022 A 
BRANCH  84  88
ATOM     88  S   UNL A   1      36.201  33.196  33.755  1.00  0.00     0.124 S 
ATOM     89  O   UNL A   1      35.468  32.195  32.989  1.00  0.00    -0.237 OA
ATOM     90  O   UNL A   1      35.825  33.333  35.159  1.00  0.00    -0.237 OA
ATOM     91  O   UNL A   1      36.459  34.453  33.057  1.00  0.00    -0.744 OA
ENDBRANCH  84  88
ENDBRANCH  57  81
BRANCH  69  92
ATOM     92  C   UNL A   1      44.424  37.824  32.616  1.00  0.00     0.023 A 
ATOM     93  C   UNL A   1      43.574  38.917  32.377  1.00  0.00     0.031 A 
ATOM     94  C   UNL A   1      45.372  37.932  33.649  1.00  0.00     0.131 A 
ATOM     95  C   UNL A   1      43.719  40.089  33.132  1.00  0.00     0.055 A 
ATOM     96  C   UNL A   1      45.466  39.076  34.439  1.00  0.00     0.041 A 
ATOM     97  F   UNL A   1      46.211  36.917  33.916  1.00  0.00    -0.206 F 
ATOM     98  C   UNL A   1      44.644  40.168  34.176  1.00  0.00     0.022 A 
BRANCH  95  99
ATOM     99  S   UNL A   1      42.735  41.541  32.676  1.00  0.00     0.124 S 
ATOM    100  O   UNL A   1      41.993  41.051  31.518  1.00  0.00    -0.237 OA
ATOM    101  O   UNL A   1      41.950  41.780  33.882  1.00  0.00    -0.237 OA
ATOM    102  O   UNL A   1      43.742  42.558  32.381  1.00  0.00    -0.744 OA
ENDBRANCH  95  99
ENDBRANCH  69  92
ENDBRANCH  43  44
ENDBRANCH  35  38
ENDBRANCH  33  34
ENDBRANCH  32  33
ENDBRANCH  31  32
ENDBRANCH  30  31
ENDBRANCH   1  30
TORSDOF 22
ENDMDL
MODEL 3
REMARK VINA RESULT:     -11.0      5.600      8.038
REMARK SMILES Cc1ccc(S(=O)(=O)Nc2ccc(C(=O)CCC(=O)NCCCCCCNC(=O)c3ccc(-c4c5nc(c(-c6cc(S(=O)(=O)[O-])ccc6F)c6ccc([nH]6)c(-c6cc(S(=O)(=O)[O-])ccc6F)c6nc(c(-c7cc(S(=O)(=O)[O-])ccc7F)c7ccc4[nH]7)C=C6)C=C5)cc3)cc2)c(C)c1
REMARK SMILES IDX 22 1 21 2 20 3 18 4 19 5 17 7 16 8 14 9 15 10 13 11 10 12
REMARK SMILES IDX 11 13 94 14 12 15 93 16 9 17 6 19 7 20 8 21 5 22 1 23 2 24
REMARK SMILES IDX 3 25 97 26 4 27 95 28 96 29 23 30 24 31 25 32 26 33 27 34
REMARK SMILES IDX 28 35 29 37 30 38 31 39 92 40 32 41 91 42 33 43 34 44 35 45
REMARK SMILES IDX 85 46 36 47 90 48 84 49 86 50 37 51 89 52 83 53 82 54 38 56
REMARK SMILES IDX 70 57 50 58 69 59 51 60 54 61 68 62 87 63 52 64 53 65 67 67
REMARK SMILES IDX 88 68 55 69 39 70 40 71 48 72 41 73 47 74 49 75 46 76 42 77
REMARK SMILES IDX 43 78 44 79 45 80 71 81 72 82 80 83 73 84 79 85 81 86 78 87
REMARK SMILES IDX 74 88 75 89 76 90 77 91 56 92 57 93 65 94 58 95 64 96 66 97
REMARK SMILES IDX 63 98 59 99 60 100 61 101 62 102
REMARK H PARENT 20 6 9 18 27 36 86 55 54 66
REMARK Flexibility Score: inf
ROOT
ATOM      1  C   UNL A   1      32.817  29.610  27.010  1.00  0.00     0.021 C 
ENDROOT
BRANCH   1   2
ATOM      2  C   UNL A   1      33.504  28.425  26.105  1.00  0.00     0.116 C 
BRANCH   2   3
ATOM      3  N   UNL A   1      33.631  28.976  24.733  1.00  0.00    -0.356 N 
ATOM      4  C   UNL A   1      32.627  29.139  23.802  1.00  0.00     0.220 C 
ATOM      5  O   UNL A   1      32.940  29.175  22.610  1.00  0.00    -0.275 OA
ATOM      6  H   UNL A   1      34.534  29.256  24.457  1.00  0.00     0.163 HD
BRANCH   4   7
ATOM      7  C   UNL A   1      31.155  29.258  24.240  1.00  0.00     0.108 C 
BRANCH   7   8
ATOM      8  C   UNL A   1      30.114  28.577  23.308  1.00  0.00     0.091 C 
BRANCH   8   9
ATOM      9  C   UNL A   1      29.603  27.172  23.739  1.00  0.00     0.163 C 
ATOM     10  O   UNL A   1      28.413  26.903  23.845  1.00  0.00    -0.294 OA
BRANCH   9  11
ATOM     11  C   UNL A   1      30.619  26.169  24.224  1.00  0.00     0.018 A 
ATOM     12  C   UNL A   1      31.007  22.669  25.185  1.00  0.00     0.049 A 
ATOM     13  C   UNL A   1      31.192  23.171  23.439  1.00  0.00     0.027 A 
ATOM     14  C   UNL A   1      30.681  23.914  26.427  1.00  0.00     0.027 A 
ATOM     15  C   UNL A   1      31.019  24.915  22.960  1.00  0.00     0.014 A 
ATOM     16  C   UNL A   1      30.490  25.661  25.942  1.00  0.00     0.014 A 
BRANCH  12  17
ATOM     17  N   UNL A   1      31.495  21.356  25.518  1.00  0.00    -0.280 N 
ATOM     18  H   UNL A   1      30.871  20.761  25.994  1.00  0.00     0.180 HD
BRANCH  17  19
ATOM     19  S   UNL A   1      33.009  20.738  25.184  1.00  0.00     0.262 S 
ATOM     20  O   UNL A   1      33.030  20.287  23.810  1.00  0.00    -0.201 OA
ATOM     21  O   UNL A   1      33.289  19.830  26.276  1.00  0.00    -0.201 OA
BRANCH  19  22
ATOM     22  C   UNL A   1      34.122  22.098  25.352  1.00  0.00     0.090 A 
ATOM     23  C   UNL A   1      37.961  23.860  25.820  1.00  0.00     0.044 C 
ATOM     24  C   UNL A   1      36.553  23.380  25.662  1.00  0.00    -0.051 A 
ATOM     25  C   UNL A   1      36.031  23.187  24.384  1.00  0.00     0.005 A 
ATOM     26  C   UNL A   1      35.738  23.139  26.777  1.00  0.00     0.008 A 
ATOM     27  C   UNL A   1      34.797  22.568  24.229  1.00  0.00     0.023 A 
ATOM     28  C   UNL A   1      34.499  22.504  26.635  1.00  0.00    -0.030 A 
ATOM     29  C   UNL A   1      33.559  22.404  27.803  1.00  0.00     0.046 C 
ENDBRANCH  19  22
ENDBRANCH  17  19
ENDBRANCH  12  17
ENDBRANCH   9  11
ENDBRANCH   8   9
ENDBRANCH   7   8
ENDBRANCH   4   7
ENDBRANCH   2   3
ENDBRANCH   1   2
BRANCH   1  30
ATOM     30  C   UNL A   1      32.781  31.765  27.251  1.00  0.00     0.002 C 
BRANCH  30  31
ATOM     31  C   UNL A   1      33.901  32.962  27.750  1.00  0.00     0.002 C 
BRANCH  31  32
ATOM     32  C   UNL A   1      33.901  33.460  29.191  1.00  0.00     0.021 C 
BRANCH  32  33
ATOM     33  C   UNL A   1      34.185  34.941  29.237  1.00  0.00     0.116 C 
BRANCH  33  34
ATOM     34  N   UNL A   1      33.290  35.630  30.174  1.00  0.00    -0.352 N 
ATOM     35  C   UNL A   1      33.213  35.482  31.538  1.00  0.00     0.251 C 
ATOM     36  H   UNL A   1      32.668  36.280  29.775  1.00  0.00     0.163 HD
ATOM     37  O   UNL A   1      32.263  35.923  32.173  1.00  0.00    -0.269 OA
BRANCH  35  38
ATOM     38  C   UNL A   1      34.305  34.747  32.193  1.00  0.00     0.039 A 
ATOM     39  C   UNL A   1      34.084  33.469  32.703  1.00  0.00     0.014 A 
ATOM     40  C   UNL A   1      35.590  35.293  32.131  1.00  0.00     0.014 A 
ATOM     41  C   UNL A   1      35.182  32.701  33.084  1.00  0.00     0.010 A 
ATOM     42  C   UNL A   1      36.676  34.474  32.358  1.00  0.00     0.010 A 
ATOM     43  C   UNL A   1      36.483  33.183  32.870  1.00  0.00    -0.014 A 
BRANCH  43  44
ATOM     44  C   UNL A   1      37.685  32.401  33.230  1.00  0.00     0.031 A 
ATOM     45  C   UNL A   1      38.379  32.716  34.526  1.00  0.00     0.074 A 
ATOM     46  C   UNL A   1      38.193  31.509  32.360  1.00  0.00     0.049 A 
ATOM     47  N   UNL A   1      39.516  32.271  34.987  1.00  0.00    -0.248 NA
ATOM     48  C   UNL A   1      37.731  33.716  35.394  1.00  0.00     0.031 C 
ATOM     49  C   UNL A   1      37.627  31.185  31.048  1.00  0.00     0.029 A 
ATOM     50  N   UNL A   1      39.314  30.725  32.438  1.00  0.00    -0.354 N 
ATOM     51  C   UNL A   1      39.731  32.960  36.175  1.00  0.00     0.074 A 
ATOM     52  C   UNL A   1      38.656  33.914  36.316  1.00  0.00     0.031 C 
ATOM     53  C   UNL A   1      38.392  30.253  30.457  1.00  0.00     0.029 A 
ATOM     54  C   UNL A   1      39.529  29.954  31.320  1.00  0.00     0.049 A 
ATOM     55  H   UNL A   1      39.911  30.713  33.223  1.00  0.00     0.167 HD
ATOM     56  C   UNL A   1      40.721  32.787  37.082  1.00  0.00     0.034 A 
ATOM     57  C   UNL A   1      40.545  29.121  31.021  1.00  0.00     0.034 A 
ATOM     58  C   UNL A   1      41.760  31.803  36.919  1.00  0.00     0.049 A 
ATOM     59  C   UNL A   1      41.643  28.943  32.038  1.00  0.00     0.074 A 
ATOM     60  C   UNL A   1      42.761  31.454  37.805  1.00  0.00     0.029 A 
ATOM     61  N   UNL A   1      41.938  31.023  35.782  1.00  0.00    -0.354 N 
ATOM     62  N   UNL A   1      41.785  29.527  33.207  1.00  0.00    -0.248 NA
ATOM     63  C   UNL A   1      42.710  27.994  31.702  1.00  0.00     0.031 C 
ATOM     64  C   UNL A   1      43.594  30.527  37.169  1.00  0.00     0.029 A 
ATOM     65  C   UNL A   1      43.067  30.234  35.920  1.00  0.00     0.049 A 
ATOM     66  H   UNL A   1      41.348  31.032  34.994  1.00  0.00     0.167 HD
ATOM     67  C   UNL A   1      42.957  29.011  33.751  1.00  0.00     0.074 A 
ATOM     68  C   UNL A   1      43.464  28.048  32.792  1.00  0.00     0.031 C 
ATOM     69  C   UNL A   1      43.562  29.303  34.931  1.00  0.00     0.034 A 
BRANCH  56  70
ATOM     70  C   UNL A   1      40.729  33.695  38.288  1.00  0.00     0.023 A 
ATOM     71  C   UNL A   1      39.897  33.465  39.400  1.00  0.00     0.031 A 
ATOM     72  C   UNL A   1      41.534  34.848  38.302  1.00  0.00     0.131 A 
ATOM     73  C   UNL A   1      39.817  34.418  40.427  1.00  0.00     0.055 A 
ATOM     74  C   UNL A   1      41.521  35.743  39.373  1.00  0.00     0.041 A 
ATOM     75  F   UNL A   1      42.329  35.138  37.260  1.00  0.00    -0.206 F 
ATOM     76  C   UNL A   1      40.644  35.542  40.434  1.00  0.00     0.022 A 
BRANCH  73  77
ATOM     77  S   UNL A   1      38.490  34.256  41.654  1.00  0.00     0.124 S 
ATOM     78  O   UNL A   1      37.977  35.623  41.716  1.00  0.00    -0.237 OA
ATOM     79  O   UNL A   1      37.610  33.271  41.037  1.00  0.00    -0.237 OA
ATOM     80  O   UNL A   1      39.187  33.805  42.856  1.00  0.00    -0.744 OA
ENDBRANCH  73  77
ENDBRANCH  56  70
BRANCH  57  81
ATOM     81  C   UNL A   1      40.581  28.425  29.702  1.00  0.00     0.023 A 
ATOM     82  C   UNL A   1      41.516  28.774  28.715  1.00  0.00     0.031 A 
ATOM     83  C   UNL A   1      39.674  27.387  29.412  1.00  0.00     0.131 A 
ATOM     84  C   UNL A   1      41.505  28.114  27.475  1.00  0.00     0.055 A 
ATOM     85  C   UNL A   1      39.699  26.701  28.196  1.00  0.00     0.041 A 
ATOM     86  F   UNL A   1      38.763  27.007  30.322  1.00  0.00    -0.206 F 
ATOM     87  C   UNL A   1      40.614  27.069  27.216  1.00  0.00     0.022 A 
BRANCH  84  88
ATOM     88  S   UNL A   1      42.636  28.680  26.176  1.00  0.00     0.124 S 
ATOM     89  O   UNL A   1      41.774  28.658  25.000  1.00  0.00    -0.237 OA
ATOM     90  O   UNL A   1      43.022  30.000  26.664  1.00  0.00    -0.237 OA
ATOM     91  O   UNL A   1      43.699  27.678  26.190  1.00  0.00    -0.744 OA
ENDBRANCH  84  88
ENDBRANCH  57  81
BRANCH  69  92
ATOM     92  C   UNL A   1      44.839  28.566  35.245  1.00  0.00     0.023 A 
ATOM     93  C   UNL A   1      44.838  27.411  36.045  1.00  0.00     0.031 A 
ATOM     94  C   UNL A   1      46.065  29.010  34.718  1.00  0.00     0.131 A 
ATOM     95  C   UNL A   1      46.048  26.764  36.334  1.00  0.00     0.055 A 
ATOM     96  C   UNL A   1      47.255  28.324  34.955  1.00  0.00     0.041 A 
ATOM     97  F   UNL A   1      46.120  30.111  33.950  1.00  0.00    -0.206 F 
ATOM     98  C   UNL A   1      47.253  27.199  35.775  1.00  0.00     0.022 A 
BRANCH  95  99
ATOM     99  S   UNL A   1      46.036  25.390  37.516  1.00  0.00     0.124 S 
ATOM    100  O   UNL A   1      46.825  24.382  36.814  1.00  0.00    -0.237 OA
ATOM    101  O   UNL A   1      46.659  25.983  38.694  1.00  0.00    -0.237 OA
ATOM    102  O   UNL A   1      44.616  25.075  37.659  1.00  0.00    -0.744 OA
ENDBRANCH  95  99
ENDBRANCH  69  92
ENDBRANCH  43  44
ENDBRANCH  35  38
ENDBRANCH  33  34
ENDBRANCH  32  33
ENDBRANCH  31  32
ENDBRANCH  30  31
ENDBRANCH   1  30
TORSDOF 22
ENDMDL
