MODEL 1
REMARK VINA RESULT:     -11.7      0.000      0.000
REMARK SMILES CC(C)C[C@H](NC(=O)[C@H](Cc1ccccc1)NC(=O)CNC(=O)CNC(=O)OCc1ccccc1)C(=O)NCCCCCCNC(=O)c1ccc(-c2c3nc(c(-c4cc(S(=O)(=O)[O-])ccc4F)c4ccc([nH]4)c(-c4cc(S(=O)(=O)[O-])ccc4F)c4nc(c(-c5cc(S(=O)(=O)[O-])ccc5F)c5ccc2[nH]5)C=C4)C=C3)cc1
REMARK SMILES IDX 36 1 37 2 38 3 5 5 4 6 2 7 1 8 3 9 6 10 7 11 8 13 9 14 17 15
REMARK SMILES IDX 18 16 19 18 20 19 21 20 22 21 23 23 24 24 25 25 26 26 27 28
REMARK SMILES IDX 28 29 29 30 30 31 31 32 35 33 32 34 34 35 33 36 10 37 11 38
REMARK SMILES IDX 12 39 16 40 13 41 15 42 14 43 39 44 40 45 41 46 42 47 43 48
REMARK SMILES IDX 44 49 45 50 46 51 47 53 48 54 49 55 110 56 50 57 109 58
REMARK SMILES IDX 51 59 52 60 53 61 103 62 54 63 108 64 102 65 104 66 55 67
REMARK SMILES IDX 107 68 101 69 100 70 56 72 88 73 68 74 87 75 69 76 72 77
REMARK SMILES IDX 86 78 105 79 70 80 71 81 85 83 106 84 73 85 57 86 58 87
REMARK SMILES IDX 66 88 59 89 65 90 67 91 64 92 60 93 61 94 62 95 63 96 89 97
REMARK SMILES IDX 90 98 98 99 91 100 97 101 99 102 96 103 92 104 93 105 94 106
REMARK SMILES IDX 95 107 74 108 75 109 83 110 76 111 82 112 84 113 81 114
REMARK SMILES IDX 77 115 78 116 79 117 80 118
REMARK H PARENT 38 4 6 12 17 17 21 22 25 27 45 52 104 71 72 82
REMARK Flexibility Score: inf
ROOT
ATOM      1  C   UNL A   1      34.159  23.974  23.078  1.00  0.00     0.242 C 
ATOM      2  O   UNL A   1      33.686  23.694  21.951  1.00  0.00    -0.273 OA
ATOM      3  N   UNL A   1      34.861  22.862  23.578  1.00  0.00    -0.354 N 
ATOM      4  H   UNL A   1      34.817  22.195  22.855  1.00  0.00     0.163 HD
ENDROOT
BRANCH   1   5
ATOM      5  C   UNL A   1      33.791  25.632  23.593  1.00  0.00     0.171 C 
BRANCH   5   6
ATOM      6  C   UNL A   1      33.021  25.623  24.882  1.00  0.00     0.038 C 
BRANCH   6   7
ATOM      7  C   UNL A   1      31.601  25.013  24.486  1.00  0.00    -0.015 C 
ATOM      8  C   UNL A   1      31.413  24.259  25.678  1.00  0.00     0.007 C 
ATOM      9  C   UNL A   1      30.072  25.586  23.835  1.00  0.00     0.007 C 
ENDBRANCH   6   7
ENDBRANCH   5   6
BRANCH   5  10
ATOM     10  N   UNL A   1      33.380  26.994  22.971  1.00  0.00    -0.343 N 
ATOM     11  C   UNL A   1      33.431  28.353  23.458  1.00  0.00     0.243 C 
ATOM     12  H   UNL A   1      33.010  26.915  22.062  1.00  0.00     0.164 HD
ATOM     13  O   UNL A   1      33.303  29.226  22.584  1.00  0.00    -0.273 OA
BRANCH  11  14
ATOM     14  C   UNL A   1      33.254  28.859  25.096  1.00  0.00     0.175 C 
BRANCH  14  15
ATOM     15  N   UNL A   1      34.552  29.175  26.213  1.00  0.00    -0.342 N 
ATOM     16  C   UNL A   1      35.025  30.044  27.313  1.00  0.00     0.240 C 
ATOM     17  H   UNL A   1      35.253  28.504  26.046  1.00  0.00     0.164 HD
ATOM     18  O   UNL A   1      35.991  29.519  27.915  1.00  0.00    -0.273 OA
BRANCH  16  19
ATOM     19  C   UNL A   1      34.340  31.551  28.194  1.00  0.00     0.216 C 
BRANCH  19  20
ATOM     20  N   UNL A   1      34.319  32.261  29.809  1.00  0.00    -0.346 N 
ATOM     21  C   UNL A   1      34.799  32.407  31.147  1.00  0.00     0.239 C 
ATOM     22  H   UNL A   1      33.573  32.903  29.765  1.00  0.00     0.164 HD
ATOM     23  O   UNL A   1      34.042  33.196  31.759  1.00  0.00    -0.273 OA
BRANCH  21  24
ATOM     24  C   UNL A   1      36.201  31.827  32.223  1.00  0.00     0.219 C 
BRANCH  24  25
ATOM     25  N   UNL A   1      36.865  30.457  32.759  1.00  0.00    -0.312 N 
ATOM     26  C   UNL A   1      37.286  29.183  32.339  1.00  0.00     0.407 C 
ATOM     27  H   UNL A   1      37.034  30.544  33.725  1.00  0.00     0.167 HD
ATOM     28  O   UNL A   1      37.491  28.312  33.206  1.00  0.00    -0.225 OA
BRANCH  26  29
ATOM     29  O   UNL A   1      37.373  28.864  31.019  1.00  0.00    -0.445 OA
BRANCH  29  30
ATOM     30  C   UNL A   1      38.493  29.380  30.202  1.00  0.00     0.270 C 
BRANCH  30  31
ATOM     31  C   UNL A   1      39.124  28.596  29.070  1.00  0.00    -0.011 A 
ATOM     32  C   UNL A   1      39.309  27.218  29.126  1.00  0.00     0.007 A 
ATOM     33  C   UNL A   1      39.675  29.303  27.975  1.00  0.00     0.007 A 
ATOM     34  C   UNL A   1      39.884  26.543  28.043  1.00  0.00     0.000 A 
ATOM     35  C   UNL A   1      40.247  28.629  26.893  1.00  0.00     0.000 A 
ATOM     36  C   UNL A   1      40.316  27.242  26.914  1.00  0.00     0.000 A 
ENDBRANCH  30  31
ENDBRANCH  29  30
ENDBRANCH  26  29
ENDBRANCH  24  25
ENDBRANCH  21  24
ENDBRANCH  19  20
ENDBRANCH  16  19
ENDBRANCH  14  15
BRANCH  14  37
ATOM     37  C   UNL A   1      31.714  29.167  25.650  1.00  0.00     0.070 C 
BRANCH  37  38
ATOM     38  C   UNL A   1      30.697  29.814  24.583  1.00  0.00    -0.045 A 
ATOM     39  C   UNL A   1      30.258  31.164  24.658  1.00  0.00     0.004 A 
ATOM     40  C   UNL A   1      30.080  29.028  23.594  1.00  0.00     0.004 A 
ATOM     41  C   UNL A   1      29.169  31.650  23.895  1.00  0.00     0.000 A 
ATOM     42  C   UNL A   1      29.049  29.543  22.771  1.00  0.00     0.000 A 
ATOM     43  C   UNL A   1      28.566  30.837  22.946  1.00  0.00     0.000 A 
ENDBRANCH  37  38
ENDBRANCH  14  37
ENDBRANCH  11  14
ENDBRANCH   5  10
ENDBRANCH   1   5
BRANCH   3  44
ATOM     44  C   UNL A   1      35.692  22.147  24.733  1.00  0.00     0.116 C 
BRANCH  44  45
ATOM     45  C   UNL A   1      37.238  22.317  24.805  1.00  0.00     0.021 C 
BRANCH  45  46
ATOM     46  C   UNL A   1      38.152  21.223  25.390  1.00  0.00     0.002 C 
BRANCH  46  47
ATOM     47  C   UNL A   1      39.492  21.549  26.055  1.00  0.00     0.002 C 
BRANCH  47  48
ATOM     48  C   UNL A   1      40.466  20.441  26.457  1.00  0.00     0.021 C 
BRANCH  48  49
ATOM     49  C   UNL A   1      41.921  20.793  26.757  1.00  0.00     0.116 C 
BRANCH  49  50
ATOM     50  N   UNL A   1      42.553  21.434  25.628  1.00  0.00    -0.352 N 
ATOM     51  C   UNL A   1      42.908  22.753  25.495  1.00  0.00     0.251 C 
ATOM     52  H   UNL A   1      42.753  20.854  24.859  1.00  0.00     0.163 HD
ATOM     53  O   UNL A   1      43.055  23.228  24.372  1.00  0.00    -0.269 OA
BRANCH  51  54
ATOM     54  C   UNL A   1      43.118  23.596  26.696  1.00  0.00     0.039 A 
ATOM     55  C   UNL A   1      44.313  24.307  26.826  1.00  0.00     0.014 A 
ATOM     56  C   UNL A   1      42.172  23.622  27.727  1.00  0.00     0.014 A 
ATOM     57  C   UNL A   1      44.560  25.048  27.986  1.00  0.00     0.010 A 
ATOM     58  C   UNL A   1      42.394  24.411  28.857  1.00  0.00     0.010 A 
ATOM     59  C   UNL A   1      43.602  25.112  29.011  1.00  0.00    -0.014 A 
BRANCH  59  60
ATOM     60  C   UNL A   1      43.879  25.846  30.278  1.00  0.00     0.031 A 
ATOM     61  C   UNL A   1      43.632  27.333  30.344  1.00  0.00     0.074 A 
ATOM     62  C   UNL A   1      44.372  25.192  31.348  1.00  0.00     0.049 A 
ATOM     63  N   UNL A   1      43.875  28.170  31.320  1.00  0.00    -0.248 NA
ATOM     64  C   UNL A   1      43.059  27.966  29.145  1.00  0.00     0.031 C 
ATOM     65  C   UNL A   1      44.659  23.756  31.400  1.00  0.00     0.029 A 
ATOM     66  N   UNL A   1      44.724  25.642  32.597  1.00  0.00    -0.354 N 
ATOM     67  C   UNL A   1      43.506  29.426  30.846  1.00  0.00     0.074 A 
ATOM     68  C   UNL A   1      43.068  29.248  29.479  1.00  0.00     0.031 C 
ATOM     69  C   UNL A   1      45.120  23.443  32.623  1.00  0.00     0.029 A 
ATOM     70  C   UNL A   1      45.216  24.659  33.426  1.00  0.00     0.049 A 
ATOM     71  H   UNL A   1      44.632  26.583  32.875  1.00  0.00     0.167 HD
ATOM     72  C   UNL A   1      43.516  30.614  31.497  1.00  0.00     0.034 A 
ATOM     73  C   UNL A   1      45.708  24.733  34.681  1.00  0.00     0.034 A 
ATOM     74  C   UNL A   1      43.927  30.769  32.871  1.00  0.00     0.049 A 
ATOM     75  C   UNL A   1      45.742  26.080  35.369  1.00  0.00     0.074 A 
ATOM     76  C   UNL A   1      43.916  31.916  33.645  1.00  0.00     0.029 A 
ATOM     77  N   UNL A   1      44.427  29.752  33.672  1.00  0.00    -0.354 N 
ATOM     78  N   UNL A   1      45.344  27.247  34.918  1.00  0.00    -0.248 NA
ATOM     79  C   UNL A   1      46.281  26.119  36.735  1.00  0.00     0.031 C 
ATOM     80  C   UNL A   1      44.490  31.613  34.882  1.00  0.00     0.029 A 
ATOM     81  C   UNL A   1      44.765  30.255  34.917  1.00  0.00     0.049 A 
ATOM     82  H   UNL A   1      44.527  28.812  33.396  1.00  0.00     0.167 HD
ATOM     83  C   UNL A   1      45.540  28.145  35.966  1.00  0.00     0.074 A 
ATOM     84  C   UNL A   1      46.082  27.384  37.070  1.00  0.00     0.031 C 
ATOM     85  C   UNL A   1      45.290  29.478  36.014  1.00  0.00     0.034 A 
BRANCH  72  86
ATOM     86  C   UNL A   1      43.105  31.850  30.733  1.00  0.00     0.023 A 
ATOM     87  C   UNL A   1      41.820  32.408  30.852  1.00  0.00     0.031 A 
ATOM     88  C   UNL A   1      44.028  32.496  29.892  1.00  0.00     0.131 A 
ATOM     89  C   UNL A   1      41.482  33.547  30.106  1.00  0.00     0.055 A 
ATOM     90  C   UNL A   1      43.710  33.672  29.212  1.00  0.00     0.041 A 
ATOM     91  F   UNL A   1      45.262  31.994  29.721  1.00  0.00    -0.206 F 
ATOM     92  C   UNL A   1      42.427  34.200  29.309  1.00  0.00     0.022 A 
BRANCH  89  93
ATOM     93  S   UNL A   1      39.757  34.105  30.103  1.00  0.00     0.124 S 
ATOM     94  O   UNL A   1      39.606  34.601  31.469  1.00  0.00    -0.237 OA
ATOM     95  O   UNL A   1      39.753  35.116  29.052  1.00  0.00    -0.237 OA
ATOM     96  O   UNL A   1      39.003  32.890  29.802  1.00  0.00    -0.744 OA
ENDBRANCH  89  93
ENDBRANCH  72  86
BRANCH  73  97
ATOM     97  C   UNL A   1      46.240  23.520  35.374  1.00  0.00     0.023 A 
ATOM     98  C   UNL A   1      47.583  23.136  35.231  1.00  0.00     0.031 A 
ATOM     99  C   UNL A   1      45.392  22.671  36.109  1.00  0.00     0.131 A 
ATOM    100  C   UNL A   1      48.019  21.902  35.740  1.00  0.00     0.055 A 
ATOM    101  C   UNL A   1      45.850  21.481  36.681  1.00  0.00     0.041 A 
ATOM    102  F   UNL A   1      44.096  22.981  36.278  1.00  0.00    -0.206 F 
ATOM    103  C   UNL A   1      47.166  21.080  36.478  1.00  0.00     0.022 A 
BRANCH 100 104
ATOM    104  S   UNL A   1      49.676  21.316  35.288  1.00  0.00     0.124 S 
ATOM    105  O   UNL A   1      49.890  20.257  36.267  1.00  0.00    -0.237 OA
ATOM    106  O   UNL A   1      49.478  20.886  33.909  1.00  0.00    -0.237 OA
ATOM    107  O   UNL A   1      50.512  22.502  35.457  1.00  0.00    -0.744 OA
ENDBRANCH 100 104
ENDBRANCH  73  97
BRANCH  85 108
ATOM    108  C   UNL A   1      45.523  30.183  37.328  1.00  0.00     0.023 A 
ATOM    109  C   UNL A   1      44.466  30.543  38.182  1.00  0.00     0.031 A 
ATOM    110  C   UNL A   1      46.836  30.482  37.738  1.00  0.00     0.131 A 
ATOM    111  C   UNL A   1      44.737  31.224  39.378  1.00  0.00     0.055 A 
ATOM    112  C   UNL A   1      47.103  31.098  38.961  1.00  0.00     0.041 A 
ATOM    113  F   UNL A   1      47.883  30.163  36.961  1.00  0.00    -0.206 F 
ATOM    114  C   UNL A   1      46.049  31.483  39.783  1.00  0.00     0.022 A 
BRANCH 111 115
ATOM    115  S   UNL A   1      43.346  31.845  40.362  1.00  0.00     0.124 S 
ATOM    116  O   UNL A   1      43.270  30.861  41.437  1.00  0.00    -0.237 OA
ATOM    117  O   UNL A   1      43.806  33.175  40.749  1.00  0.00    -0.237 OA
ATOM    118  O   UNL A   1      42.226  31.827  39.424  1.00  0.00    -0.744 OA
ENDBRANCH 111 115
ENDBRANCH  85 108
ENDBRANCH  59  60
ENDBRANCH  51  54
ENDBRANCH  49  50
ENDBRANCH  48  49
ENDBRANCH  47  48
ENDBRANCH  46  47
ENDBRANCH  45  46
ENDBRANCH  44  45
ENDBRANCH   3  44
TORSDOF 30
ENDMDL
MODEL 2
REMARK VINA RESULT:     -11.0      6.045     10.954
REMARK SMILES CC(C)C[C@H](NC(=O)[C@H](Cc1ccccc1)NC(=O)CNC(=O)CNC(=O)OCc1ccccc1)C(=O)NCCCCCCNC(=O)c1ccc(-c2c3nc(c(-c4cc(S(=O)(=O)[O-])ccc4F)c4ccc([nH]4)c(-c4cc(S(=O)(=O)[O-])ccc4F)c4nc(c(-c5cc(S(=O)(=O)[O-])ccc5F)c5ccc2[nH]5)C=C4)C=C3)cc1
REMARK SMILES IDX 36 1 37 2 38 3 5 5 4 6 2 7 1 8 3 9 6 10 7 11 8 13 9 14 17 15
REMARK SMILES IDX 18 16 19 18 20 19 21 20 22 21 23 23 24 24 25 25 26 26 27 28
REMARK SMILES IDX 28 29 29 30 30 31 31 32 35 33 32 34 34 35 33 36 10 37 11 38
REMARK SMILES IDX 12 39 16 40 13 41 15 42 14 43 39 44 40 45 41 46 42 47 43 48
REMARK SMILES IDX 44 49 45 50 46 51 47 53 48 54 49 55 110 56 50 57 109 58
REMARK SMILES IDX 51 59 52 60 53 61 103 62 54 63 108 64 102 65 104 66 55 67
REMARK SMILES IDX 107 68 101 69 100 70 56 72 88 73 68 74 87 75 69 76 72 77
REMARK SMILES IDX 86 78 105 79 70 80 71 81 85 83 106 84 73 85 57 86 58 87
REMARK SMILES IDX 66 88 59 89 65 90 67 91 64 92 60 93 61 94 62 95 63 96 89 97
REMARK SMILES IDX 90 98 98 99 91 100 97 101 99 102 96 103 92 104 93 105 94 106
REMARK SMILES IDX 95 107 74 108 75 109 83 110 76 111 82 112 84 113 81 114
REMARK SMILES IDX 77 115 78 116 79 117 80 118
REMARK H PARENT 38 4 6 12 17 17 21 22 25 27 45 52 104 71 72 82
REMARK Flexibility Score: inf
ROOT
ATOM      1  C   UNL A   1      31.836  26.688  26.731  1.00  0.00     0.242 C 
ATOM      2  O   UNL A   1      30.739  27.065  27.205  1.00  0.00    -0.273 OA
ATOM      3  N   UNL A   1      32.710  27.787  26.643  1.00  0.00    -0.354 N 
ATOM      4  H   UNL A   1      32.207  28.536  27.038  1.00  0.00     0.163 HD
ENDROOT
BRANCH   1   5
ATOM      5  C   UNL A   1      31.877  24.948  26.378  1.00  0.00     0.171 C 
BRANCH   5   6
ATOM      6  C   UNL A   1      30.703  24.557  25.529  1.00  0.00     0.038 C 
BRANCH   6   7
ATOM      7  C   UNL A   1      30.883  25.412  24.194  1.00  0.00    -0.015 C 
ATOM      8  C   UNL A   1      31.089  24.305  23.321  1.00  0.00     0.007 C 
ATOM      9  C   UNL A   1      30.070  26.738  23.375  1.00  0.00     0.007 C 
ENDBRANCH   6   7
ENDBRANCH   5   6
BRANCH   5  10
ATOM     10  N   UNL A   1      32.235  23.613  27.083  1.00  0.00    -0.343 N 
ATOM     11  C   UNL A   1      33.115  22.521  26.735  1.00  0.00     0.243 C 
ATOM     12  H   UNL A   1      31.769  23.484  27.941  1.00  0.00     0.164 HD
ATOM     13  O   UNL A   1      33.392  21.754  27.671  1.00  0.00    -0.273 OA
BRANCH  11  14
ATOM     14  C   UNL A   1      33.478  21.970  25.143  1.00  0.00     0.175 C 
BRANCH  14  15
ATOM     15  N   UNL A   1      34.977  22.219  24.292  1.00  0.00    -0.342 N 
ATOM     16  C   UNL A   1      36.327  22.820  24.360  1.00  0.00     0.240 C 
ATOM     17  H   UNL A   1      34.892  21.784  23.413  1.00  0.00     0.164 HD
ATOM     18  O   UNL A   1      37.068  22.359  23.460  1.00  0.00    -0.273 OA
BRANCH  16  19
ATOM     19  C   UNL A   1      37.258  23.840  25.629  1.00  0.00     0.216 C 
BRANCH  19  20
ATOM     20  N   UNL A   1      38.870  23.946  26.337  1.00  0.00    -0.346 N 
ATOM     21  C   UNL A   1      40.174  23.437  26.628  1.00  0.00     0.239 C 
ATOM     22  H   UNL A   1      38.874  24.834  26.761  1.00  0.00     0.164 HD
ATOM     23  O   UNL A   1      40.763  24.252  27.376  1.00  0.00    -0.273 OA
BRANCH  21  24
ATOM     24  C   UNL A   1      41.256  21.983  26.210  1.00  0.00     0.219 C 
BRANCH  24  25
ATOM     25  N   UNL A   1      42.603  21.638  25.389  1.00  0.00    -0.312 N 
ATOM     26  C   UNL A   1      43.635  22.231  24.642  1.00  0.00     0.407 C 
ATOM     27  H   UNL A   1      42.755  20.666  25.425  1.00  0.00     0.167 HD
ATOM     28  O   UNL A   1      44.345  21.496  23.928  1.00  0.00    -0.225 OA
BRANCH  26  29
ATOM     29  O   UNL A   1      43.802  23.581  24.608  1.00  0.00    -0.445 OA
BRANCH  29  30
ATOM     30  C   UNL A   1      44.968  24.202  25.274  1.00  0.00     0.270 C 
BRANCH  30  31
ATOM     31  C   UNL A   1      44.931  24.719  26.697  1.00  0.00    -0.011 A 
ATOM     32  C   UNL A   1      44.130  25.788  27.085  1.00  0.00     0.007 A 
ATOM     33  C   UNL A   1      45.848  24.191  27.638  1.00  0.00     0.007 A 
ATOM     34  C   UNL A   1      44.125  26.213  28.419  1.00  0.00     0.000 A 
ATOM     35  C   UNL A   1      45.843  24.615  28.969  1.00  0.00     0.000 A 
ATOM     36  C   UNL A   1      44.950  25.603  29.366  1.00  0.00     0.000 A 
ENDBRANCH  30  31
ENDBRANCH  29  30
ENDBRANCH  26  29
ENDBRANCH  24  25
ENDBRANCH  21  24
ENDBRANCH  19  20
ENDBRANCH  16  19
ENDBRANCH  14  15
BRANCH  14  37
ATOM     37  C   UNL A   1      32.338  21.034  24.368  1.00  0.00     0.070 C 
BRANCH  37  38
ATOM     38  C   UNL A   1      32.791  19.535  23.997  1.00  0.00    -0.045 A 
ATOM     39  C   UNL A   1      33.820  18.846  24.695  1.00  0.00     0.004 A 
ATOM     40  C   UNL A   1      32.281  18.879  22.863  1.00  0.00     0.004 A 
ATOM     41  C   UNL A   1      34.401  17.652  24.203  1.00  0.00     0.000 A 
ATOM     42  C   UNL A   1      32.805  17.639  22.423  1.00  0.00     0.000 A 
ATOM     43  C   UNL A   1      33.888  17.045  23.066  1.00  0.00     0.000 A 
ENDBRANCH  37  38
ENDBRANCH  14  37
ENDBRANCH  11  14
ENDBRANCH   5  10
ENDBRANCH   1   5
BRANCH   3  44
ATOM     44  C   UNL A   1      34.109  28.421  26.221  1.00  0.00     0.116 C 
BRANCH  44  45
ATOM     45  C   UNL A   1      34.581  29.764  26.852  1.00  0.00     0.021 C 
BRANCH  45  46
ATOM     46  C   UNL A   1      35.041  29.857  28.320  1.00  0.00     0.002 C 
BRANCH  46  47
ATOM     47  C   UNL A   1      36.515  29.996  28.706  1.00  0.00     0.002 C 
BRANCH  47  48
ATOM     48  C   UNL A   1      36.934  30.215  30.160  1.00  0.00     0.021 C 
BRANCH  48  49
ATOM     49  C   UNL A   1      37.912  31.339  30.498  1.00  0.00     0.116 C 
BRANCH  49  50
ATOM     50  N   UNL A   1      37.218  32.555  30.850  1.00  0.00    -0.352 N 
ATOM     51  C   UNL A   1      37.759  33.783  31.137  1.00  0.00     0.251 C 
ATOM     52  H   UNL A   1      36.237  32.495  30.890  1.00  0.00     0.163 HD
ATOM     53  O   UNL A   1      37.108  34.590  31.795  1.00  0.00    -0.269 OA
BRANCH  51  54
ATOM     54  C   UNL A   1      39.115  34.136  30.652  1.00  0.00     0.039 A 
ATOM     55  C   UNL A   1      39.270  34.582  29.338  1.00  0.00     0.014 A 
ATOM     56  C   UNL A   1      40.237  33.951  31.466  1.00  0.00     0.014 A 
ATOM     57  C   UNL A   1      40.550  34.848  28.840  1.00  0.00     0.010 A 
ATOM     58  C   UNL A   1      41.508  34.274  30.987  1.00  0.00     0.010 A 
ATOM     59  C   UNL A   1      41.681  34.701  29.660  1.00  0.00    -0.014 A 
BRANCH  59  60
ATOM     60  C   UNL A   1      43.054  34.921  29.122  1.00  0.00     0.031 A 
ATOM     61  C   UNL A   1      43.547  36.329  28.897  1.00  0.00     0.074 A 
ATOM     62  C   UNL A   1      43.839  33.870  28.815  1.00  0.00     0.049 A 
ATOM     63  N   UNL A   1      44.674  36.738  28.373  1.00  0.00    -0.248 NA
ATOM     64  C   UNL A   1      42.643  37.422  29.293  1.00  0.00     0.031 C 
ATOM     65  C   UNL A   1      43.467  32.463  28.981  1.00  0.00     0.029 A 
ATOM     66  N   UNL A   1      45.109  33.814  28.295  1.00  0.00    -0.354 N 
ATOM     67  C   UNL A   1      44.605  38.128  28.355  1.00  0.00     0.074 A 
ATOM     68  C   UNL A   1      43.306  38.491  28.877  1.00  0.00     0.031 C 
ATOM     69  C   UNL A   1      44.493  31.687  28.593  1.00  0.00     0.029 A 
ATOM     70  C   UNL A   1      45.575  32.533  28.098  1.00  0.00     0.049 A 
ATOM     71  H   UNL A   1      45.639  34.617  28.083  1.00  0.00     0.167 HD
ATOM     72  C   UNL A   1      45.545  39.019  27.955  1.00  0.00     0.034 A 
ATOM     73  C   UNL A   1      46.732  32.093  27.560  1.00  0.00     0.034 A 
ATOM     74  C   UNL A   1      46.847  38.640  27.466  1.00  0.00     0.049 A 
ATOM     75  C   UNL A   1      47.747  33.110  27.088  1.00  0.00     0.074 A 
ATOM     76  C   UNL A   1      47.896  39.462  27.095  1.00  0.00     0.029 A 
ATOM     77  N   UNL A   1      47.277  37.334  27.273  1.00  0.00    -0.354 N 
ATOM     78  N   UNL A   1      47.679  34.422  27.124  1.00  0.00    -0.248 NA
ATOM     79  C   UNL A   1      48.995  32.592  26.512  1.00  0.00     0.031 C 
ATOM     80  C   UNL A   1      48.925  38.659  26.595  1.00  0.00     0.029 A 
ATOM     81  C   UNL A   1      48.559  37.332  26.750  1.00  0.00     0.049 A 
ATOM     82  H   UNL A   1      46.748  36.529  27.477  1.00  0.00     0.167 HD
ATOM     83  C   UNL A   1      48.897  34.878  26.622  1.00  0.00     0.074 A 
ATOM     84  C   UNL A   1      49.679  33.705  26.300  1.00  0.00     0.031 C 
ATOM     85  C   UNL A   1      49.332  36.151  26.449  1.00  0.00     0.034 A 
BRANCH  72  86
ATOM     86  C   UNL A   1      45.198  40.487  27.996  1.00  0.00     0.023 A 
ATOM     87  C   UNL A   1      45.088  41.196  29.204  1.00  0.00     0.031 A 
ATOM     88  C   UNL A   1      45.002  41.196  26.797  1.00  0.00     0.131 A 
ATOM     89  C   UNL A   1      44.746  42.557  29.188  1.00  0.00     0.055 A 
ATOM     90  C   UNL A   1      44.738  42.566  26.784  1.00  0.00     0.041 A 
ATOM     91  F   UNL A   1      45.071  40.567  25.613  1.00  0.00    -0.206 F 
ATOM     92  C   UNL A   1      44.599  43.253  27.985  1.00  0.00     0.022 A 
BRANCH  89  93
ATOM     93  S   UNL A   1      44.387  43.383  30.762  1.00  0.00     0.124 S 
ATOM     94  O   UNL A   1      44.621  44.784  30.419  1.00  0.00    -0.237 OA
ATOM     95  O   UNL A   1      42.999  43.008  31.006  1.00  0.00    -0.237 OA
ATOM     96  O   UNL A   1      45.361  42.803  31.684  1.00  0.00    -0.744 OA
ENDBRANCH  89  93
ENDBRANCH  72  86
BRANCH  73  97
ATOM     97  C   UNL A   1      47.002  30.631  27.401  1.00  0.00     0.023 A 
ATOM     98  C   UNL A   1      46.815  29.992  26.165  1.00  0.00     0.031 A 
ATOM     99  C   UNL A   1      47.356  29.832  28.504  1.00  0.00     0.131 A 
ATOM    100  C   UNL A   1      46.899  28.592  26.079  1.00  0.00     0.055 A 
ATOM    101  C   UNL A   1      47.515  28.448  28.395  1.00  0.00     0.041 A 
ATOM    102  F   UNL A   1      47.545  30.384  29.713  1.00  0.00    -0.206 F 
ATOM    103  C   UNL A   1      47.264  27.818  27.181  1.00  0.00     0.022 A 
BRANCH 100 104
ATOM    104  S   UNL A   1      46.371  27.787  24.541  1.00  0.00     0.124 S 
ATOM    105  O   UNL A   1      44.927  27.711  24.729  1.00  0.00    -0.237 OA
ATOM    106  O   UNL A   1      46.838  28.730  23.531  1.00  0.00    -0.237 OA
ATOM    107  O   UNL A   1      47.074  26.506  24.570  1.00  0.00    -0.744 OA
ENDBRANCH 100 104
ENDBRANCH  73  97
BRANCH  85 108
ATOM    108  C   UNL A   1      50.748  36.343  25.961  1.00  0.00     0.023 A 
ATOM    109  C   UNL A   1      51.849  36.335  26.835  1.00  0.00     0.031 A 
ATOM    110  C   UNL A   1      50.996  36.519  24.587  1.00  0.00     0.131 A 
ATOM    111  C   UNL A   1      53.140  36.547  26.332  1.00  0.00     0.055 A 
ATOM    112  C   UNL A   1      52.290  36.662  24.085  1.00  0.00     0.041 A 
ATOM    113  F   UNL A   1      49.983  36.538  23.706  1.00  0.00    -0.206 F 
ATOM    114  C   UNL A   1      53.370  36.688  24.960  1.00  0.00     0.022 A 
BRANCH 111 115
ATOM    115  S   UNL A   1      54.514  36.723  27.502  1.00  0.00     0.124 S 
ATOM    116  O   UNL A   1      55.560  35.929  26.867  1.00  0.00    -0.237 OA
ATOM    117  O   UNL A   1      54.731  38.167  27.515  1.00  0.00    -0.237 OA
ATOM    118  O   UNL A   1      53.981  36.167  28.744  1.00  0.00    -0.744 OA
ENDBRANCH 111 115
ENDBRANCH  85 108
ENDBRANCH  59  60
ENDBRANCH  51  54
ENDBRANCH  49  50
ENDBRANCH  48  49
ENDBRANCH  47  48
ENDBRANCH  46  47
ENDBRANCH  45  46
ENDBRANCH  44  45
ENDBRANCH   3  44
TORSDOF 30
ENDMDL
MODEL 3
REMARK VINA RESULT:     -10.8      6.070     10.672
REMARK SMILES CC(C)C[C@H](NC(=O)[C@H](Cc1ccccc1)NC(=O)CNC(=O)CNC(=O)OCc1ccccc1)C(=O)NCCCCCCNC(=O)c1ccc(-c2c3nc(c(-c4cc(S(=O)(=O)[O-])ccc4F)c4ccc([nH]4)c(-c4cc(S(=O)(=O)[O-])ccc4F)c4nc(c(-c5cc(S(=O)(=O)[O-])ccc5F)c5ccc2[nH]5)C=C4)C=C3)cc1
REMARK SMILES IDX 36 1 37 2 38 3 5 5 4 6 2 7 1 8 3 9 6 10 7 11 8 13 9 14 17 15
REMARK SMILES IDX 18 16 19 18 20 19 21 20 22 21 23 23 24 24 25 25 26 26 27 28
REMARK SMILES IDX 28 29 29 30 30 31 31 32 35 33 32 34 34 35 33 36 10 37 11 38
REMARK SMILES IDX 12 39 16 40 13 41 15 42 14 43 39 44 40 45 41 46 42 47 43 48
REMARK SMILES IDX 44 49 45 50 46 51 47 53 48 54 49 55 110 56 50 57 109 58
REMARK SMILES IDX 51 59 52 60 53 61 103 62 54 63 108 64 102 65 104 66 55 67
REMARK SMILES IDX 107 68 101 69 100 70 56 72 88 73 68 74 87 75 69 76 72 77
REMARK SMILES IDX 86 78 105 79 70 80 71 81 85 83 106 84 73 85 57 86 58 87
REMARK SMILES IDX 66 88 59 89 65 90 67 91 64 92 60 93 61 94 62 95 63 96 89 97
REMARK SMILES IDX 90 98 98 99 91 100 97 101 99 102 96 103 92 104 93 105 94 106
REMARK SMILES IDX 95 107 74 108 75 109 83 110 76 111 82 112 84 113 81 114
REMARK SMILES IDX 77 115 78 116 79 117 80 118
REMARK H PARENT 38 4 6 12 17 17 21 22 25 27 45 52 104 71 72 82
REMARK Flexibility Score: inf
ROOT
ATOM      1  C   UNL A   1      31.851  26.683  26.694  1.00  0.00     0.242 C 
ATOM      2  O   UNL A   1      30.730  27.112  27.054  1.00  0.00    -0.273 OA
ATOM      3  N   UNL A   1      32.774  27.744  26.676  1.00  0.00    -0.354 N 
ATOM      4  H   UNL A   1      32.267  28.520  27.010  1.00  0.00     0.163 HD
ENDROOT
BRANCH   1   5
ATOM      5  C   UNL A   1      31.854  24.936  26.374  1.00  0.00     0.171 C 
BRANCH   5   6
ATOM      6  C   UNL A   1      30.711  24.566  25.473  1.00  0.00     0.038 C 
BRANCH   6   7
ATOM      7  C   UNL A   1      31.324  24.664  24.002  1.00  0.00    -0.015 C 
ATOM      8  C   UNL A   1      30.293  25.479  23.454  1.00  0.00     0.007 C 
ATOM      9  C   UNL A   1      32.881  25.001  23.259  1.00  0.00     0.007 C 
ENDBRANCH   6   7
ENDBRANCH   5   6
BRANCH   5  10
ATOM     10  N   UNL A   1      32.133  23.603  27.118  1.00  0.00    -0.343 N 
ATOM     11  C   UNL A   1      32.988  22.475  26.828  1.00  0.00     0.243 C 
ATOM     12  H   UNL A   1      31.626  23.508  27.956  1.00  0.00     0.164 HD
ATOM     13  O   UNL A   1      33.197  21.717  27.789  1.00  0.00    -0.273 OA
BRANCH  11  14
ATOM     14  C   UNL A   1      33.400  21.880  25.263  1.00  0.00     0.175 C 
BRANCH  14  15
ATOM     15  N   UNL A   1      34.916  22.128  24.443  1.00  0.00    -0.342 N 
ATOM     16  C   UNL A   1      36.248  22.769  24.517  1.00  0.00     0.240 C 
ATOM     17  H   UNL A   1      34.868  21.647  23.585  1.00  0.00     0.164 HD
ATOM     18  O   UNL A   1      37.026  22.283  23.663  1.00  0.00    -0.273 OA
BRANCH  16  19
ATOM     19  C   UNL A   1      37.115  23.875  25.758  1.00  0.00     0.216 C 
BRANCH  19  20
ATOM     20  N   UNL A   1      38.752  24.268  26.284  1.00  0.00    -0.346 N 
ATOM     21  C   UNL A   1      40.061  23.929  26.747  1.00  0.00     0.239 C 
ATOM     22  H   UNL A   1      38.778  25.250  26.231  1.00  0.00     0.164 HD
ATOM     23  O   UNL A   1      40.683  24.988  26.997  1.00  0.00    -0.273 OA
BRANCH  21  24
ATOM     24  C   UNL A   1      41.117  22.426  27.046  1.00  0.00     0.219 C 
BRANCH  24  25
ATOM     25  N   UNL A   1      42.382  21.655  26.405  1.00  0.00    -0.312 N 
ATOM     26  C   UNL A   1      43.276  21.690  25.321  1.00  0.00     0.407 C 
ATOM     27  H   UNL A   1      42.608  20.887  26.979  1.00  0.00     0.167 HD
ATOM     28  O   UNL A   1      43.951  20.670  25.079  1.00  0.00    -0.225 OA
BRANCH  26  29
ATOM     29  O   UNL A   1      43.339  22.763  24.487  1.00  0.00    -0.445 OA
BRANCH  29  30
ATOM     30  C   UNL A   1      44.323  23.839  24.735  1.00  0.00     0.270 C 
BRANCH  30  31
ATOM     31  C   UNL A   1      44.066  24.997  25.677  1.00  0.00    -0.011 A 
ATOM     32  C   UNL A   1      43.775  26.280  25.225  1.00  0.00     0.007 A 
ATOM     33  C   UNL A   1      44.266  24.804  27.065  1.00  0.00     0.007 A 
ATOM     34  C   UNL A   1      43.529  27.308  26.142  1.00  0.00     0.000 A 
ATOM     35  C   UNL A   1      44.021  25.830  27.981  1.00  0.00     0.000 A 
ATOM     36  C   UNL A   1      43.614  27.075  27.517  1.00  0.00     0.000 A 
ENDBRANCH  30  31
ENDBRANCH  29  30
ENDBRANCH  26  29
ENDBRANCH  24  25
ENDBRANCH  21  24
ENDBRANCH  19  20
ENDBRANCH  16  19
ENDBRANCH  14  15
BRANCH  14  37
ATOM     37  C   UNL A   1      32.295  20.902  24.491  1.00  0.00     0.070 C 
BRANCH  37  38
ATOM     38  C   UNL A   1      32.812  19.431  24.095  1.00  0.00    -0.045 A 
ATOM     39  C   UNL A   1      33.879  18.781  24.773  1.00  0.00     0.004 A 
ATOM     40  C   UNL A   1      32.320  18.766  22.959  1.00  0.00     0.004 A 
ATOM     41  C   UNL A   1      34.508  17.622  24.260  1.00  0.00     0.000 A 
ATOM     42  C   UNL A   1      32.895  17.558  22.496  1.00  0.00     0.000 A 
ATOM     43  C   UNL A   1      34.012  17.006  23.120  1.00  0.00     0.000 A 
ENDBRANCH  37  38
ENDBRANCH  14  37
ENDBRANCH  11  14
ENDBRANCH   5  10
ENDBRANCH   1   5
BRANCH   3  44
ATOM     44  C   UNL A   1      34.233  28.314  26.384  1.00  0.00     0.116 C 
BRANCH  44  45
ATOM     45  C   UNL A   1      34.673  29.681  26.985  1.00  0.00     0.021 C 
BRANCH  45  46
ATOM     46  C   UNL A   1      35.092  29.824  28.461  1.00  0.00     0.002 C 
BRANCH  46  47
ATOM     47  C   UNL A   1      36.553  29.998  28.882  1.00  0.00     0.002 C 
BRANCH  47  48
ATOM     48  C   UNL A   1      36.929  30.274  30.338  1.00  0.00     0.021 C 
BRANCH  48  49
ATOM     49  C   UNL A   1      37.946  31.368  30.656  1.00  0.00     0.116 C 
BRANCH  49  50
ATOM     50  N   UNL A   1      37.295  32.616  30.980  1.00  0.00    -0.352 N 
ATOM     51  C   UNL A   1      37.877  33.833  31.227  1.00  0.00     0.251 C 
ATOM     52  H   UNL A   1      36.313  32.590  31.029  1.00  0.00     0.163 HD
ATOM     53  O   UNL A   1      37.258  34.679  31.867  1.00  0.00    -0.269 OA
BRANCH  51  54
ATOM     54  C   UNL A   1      39.239  34.128  30.722  1.00  0.00     0.039 A 
ATOM     55  C   UNL A   1      39.401  34.501  29.386  1.00  0.00     0.014 A 
ATOM     56  C   UNL A   1      40.360  33.958  31.543  1.00  0.00     0.014 A 
ATOM     57  C   UNL A   1      40.685  34.711  28.873  1.00  0.00     0.010 A 
ATOM     58  C   UNL A   1      41.636  34.226  31.045  1.00  0.00     0.010 A 
ATOM     59  C   UNL A   1      41.815  34.580  29.697  1.00  0.00    -0.014 A 
BRANCH  59  60
ATOM     60  C   UNL A   1      43.191  34.739  29.146  1.00  0.00     0.031 A 
ATOM     61  C   UNL A   1      43.690  36.114  28.780  1.00  0.00     0.074 A 
ATOM     62  C   UNL A   1      43.973  33.659  28.952  1.00  0.00     0.049 A 
ATOM     63  N   UNL A   1      44.821  36.463  28.221  1.00  0.00    -0.248 NA
ATOM     64  C   UNL A   1      42.789  37.245  29.056  1.00  0.00     0.031 C 
ATOM     65  C   UNL A   1      43.596  32.277  29.261  1.00  0.00     0.029 A 
ATOM     66  N   UNL A   1      45.246  33.546  28.447  1.00  0.00    -0.354 N 
ATOM     67  C   UNL A   1      44.758  37.844  28.060  1.00  0.00     0.074 A 
ATOM     68  C   UNL A   1      43.458  38.263  28.535  1.00  0.00     0.031 C 
ATOM     69  C   UNL A   1      44.621  31.462  28.960  1.00  0.00     0.029 A 
ATOM     70  C   UNL A   1      45.708  32.249  28.385  1.00  0.00     0.049 A 
ATOM     71  H   UNL A   1      45.779  34.321  28.155  1.00  0.00     0.167 HD
ATOM     72  C   UNL A   1      45.702  38.686  27.574  1.00  0.00     0.034 A 
ATOM     73  C   UNL A   1      46.865  31.752  27.901  1.00  0.00     0.034 A 
ATOM     74  C   UNL A   1      47.005  38.254  27.133  1.00  0.00     0.049 A 
ATOM     75  C   UNL A   1      47.886  32.712  27.331  1.00  0.00     0.074 A 
ATOM     76  C   UNL A   1      48.059  39.031  26.684  1.00  0.00     0.029 A 
ATOM     77  N   UNL A   1      47.431  36.934  27.077  1.00  0.00    -0.354 N 
ATOM     78  N   UNL A   1      47.823  34.020  27.232  1.00  0.00    -0.248 NA
ATOM     79  C   UNL A   1      49.134  32.134  26.818  1.00  0.00     0.031 C 
ATOM     80  C   UNL A   1      49.087  38.177  26.275  1.00  0.00     0.029 A 
ATOM     81  C   UNL A   1      48.716  36.873  26.564  1.00  0.00     0.049 A 
ATOM     82  H   UNL A   1      46.898  36.156  27.361  1.00  0.00     0.167 HD
ATOM     83  C   UNL A   1      49.045  34.419  26.691  1.00  0.00     0.074 A 
ATOM     84  C   UNL A   1      49.824  33.216  26.495  1.00  0.00     0.031 C 
ATOM     85  C   UNL A   1      49.486  35.666  26.389  1.00  0.00     0.034 A 
BRANCH  72  86
ATOM     86  C   UNL A   1      45.361  40.152  27.462  1.00  0.00     0.023 A 
ATOM     87  C   UNL A   1      44.795  40.700  26.298  1.00  0.00     0.031 A 
ATOM     88  C   UNL A   1      45.582  41.011  28.554  1.00  0.00     0.131 A 
ATOM     89  C   UNL A   1      44.513  42.073  26.238  1.00  0.00     0.055 A 
ATOM     90  C   UNL A   1      45.228  42.360  28.515  1.00  0.00     0.041 A 
ATOM     91  F   UNL A   1      46.142  40.548  29.683  1.00  0.00    -0.206 F 
ATOM     92  C   UNL A   1      44.699  42.901  27.349  1.00  0.00     0.022 A 
BRANCH  89  93
ATOM     93  S   UNL A   1      44.002  42.788  24.652  1.00  0.00     0.124 S 
ATOM     94  O   UNL A   1      44.220  44.214  24.888  1.00  0.00    -0.237 OA
ATOM     95  O   UNL A   1      44.915  42.151  23.709  1.00  0.00    -0.237 OA
ATOM     96  O   UNL A   1      42.602  42.390  24.531  1.00  0.00    -0.744 OA
ENDBRANCH  89  93
ENDBRANCH  72  86
BRANCH  73  97
ATOM     97  C   UNL A   1      47.131  30.281  27.895  1.00  0.00     0.023 A 
ATOM     98  C   UNL A   1      47.801  29.663  28.963  1.00  0.00     0.031 A 
ATOM     99  C   UNL A   1      46.807  29.487  26.779  1.00  0.00     0.131 A 
ATOM    100  C   UNL A   1      48.199  28.320  28.859  1.00  0.00     0.055 A 
ATOM    101  C   UNL A   1      47.137  28.131  26.714  1.00  0.00     0.041 A 
ATOM    102  F   UNL A   1      46.170  30.021  25.725  1.00  0.00    -0.206 F 
ATOM    103  C   UNL A   1      47.858  27.546  27.750  1.00  0.00     0.022 A 
BRANCH 100 104
ATOM    104  S   UNL A   1      49.306  27.646  30.129  1.00  0.00     0.124 S 
ATOM    105  O   UNL A   1      49.628  28.839  30.903  1.00  0.00    -0.237 OA
ATOM    106  O   UNL A   1      48.450  26.665  30.787  1.00  0.00    -0.237 OA
ATOM    107  O   UNL A   1      50.411  27.087  29.353  1.00  0.00    -0.744 OA
ENDBRANCH 100 104
ENDBRANCH  73  97
BRANCH  85 108
ATOM    108  C   UNL A   1      50.904  35.802  25.891  1.00  0.00     0.023 A 
ATOM    109  C   UNL A   1      52.014  35.659  26.742  1.00  0.00     0.031 A 
ATOM    110  C   UNL A   1      51.145  36.061  24.529  1.00  0.00     0.131 A 
ATOM    111  C   UNL A   1      53.310  35.825  26.232  1.00  0.00     0.055 A 
ATOM    112  C   UNL A   1      52.438  36.157  24.015  1.00  0.00     0.041 A 
ATOM    113  F   UNL A   1      50.123  36.209  23.671  1.00  0.00    -0.206 F 
ATOM    114  C   UNL A   1      53.529  36.051  24.870  1.00  0.00     0.022 A 
BRANCH 111 115
ATOM    115  S   UNL A   1      54.708  35.827  27.387  1.00  0.00     0.124 S 
ATOM    116  O   UNL A   1      54.035  35.743  28.679  1.00  0.00    -0.237 OA
ATOM    117  O   UNL A   1      55.453  34.640  26.979  1.00  0.00    -0.237 OA
ATOM    118  O   UNL A   1      55.374  37.099  27.117  1.00  0.00    -0.744 OA
ENDBRANCH 111 115
ENDBRANCH  85 108
ENDBRANCH  59  60
ENDBRANCH  51  54
ENDBRANCH  49  50
ENDBRANCH  48  49
ENDBRANCH  47  48
ENDBRANCH  46  47
ENDBRANCH  45  46
ENDBRANCH  44  45
ENDBRANCH   3  44
TORSDOF 30
ENDMDL
