MODEL 1
REMARK VINA RESULT:     -11.8      0.000      0.000
REMARK SMILES O=C(NCCCCCCNC(=O)[C@H]1CCCCN1c1ccnc2ccccc12)c1ccc(-c2c3nc(c(-c4cc(S(=O)(=O)[O-])ccc4F)c4ccc([nH]4)c(-c4cc(S(=O)(=O)[O-])ccc4F)c4nc(c(-c5cc(S(=O)(=O)[O-])ccc5F)c5ccc2[nH]5)C=C4)C=C3)cc1
REMARK SMILES IDX 5 1 4 2 3 3 1 4 2 5 29 7 30 8 91 9 31 10 90 11 32 12 33 13
REMARK SMILES IDX 34 14 84 15 35 16 89 17 83 18 85 19 36 20 88 21 82 22 81 23
REMARK SMILES IDX 37 25 69 26 49 27 68 28 50 29 53 30 67 31 86 32 51 33 52 34
REMARK SMILES IDX 66 36 87 37 54 38 38 39 39 40 47 41 40 42 46 43 48 44 45 45
REMARK SMILES IDX 41 46 42 47 43 48 44 49 70 50 71 51 79 52 72 53 78 54 80 55
REMARK SMILES IDX 77 56 73 57 74 58 75 59 76 60 55 61 56 62 64 63 57 64 63 65
REMARK SMILES IDX 65 66 62 67 58 68 59 69 60 70 61 71 6 72 7 73 8 74 9 75
REMARK SMILES IDX 10 76 11 77 12 79 13 80 14 81 18 82 15 83 17 84 16 85 19 86
REMARK SMILES IDX 20 87 28 88 21 89 23 90 27 91 22 92 24 93 26 94 25 95
REMARK H PARENT 3 6 85 24 53 35 10 78
REMARK Flexibility Score: inf
ROOT
ATOM      1  C   UNL A   1      33.703  28.858  23.734  1.00  0.00     0.021 C 
ENDROOT
BRANCH   1   2
ATOM      2  C   UNL A   1      33.689  28.962  25.251  1.00  0.00     0.116 C 
BRANCH   2   3
ATOM      3  N   UNL A   1      33.026  30.176  25.707  1.00  0.00    -0.352 N 
ATOM      4  O   UNL A   1      32.466  31.803  27.160  1.00  0.00    -0.269 OA
ATOM      5  C   UNL A   1      33.274  30.950  26.818  1.00  0.00     0.251 C 
ATOM      6  H   UNL A   1      32.289  30.490  25.136  1.00  0.00     0.163 HD
BRANCH   5   7
ATOM      7  C   UNL A   1      34.519  30.744  27.593  1.00  0.00     0.039 A 
ATOM      8  C   UNL A   1      34.749  29.529  28.237  1.00  0.00     0.014 A 
ATOM      9  C   UNL A   1      35.478  31.760  27.656  1.00  0.00     0.014 A 
ATOM     10  C   UNL A   1      35.845  29.388  29.074  1.00  0.00     0.010 A 
ATOM     11  C   UNL A   1      36.648  31.568  28.402  1.00  0.00     0.010 A 
ATOM     12  C   UNL A   1      36.833  30.385  29.132  1.00  0.00    -0.014 A 
BRANCH  12  13
ATOM     13  C   UNL A   1      38.083  30.091  29.883  1.00  0.00     0.031 A 
ATOM     14  C   UNL A   1      38.332  30.649  31.255  1.00  0.00     0.074 A 
ATOM     15  C   UNL A   1      38.970  29.245  29.318  1.00  0.00     0.049 A 
ATOM     16  N   UNL A   1      39.348  30.439  32.053  1.00  0.00    -0.248 NA
ATOM     17  C   UNL A   1      37.320  31.563  31.803  1.00  0.00     0.031 C 
ATOM     18  C   UNL A   1      38.832  28.658  27.980  1.00  0.00     0.029 A 
ATOM     19  N   UNL A   1      40.133  28.698  29.795  1.00  0.00    -0.354 N 
ATOM     20  C   UNL A   1      39.106  31.196  33.194  1.00  0.00     0.074 A 
ATOM     21  C   UNL A   1      37.861  31.901  32.966  1.00  0.00     0.031 C 
ATOM     22  C   UNL A   1      39.824  27.782  27.776  1.00  0.00     0.029 A 
ATOM     23  C   UNL A   1      40.723  27.814  28.921  1.00  0.00     0.049 A 
ATOM     24  H   UNL A   1      40.509  28.918  30.677  1.00  0.00     0.167 HD
ATOM     25  C   UNL A   1      39.849  31.280  34.327  1.00  0.00     0.034 A 
ATOM     26  C   UNL A   1      41.876  27.124  29.013  1.00  0.00     0.034 A 
ATOM     27  C   UNL A   1      41.092  30.572  34.528  1.00  0.00     0.049 A 
ATOM     28  C   UNL A   1      42.696  27.272  30.265  1.00  0.00     0.074 A 
ATOM     29  C   UNL A   1      41.924  30.586  35.636  1.00  0.00     0.029 A 
ATOM     30  N   UNL A   1      41.688  29.723  33.602  1.00  0.00    -0.354 N 
ATOM     31  N   UNL A   1      42.442  27.988  31.336  1.00  0.00    -0.248 NA
ATOM     32  C   UNL A   1      43.950  26.517  30.324  1.00  0.00     0.031 C 
ATOM     33  C   UNL A   1      43.049  29.803  35.355  1.00  0.00     0.029 A 
ATOM     34  C   UNL A   1      42.886  29.232  34.103  1.00  0.00     0.049 A 
ATOM     35  H   UNL A   1      41.315  29.502  32.718  1.00  0.00     0.167 HD
ATOM     36  C   UNL A   1      43.506  27.760  32.202  1.00  0.00     0.074 A 
ATOM     37  C   UNL A   1      44.375  26.804  31.544  1.00  0.00     0.031 C 
ATOM     38  C   UNL A   1      43.753  28.297  33.424  1.00  0.00     0.034 A 
BRANCH  25  39
ATOM     39  C   UNL A   1      39.356  32.197  35.422  1.00  0.00     0.023 A 
ATOM     40  C   UNL A   1      39.770  33.538  35.505  1.00  0.00     0.031 A 
ATOM     41  C   UNL A   1      38.450  31.728  36.391  1.00  0.00     0.131 A 
ATOM     42  C   UNL A   1      39.320  34.348  36.560  1.00  0.00     0.055 A 
ATOM     43  C   UNL A   1      37.949  32.559  37.396  1.00  0.00     0.041 A 
ATOM     44  F   UNL A   1      38.036  30.452  36.377  1.00  0.00    -0.206 F 
ATOM     45  C   UNL A   1      38.391  33.875  37.490  1.00  0.00     0.022 A 
BRANCH  42  46
ATOM     46  S   UNL A   1      40.051  35.995  36.765  1.00  0.00     0.124 S 
ATOM     47  O   UNL A   1      39.357  36.481  37.955  1.00  0.00    -0.237 OA
ATOM     48  O   UNL A   1      41.467  35.693  36.933  1.00  0.00    -0.237 OA
ATOM     49  O   UNL A   1      39.701  36.683  35.525  1.00  0.00    -0.744 OA
ENDBRANCH  42  46
ENDBRANCH  25  39
BRANCH  26  50
ATOM     50  C   UNL A   1      42.347  26.282  27.875  1.00  0.00     0.023 A 
ATOM     51  C   UNL A   1      41.998  24.928  27.775  1.00  0.00     0.031 A 
ATOM     52  C   UNL A   1      43.206  26.815  26.894  1.00  0.00     0.131 A 
ATOM     53  C   UNL A   1      42.551  24.138  26.754  1.00  0.00     0.055 A 
ATOM     54  C   UNL A   1      43.694  26.043  25.840  1.00  0.00     0.041 A 
ATOM     55  F   UNL A   1      43.575  28.105  26.940  1.00  0.00    -0.206 F 
ATOM     56  C   UNL A   1      43.382  24.690  25.777  1.00  0.00     0.022 A 
BRANCH  53  57
ATOM     57  S   UNL A   1      42.266  22.347  26.796  1.00  0.00     0.124 S 
ATOM     58  O   UNL A   1      41.156  22.200  25.862  1.00  0.00    -0.237 OA
ATOM     59  O   UNL A   1      43.555  21.827  26.348  1.00  0.00    -0.237 OA
ATOM     60  O   UNL A   1      41.944  22.088  28.197  1.00  0.00    -0.744 OA
ENDBRANCH  53  57
ENDBRANCH  26  50
BRANCH  38  61
ATOM     61  C   UNL A   1      45.007  27.828  34.122  1.00  0.00     0.023 A 
ATOM     62  C   UNL A   1      44.987  26.744  35.017  1.00  0.00     0.031 A 
ATOM     63  C   UNL A   1      46.221  28.510  33.936  1.00  0.00     0.131 A 
ATOM     64  C   UNL A   1      46.135  26.428  35.756  1.00  0.00     0.055 A 
ATOM     65  C   UNL A   1      47.382  28.142  34.618  1.00  0.00     0.041 A 
ATOM     66  F   UNL A   1      46.298  29.556  33.096  1.00  0.00    -0.206 F 
ATOM     67  C   UNL A   1      47.337  27.108  35.550  1.00  0.00     0.022 A 
BRANCH  64  68
ATOM     68  S   UNL A   1      45.999  25.204  37.088  1.00  0.00     0.124 S 
ATOM     69  O   UNL A   1      47.268  25.374  37.786  1.00  0.00    -0.237 OA
ATOM     70  O   UNL A   1      44.811  25.654  37.806  1.00  0.00    -0.237 OA
ATOM     71  O   UNL A   1      45.848  23.936  36.374  1.00  0.00    -0.744 OA
ENDBRANCH  64  68
ENDBRANCH  38  61
ENDBRANCH  12  13
ENDBRANCH   5   7
ENDBRANCH   2   3
ENDBRANCH   1   2
BRANCH   1  72
ATOM     72  C   UNL A   1      32.323  28.770  23.088  1.00  0.00     0.002 C 
BRANCH  72  73
ATOM     73  C   UNL A   1      32.016  27.440  22.389  1.00  0.00     0.002 C 
BRANCH  73  74
ATOM     74  C   UNL A   1      33.245  26.606  22.014  1.00  0.00     0.021 C 
BRANCH  74  75
ATOM     75  C   UNL A   1      32.906  25.274  21.340  1.00  0.00     0.116 C 
BRANCH  75  76
ATOM     76  N   UNL A   1      31.787  24.631  21.975  1.00  0.00    -0.354 N 
ATOM     77  C   UNL A   1      31.684  23.978  23.154  1.00  0.00     0.242 C 
ATOM     78  H   UNL A   1      30.948  24.675  21.460  1.00  0.00     0.163 HD
ATOM     79  O   UNL A   1      30.512  23.699  23.467  1.00  0.00    -0.273 OA
BRANCH  77  80
ATOM     80  C   UNL A   1      32.846  23.607  24.129  1.00  0.00     0.171 C 
ATOM     81  C   UNL A   1      33.138  24.877  24.963  1.00  0.00     0.035 C 
ATOM     82  N   UNL A   1      32.693  22.424  25.033  1.00  0.00    -0.359 N 
ATOM     83  C   UNL A   1      32.080  25.062  26.045  1.00  0.00     0.004 C 
ATOM     84  C   UNL A   1      31.879  22.551  26.247  1.00  0.00     0.117 C 
ATOM     85  C   UNL A   1      32.112  23.867  26.988  1.00  0.00     0.022 C 
BRANCH  82  86
ATOM     86  C   UNL A   1      33.784  21.523  25.116  1.00  0.00     0.048 A 
ATOM     87  C   UNL A   1      35.050  21.985  25.488  1.00  0.00     0.046 A 
ATOM     88  C   UNL A   1      33.667  20.134  24.784  1.00  0.00     0.024 A 
ATOM     89  C   UNL A   1      36.130  21.125  25.443  1.00  0.00     0.114 A 
ATOM     90  C   UNL A   1      34.854  19.366  24.698  1.00  0.00     0.072 A 
ATOM     91  C   UNL A   1      32.448  19.465  24.517  1.00  0.00     0.012 A 
ATOM     92  N   UNL A   1      36.059  19.853  25.021  1.00  0.00    -0.256 NA
ATOM     93  C   UNL A   1      34.791  18.050  24.250  1.00  0.00     0.029 A 
ATOM     94  C   UNL A   1      32.405  18.145  24.062  1.00  0.00     0.001 A 
ATOM     95  C   UNL A   1      33.586  17.441  23.907  1.00  0.00     0.002 A 
ENDBRANCH  82  86
ENDBRANCH  77  80
ENDBRANCH  75  76
ENDBRANCH  74  75
ENDBRANCH  73  74
ENDBRANCH  72  73
ENDBRANCH   1  72
TORSDOF 17
ENDMDL
MODEL 2
REMARK VINA RESULT:     -11.8      3.007      8.450
REMARK SMILES O=C(NCCCCCCNC(=O)[C@H]1CCCCN1c1ccnc2ccccc12)c1ccc(-c2c3nc(c(-c4cc(S(=O)(=O)[O-])ccc4F)c4ccc([nH]4)c(-c4cc(S(=O)(=O)[O-])ccc4F)c4nc(c(-c5cc(S(=O)(=O)[O-])ccc5F)c5ccc2[nH]5)C=C4)C=C3)cc1
REMARK SMILES IDX 5 1 4 2 3 3 1 4 2 5 29 7 30 8 91 9 31 10 90 11 32 12 33 13
REMARK SMILES IDX 34 14 84 15 35 16 89 17 83 18 85 19 36 20 88 21 82 22 81 23
REMARK SMILES IDX 37 25 69 26 49 27 68 28 50 29 53 30 67 31 86 32 51 33 52 34
REMARK SMILES IDX 66 36 87 37 54 38 38 39 39 40 47 41 40 42 46 43 48 44 45 45
REMARK SMILES IDX 41 46 42 47 43 48 44 49 70 50 71 51 79 52 72 53 78 54 80 55
REMARK SMILES IDX 77 56 73 57 74 58 75 59 76 60 55 61 56 62 64 63 57 64 63 65
REMARK SMILES IDX 65 66 62 67 58 68 59 69 60 70 61 71 6 72 7 73 8 74 9 75
REMARK SMILES IDX 10 76 11 77 12 79 13 80 14 81 18 82 15 83 17 84 16 85 19 86
REMARK SMILES IDX 20 87 28 88 21 89 23 90 27 91 22 92 24 93 26 94 25 95
REMARK H PARENT 3 6 85 24 53 35 10 78
REMARK Flexibility Score: inf
ROOT
ATOM      1  C   UNL A   1      34.604  34.460  27.989  1.00  0.00     0.021 C 
ENDROOT
BRANCH   1   2
ATOM      2  C   UNL A   1      33.145  34.320  28.395  1.00  0.00     0.116 C 
BRANCH   2   3
ATOM      3  N   UNL A   1      32.764  35.299  29.403  1.00  0.00    -0.352 N 
ATOM      4  O   UNL A   1      32.534  36.147  31.477  1.00  0.00    -0.269 OA
ATOM      5  C   UNL A   1      33.136  35.392  30.725  1.00  0.00     0.251 C 
ATOM      6  H   UNL A   1      32.146  36.000  29.093  1.00  0.00     0.163 HD
BRANCH   5   7
ATOM      7  C   UNL A   1      34.263  34.574  31.229  1.00  0.00     0.039 A 
ATOM      8  C   UNL A   1      35.567  35.065  31.167  1.00  0.00     0.014 A 
ATOM      9  C   UNL A   1      34.016  33.318  31.793  1.00  0.00     0.014 A 
ATOM     10  C   UNL A   1      36.630  34.244  31.509  1.00  0.00     0.010 A 
ATOM     11  C   UNL A   1      35.085  32.540  32.255  1.00  0.00     0.010 A 
ATOM     12  C   UNL A   1      36.405  32.991  32.101  1.00  0.00    -0.014 A 
BRANCH  12  13
ATOM     13  C   UNL A   1      37.575  32.246  32.635  1.00  0.00     0.031 A 
ATOM     14  C   UNL A   1      38.273  31.184  31.833  1.00  0.00     0.074 A 
ATOM     15  C   UNL A   1      38.043  32.600  33.851  1.00  0.00     0.049 A 
ATOM     16  N   UNL A   1      39.336  30.488  32.144  1.00  0.00    -0.248 NA
ATOM     17  C   UNL A   1      37.705  30.855  30.518  1.00  0.00     0.031 C 
ATOM     18  C   UNL A   1      37.429  33.609  34.723  1.00  0.00     0.029 A 
ATOM     19  N   UNL A   1      39.148  32.194  34.552  1.00  0.00    -0.354 N 
ATOM     20  C   UNL A   1      39.566  29.634  31.071  1.00  0.00     0.074 A 
ATOM     21  C   UNL A   1      38.503  29.874  30.116  1.00  0.00     0.031 C 
ATOM     22  C   UNL A   1      38.203  33.794  35.799  1.00  0.00     0.029 A 
ATOM     23  C   UNL A   1      39.313  32.853  35.748  1.00  0.00     0.049 A 
ATOM     24  H   UNL A   1      39.764  31.496  34.230  1.00  0.00     0.167 HD
ATOM     25  C   UNL A   1      40.576  28.744  30.899  1.00  0.00     0.034 A 
ATOM     26  C   UNL A   1      40.237  32.702  36.716  1.00  0.00     0.034 A 
ATOM     27  C   UNL A   1      41.622  28.516  31.871  1.00  0.00     0.049 A 
ATOM     28  C   UNL A   1      41.320  31.678  36.512  1.00  0.00     0.074 A 
ATOM     29  C   UNL A   1      42.691  27.638  31.798  1.00  0.00     0.029 A 
ATOM     30  N   UNL A   1      41.731  29.165  33.096  1.00  0.00    -0.354 N 
ATOM     31  N   UNL A   1      41.521  30.886  35.484  1.00  0.00    -0.248 NA
ATOM     32  C   UNL A   1      42.300  31.532  37.592  1.00  0.00     0.031 C 
ATOM     33  C   UNL A   1      43.405  27.710  32.999  1.00  0.00     0.029 A 
ATOM     34  C   UNL A   1      42.832  28.689  33.794  1.00  0.00     0.049 A 
ATOM     35  H   UNL A   1      41.116  29.862  33.420  1.00  0.00     0.167 HD
ATOM     36  C   UNL A   1      42.662  30.152  35.794  1.00  0.00     0.074 A 
ATOM     37  C   UNL A   1      43.125  30.633  37.080  1.00  0.00     0.031 C 
ATOM     38  C   UNL A   1      43.267  29.163  35.087  1.00  0.00     0.034 A 
BRANCH  25  39
ATOM     39  C   UNL A   1      40.580  27.924  29.630  1.00  0.00     0.023 A 
ATOM     40  C   UNL A   1      41.500  28.167  28.596  1.00  0.00     0.031 A 
ATOM     41  C   UNL A   1      39.659  26.875  29.456  1.00  0.00     0.131 A 
ATOM     42  C   UNL A   1      41.448  27.409  27.415  1.00  0.00     0.055 A 
ATOM     43  C   UNL A   1      39.659  26.075  28.310  1.00  0.00     0.041 A 
ATOM     44  F   UNL A   1      38.742  26.607  30.399  1.00  0.00    -0.206 F 
ATOM     45  C   UNL A   1      40.551  26.347  27.278  1.00  0.00     0.022 A 
BRANCH  42  46
ATOM     46  S   UNL A   1      42.493  27.901  26.018  1.00  0.00     0.124 S 
ATOM     47  O   UNL A   1      43.826  27.568  26.513  1.00  0.00    -0.237 OA
ATOM     48  O   UNL A   1      41.988  27.064  24.936  1.00  0.00    -0.237 OA
ATOM     49  O   UNL A   1      42.228  29.331  25.878  1.00  0.00    -0.744 OA
ENDBRANCH  42  46
ENDBRANCH  25  39
BRANCH  26  50
ATOM     50  C   UNL A   1      40.149  33.493  37.978  1.00  0.00     0.023 A 
ATOM     51  C   UNL A   1      39.244  33.152  38.993  1.00  0.00     0.031 A 
ATOM     52  C   UNL A   1      40.940  34.645  38.161  1.00  0.00     0.131 A 
ATOM     53  C   UNL A   1      39.109  33.983  40.116  1.00  0.00     0.055 A 
ATOM     54  C   UNL A   1      40.853  35.426  39.313  1.00  0.00     0.041 A 
ATOM     55  F   UNL A   1      41.823  35.021  37.222  1.00  0.00    -0.206 F 
ATOM     56  C   UNL A   1      39.918  35.107  40.291  1.00  0.00     0.022 A 
BRANCH  53  57
ATOM     57  S   UNL A   1      37.767  33.641  41.289  1.00  0.00     0.124 S 
ATOM     58  O   UNL A   1      37.393  34.984  41.714  1.00  0.00    -0.237 OA
ATOM     59  O   UNL A   1      36.802  32.942  40.446  1.00  0.00    -0.237 OA
ATOM     60  O   UNL A   1      38.412  32.818  42.310  1.00  0.00    -0.744 OA
ENDBRANCH  53  57
ENDBRANCH  26  50
BRANCH  38  61
ATOM     61  C   UNL A   1      44.511  28.567  35.700  1.00  0.00     0.023 A 
ATOM     62  C   UNL A   1      44.439  27.522  36.639  1.00  0.00     0.031 A 
ATOM     63  C   UNL A   1      45.779  29.088  35.387  1.00  0.00     0.131 A 
ATOM     64  C   UNL A   1      45.599  27.091  37.295  1.00  0.00     0.055 A 
ATOM     65  C   UNL A   1      46.940  28.602  35.988  1.00  0.00     0.041 A 
ATOM     66  F   UNL A   1      45.908  30.088  34.500  1.00  0.00    -0.206 F 
ATOM     67  C   UNL A   1      46.852  27.612  36.964  1.00  0.00     0.022 A 
BRANCH  64  68
ATOM     68  S   UNL A   1      45.432  25.937  38.684  1.00  0.00     0.124 S 
ATOM     69  O   UNL A   1      46.770  25.965  39.264  1.00  0.00    -0.237 OA
ATOM     70  O   UNL A   1      44.379  26.557  39.480  1.00  0.00    -0.237 OA
ATOM     71  O   UNL A   1      45.062  24.677  38.040  1.00  0.00    -0.744 OA
ENDBRANCH  64  68
ENDBRANCH  38  61
ENDBRANCH  12  13
ENDBRANCH   5   7
ENDBRANCH   2   3
ENDBRANCH   1   2
BRANCH   1  72
ATOM     72  C   UNL A   1      35.383  33.149  27.946  1.00  0.00     0.002 C 
BRANCH  72  73
ATOM     73  C   UNL A   1      34.632  31.929  28.494  1.00  0.00     0.002 C 
BRANCH  73  74
ATOM     74  C   UNL A   1      33.913  31.082  27.440  1.00  0.00     0.021 C 
BRANCH  74  75
ATOM     75  C   UNL A   1      34.405  29.634  27.369  1.00  0.00     0.116 C 
BRANCH  75  76
ATOM     76  N   UNL A   1      34.583  29.203  26.009  1.00  0.00    -0.354 N 
ATOM     77  C   UNL A   1      33.801  28.454  25.199  1.00  0.00     0.242 C 
ATOM     78  H   UNL A   1      35.423  29.508  25.593  1.00  0.00     0.163 HD
ATOM     79  O   UNL A   1      34.191  28.426  24.018  1.00  0.00    -0.273 OA
BRANCH  77  80
ATOM     80  C   UNL A   1      32.490  27.701  25.591  1.00  0.00     0.171 C 
ATOM     81  C   UNL A   1      31.354  28.751  25.549  1.00  0.00     0.035 C 
ATOM     82  N   UNL A   1      32.089  26.481  24.822  1.00  0.00    -0.359 N 
ATOM     83  C   UNL A   1      30.943  29.039  24.110  1.00  0.00     0.004 C 
ATOM     84  C   UNL A   1      31.459  26.640  23.506  1.00  0.00     0.117 C 
ATOM     85  C   UNL A   1      30.420  27.760  23.471  1.00  0.00     0.022 C 
BRANCH  82  86
ATOM     86  C   UNL A   1      31.679  25.347  25.567  1.00  0.00     0.048 A 
ATOM     87  C   UNL A   1      30.330  25.168  25.889  1.00  0.00     0.046 A 
ATOM     88  C   UNL A   1      32.605  24.372  26.062  1.00  0.00     0.024 A 
ATOM     89  C   UNL A   1      29.960  24.129  26.721  1.00  0.00     0.114 A 
ATOM     90  C   UNL A   1      32.123  23.395  26.969  1.00  0.00     0.072 A 
ATOM     91  C   UNL A   1      33.979  24.316  25.728  1.00  0.00     0.012 A 
ATOM     92  N   UNL A   1      30.828  23.278  27.289  1.00  0.00    -0.256 NA
ATOM     93  C   UNL A   1      33.017  22.516  27.570  1.00  0.00     0.029 A 
ATOM     94  C   UNL A   1      34.862  23.431  26.349  1.00  0.00     0.001 A 
ATOM     95  C   UNL A   1      34.382  22.540  27.291  1.00  0.00     0.002 A 
ENDBRANCH  82  86
ENDBRANCH  77  80
ENDBRANCH  75  76
ENDBRANCH  74  75
ENDBRANCH  73  74
ENDBRANCH  72  73
ENDBRANCH   1  72
TORSDOF 17
ENDMDL
MODEL 3
REMARK VINA RESULT:     -11.8      2.813      8.086
REMARK SMILES O=C(NCCCCCCNC(=O)[C@H]1CCCCN1c1ccnc2ccccc12)c1ccc(-c2c3nc(c(-c4cc(S(=O)(=O)[O-])ccc4F)c4ccc([nH]4)c(-c4cc(S(=O)(=O)[O-])ccc4F)c4nc(c(-c5cc(S(=O)(=O)[O-])ccc5F)c5ccc2[nH]5)C=C4)C=C3)cc1
REMARK SMILES IDX 5 1 4 2 3 3 1 4 2 5 29 7 30 8 91 9 31 10 90 11 32 12 33 13
REMARK SMILES IDX 34 14 84 15 35 16 89 17 83 18 85 19 36 20 88 21 82 22 81 23
REMARK SMILES IDX 37 25 69 26 49 27 68 28 50 29 53 30 67 31 86 32 51 33 52 34
REMARK SMILES IDX 66 36 87 37 54 38 38 39 39 40 47 41 40 42 46 43 48 44 45 45
REMARK SMILES IDX 41 46 42 47 43 48 44 49 70 50 71 51 79 52 72 53 78 54 80 55
REMARK SMILES IDX 77 56 73 57 74 58 75 59 76 60 55 61 56 62 64 63 57 64 63 65
REMARK SMILES IDX 65 66 62 67 58 68 59 69 60 70 61 71 6 72 7 73 8 74 9 75
REMARK SMILES IDX 10 76 11 77 12 79 13 80 14 81 18 82 15 83 17 84 16 85 19 86
REMARK SMILES IDX 20 87 28 88 21 89 23 90 27 91 22 92 24 93 26 94 25 95
REMARK H PARENT 3 6 85 24 53 35 10 78
REMARK Flexibility Score: inf
ROOT
ATOM      1  C   UNL A   1      31.374  32.362  26.775  1.00  0.00     0.021 C 
ENDROOT
BRANCH   1   2
ATOM      2  C   UNL A   1      32.708  32.684  27.431  1.00  0.00     0.116 C 
BRANCH   2   3
ATOM      3  N   UNL A   1      32.828  34.098  27.755  1.00  0.00    -0.352 N 
ATOM      4  O   UNL A   1      33.391  35.894  28.994  1.00  0.00    -0.269 OA
ATOM      5  C   UNL A   1      33.595  34.719  28.715  1.00  0.00     0.251 C 
ATOM      6  H   UNL A   1      32.277  34.702  27.207  1.00  0.00     0.163 HD
BRANCH   5   7
ATOM      7  C   UNL A   1      34.661  33.959  29.407  1.00  0.00     0.039 A 
ATOM      8  C   UNL A   1      35.998  34.160  29.065  1.00  0.00     0.014 A 
ATOM      9  C   UNL A   1      34.328  33.059  30.425  1.00  0.00     0.014 A 
ATOM     10  C   UNL A   1      36.980  33.349  29.614  1.00  0.00     0.010 A 
ATOM     11  C   UNL A   1      35.337  32.331  31.067  1.00  0.00     0.010 A 
ATOM     12  C   UNL A   1      36.671  32.458  30.655  1.00  0.00    -0.014 A 
BRANCH  12  13
ATOM     13  C   UNL A   1      37.794  31.768  31.344  1.00  0.00     0.031 A 
ATOM     14  C   UNL A   1      38.607  30.703  30.664  1.00  0.00     0.074 A 
ATOM     15  C   UNL A   1      38.112  32.177  32.591  1.00  0.00     0.049 A 
ATOM     16  N   UNL A   1      39.647  30.051  31.117  1.00  0.00    -0.248 NA
ATOM     17  C   UNL A   1      38.201  30.312  29.306  1.00  0.00     0.031 C 
ATOM     18  C   UNL A   1      37.375  33.194  33.351  1.00  0.00     0.029 A 
ATOM     19  N   UNL A   1      39.141  31.829  33.425  1.00  0.00    -0.354 N 
ATOM     20  C   UNL A   1      40.020  29.169  30.109  1.00  0.00     0.074 A 
ATOM     21  C   UNL A   1      39.066  29.345  29.033  1.00  0.00     0.031 C 
ATOM     22  C   UNL A   1      38.018  33.439  34.499  1.00  0.00     0.029 A 
ATOM     23  C   UNL A   1      39.152  32.533  34.608  1.00  0.00     0.049 A 
ATOM     24  H   UNL A   1      39.808  31.141  33.200  1.00  0.00     0.167 HD
ATOM     25  C   UNL A   1      41.067  28.307  30.084  1.00  0.00     0.034 A 
ATOM     26  C   UNL A   1      39.964  32.442  35.677  1.00  0.00     0.034 A 
ATOM     27  C   UNL A   1      42.002  28.144  31.174  1.00  0.00     0.049 A 
ATOM     28  C   UNL A   1      41.091  31.447  35.634  1.00  0.00     0.074 A 
ATOM     29  C   UNL A   1      43.097  27.299  31.253  1.00  0.00     0.029 A 
ATOM     30  N   UNL A   1      41.954  28.837  32.379  1.00  0.00    -0.354 N 
ATOM     31  N   UNL A   1      41.429  30.628  34.664  1.00  0.00    -0.248 NA
ATOM     32  C   UNL A   1      41.946  31.368  36.821  1.00  0.00     0.031 C 
ATOM     33  C   UNL A   1      43.668  27.432  32.523  1.00  0.00     0.029 A 
ATOM     34  C   UNL A   1      42.982  28.419  33.213  1.00  0.00     0.049 A 
ATOM     35  H   UNL A   1      41.288  29.525  32.607  1.00  0.00     0.167 HD
ATOM     36  C   UNL A   1      42.547  29.942  35.126  1.00  0.00     0.074 A 
ATOM     37  C   UNL A   1      42.848  30.479  36.438  1.00  0.00     0.031 C 
ATOM     38  C   UNL A   1      43.255  28.949  34.528  1.00  0.00     0.034 A 
BRANCH  25  39
ATOM     39  C   UNL A   1      41.238  27.445  28.854  1.00  0.00     0.023 A 
ATOM     40  C   UNL A   1      42.226  27.718  27.892  1.00  0.00     0.031 A 
ATOM     41  C   UNL A   1      40.408  26.329  28.645  1.00  0.00     0.131 A 
ATOM     42  C   UNL A   1      42.327  26.917  26.743  1.00  0.00     0.055 A 
ATOM     43  C   UNL A   1      40.562  25.492  27.537  1.00  0.00     0.041 A 
ATOM     44  F   UNL A   1      39.433  26.030  29.517  1.00  0.00    -0.206 F 
ATOM     45  C   UNL A   1      41.519  25.790  26.573  1.00  0.00     0.022 A 
BRANCH  42  46
ATOM     46  S   UNL A   1      43.455  27.433  25.419  1.00  0.00     0.124 S 
ATOM     47  O   UNL A   1      44.168  26.190  25.137  1.00  0.00    -0.237 OA
ATOM     48  O   UNL A   1      42.537  27.891  24.383  1.00  0.00    -0.237 OA
ATOM     49  O   UNL A   1      44.262  28.478  26.045  1.00  0.00    -0.744 OA
ENDBRANCH  42  46
ENDBRANCH  25  39
BRANCH  26  50
ATOM     50  C   UNL A   1      39.713  33.272  36.892  1.00  0.00     0.023 A 
ATOM     51  C   UNL A   1      38.989  32.769  37.983  1.00  0.00     0.031 A 
ATOM     52  C   UNL A   1      40.150  34.610  36.952  1.00  0.00     0.131 A 
ATOM     53  C   UNL A   1      38.675  33.613  39.060  1.00  0.00     0.055 A 
ATOM     54  C   UNL A   1      39.897  35.422  38.058  1.00  0.00     0.041 A 
ATOM     55  F   UNL A   1      40.846  35.145  35.936  1.00  0.00    -0.206 F 
ATOM     56  C   UNL A   1      39.137  34.929  39.112  1.00  0.00     0.022 A 
BRANCH  53  57
ATOM     57  S   UNL A   1      37.541  33.000  40.337  1.00  0.00     0.124 S 
ATOM     58  O   UNL A   1      36.361  32.663  39.551  1.00  0.00    -0.237 OA
ATOM     59  O   UNL A   1      38.289  31.873  40.887  1.00  0.00    -0.237 OA
ATOM     60  O   UNL A   1      37.390  34.144  41.234  1.00  0.00    -0.744 OA
ENDBRANCH  53  57
ENDBRANCH  26  50
BRANCH  38  61
ATOM     61  C   UNL A   1      44.438  28.413  35.298  1.00  0.00     0.023 A 
ATOM     62  C   UNL A   1      44.282  27.432  36.294  1.00  0.00     0.031 A 
ATOM     63  C   UNL A   1      45.726  28.930  35.075  1.00  0.00     0.131 A 
ATOM     64  C   UNL A   1      45.376  27.063  37.087  1.00  0.00     0.055 A 
ATOM     65  C   UNL A   1      46.827  28.501  35.817  1.00  0.00     0.041 A 
ATOM     66  F   UNL A   1      45.933  29.870  34.139  1.00  0.00    -0.206 F 
ATOM     67  C   UNL A   1      46.651  27.578  36.845  1.00  0.00     0.022 A 
BRANCH  64  68
ATOM     68  S   UNL A   1      45.083  26.001  38.529  1.00  0.00     0.124 S 
ATOM     69  O   UNL A   1      46.210  26.341  39.390  1.00  0.00    -0.237 OA
ATOM     70  O   UNL A   1      43.773  26.451  38.986  1.00  0.00    -0.237 OA
ATOM     71  O   UNL A   1      45.114  24.649  37.971  1.00  0.00    -0.744 OA
ENDBRANCH  64  68
ENDBRANCH  38  61
ENDBRANCH  12  13
ENDBRANCH   5   7
ENDBRANCH   2   3
ENDBRANCH   1   2
BRANCH   1  72
ATOM     72  C   UNL A   1      31.371  31.095  25.926  1.00  0.00     0.002 C 
BRANCH  72  73
ATOM     73  C   UNL A   1      32.449  30.066  26.289  1.00  0.00     0.002 C 
BRANCH  73  74
ATOM     74  C   UNL A   1      32.016  29.006  27.307  1.00  0.00     0.021 C 
BRANCH  74  75
ATOM     75  C   UNL A   1      32.154  27.568  26.800  1.00  0.00     0.116 C 
BRANCH  75  76
ATOM     76  N   UNL A   1      30.930  26.832  26.963  1.00  0.00    -0.354 N 
ATOM     77  C   UNL A   1      30.288  25.971  26.141  1.00  0.00     0.242 C 
ATOM     78  H   UNL A   1      30.480  26.980  27.827  1.00  0.00     0.163 HD
ATOM     79  O   UNL A   1      29.337  25.381  26.684  1.00  0.00    -0.273 OA
BRANCH  77  80
ATOM     80  C   UNL A   1      30.654  25.636  24.660  1.00  0.00     0.171 C 
ATOM     81  C   UNL A   1      29.440  26.068  23.803  1.00  0.00     0.035 C 
ATOM     82  N   UNL A   1      31.917  26.187  24.075  1.00  0.00    -0.359 N 
ATOM     83  C   UNL A   1      29.425  27.581  23.620  1.00  0.00     0.004 C 
ATOM     84  C   UNL A   1      31.952  27.588  23.638  1.00  0.00     0.117 C 
ATOM     85  C   UNL A   1      30.689  28.012  22.890  1.00  0.00     0.022 C 
BRANCH  82  86
ATOM     86  C   UNL A   1      32.739  25.294  23.344  1.00  0.00     0.048 A 
ATOM     87  C   UNL A   1      32.400  24.937  22.035  1.00  0.00     0.046 A 
ATOM     88  C   UNL A   1      33.907  24.683  23.906  1.00  0.00     0.024 A 
ATOM     89  C   UNL A   1      33.137  23.971  21.379  1.00  0.00     0.114 A 
ATOM     90  C   UNL A   1      34.539  23.650  23.169  1.00  0.00     0.072 A 
ATOM     91  C   UNL A   1      34.476  25.020  25.157  1.00  0.00     0.012 A 
ATOM     92  N   UNL A   1      34.160  23.304  21.932  1.00  0.00    -0.256 NA
ATOM     93  C   UNL A   1      35.593  22.945  23.741  1.00  0.00     0.029 A 
ATOM     94  C   UNL A   1      35.530  24.296  25.717  1.00  0.00     0.001 A 
ATOM     95  C   UNL A   1      36.078  23.239  25.014  1.00  0.00     0.002 A 
ENDBRANCH  82  86
ENDBRANCH  77  80
ENDBRANCH  75  76
ENDBRANCH  74  75
ENDBRANCH  73  74
ENDBRANCH  72  73
ENDBRANCH   1  72
TORSDOF 17
ENDMDL
