MODEL 1
REMARK VINA RESULT:     -11.8      0.000      0.000
REMARK SMILES O=C(NCCCCCCNC(=O)c1ccc(-c2c3nc(c(-c4cc(S(=O)(=O)[O-])ccc4F)c4ccc([nH]4)c(-c4cc(S(=O)(=O)[O-])ccc4F)c4nc(c(-c5cc(S(=O)(=O)[O-])ccc5F)c5ccc2[nH]5)C=C4)C=C3)cc1)C1=Cc2cc(Cl)c(Cl)cc2O[C@@H]1C(F)(F)F
REMARK SMILES IDX 7 1 6 2 5 3 4 4 3 5 1 6 2 7 76 9 77 10 87 11 78 12 86 13
REMARK SMILES IDX 79 14 85 15 80 16 84 17 81 18 82 19 83 20 88 21 89 22 90 23
REMARK SMILES IDX 91 24 8 25 9 26 10 27 11 28 12 30 13 31 14 32 75 33 15 34
REMARK SMILES IDX 74 35 16 36 17 37 18 38 68 39 19 40 73 41 67 42 69 43 20 44
REMARK SMILES IDX 72 45 66 46 65 47 21 49 53 50 33 51 52 52 34 53 37 54 51 55
REMARK SMILES IDX 70 56 35 57 36 58 50 60 71 61 38 62 22 63 23 64 31 65 24 66
REMARK SMILES IDX 30 67 32 68 29 69 25 70 26 71 27 72 28 73 54 74 55 75 63 76
REMARK SMILES IDX 56 77 62 78 64 79 61 80 57 81 58 82 59 83 60 84 39 85 40 86
REMARK SMILES IDX 48 87 41 88 47 89 49 90 46 91 42 92 43 93 44 94 45 95
REMARK H PARENT 3 8 10 29 69 48 37 59
REMARK Flexibility Score: inf
ROOT
ATOM      1  C   UNL A   1      31.407  30.517  26.247  1.00  0.00     0.002 C 
ENDROOT
BRANCH   1   2
ATOM      2  C   UNL A   1      32.106  29.563  27.222  1.00  0.00     0.002 C 
BRANCH   2   3
ATOM      3  C   UNL A   1      31.433  28.214  27.470  1.00  0.00     0.021 C 
BRANCH   3   4
ATOM      4  C   UNL A   1      31.624  27.150  26.397  1.00  0.00     0.116 C 
BRANCH   4   5
ATOM      5  N   UNL A   1      30.794  25.966  26.538  1.00  0.00    -0.352 N 
ATOM      6  O   UNL A   1      30.304  23.780  26.690  1.00  0.00    -0.270 OA
ATOM      7  C   UNL A   1      31.125  24.646  26.392  1.00  0.00     0.251 C 
ATOM      8  H   UNL A   1      29.855  26.139  26.773  1.00  0.00     0.163 HD
BRANCH   7   9
ATOM      9  C   UNL A   1      32.488  24.205  25.969  1.00  0.00     0.067 C 
ATOM     10  C   UNL A   1      33.096  23.142  26.524  1.00  0.00     0.025 C 
ATOM     11  C   UNL A   1      32.800  24.564  24.533  1.00  0.00     0.314 C 
ATOM     12  C   UNL A   1      33.158  21.998  25.580  1.00  0.00     0.019 A 
ATOM     13  O   UNL A   1      32.663  23.415  23.652  1.00  0.00    -0.475 OA
ATOM     14  C   UNL A   1      33.259  20.706  26.108  1.00  0.00     0.034 A 
ATOM     15  C   UNL A   1      32.842  22.182  24.227  1.00  0.00     0.129 A 
ATOM     16  C   UNL A   1      32.941  19.605  25.310  1.00  0.00     0.060 A 
ATOM     17  C   UNL A   1      32.564  21.080  23.422  1.00  0.00     0.069 A 
ATOM     18  Cl  UNL A   1      32.899  18.056  26.073  1.00  0.00    -0.083 Cl
ATOM     19  C   UNL A   1      32.579  19.793  23.970  1.00  0.00     0.063 A 
ATOM     20  Cl  UNL A   1      32.056  18.491  22.964  1.00  0.00    -0.083 Cl
BRANCH  11  21
ATOM     21  C   UNL A   1      34.181  25.220  24.382  1.00  0.00     0.429 C 
ATOM     22  F   UNL A   1      35.077  24.364  23.835  1.00  0.00    -0.167 F 
ATOM     23  F   UNL A   1      34.135  26.307  23.574  1.00  0.00    -0.167 F 
ATOM     24  F   UNL A   1      34.691  25.630  25.568  1.00  0.00    -0.167 F 
ENDBRANCH  11  21
ENDBRANCH   7   9
ENDBRANCH   4   5
ENDBRANCH   3   4
ENDBRANCH   2   3
ENDBRANCH   1   2
BRANCH   1  25
ATOM     25  C   UNL A   1      31.394  32.007  26.609  1.00  0.00     0.021 C 
BRANCH  25  26
ATOM     26  C   UNL A   1      32.717  32.616  27.065  1.00  0.00     0.116 C 
BRANCH  26  27
ATOM     27  N   UNL A   1      32.569  33.949  27.619  1.00  0.00    -0.352 N 
ATOM     28  C   UNL A   1      33.220  34.551  28.668  1.00  0.00     0.251 C 
ATOM     29  H   UNL A   1      31.896  34.510  27.172  1.00  0.00     0.163 HD
ATOM     30  O   UNL A   1      32.832  35.651  29.054  1.00  0.00    -0.269 OA
BRANCH  28  31
ATOM     31  C   UNL A   1      34.357  33.886  29.354  1.00  0.00     0.039 A 
ATOM     32  C   UNL A   1      35.656  34.300  29.044  1.00  0.00     0.014 A 
ATOM     33  C   UNL A   1      34.165  32.837  30.257  1.00  0.00     0.014 A 
ATOM     34  C   UNL A   1      36.753  33.704  29.675  1.00  0.00     0.010 A 
ATOM     35  C   UNL A   1      35.256  32.289  30.936  1.00  0.00     0.010 A 
ATOM     36  C   UNL A   1      36.562  32.713  30.651  1.00  0.00    -0.014 A 
BRANCH  36  37
ATOM     37  C   UNL A   1      37.719  32.108  31.368  1.00  0.00     0.031 A 
ATOM     38  C   UNL A   1      38.529  31.016  30.720  1.00  0.00     0.074 A 
ATOM     39  C   UNL A   1      38.012  32.510  32.623  1.00  0.00     0.049 A 
ATOM     40  N   UNL A   1      39.533  30.330  31.203  1.00  0.00    -0.248 NA
ATOM     41  C   UNL A   1      38.144  30.630  29.354  1.00  0.00     0.031 C 
ATOM     42  C   UNL A   1      37.286  33.540  33.369  1.00  0.00     0.029 A 
ATOM     43  N   UNL A   1      38.992  32.101  33.493  1.00  0.00    -0.354 N 
ATOM     44  C   UNL A   1      39.887  29.419  30.213  1.00  0.00     0.074 A 
ATOM     45  C   UNL A   1      38.956  29.610  29.120  1.00  0.00     0.031 C 
ATOM     46  C   UNL A   1      37.863  33.700  34.571  1.00  0.00     0.029 A 
ATOM     47  C   UNL A   1      38.967  32.755  34.704  1.00  0.00     0.049 A 
ATOM     48  H   UNL A   1      39.652  31.405  33.272  1.00  0.00     0.167 HD
ATOM     49  C   UNL A   1      40.901  28.519  30.210  1.00  0.00     0.034 A 
ATOM     50  C   UNL A   1      39.736  32.602  35.801  1.00  0.00     0.034 A 
ATOM     51  C   UNL A   1      41.834  28.355  31.299  1.00  0.00     0.049 A 
ATOM     52  C   UNL A   1      40.838  31.572  35.781  1.00  0.00     0.074 A 
ATOM     53  C   UNL A   1      42.940  27.524  31.368  1.00  0.00     0.029 A 
ATOM     54  N   UNL A   1      41.768  29.024  32.514  1.00  0.00    -0.354 N 
ATOM     55  N   UNL A   1      41.194  30.758  34.813  1.00  0.00    -0.248 NA
ATOM     56  C   UNL A   1      41.648  31.445  37.000  1.00  0.00     0.031 C 
ATOM     57  C   UNL A   1      43.495  27.634  32.647  1.00  0.00     0.029 A 
ATOM     58  C   UNL A   1      42.787  28.595  33.351  1.00  0.00     0.049 A 
ATOM     59  H   UNL A   1      41.095  29.702  32.748  1.00  0.00     0.167 HD
ATOM     60  C   UNL A   1      42.293  30.053  35.296  1.00  0.00     0.074 A 
ATOM     61  C   UNL A   1      42.549  30.546  36.633  1.00  0.00     0.031 C 
ATOM     62  C   UNL A   1      43.030  29.090  34.686  1.00  0.00     0.034 A 
BRANCH  49  63
ATOM     63  C   UNL A   1      41.037  27.618  29.004  1.00  0.00     0.023 A 
ATOM     64  C   UNL A   1      42.029  27.821  28.030  1.00  0.00     0.031 A 
ATOM     65  C   UNL A   1      40.153  26.538  28.825  1.00  0.00     0.131 A 
ATOM     66  C   UNL A   1      42.073  27.002  26.892  1.00  0.00     0.055 A 
ATOM     67  C   UNL A   1      40.252  25.677  27.730  1.00  0.00     0.041 A 
ATOM     68  F   UNL A   1      39.171  26.304  29.711  1.00  0.00    -0.206 F 
ATOM     69  C   UNL A   1      41.208  25.915  26.748  1.00  0.00     0.022 A 
BRANCH  66  70
ATOM     70  S   UNL A   1      43.192  27.455  25.538  1.00  0.00     0.124 S 
ATOM     71  O   UNL A   1      43.802  26.167  25.217  1.00  0.00    -0.237 OA
ATOM     72  O   UNL A   1      42.278  27.997  24.540  1.00  0.00    -0.237 OA
ATOM     73  O   UNL A   1      44.096  28.427  26.150  1.00  0.00    -0.744 OA
ENDBRANCH  66  70
ENDBRANCH  49  63
BRANCH  50  74
ATOM     74  C   UNL A   1      39.497  33.428  37.021  1.00  0.00     0.023 A 
ATOM     75  C   UNL A   1      38.785  32.908  38.115  1.00  0.00     0.031 A 
ATOM     76  C   UNL A   1      39.918  34.768  37.089  1.00  0.00     0.131 A 
ATOM     77  C   UNL A   1      38.466  33.737  39.202  1.00  0.00     0.055 A 
ATOM     78  C   UNL A   1      39.651  35.571  38.199  1.00  0.00     0.041 A 
ATOM     79  F   UNL A   1      40.602  35.317  36.072  1.00  0.00    -0.206 F 
ATOM     80  C   UNL A   1      38.906  35.061  39.257  1.00  0.00     0.022 A 
BRANCH  77  81
ATOM     81  S   UNL A   1      37.372  33.088  40.495  1.00  0.00     0.124 S 
ATOM     82  O   UNL A   1      37.222  34.248  41.367  1.00  0.00    -0.237 OA
ATOM     83  O   UNL A   1      36.193  32.702  39.729  1.00  0.00    -0.237 OA
ATOM     84  O   UNL A   1      38.137  31.978  41.061  1.00  0.00    -0.744 OA
ENDBRANCH  77  81
ENDBRANCH  50  74
BRANCH  62  85
ATOM     85  C   UNL A   1      44.216  28.546  35.447  1.00  0.00     0.023 A 
ATOM     86  C   UNL A   1      44.084  27.513  36.391  1.00  0.00     0.031 A 
ATOM     87  C   UNL A   1      45.497  29.084  35.231  1.00  0.00     0.131 A 
ATOM     88  C   UNL A   1      45.202  27.090  37.125  1.00  0.00     0.055 A 
ATOM     89  C   UNL A   1      46.617  28.615  35.918  1.00  0.00     0.041 A 
ATOM     90  F   UNL A   1      45.683  30.074  34.343  1.00  0.00    -0.206 F 
ATOM     91  C   UNL A   1      46.471  27.622  36.882  1.00  0.00     0.022 A 
BRANCH  88  92
ATOM     92  S   UNL A   1      44.961  25.899  38.472  1.00  0.00     0.124 S 
ATOM     93  O   UNL A   1      44.188  24.850  37.816  1.00  0.00    -0.237 OA
ATOM     94  O   UNL A   1      46.332  25.550  38.832  1.00  0.00    -0.237 OA
ATOM     95  O   UNL A   1      44.233  26.666  39.483  1.00  0.00    -0.744 OA
ENDBRANCH  88  92
ENDBRANCH  62  85
ENDBRANCH  36  37
ENDBRANCH  28  31
ENDBRANCH  26  27
ENDBRANCH  25  26
ENDBRANCH   1  25
TORSDOF 17
ENDMDL
MODEL 2
REMARK VINA RESULT:     -11.8      4.499      9.074
REMARK SMILES O=C(NCCCCCCNC(=O)c1ccc(-c2c3nc(c(-c4cc(S(=O)(=O)[O-])ccc4F)c4ccc([nH]4)c(-c4cc(S(=O)(=O)[O-])ccc4F)c4nc(c(-c5cc(S(=O)(=O)[O-])ccc5F)c5ccc2[nH]5)C=C4)C=C3)cc1)C1=Cc2cc(Cl)c(Cl)cc2O[C@@H]1C(F)(F)F
REMARK SMILES IDX 7 1 6 2 5 3 4 4 3 5 1 6 2 7 76 9 77 10 87 11 78 12 86 13
REMARK SMILES IDX 79 14 85 15 80 16 84 17 81 18 82 19 83 20 88 21 89 22 90 23
REMARK SMILES IDX 91 24 8 25 9 26 10 27 11 28 12 30 13 31 14 32 75 33 15 34
REMARK SMILES IDX 74 35 16 36 17 37 18 38 68 39 19 40 73 41 67 42 69 43 20 44
REMARK SMILES IDX 72 45 66 46 65 47 21 49 53 50 33 51 52 52 34 53 37 54 51 55
REMARK SMILES IDX 70 56 35 57 36 58 50 60 71 61 38 62 22 63 23 64 31 65 24 66
REMARK SMILES IDX 30 67 32 68 29 69 25 70 26 71 27 72 28 73 54 74 55 75 63 76
REMARK SMILES IDX 56 77 62 78 64 79 61 80 57 81 58 82 59 83 60 84 39 85 40 86
REMARK SMILES IDX 48 87 41 88 47 89 49 90 46 91 42 92 43 93 44 94 45 95
REMARK H PARENT 3 8 10 29 69 48 37 59
REMARK Flexibility Score: inf
ROOT
ATOM      1  C   UNL A   1      32.774  27.428  26.897  1.00  0.00     0.002 C 
ENDROOT
BRANCH   1   2
ATOM      2  C   UNL A   1      34.018  27.023  26.098  1.00  0.00     0.002 C 
BRANCH   2   3
ATOM      3  C   UNL A   1      33.912  25.755  25.251  1.00  0.00     0.021 C 
BRANCH   3   4
ATOM      4  C   UNL A   1      33.343  25.920  23.847  1.00  0.00     0.116 C 
BRANCH   4   5
ATOM      5  N   UNL A   1      33.568  27.217  23.232  1.00  0.00    -0.352 N 
ATOM      6  O   UNL A   1      33.172  29.365  22.710  1.00  0.00    -0.270 OA
ATOM      7  C   UNL A   1      32.740  28.304  23.158  1.00  0.00     0.251 C 
ATOM      8  H   UNL A   1      34.447  27.330  22.804  1.00  0.00     0.163 HD
BRANCH   7   9
ATOM      9  C   UNL A   1      31.346  28.284  23.693  1.00  0.00     0.067 C 
ATOM     10  C   UNL A   1      30.825  29.329  24.361  1.00  0.00     0.025 C 
ATOM     11  C   UNL A   1      30.425  27.391  22.893  1.00  0.00     0.314 C 
ATOM     12  C   UNL A   1      29.797  30.031  23.553  1.00  0.00     0.019 A 
ATOM     13  O   UNL A   1      29.575  28.160  21.999  1.00  0.00    -0.475 OA
ATOM     14  C   UNL A   1      29.538  31.378  23.834  1.00  0.00     0.034 A 
ATOM     15  C   UNL A   1      29.310  29.453  22.373  1.00  0.00     0.129 A 
ATOM     16  C   UNL A   1      28.884  32.169  22.887  1.00  0.00     0.060 A 
ATOM     17  C   UNL A   1      28.623  30.235  21.447  1.00  0.00     0.069 A 
ATOM     18  Cl  UNL A   1      28.768  33.862  23.210  1.00  0.00    -0.083 Cl
ATOM     19  C   UNL A   1      28.439  31.601  21.686  1.00  0.00     0.063 A 
ATOM     20  Cl  UNL A   1      27.737  32.545  20.422  1.00  0.00    -0.083 Cl
BRANCH  11  21
ATOM     21  C   UNL A   1      29.593  26.459  23.788  1.00  0.00     0.429 C 
ATOM     22  F   UNL A   1      30.004  26.516  25.077  1.00  0.00    -0.167 F 
ATOM     23  F   UNL A   1      28.280  26.795  23.780  1.00  0.00    -0.167 F 
ATOM     24  F   UNL A   1      29.671  25.163  23.400  1.00  0.00    -0.167 F 
ENDBRANCH  11  21
ENDBRANCH   7   9
ENDBRANCH   4   5
ENDBRANCH   3   4
ENDBRANCH   2   3
ENDBRANCH   1   2
BRANCH   1  25
ATOM     25  C   UNL A   1      32.682  28.886  27.363  1.00  0.00     0.021 C 
BRANCH  25  26
ATOM     26  C   UNL A   1      33.676  29.868  26.749  1.00  0.00     0.116 C 
BRANCH  26  27
ATOM     27  N   UNL A   1      33.633  31.181  27.365  1.00  0.00    -0.352 N 
ATOM     28  C   UNL A   1      34.464  31.752  28.298  1.00  0.00     0.251 C 
ATOM     29  H   UNL A   1      32.891  31.754  27.066  1.00  0.00     0.163 HD
ATOM     30  O   UNL A   1      34.155  32.836  28.784  1.00  0.00    -0.269 OA
BRANCH  28  31
ATOM     31  C   UNL A   1      35.705  31.069  28.743  1.00  0.00     0.039 A 
ATOM     32  C   UNL A   1      36.937  31.600  28.348  1.00  0.00     0.014 A 
ATOM     33  C   UNL A   1      35.673  29.896  29.502  1.00  0.00     0.014 A 
ATOM     34  C   UNL A   1      38.129  30.991  28.755  1.00  0.00     0.010 A 
ATOM     35  C   UNL A   1      36.863  29.327  29.963  1.00  0.00     0.010 A 
ATOM     36  C   UNL A   1      38.103  29.865  29.592  1.00  0.00    -0.014 A 
BRANCH  36  37
ATOM     37  C   UNL A   1      39.366  29.239  30.076  1.00  0.00     0.031 A 
ATOM     38  C   UNL A   1      40.065  29.783  31.295  1.00  0.00     0.074 A 
ATOM     39  C   UNL A   1      39.908  28.212  29.390  1.00  0.00     0.049 A 
ATOM     40  N   UNL A   1      41.197  29.411  31.835  1.00  0.00    -0.248 NA
ATOM     41  C   UNL A   1      39.415  30.907  31.983  1.00  0.00     0.031 C 
ATOM     42  C   UNL A   1      39.341  27.613  28.180  1.00  0.00     0.029 A 
ATOM     43  N   UNL A   1      41.057  27.490  29.608  1.00  0.00    -0.354 N 
ATOM     44  C   UNL A   1      41.406  30.266  32.912  1.00  0.00     0.074 A 
ATOM     45  C   UNL A   1      40.305  31.206  32.918  1.00  0.00     0.031 C 
ATOM     46  C   UNL A   1      40.127  26.601  27.780  1.00  0.00     0.029 A 
ATOM     47  C   UNL A   1      41.279  26.505  28.672  1.00  0.00     0.049 A 
ATOM     48  H   UNL A   1      41.664  27.661  30.363  1.00  0.00     0.167 HD
ATOM     49  C   UNL A   1      42.414  30.259  33.821  1.00  0.00     0.034 A 
ATOM     50  C   UNL A   1      42.299  25.634  28.539  1.00  0.00     0.034 A 
ATOM     51  C   UNL A   1      43.494  29.301  33.815  1.00  0.00     0.049 A 
ATOM     52  C   UNL A   1      43.422  25.667  29.547  1.00  0.00     0.074 A 
ATOM     53  C   UNL A   1      44.524  29.160  34.730  1.00  0.00     0.029 A 
ATOM     54  N   UNL A   1      43.694  28.329  32.844  1.00  0.00    -0.354 N 
ATOM     55  N   UNL A   1      43.573  26.447  30.593  1.00  0.00    -0.248 NA
ATOM     56  C   UNL A   1      44.509  24.697  29.358  1.00  0.00     0.031 C 
ATOM     57  C   UNL A   1      45.385  28.157  34.272  1.00  0.00     0.029 A 
ATOM     58  C   UNL A   1      44.850  27.613  33.116  1.00  0.00     0.049 A 
ATOM     59  H   UNL A   1      43.102  28.171  32.074  1.00  0.00     0.167 HD
ATOM     60  C   UNL A   1      44.752  26.032  31.207  1.00  0.00     0.074 A 
ATOM     61  C   UNL A   1      45.263  24.927  30.423  1.00  0.00     0.031 C 
ATOM     62  C   UNL A   1      45.354  26.516  32.323  1.00  0.00     0.034 A 
BRANCH  49  63
ATOM     63  C   UNL A   1      42.413  31.337  34.879  1.00  0.00     0.023 A 
ATOM     64  C   UNL A   1      42.823  32.653  34.602  1.00  0.00     0.031 A 
ATOM     65  C   UNL A   1      41.999  31.041  36.191  1.00  0.00     0.131 A 
ATOM     66  C   UNL A   1      42.872  33.604  35.632  1.00  0.00     0.055 A 
ATOM     67  C   UNL A   1      41.976  32.013  37.194  1.00  0.00     0.041 A 
ATOM     68  F   UNL A   1      41.617  29.798  36.523  1.00  0.00    -0.206 F 
ATOM     69  C   UNL A   1      42.427  33.300  36.920  1.00  0.00     0.022 A 
BRANCH  66  70
ATOM     70  S   UNL A   1      43.650  35.208  35.297  1.00  0.00     0.124 S 
ATOM     71  O   UNL A   1      42.487  36.045  35.013  1.00  0.00    -0.237 OA
ATOM     72  O   UNL A   1      44.350  35.487  36.545  1.00  0.00    -0.237 OA
ATOM     73  O   UNL A   1      44.510  34.939  34.146  1.00  0.00    -0.744 OA
ENDBRANCH  66  70
ENDBRANCH  49  63
BRANCH  50  74
ATOM     74  C   UNL A   1      42.327  24.658  27.410  1.00  0.00     0.023 A 
ATOM     75  C   UNL A   1      41.566  23.478  27.459  1.00  0.00     0.031 A 
ATOM     76  C   UNL A   1      43.162  24.855  26.297  1.00  0.00     0.131 A 
ATOM     77  C   UNL A   1      41.698  22.516  26.446  1.00  0.00     0.055 A 
ATOM     78  C   UNL A   1      43.243  23.923  25.260  1.00  0.00     0.041 A 
ATOM     79  F   UNL A   1      43.911  25.965  26.197  1.00  0.00    -0.206 F 
ATOM     80  C   UNL A   1      42.521  22.737  25.340  1.00  0.00     0.022 A 
BRANCH  77  81
ATOM     81  S   UNL A   1      40.858  20.921  26.650  1.00  0.00     0.124 S 
ATOM     82  O   UNL A   1      40.822  20.789  28.102  1.00  0.00    -0.237 OA
ATOM     83  O   UNL A   1      39.579  21.167  25.994  1.00  0.00    -0.237 OA
ATOM     84  O   UNL A   1      41.740  19.982  25.959  1.00  0.00    -0.744 OA
ENDBRANCH  77  81
ENDBRANCH  50  74
BRANCH  62  85
ATOM     85  C   UNL A   1      46.607  25.813  32.789  1.00  0.00     0.023 A 
ATOM     86  C   UNL A   1      46.563  24.733  33.689  1.00  0.00     0.031 A 
ATOM     87  C   UNL A   1      47.866  26.241  32.333  1.00  0.00     0.131 A 
ATOM     88  C   UNL A   1      47.757  24.158  34.149  1.00  0.00     0.055 A 
ATOM     89  C   UNL A   1      49.047  25.623  32.744  1.00  0.00     0.041 A 
ATOM     90  F   UNL A   1      47.969  27.268  31.475  1.00  0.00    -0.206 F 
ATOM     91  C   UNL A   1      48.997  24.583  33.669  1.00  0.00     0.022 A 
BRANCH  88  92
ATOM     92  S   UNL A   1      47.672  22.904  35.458  1.00  0.00     0.124 S 
ATOM     93  O   UNL A   1      48.956  23.079  36.130  1.00  0.00    -0.237 OA
ATOM     94  O   UNL A   1      46.496  23.321  36.215  1.00  0.00    -0.237 OA
ATOM     95  O   UNL A   1      47.521  21.649  34.723  1.00  0.00    -0.744 OA
ENDBRANCH  88  92
ENDBRANCH  62  85
ENDBRANCH  36  37
ENDBRANCH  28  31
ENDBRANCH  26  27
ENDBRANCH  25  26
ENDBRANCH   1  25
TORSDOF 17
ENDMDL
MODEL 3
REMARK VINA RESULT:     -11.8      3.293      4.206
REMARK SMILES O=C(NCCCCCCNC(=O)c1ccc(-c2c3nc(c(-c4cc(S(=O)(=O)[O-])ccc4F)c4ccc([nH]4)c(-c4cc(S(=O)(=O)[O-])ccc4F)c4nc(c(-c5cc(S(=O)(=O)[O-])ccc5F)c5ccc2[nH]5)C=C4)C=C3)cc1)C1=Cc2cc(Cl)c(Cl)cc2O[C@@H]1C(F)(F)F
REMARK SMILES IDX 7 1 6 2 5 3 4 4 3 5 1 6 2 7 76 9 77 10 87 11 78 12 86 13
REMARK SMILES IDX 79 14 85 15 80 16 84 17 81 18 82 19 83 20 88 21 89 22 90 23
REMARK SMILES IDX 91 24 8 25 9 26 10 27 11 28 12 30 13 31 14 32 75 33 15 34
REMARK SMILES IDX 74 35 16 36 17 37 18 38 68 39 19 40 73 41 67 42 69 43 20 44
REMARK SMILES IDX 72 45 66 46 65 47 21 49 53 50 33 51 52 52 34 53 37 54 51 55
REMARK SMILES IDX 70 56 35 57 36 58 50 60 71 61 38 62 22 63 23 64 31 65 24 66
REMARK SMILES IDX 30 67 32 68 29 69 25 70 26 71 27 72 28 73 54 74 55 75 63 76
REMARK SMILES IDX 56 77 62 78 64 79 61 80 57 81 58 82 59 83 60 84 39 85 40 86
REMARK SMILES IDX 48 87 41 88 47 89 49 90 46 91 42 92 43 93 44 94 45 95
REMARK H PARENT 3 8 10 29 69 48 37 59
REMARK Flexibility Score: inf
ROOT
ATOM      1  C   UNL A   1      32.823  30.504  27.599  1.00  0.00     0.002 C 
ENDROOT
BRANCH   1   2
ATOM      2  C   UNL A   1      33.854  29.896  26.642  1.00  0.00     0.002 C 
BRANCH   2   3
ATOM      3  C   UNL A   1      34.189  28.418  26.834  1.00  0.00     0.021 C 
BRANCH   3   4
ATOM      4  C   UNL A   1      33.693  27.462  25.755  1.00  0.00     0.116 C 
BRANCH   4   5
ATOM      5  N   UNL A   1      33.763  27.967  24.394  1.00  0.00    -0.352 N 
ATOM      6  O   UNL A   1      33.041  28.920  22.494  1.00  0.00    -0.270 OA
ATOM      7  C   UNL A   1      32.758  28.397  23.570  1.00  0.00     0.251 C 
ATOM      8  H   UNL A   1      34.667  28.006  24.009  1.00  0.00     0.163 HD
BRANCH   7   9
ATOM      9  C   UNL A   1      31.320  28.342  23.968  1.00  0.00     0.067 C 
ATOM     10  C   UNL A   1      30.706  29.381  24.561  1.00  0.00     0.025 C 
ATOM     11  C   UNL A   1      30.508  27.407  23.101  1.00  0.00     0.314 C 
ATOM     12  C   UNL A   1      29.741  30.038  23.645  1.00  0.00     0.019 A 
ATOM     13  O   UNL A   1      29.726  28.134  22.113  1.00  0.00    -0.475 OA
ATOM     14  C   UNL A   1      29.417  31.380  23.872  1.00  0.00     0.034 A 
ATOM     15  C   UNL A   1      29.388  29.424  22.434  1.00  0.00     0.129 A 
ATOM     16  C   UNL A   1      28.835  32.134  22.850  1.00  0.00     0.060 A 
ATOM     17  C   UNL A   1      28.771  30.169  21.431  1.00  0.00     0.069 A 
ATOM     18  Cl  UNL A   1      28.638  33.828  23.127  1.00  0.00    -0.083 Cl
ATOM     19  C   UNL A   1      28.525  31.532  21.624  1.00  0.00     0.063 A 
ATOM     20  Cl  UNL A   1      27.921  32.432  20.280  1.00  0.00    -0.083 Cl
BRANCH  11  21
ATOM     21  C   UNL A   1      29.620  26.465  23.929  1.00  0.00     0.429 C 
ATOM     22  F   UNL A   1      28.315  26.815  23.845  1.00  0.00    -0.167 F 
ATOM     23  F   UNL A   1      29.710  25.183  23.499  1.00  0.00    -0.167 F 
ATOM     24  F   UNL A   1      29.951  26.465  25.243  1.00  0.00    -0.167 F 
ENDBRANCH  11  21
ENDBRANCH   7   9
ENDBRANCH   4   5
ENDBRANCH   3   4
ENDBRANCH   2   3
ENDBRANCH   1   2
BRANCH   1  25
ATOM     25  C   UNL A   1      32.128  31.796  27.156  1.00  0.00     0.021 C 
BRANCH  25  26
ATOM     26  C   UNL A   1      33.028  32.991  26.851  1.00  0.00     0.116 C 
BRANCH  26  27
ATOM     27  N   UNL A   1      32.694  34.168  27.631  1.00  0.00    -0.352 N 
ATOM     28  C   UNL A   1      33.196  34.611  28.830  1.00  0.00     0.251 C 
ATOM     29  H   UNL A   1      31.997  34.741  27.237  1.00  0.00     0.163 HD
ATOM     30  O   UNL A   1      32.663  35.571  29.379  1.00  0.00    -0.269 OA
BRANCH  28  31
ATOM     31  C   UNL A   1      34.347  33.933  29.480  1.00  0.00     0.039 A 
ATOM     32  C   UNL A   1      35.640  34.347  29.145  1.00  0.00     0.014 A 
ATOM     33  C   UNL A   1      34.173  32.873  30.374  1.00  0.00     0.014 A 
ATOM     34  C   UNL A   1      36.749  33.740  29.742  1.00  0.00     0.010 A 
ATOM     35  C   UNL A   1      35.278  32.313  31.019  1.00  0.00     0.010 A 
ATOM     36  C   UNL A   1      36.578  32.736  30.709  1.00  0.00    -0.014 A 
BRANCH  36  37
ATOM     37  C   UNL A   1      37.750  32.119  31.391  1.00  0.00     0.031 A 
ATOM     38  C   UNL A   1      38.518  31.008  30.725  1.00  0.00     0.074 A 
ATOM     39  C   UNL A   1      38.094  32.527  32.630  1.00  0.00     0.049 A 
ATOM     40  N   UNL A   1      39.527  30.309  31.179  1.00  0.00    -0.248 NA
ATOM     41  C   UNL A   1      38.078  30.615  29.378  1.00  0.00     0.031 C 
ATOM     42  C   UNL A   1      37.412  33.576  33.392  1.00  0.00     0.029 A 
ATOM     43  N   UNL A   1      39.098  32.109  33.470  1.00  0.00    -0.354 N 
ATOM     44  C   UNL A   1      39.830  29.383  30.187  1.00  0.00     0.074 A 
ATOM     45  C   UNL A   1      38.865  29.580  29.125  1.00  0.00     0.031 C 
ATOM     46  C   UNL A   1      38.034  33.738  34.571  1.00  0.00     0.029 A 
ATOM     47  C   UNL A   1      39.126  32.775  34.674  1.00  0.00     0.049 A 
ATOM     48  H   UNL A   1      39.737  31.401  33.232  1.00  0.00     0.167 HD
ATOM     49  C   UNL A   1      40.829  28.466  30.156  1.00  0.00     0.034 A 
ATOM     50  C   UNL A   1      39.931  32.620  35.745  1.00  0.00     0.034 A 
ATOM     51  C   UNL A   1      41.797  28.296  31.213  1.00  0.00     0.049 A 
ATOM     52  C   UNL A   1      41.015  31.571  35.696  1.00  0.00     0.074 A 
ATOM     53  C   UNL A   1      42.891  27.448  31.251  1.00  0.00     0.029 A 
ATOM     54  N   UNL A   1      41.785  28.977  32.423  1.00  0.00    -0.354 N 
ATOM     55  N   UNL A   1      41.322  30.742  34.724  1.00  0.00    -0.248 NA
ATOM     56  C   UNL A   1      41.865  31.441  36.887  1.00  0.00     0.031 C 
ATOM     57  C   UNL A   1      43.492  27.560  32.509  1.00  0.00     0.029 A 
ATOM     58  C   UNL A   1      42.827  28.539  33.227  1.00  0.00     0.049 A 
ATOM     59  H   UNL A   1      41.132  29.669  32.674  1.00  0.00     0.167 HD
ATOM     60  C   UNL A   1      42.426  30.024  35.175  1.00  0.00     0.074 A 
ATOM     61  C   UNL A   1      42.737  30.524  36.497  1.00  0.00     0.031 C 
ATOM     62  C   UNL A   1      43.124  29.042  34.548  1.00  0.00     0.034 A 
BRANCH  49  63
ATOM     63  C   UNL A   1      40.907  27.552  28.955  1.00  0.00     0.023 A 
ATOM     64  C   UNL A   1      41.923  27.671  27.992  1.00  0.00     0.031 A 
ATOM     65  C   UNL A   1      39.942  26.544  28.770  1.00  0.00     0.131 A 
ATOM     66  C   UNL A   1      41.916  26.846  26.858  1.00  0.00     0.055 A 
ATOM     67  C   UNL A   1      39.985  25.674  27.679  1.00  0.00     0.041 A 
ATOM     68  F   UNL A   1      38.934  26.393  29.644  1.00  0.00    -0.206 F 
ATOM     69  C   UNL A   1      40.969  25.831  26.707  1.00  0.00     0.022 A 
BRANCH  66  70
ATOM     70  S   UNL A   1      43.083  27.203  25.516  1.00  0.00     0.124 S 
ATOM     71  O   UNL A   1      42.271  28.039  24.635  1.00  0.00    -0.237 OA
ATOM     72  O   UNL A   1      44.171  27.877  26.214  1.00  0.00    -0.237 OA
ATOM     73  O   UNL A   1      43.407  25.881  24.982  1.00  0.00    -0.744 OA
ENDBRANCH  66  70
ENDBRANCH  49  63
BRANCH  50  74
ATOM     74  C   UNL A   1      39.749  33.461  36.964  1.00  0.00     0.023 A 
ATOM     75  C   UNL A   1      39.116  32.945  38.107  1.00  0.00     0.031 A 
ATOM     76  C   UNL A   1      40.145  34.809  36.985  1.00  0.00     0.131 A 
ATOM     77  C   UNL A   1      38.846  33.785  39.199  1.00  0.00     0.055 A 
ATOM     78  C   UNL A   1      39.930  35.626  38.098  1.00  0.00     0.041 A 
ATOM     79  F   UNL A   1      40.755  35.356  35.920  1.00  0.00    -0.206 F 
ATOM     80  C   UNL A   1      39.261  35.118  39.207  1.00  0.00     0.022 A 
BRANCH  77  81
ATOM     81  S   UNL A   1      37.847  33.135  40.566  1.00  0.00     0.124 S 
ATOM     82  O   UNL A   1      37.268  34.356  41.117  1.00  0.00    -0.237 OA
ATOM     83  O   UNL A   1      36.926  32.244  39.871  1.00  0.00    -0.237 OA
ATOM     84  O   UNL A   1      38.830  32.471  41.420  1.00  0.00    -0.744 OA
ENDBRANCH  77  81
ENDBRANCH  50  74
BRANCH  62  85
ATOM     85  C   UNL A   1      44.328  28.486  35.272  1.00  0.00     0.023 A 
ATOM     86  C   UNL A   1      44.212  27.466  36.232  1.00  0.00     0.031 A 
ATOM     87  C   UNL A   1      45.610  28.997  35.003  1.00  0.00     0.131 A 
ATOM     88  C   UNL A   1      45.349  27.031  36.931  1.00  0.00     0.055 A 
ATOM     89  C   UNL A   1      46.746  28.516  35.655  1.00  0.00     0.041 A 
ATOM     90  F   UNL A   1      45.780  29.974  34.098  1.00  0.00    -0.206 F 
ATOM     91  C   UNL A   1      46.616  27.536  36.635  1.00  0.00     0.022 A 
BRANCH  88  92
ATOM     92  S   UNL A   1      45.136  25.860  38.300  1.00  0.00     0.124 S 
ATOM     93  O   UNL A   1      44.129  26.527  39.118  1.00  0.00    -0.237 OA
ATOM     94  O   UNL A   1      44.697  24.650  37.611  1.00  0.00    -0.237 OA
ATOM     95  O   UNL A   1      46.468  25.782  38.897  1.00  0.00    -0.744 OA
ENDBRANCH  88  92
ENDBRANCH  62  85
ENDBRANCH  36  37
ENDBRANCH  28  31
ENDBRANCH  26  27
ENDBRANCH  25  26
ENDBRANCH   1  25
TORSDOF 17
ENDMDL
