MODEL 1
REMARK VINA RESULT:     -10.5      0.000      0.000
REMARK SMILES COC(=O)C[C@H](NC(=O)N(C)C[C@@H]1CCC[N@H+]1C)C(=O)NCCCCCCNC(=O)c1ccc(-c2c3nc(c(-c4cc(S(=O)(=O)[O-])ccc4F)c4ccc([nH]4)c(-c4cc(S(=O)(=O)[O-])ccc4F)c4nc(c(-c5cc(S(=O)(=O)[O-])ccc5F)c5ccc2[nH]5)C=C4)C=C3)cc1
REMARK SMILES IDX 24 1 23 2 22 3 21 4 19 5 20 6 6 8 5 9 3 10 4 11 2 12 1 13
REMARK SMILES IDX 7 14 8 15 9 17 10 18 11 19 12 20 13 21 14 22 17 23 15 24
REMARK SMILES IDX 16 25 18 26 25 28 26 29 27 30 28 31 29 32 30 34 31 35 32 36
REMARK SMILES IDX 93 37 33 38 92 39 34 40 35 41 36 42 86 43 37 44 91 45 85 46
REMARK SMILES IDX 87 47 38 48 90 49 84 50 83 51 39 53 71 54 51 55 70 56 52 57
REMARK SMILES IDX 55 58 69 59 88 60 53 61 54 62 68 64 89 65 56 66 40 67 41 68
REMARK SMILES IDX 49 69 42 70 48 71 50 72 47 73 43 74 44 75 45 76 46 77 72 78
REMARK SMILES IDX 73 79 81 80 74 81 80 82 82 83 79 84 75 85 76 86 77 87 78 88
REMARK SMILES IDX 57 89 58 90 66 91 59 92 65 93 67 94 64 95 60 96 61 97 62 98
REMARK SMILES IDX 63 99
REMARK H PARENT 21 7 7 16 17 27 28 33 87 52 55 63
REMARK Flexibility Score: inf
ROOT
ATOM      1  C   UNL A   1      32.190  29.947  27.233  1.00  0.00     0.002 C 
ENDROOT
BRANCH   1   2
ATOM      2  C   UNL A   1      33.613  29.515  26.872  1.00  0.00     0.021 C 
BRANCH   2   3
ATOM      3  C   UNL A   1      33.775  28.015  26.634  1.00  0.00     0.116 C 
BRANCH   3   4
ATOM      4  N   UNL A   1      32.544  27.287  26.913  1.00  0.00    -0.354 N 
ATOM      5  C   UNL A   1      31.531  26.881  26.090  1.00  0.00     0.243 C 
ATOM      6  O   UNL A   1      30.657  26.152  26.568  1.00  0.00    -0.273 OA
ATOM      7  H   UNL A   1      32.422  27.045  27.859  1.00  0.00     0.163 HD
BRANCH   5   8
ATOM      8  C   UNL A   1      31.522  27.253  24.595  1.00  0.00     0.184 C 
BRANCH   8   9
ATOM      9  C   UNL A   1      30.097  27.166  24.062  1.00  0.00     0.157 C 
BRANCH   9  10
ATOM     10  C   UNL A   1      29.871  27.998  22.832  1.00  0.00     0.308 C 
ATOM     11  O   UNL A   1      30.516  27.874  21.805  1.00  0.00    -0.252 OA
BRANCH  10  12
ATOM     12  O   UNL A   1      28.801  28.828  22.983  1.00  0.00    -0.469 OA
ATOM     13  C   UNL A   1      29.170  30.167  23.307  1.00  0.00     0.282 C 
ENDBRANCH  10  12
ENDBRANCH   9  10
ENDBRANCH   8   9
BRANCH   8  14
ATOM     14  N   UNL A   1      32.520  26.420  23.937  1.00  0.00    -0.326 N 
ATOM     15  C   UNL A   1      32.957  25.184  24.293  1.00  0.00     0.318 C 
ATOM     16  H   UNL A   1      32.931  26.803  23.129  1.00  0.00     0.166 HD
ATOM     17  O   UNL A   1      34.024  25.092  24.896  1.00  0.00    -0.249 OA
BRANCH  15  18
ATOM     18  N   UNL A   1      32.404  24.148  23.569  1.00  0.00    -0.322 N 
ATOM     19  C   UNL A   1      31.010  23.761  23.661  1.00  0.00     0.149 C 
BRANCH  18  20
ATOM     20  C   UNL A   1      33.285  23.312  22.748  1.00  0.00     0.185 C 
BRANCH  20  21
ATOM     21  C   UNL A   1      34.098  22.215  23.508  1.00  0.00     0.203 C 
ATOM     22  C   UNL A   1      33.339  21.485  24.628  1.00  0.00     0.073 C 
ATOM     23  N   UNL A   1      35.356  22.641  24.169  1.00  0.00    -0.333 N 
ATOM     24  C   UNL A   1      34.372  21.160  25.698  1.00  0.00     0.068 C 
ATOM     25  C   UNL A   1      35.700  21.535  25.078  1.00  0.00     0.262 C 
ATOM     26  C   UNL A   1      36.446  22.857  23.221  1.00  0.00     0.333 C 
ATOM     27  H   UNL A   1      35.225  23.533  24.647  1.00  0.00     0.348 HD
ENDBRANCH  20  21
ENDBRANCH  18  20
ENDBRANCH  15  18
ENDBRANCH   8  14
ENDBRANCH   5   8
ENDBRANCH   3   4
ENDBRANCH   2   3
ENDBRANCH   1   2
BRANCH   1  28
ATOM     28  C   UNL A   1      31.507  30.856  26.205  1.00  0.00     0.002 C 
BRANCH  28  29
ATOM     29  C   UNL A   1      31.475  32.343  26.567  1.00  0.00     0.021 C 
BRANCH  29  30
ATOM     30  C   UNL A   1      32.691  32.841  27.344  1.00  0.00     0.116 C 
BRANCH  30  31
ATOM     31  N   UNL A   1      32.541  34.228  27.751  1.00  0.00    -0.352 N 
ATOM     32  C   UNL A   1      33.146  34.914  28.773  1.00  0.00     0.251 C 
ATOM     33  H   UNL A   1      31.909  34.756  27.210  1.00  0.00     0.163 HD
ATOM     34  O   UNL A   1      32.711  36.019  29.090  1.00  0.00    -0.269 OA
BRANCH  32  35
ATOM     35  C   UNL A   1      34.295  34.328  29.500  1.00  0.00     0.039 A 
ATOM     36  C   UNL A   1      34.045  33.608  30.671  1.00  0.00     0.014 A 
ATOM     37  C   UNL A   1      35.611  34.508  29.063  1.00  0.00     0.014 A 
ATOM     38  C   UNL A   1      35.106  33.032  31.371  1.00  0.00     0.010 A 
ATOM     39  C   UNL A   1      36.661  33.866  29.719  1.00  0.00     0.010 A 
ATOM     40  C   UNL A   1      36.421  33.124  30.883  1.00  0.00    -0.014 A 
BRANCH  40  41
ATOM     41  C   UNL A   1      37.535  32.436  31.592  1.00  0.00     0.031 A 
ATOM     42  C   UNL A   1      38.272  31.296  30.942  1.00  0.00     0.074 A 
ATOM     43  C   UNL A   1      37.874  32.841  32.833  1.00  0.00     0.049 A 
ATOM     44  N   UNL A   1      39.275  30.591  31.403  1.00  0.00    -0.248 NA
ATOM     45  C   UNL A   1      37.812  30.879  29.608  1.00  0.00     0.031 C 
ATOM     46  C   UNL A   1      37.200  33.902  33.586  1.00  0.00     0.029 A 
ATOM     47  N   UNL A   1      38.869  32.419  33.678  1.00  0.00    -0.354 N 
ATOM     48  C   UNL A   1      39.572  29.659  30.415  1.00  0.00     0.074 A 
ATOM     49  C   UNL A   1      38.594  29.839  29.363  1.00  0.00     0.031 C 
ATOM     50  C   UNL A   1      37.822  34.071  34.763  1.00  0.00     0.029 A 
ATOM     51  C   UNL A   1      38.907  33.102  34.874  1.00  0.00     0.049 A 
ATOM     52  H   UNL A   1      39.498  31.696  33.452  1.00  0.00     0.167 HD
ATOM     53  C   UNL A   1      40.587  28.760  30.374  1.00  0.00     0.034 A 
ATOM     54  C   UNL A   1      39.716  32.958  35.942  1.00  0.00     0.034 A 
ATOM     55  C   UNL A   1      41.551  28.585  31.433  1.00  0.00     0.049 A 
ATOM     56  C   UNL A   1      40.814  31.925  35.884  1.00  0.00     0.074 A 
ATOM     57  C   UNL A   1      42.630  27.718  31.485  1.00  0.00     0.029 A 
ATOM     58  N   UNL A   1      41.552  29.286  32.634  1.00  0.00    -0.354 N 
ATOM     59  N   UNL A   1      41.111  31.088  34.917  1.00  0.00    -0.248 NA
ATOM     60  C   UNL A   1      41.696  31.832  37.054  1.00  0.00     0.031 C 
ATOM     61  C   UNL A   1      43.237  27.844  32.740  1.00  0.00     0.029 A 
ATOM     62  C   UNL A   1      42.595  28.851  33.440  1.00  0.00     0.049 A 
ATOM     63  H   UNL A   1      40.907  29.989  32.877  1.00  0.00     0.167 HD
ATOM     64  C   UNL A   1      42.234  30.388  35.355  1.00  0.00     0.074 A 
ATOM     65  C   UNL A   1      42.576  30.928  36.654  1.00  0.00     0.031 C 
ATOM     66  C   UNL A   1      42.917  29.387  34.742  1.00  0.00     0.034 A 
BRANCH  53  67
ATOM     67  C   UNL A   1      40.698  27.890  29.143  1.00  0.00     0.023 A 
ATOM     68  C   UNL A   1      41.675  28.131  28.160  1.00  0.00     0.031 A 
ATOM     69  C   UNL A   1      39.821  26.809  28.943  1.00  0.00     0.131 A 
ATOM     70  C   UNL A   1      41.711  27.347  26.997  1.00  0.00     0.055 A 
ATOM     71  C   UNL A   1      39.915  25.981  27.822  1.00  0.00     0.041 A 
ATOM     72  F   UNL A   1      38.853  26.541  29.833  1.00  0.00    -0.206 F 
ATOM     73  C   UNL A   1      40.856  26.255  26.834  1.00  0.00     0.022 A 
BRANCH  70  74
ATOM     74  S   UNL A   1      42.805  27.855  25.642  1.00  0.00     0.124 S 
ATOM     75  O   UNL A   1      41.892  28.626  24.801  1.00  0.00    -0.237 OA
ATOM     76  O   UNL A   1      43.835  28.619  26.336  1.00  0.00    -0.237 OA
ATOM     77  O   UNL A   1      43.248  26.587  25.067  1.00  0.00    -0.744 OA
ENDBRANCH  70  74
ENDBRANCH  53  67
BRANCH  54  78
ATOM     78  C   UNL A   1      39.513  33.789  37.167  1.00  0.00     0.023 A 
ATOM     79  C   UNL A   1      38.873  33.272  38.304  1.00  0.00     0.031 A 
ATOM     80  C   UNL A   1      39.901  35.142  37.190  1.00  0.00     0.131 A 
ATOM     81  C   UNL A   1      38.579  34.115  39.388  1.00  0.00     0.055 A 
ATOM     82  C   UNL A   1      39.668  35.959  38.298  1.00  0.00     0.041 A 
ATOM     83  F   UNL A   1      40.518  35.690  36.132  1.00  0.00    -0.206 F 
ATOM     84  C   UNL A   1      38.987  35.450  39.398  1.00  0.00     0.022 A 
BRANCH  81  85
ATOM     85  S   UNL A   1      37.544  33.474  40.732  1.00  0.00     0.124 S 
ATOM     86  O   UNL A   1      37.267  34.684  41.497  1.00  0.00    -0.237 OA
ATOM     87  O   UNL A   1      36.417  32.905  40.000  1.00  0.00    -0.237 OA
ATOM     88  O   UNL A   1      38.411  32.501  41.393  1.00  0.00    -0.744 OA
ENDBRANCH  81  85
ENDBRANCH  54  78
BRANCH  66  89
ATOM     89  C   UNL A   1      44.127  28.844  35.468  1.00  0.00     0.023 A 
ATOM     90  C   UNL A   1      44.034  27.750  36.344  1.00  0.00     0.031 A 
ATOM     91  C   UNL A   1      45.383  29.458  35.310  1.00  0.00     0.131 A 
ATOM     92  C   UNL A   1      45.154  27.355  37.092  1.00  0.00     0.055 A 
ATOM     93  C   UNL A   1      46.512  29.009  35.999  1.00  0.00     0.041 A 
ATOM     94  F   UNL A   1      45.535  30.509  34.489  1.00  0.00    -0.206 F 
ATOM     95  C   UNL A   1      46.397  27.965  36.910  1.00  0.00     0.022 A 
BRANCH  92  96
ATOM     96  S   UNL A   1      44.930  26.120  38.402  1.00  0.00     0.124 S 
ATOM     97  O   UNL A   1      44.306  26.910  39.458  1.00  0.00    -0.237 OA
ATOM     98  O   UNL A   1      44.074  25.130  37.756  1.00  0.00    -0.237 OA
ATOM     99  O   UNL A   1      46.292  25.670  38.685  1.00  0.00    -0.744 OA
ENDBRANCH  92  96
ENDBRANCH  66  89
ENDBRANCH  40  41
ENDBRANCH  32  35
ENDBRANCH  30  31
ENDBRANCH  29  30
ENDBRANCH  28  29
ENDBRANCH   1  28
TORSDOF 23
ENDMDL
MODEL 2
REMARK VINA RESULT:     -10.5      1.822      2.374
REMARK SMILES COC(=O)C[C@H](NC(=O)N(C)C[C@@H]1CCC[N@H+]1C)C(=O)NCCCCCCNC(=O)c1ccc(-c2c3nc(c(-c4cc(S(=O)(=O)[O-])ccc4F)c4ccc([nH]4)c(-c4cc(S(=O)(=O)[O-])ccc4F)c4nc(c(-c5cc(S(=O)(=O)[O-])ccc5F)c5ccc2[nH]5)C=C4)C=C3)cc1
REMARK SMILES IDX 24 1 23 2 22 3 21 4 19 5 20 6 6 8 5 9 3 10 4 11 2 12 1 13
REMARK SMILES IDX 7 14 8 15 9 17 10 18 11 19 12 20 13 21 14 22 17 23 15 24
REMARK SMILES IDX 16 25 18 26 25 28 26 29 27 30 28 31 29 32 30 34 31 35 32 36
REMARK SMILES IDX 93 37 33 38 92 39 34 40 35 41 36 42 86 43 37 44 91 45 85 46
REMARK SMILES IDX 87 47 38 48 90 49 84 50 83 51 39 53 71 54 51 55 70 56 52 57
REMARK SMILES IDX 55 58 69 59 88 60 53 61 54 62 68 64 89 65 56 66 40 67 41 68
REMARK SMILES IDX 49 69 42 70 48 71 50 72 47 73 43 74 44 75 45 76 46 77 72 78
REMARK SMILES IDX 73 79 81 80 74 81 80 82 82 83 79 84 75 85 76 86 77 87 78 88
REMARK SMILES IDX 57 89 58 90 66 91 59 92 65 93 67 94 64 95 60 96 61 97 62 98
REMARK SMILES IDX 63 99
REMARK H PARENT 21 7 7 16 17 27 28 33 87 52 55 63
REMARK Flexibility Score: inf
ROOT
ATOM      1  C   UNL A   1      32.667  29.578  26.591  1.00  0.00     0.002 C 
ENDROOT
BRANCH   1   2
ATOM      2  C   UNL A   1      32.633  28.297  25.752  1.00  0.00     0.021 C 
BRANCH   2   3
ATOM      3  C   UNL A   1      32.031  28.473  24.360  1.00  0.00     0.116 C 
BRANCH   3   4
ATOM      4  N   UNL A   1      30.678  27.939  24.283  1.00  0.00    -0.354 N 
ATOM      5  C   UNL A   1      30.217  26.697  23.947  1.00  0.00     0.243 C 
ATOM      6  O   UNL A   1      29.013  26.469  24.096  1.00  0.00    -0.273 OA
ATOM      7  H   UNL A   1      29.974  28.586  24.515  1.00  0.00     0.163 HD
BRANCH   5   8
ATOM      8  C   UNL A   1      31.180  25.591  23.474  1.00  0.00     0.184 C 
BRANCH   8   9
ATOM      9  C   UNL A   1      31.387  25.713  21.969  1.00  0.00     0.157 C 
BRANCH   9  10
ATOM     10  C   UNL A   1      32.735  25.230  21.514  1.00  0.00     0.308 C 
ATOM     11  O   UNL A   1      33.339  24.313  22.043  1.00  0.00    -0.252 OA
BRANCH  10  12
ATOM     12  O   UNL A   1      33.141  25.881  20.388  1.00  0.00    -0.469 OA
ATOM     13  C   UNL A   1      32.563  25.354  19.195  1.00  0.00     0.282 C 
ENDBRANCH  10  12
ENDBRANCH   9  10
ENDBRANCH   8   9
BRANCH   8  14
ATOM     14  N   UNL A   1      30.655  24.323  23.963  1.00  0.00    -0.326 N 
ATOM     15  C   UNL A   1      31.319  23.322  24.597  1.00  0.00     0.318 C 
ATOM     16  H   UNL A   1      29.694  24.173  23.815  1.00  0.00     0.166 HD
ATOM     17  O   UNL A   1      31.661  22.340  23.943  1.00  0.00    -0.249 OA
BRANCH  15  18
ATOM     18  N   UNL A   1      31.153  23.299  25.967  1.00  0.00    -0.322 N 
ATOM     19  C   UNL A   1      30.058  22.618  26.630  1.00  0.00     0.149 C 
BRANCH  18  20
ATOM     20  C   UNL A   1      32.057  24.096  26.802  1.00  0.00     0.185 C 
BRANCH  20  21
ATOM     21  C   UNL A   1      33.586  23.847  26.590  1.00  0.00     0.203 C 
ATOM     22  C   UNL A   1      34.269  24.764  25.562  1.00  0.00     0.073 C 
ATOM     23  N   UNL A   1      33.998  22.487  26.163  1.00  0.00    -0.333 N 
ATOM     24  C   UNL A   1      35.357  23.925  24.905  1.00  0.00     0.068 C 
ATOM     25  C   UNL A   1      35.388  22.640  25.702  1.00  0.00     0.262 C 
ATOM     26  C   UNL A   1      33.944  21.514  27.251  1.00  0.00     0.333 C 
ATOM     27  H   UNL A   1      33.368  22.132  25.443  1.00  0.00     0.348 HD
ENDBRANCH  20  21
ENDBRANCH  18  20
ENDBRANCH  15  18
ENDBRANCH   8  14
ENDBRANCH   5   8
ENDBRANCH   3   4
ENDBRANCH   2   3
ENDBRANCH   1   2
BRANCH   1  28
ATOM     28  C   UNL A   1      31.360  30.377  26.608  1.00  0.00     0.002 C 
BRANCH  28  29
ATOM     29  C   UNL A   1      31.523  31.897  26.514  1.00  0.00     0.021 C 
BRANCH  29  30
ATOM     30  C   UNL A   1      32.793  32.448  27.158  1.00  0.00     0.116 C 
BRANCH  30  31
ATOM     31  N   UNL A   1      32.640  33.839  27.549  1.00  0.00    -0.352 N 
ATOM     32  C   UNL A   1      33.237  34.536  28.568  1.00  0.00     0.251 C 
ATOM     33  H   UNL A   1      32.013  34.362  26.997  1.00  0.00     0.163 HD
ATOM     34  O   UNL A   1      32.801  35.644  28.870  1.00  0.00    -0.269 OA
BRANCH  32  35
ATOM     35  C   UNL A   1      34.379  33.956  29.311  1.00  0.00     0.039 A 
ATOM     36  C   UNL A   1      34.112  33.083  30.368  1.00  0.00     0.014 A 
ATOM     37  C   UNL A   1      35.702  34.289  29.002  1.00  0.00     0.014 A 
ATOM     38  C   UNL A   1      35.168  32.509  31.078  1.00  0.00     0.010 A 
ATOM     39  C   UNL A   1      36.756  33.656  29.661  1.00  0.00     0.010 A 
ATOM     40  C   UNL A   1      36.501  32.761  30.710  1.00  0.00    -0.014 A 
BRANCH  40  41
ATOM     41  C   UNL A   1      37.618  32.081  31.420  1.00  0.00     0.031 A 
ATOM     42  C   UNL A   1      38.355  30.937  30.777  1.00  0.00     0.074 A 
ATOM     43  C   UNL A   1      37.960  32.496  32.657  1.00  0.00     0.049 A 
ATOM     44  N   UNL A   1      39.360  30.238  31.240  1.00  0.00    -0.248 NA
ATOM     45  C   UNL A   1      37.891  30.510  29.448  1.00  0.00     0.031 C 
ATOM     46  C   UNL A   1      37.286  33.562  33.404  1.00  0.00     0.029 A 
ATOM     47  N   UNL A   1      38.959  32.082  33.502  1.00  0.00    -0.354 N 
ATOM     48  C   UNL A   1      39.656  29.299  30.258  1.00  0.00     0.074 A 
ATOM     49  C   UNL A   1      38.674  29.468  29.209  1.00  0.00     0.031 C 
ATOM     50  C   UNL A   1      37.913  33.741  34.578  1.00  0.00     0.029 A 
ATOM     51  C   UNL A   1      39.000  32.775  34.692  1.00  0.00     0.049 A 
ATOM     52  H   UNL A   1      39.588  31.358  33.279  1.00  0.00     0.167 HD
ATOM     53  C   UNL A   1      40.673  28.401  30.220  1.00  0.00     0.034 A 
ATOM     54  C   UNL A   1      39.812  32.641  35.759  1.00  0.00     0.034 A 
ATOM     55  C   UNL A   1      41.640  28.236  31.278  1.00  0.00     0.049 A 
ATOM     56  C   UNL A   1      40.912  31.609  35.706  1.00  0.00     0.074 A 
ATOM     57  C   UNL A   1      42.721  27.371  31.334  1.00  0.00     0.029 A 
ATOM     58  N   UNL A   1      41.644  28.946  32.473  1.00  0.00    -0.354 N 
ATOM     59  N   UNL A   1      41.208  30.765  34.744  1.00  0.00    -0.248 NA
ATOM     60  C   UNL A   1      41.797  31.527  36.873  1.00  0.00     0.031 C 
ATOM     61  C   UNL A   1      43.332  27.508  32.585  1.00  0.00     0.029 A 
ATOM     62  C   UNL A   1      42.690  28.519  33.280  1.00  0.00     0.049 A 
ATOM     63  H   UNL A   1      40.999  29.650  32.713  1.00  0.00     0.167 HD
ATOM     64  C   UNL A   1      42.333  30.070  35.183  1.00  0.00     0.074 A 
ATOM     65  C   UNL A   1      42.678  30.621  36.478  1.00  0.00     0.031 C 
ATOM     66  C   UNL A   1      43.015  29.066  34.576  1.00  0.00     0.034 A 
BRANCH  53  67
ATOM     67  C   UNL A   1      40.781  27.521  28.996  1.00  0.00     0.023 A 
ATOM     68  C   UNL A   1      41.734  27.775  27.993  1.00  0.00     0.031 A 
ATOM     69  C   UNL A   1      39.926  26.419  28.823  1.00  0.00     0.131 A 
ATOM     70  C   UNL A   1      41.767  26.981  26.837  1.00  0.00     0.055 A 
ATOM     71  C   UNL A   1      40.018  25.582  27.708  1.00  0.00     0.041 A 
ATOM     72  F   UNL A   1      38.981  26.138  29.733  1.00  0.00    -0.206 F 
ATOM     73  C   UNL A   1      40.934  25.868  26.700  1.00  0.00     0.022 A 
BRANCH  70  74
ATOM     74  S   UNL A   1      42.824  27.501  25.457  1.00  0.00     0.124 S 
ATOM     75  O   UNL A   1      42.944  26.259  24.696  1.00  0.00    -0.237 OA
ATOM     76  O   UNL A   1      42.036  28.559  24.836  1.00  0.00    -0.237 OA
ATOM     77  O   UNL A   1      44.053  27.940  26.115  1.00  0.00    -0.744 OA
ENDBRANCH  70  74
ENDBRANCH  53  67
BRANCH  54  78
ATOM     78  C   UNL A   1      39.612  33.480  36.978  1.00  0.00     0.023 A 
ATOM     79  C   UNL A   1      40.371  34.640  37.201  1.00  0.00     0.031 A 
ATOM     80  C   UNL A   1      38.698  33.093  37.976  1.00  0.00     0.131 A 
ATOM     81  C   UNL A   1      40.253  35.333  38.416  1.00  0.00     0.055 A 
ATOM     82  C   UNL A   1      38.534  33.825  39.153  1.00  0.00     0.041 A 
ATOM     83  F   UNL A   1      37.944  31.995  37.817  1.00  0.00    -0.206 F 
ATOM     84  C   UNL A   1      39.328  34.942  39.386  1.00  0.00     0.022 A 
BRANCH  81  85
ATOM     85  S   UNL A   1      41.417  36.680  38.765  1.00  0.00     0.124 S 
ATOM     86  O   UNL A   1      42.020  36.898  37.455  1.00  0.00    -0.237 OA
ATOM     87  O   UNL A   1      40.526  37.732  39.245  1.00  0.00    -0.237 OA
ATOM     88  O   UNL A   1      42.305  36.109  39.775  1.00  0.00    -0.744 OA
ENDBRANCH  81  85
ENDBRANCH  54  78
BRANCH  66  89
ATOM     89  C   UNL A   1      44.229  28.531  35.302  1.00  0.00     0.023 A 
ATOM     90  C   UNL A   1      44.131  27.485  36.235  1.00  0.00     0.031 A 
ATOM     91  C   UNL A   1      45.496  29.104  35.086  1.00  0.00     0.131 A 
ATOM     92  C   UNL A   1      45.258  27.101  36.978  1.00  0.00     0.055 A 
ATOM     93  C   UNL A   1      46.629  28.664  35.772  1.00  0.00     0.041 A 
ATOM     94  F   UNL A   1      45.653  30.108  34.208  1.00  0.00    -0.206 F 
ATOM     95  C   UNL A   1      46.510  27.670  36.738  1.00  0.00     0.022 A 
BRANCH  92  96
ATOM     96  S   UNL A   1      45.035  25.939  38.354  1.00  0.00     0.124 S 
ATOM     97  O   UNL A   1      44.076  26.649  39.195  1.00  0.00    -0.237 OA
ATOM     98  O   UNL A   1      44.532  24.748  37.679  1.00  0.00    -0.237 OA
ATOM     99  O   UNL A   1      46.379  25.813  38.916  1.00  0.00    -0.744 OA
ENDBRANCH  92  96
ENDBRANCH  66  89
ENDBRANCH  40  41
ENDBRANCH  32  35
ENDBRANCH  30  31
ENDBRANCH  29  30
ENDBRANCH  28  29
ENDBRANCH   1  28
TORSDOF 23
ENDMDL
MODEL 3
REMARK VINA RESULT:     -10.4      2.094      7.540
REMARK SMILES COC(=O)C[C@H](NC(=O)N(C)C[C@@H]1CCC[N@H+]1C)C(=O)NCCCCCCNC(=O)c1ccc(-c2c3nc(c(-c4cc(S(=O)(=O)[O-])ccc4F)c4ccc([nH]4)c(-c4cc(S(=O)(=O)[O-])ccc4F)c4nc(c(-c5cc(S(=O)(=O)[O-])ccc5F)c5ccc2[nH]5)C=C4)C=C3)cc1
REMARK SMILES IDX 24 1 23 2 22 3 21 4 19 5 20 6 6 8 5 9 3 10 4 11 2 12 1 13
REMARK SMILES IDX 7 14 8 15 9 17 10 18 11 19 12 20 13 21 14 22 17 23 15 24
REMARK SMILES IDX 16 25 18 26 25 28 26 29 27 30 28 31 29 32 30 34 31 35 32 36
REMARK SMILES IDX 93 37 33 38 92 39 34 40 35 41 36 42 86 43 37 44 91 45 85 46
REMARK SMILES IDX 87 47 38 48 90 49 84 50 83 51 39 53 71 54 51 55 70 56 52 57
REMARK SMILES IDX 55 58 69 59 88 60 53 61 54 62 68 64 89 65 56 66 40 67 41 68
REMARK SMILES IDX 49 69 42 70 48 71 50 72 47 73 43 74 44 75 45 76 46 77 72 78
REMARK SMILES IDX 73 79 81 80 74 81 80 82 82 83 79 84 75 85 76 86 77 87 78 88
REMARK SMILES IDX 57 89 58 90 66 91 59 92 65 93 67 94 64 95 60 96 61 97 62 98
REMARK SMILES IDX 63 99
REMARK H PARENT 21 7 7 16 17 27 28 33 87 52 55 63
REMARK Flexibility Score: inf
ROOT
ATOM      1  C   UNL A   1      31.816  29.529  27.159  1.00  0.00     0.002 C 
ENDROOT
BRANCH   1   2
ATOM      2  C   UNL A   1      33.159  28.805  27.033  1.00  0.00     0.021 C 
BRANCH   2   3
ATOM      3  C   UNL A   1      33.167  27.664  26.019  1.00  0.00     0.116 C 
BRANCH   3   4
ATOM      4  N   UNL A   1      31.830  27.132  25.792  1.00  0.00    -0.354 N 
ATOM      5  C   UNL A   1      31.303  26.435  24.740  1.00  0.00     0.243 C 
ATOM      6  O   UNL A   1      30.163  25.980  24.863  1.00  0.00    -0.273 OA
ATOM      7  H   UNL A   1      31.195  27.305  26.524  1.00  0.00     0.163 HD
BRANCH   5   8
ATOM      8  C   UNL A   1      32.136  26.156  23.473  1.00  0.00     0.184 C 
BRANCH   8   9
ATOM      9  C   UNL A   1      31.428  26.752  22.263  1.00  0.00     0.157 C 
BRANCH   9  10
ATOM     10  C   UNL A   1      31.142  28.220  22.407  1.00  0.00     0.308 C 
ATOM     11  O   UNL A   1      31.912  29.012  22.925  1.00  0.00    -0.252 OA
BRANCH  10  12
ATOM     12  O   UNL A   1      29.968  28.559  21.804  1.00  0.00    -0.469 OA
ATOM     13  C   UNL A   1      29.620  29.931  21.983  1.00  0.00     0.282 C 
ENDBRANCH  10  12
ENDBRANCH   9  10
ENDBRANCH   8   9
BRANCH   8  14
ATOM     14  N   UNL A   1      32.400  24.723  23.439  1.00  0.00    -0.326 N 
ATOM     15  C   UNL A   1      33.600  24.085  23.446  1.00  0.00     0.318 C 
ATOM     16  H   UNL A   1      31.606  24.142  23.405  1.00  0.00     0.166 HD
ATOM     17  O   UNL A   1      34.051  23.674  22.379  1.00  0.00    -0.249 OA
BRANCH  15  18
ATOM     18  N   UNL A   1      33.972  23.574  24.673  1.00  0.00    -0.322 N 
ATOM     19  C   UNL A   1      35.108  24.057  25.431  1.00  0.00     0.149 C 
BRANCH  18  20
ATOM     20  C   UNL A   1      33.258  22.405  25.196  1.00  0.00     0.185 C 
BRANCH  20  21
ATOM     21  C   UNL A   1      33.558  21.043  24.488  1.00  0.00     0.203 C 
ATOM     22  C   UNL A   1      32.333  20.156  24.216  1.00  0.00     0.073 C 
ATOM     23  N   UNL A   1      34.504  20.123  25.165  1.00  0.00    -0.333 N 
ATOM     24  C   UNL A   1      32.815  18.718  24.346  1.00  0.00     0.068 C 
ATOM     25  C   UNL A   1      34.316  18.827  24.492  1.00  0.00     0.262 C 
ATOM     26  C   UNL A   1      35.895  20.548  25.035  1.00  0.00     0.333 C 
ATOM     27  H   UNL A   1      34.318  20.091  26.167  1.00  0.00     0.348 HD
ENDBRANCH  20  21
ENDBRANCH  18  20
ENDBRANCH  15  18
ENDBRANCH   8  14
ENDBRANCH   5   8
ENDBRANCH   3   4
ENDBRANCH   2   3
ENDBRANCH   1   2
BRANCH   1  28
ATOM     28  C   UNL A   1      31.618  30.702  26.192  1.00  0.00     0.002 C 
BRANCH  28  29
ATOM     29  C   UNL A   1      31.479  32.076  26.852  1.00  0.00     0.021 C 
BRANCH  29  30
ATOM     30  C   UNL A   1      32.759  32.907  26.882  1.00  0.00     0.116 C 
BRANCH  30  31
ATOM     31  N   UNL A   1      32.592  34.130  27.647  1.00  0.00    -0.352 N 
ATOM     32  C   UNL A   1      33.199  34.529  28.811  1.00  0.00     0.251 C 
ATOM     33  H   UNL A   1      31.944  34.772  27.273  1.00  0.00     0.163 HD
ATOM     34  O   UNL A   1      32.751  35.500  29.416  1.00  0.00    -0.269 OA
BRANCH  32  35
ATOM     35  C   UNL A   1      34.367  33.792  29.343  1.00  0.00     0.039 A 
ATOM     36  C   UNL A   1      35.647  34.236  29.003  1.00  0.00     0.014 A 
ATOM     37  C   UNL A   1      34.216  32.652  30.140  1.00  0.00     0.014 A 
ATOM     38  C   UNL A   1      36.768  33.570  29.501  1.00  0.00     0.010 A 
ATOM     39  C   UNL A   1      35.335  32.035  30.700  1.00  0.00     0.010 A 
ATOM     40  C   UNL A   1      36.625  32.484  30.383  1.00  0.00    -0.014 A 
BRANCH  40  41
ATOM     41  C   UNL A   1      37.825  31.833  30.974  1.00  0.00     0.031 A 
ATOM     42  C   UNL A   1      38.290  32.188  32.361  1.00  0.00     0.074 A 
ATOM     43  C   UNL A   1      38.502  30.920  30.247  1.00  0.00     0.049 A 
ATOM     44  N   UNL A   1      39.303  31.712  33.040  1.00  0.00    -0.248 NA
ATOM     45  C   UNL A   1      37.529  33.228  33.071  1.00  0.00     0.031 C 
ATOM     46  C   UNL A   1      38.178  30.530  28.872  1.00  0.00     0.029 A 
ATOM     47  N   UNL A   1      39.596  30.152  30.558  1.00  0.00    -0.354 N 
ATOM     48  C   UNL A   1      39.295  32.383  34.258  1.00  0.00     0.074 A 
ATOM     49  C   UNL A   1      38.222  33.353  34.193  1.00  0.00     0.031 C 
ATOM     50  C   UNL A   1      39.029  29.571  28.474  1.00  0.00     0.029 A 
ATOM     51  C   UNL A   1      39.989  29.311  29.540  1.00  0.00     0.049 A 
ATOM     52  H   UNL A   1      40.056  30.196  31.428  1.00  0.00     0.167 HD
ATOM     53  C   UNL A   1      40.086  32.185  35.342  1.00  0.00     0.034 A 
ATOM     54  C   UNL A   1      41.014  28.438  29.469  1.00  0.00     0.034 A 
ATOM     55  C   UNL A   1      41.157  31.220  35.390  1.00  0.00     0.049 A 
ATOM     56  C   UNL A   1      41.902  28.264  30.677  1.00  0.00     0.074 A 
ATOM     57  C   UNL A   1      42.007  30.925  36.444  1.00  0.00     0.029 A 
ATOM     58  N   UNL A   1      41.535  30.394  34.338  1.00  0.00    -0.354 N 
ATOM     59  N   UNL A   1      41.844  28.871  31.839  1.00  0.00    -0.248 NA
ATOM     60  C   UNL A   1      42.978  27.273  30.567  1.00  0.00     0.031 C 
ATOM     61  C   UNL A   1      42.938  29.976  36.007  1.00  0.00     0.029 A 
ATOM     62  C   UNL A   1      42.619  29.612  34.709  1.00  0.00     0.049 A 
ATOM     63  H   UNL A   1      41.097  30.368  33.456  1.00  0.00     0.167 HD
ATOM     64  C   UNL A   1      42.862  28.313  32.609  1.00  0.00     0.074 A 
ATOM     65  C   UNL A   1      43.491  27.299  31.787  1.00  0.00     0.031 C 
ATOM     66  C   UNL A   1      43.248  28.614  33.875  1.00  0.00     0.034 A 
BRANCH  53  67
ATOM     67  C   UNL A   1      39.824  33.039  36.561  1.00  0.00     0.023 A 
ATOM     68  C   UNL A   1      40.561  34.213  36.806  1.00  0.00     0.031 A 
ATOM     69  C   UNL A   1      38.833  32.683  37.491  1.00  0.00     0.131 A 
ATOM     70  C   UNL A   1      40.340  34.949  37.980  1.00  0.00     0.055 A 
ATOM     71  C   UNL A   1      38.562  33.464  38.616  1.00  0.00     0.041 A 
ATOM     72  F   UNL A   1      38.112  31.563  37.326  1.00  0.00    -0.206 F 
ATOM     73  C   UNL A   1      39.326  34.599  38.874  1.00  0.00     0.022 A 
BRANCH  70  74
ATOM     74  S   UNL A   1      41.485  36.296  38.387  1.00  0.00     0.124 S 
ATOM     75  O   UNL A   1      42.318  35.673  39.413  1.00  0.00    -0.237 OA
ATOM     76  O   UNL A   1      42.134  36.557  37.108  1.00  0.00    -0.237 OA
ATOM     77  O   UNL A   1      40.605  37.358  38.869  1.00  0.00    -0.744 OA
ENDBRANCH  70  74
ENDBRANCH  53  67
BRANCH  54  78
ATOM     78  C   UNL A   1      41.278  27.677  28.212  1.00  0.00     0.023 A 
ATOM     79  C   UNL A   1      40.945  26.318  28.095  1.00  0.00     0.031 A 
ATOM     80  C   UNL A   1      41.933  28.287  27.126  1.00  0.00     0.131 A 
ATOM     81  C   UNL A   1      41.326  25.598  26.951  1.00  0.00     0.055 A 
ATOM     82  C   UNL A   1      42.248  27.584  25.962  1.00  0.00     0.041 A 
ATOM     83  F   UNL A   1      42.275  29.584  27.180  1.00  0.00    -0.206 F 
ATOM     84  C   UNL A   1      41.960  26.226  25.878  1.00  0.00     0.022 A 
BRANCH  81  85
ATOM     85  S   UNL A   1      41.092  23.799  26.938  1.00  0.00     0.124 S 
ATOM     86  O   UNL A   1      42.058  23.382  25.928  1.00  0.00    -0.237 OA
ATOM     87  O   UNL A   1      41.411  23.443  28.317  1.00  0.00    -0.237 OA
ATOM     88  O   UNL A   1      39.689  23.642  26.564  1.00  0.00    -0.744 OA
ENDBRANCH  81  85
ENDBRANCH  54  78
BRANCH  66  89
ATOM     89  C   UNL A   1      44.383  27.800  34.454  1.00  0.00     0.023 A 
ATOM     90  C   UNL A   1      44.157  26.570  35.096  1.00  0.00     0.031 A 
ATOM     91  C   UNL A   1      45.704  28.281  34.398  1.00  0.00     0.131 A 
ATOM     92  C   UNL A   1      45.219  25.905  35.728  1.00  0.00     0.055 A 
ATOM     93  C   UNL A   1      46.768  27.575  34.961  1.00  0.00     0.041 A 
ATOM     94  F   UNL A   1      45.982  29.451  33.800  1.00  0.00    -0.206 F 
ATOM     95  C   UNL A   1      46.526  26.390  35.647  1.00  0.00     0.022 A 
BRANCH  92  96
ATOM     96  S   UNL A   1      44.845  24.467  36.769  1.00  0.00     0.124 S 
ATOM     97  O   UNL A   1      43.939  23.705  35.916  1.00  0.00    -0.237 OA
ATOM     98  O   UNL A   1      46.165  23.882  36.980  1.00  0.00    -0.237 OA
ATOM     99  O   UNL A   1      44.231  25.055  37.958  1.00  0.00    -0.744 OA
ENDBRANCH  92  96
ENDBRANCH  66  89
ENDBRANCH  40  41
ENDBRANCH  32  35
ENDBRANCH  30  31
ENDBRANCH  29  30
ENDBRANCH  28  29
ENDBRANCH   1  28
TORSDOF 23
ENDMDL
