MODEL 1
REMARK VINA RESULT:     -12.0      0.000      0.000
REMARK SMILES Cc1cc(Br)cc2c1O[C@H](C(F)(F)F)C(C(=O)NCCCCCCNC(=O)c1ccc(-c3c4nc(c(-c5cc(S(=O)(=O)[O-])ccc5F)c5ccc([nH]5)c(-c5cc(S(=O)(=O)[O-])ccc5F)c5nc(c(-c6cc(S(=O)(=O)[O-])ccc6F)c6ccc3[nH]6)C=C5)C=C4)cc1)=C2
REMARK SMILES IDX 22 1 21 2 20 3 19 4 18 5 16 6 17 7 15 9 1 10 2 11 3 12 8 13
REMARK SMILES IDX 4 14 7 15 9 16 5 17 6 18 91 19 10 20 11 21 12 22 13 23 14 24
REMARK SMILES IDX 23 25 24 26 25 27 26 28 27 30 28 31 29 32 90 33 30 34 89 35
REMARK SMILES IDX 31 36 32 37 33 38 83 39 34 40 88 41 82 42 84 43 35 44 87 45
REMARK SMILES IDX 81 46 80 47 36 49 68 50 48 51 67 52 49 53 52 54 66 55 85 56
REMARK SMILES IDX 50 57 51 58 65 60 86 61 53 62 37 63 38 64 46 65 39 66 45 67
REMARK SMILES IDX 47 68 44 69 40 70 41 71 42 72 43 73 69 74 70 75 78 76 71 77
REMARK SMILES IDX 77 78 79 79 76 80 72 81 73 82 74 83 75 84 54 85 55 86 63 87
REMARK SMILES IDX 56 88 62 89 64 90 61 91 57 92 58 93 59 94 60 95
REMARK H PARENT 18 8 25 29 84 48 52 59
REMARK Flexibility Score: inf
ROOT
ATOM      1  C   UNL A   1      31.999  30.122  25.995  1.00  0.00     0.002 C 
ENDROOT
BRANCH   1   2
ATOM      2  C   UNL A   1      33.197  29.351  26.565  1.00  0.00     0.002 C 
BRANCH   2   3
ATOM      3  C   UNL A   1      33.972  28.490  25.562  1.00  0.00     0.021 C 
BRANCH   3   4
ATOM      4  C   UNL A   1      33.823  26.986  25.781  1.00  0.00     0.116 C 
BRANCH   4   5
ATOM      5  N   UNL A   1      33.708  26.267  24.524  1.00  0.00    -0.352 N 
ATOM      6  C   UNL A   1      32.772  26.089  23.564  1.00  0.00     0.251 C 
ATOM      7  O   UNL A   1      33.126  25.377  22.616  1.00  0.00    -0.270 OA
ATOM      8  H   UNL A   1      34.536  25.777  24.314  1.00  0.00     0.163 HD
BRANCH   6   9
ATOM      9  C   UNL A   1      31.395  26.671  23.569  1.00  0.00     0.067 C 
ATOM     10  C   UNL A   1      26.330  27.724  23.743  1.00  0.00     0.048 C 
ATOM     11  C   UNL A   1      27.583  28.461  23.357  1.00  0.00    -0.007 A 
ATOM     12  C   UNL A   1      27.487  29.809  22.981  1.00  0.00     0.023 A 
ATOM     13  C   UNL A   1      28.848  27.859  23.392  1.00  0.00     0.130 A 
ATOM     14  C   UNL A   1      28.634  30.523  22.630  1.00  0.00     0.019 A 
ATOM     15  C   UNL A   1      29.996  28.572  23.034  1.00  0.00     0.019 A 
ATOM     16  O   UNL A   1      28.904  26.539  23.736  1.00  0.00    -0.475 OA
ATOM     17  Br  UNL A   1      28.484  32.336  22.115  1.00  0.00    -0.051 Br
ATOM     18  C   UNL A   1      29.886  29.912  22.652  1.00  0.00     0.027 A 
ATOM     19  C   UNL A   1      31.290  27.902  23.034  1.00  0.00     0.025 C 
ATOM     20  C   UNL A   1      30.185  26.006  24.164  1.00  0.00     0.314 C 
BRANCH  20  21
ATOM     21  C   UNL A   1      30.221  25.966  25.701  1.00  0.00     0.429 C 
ATOM     22  F   UNL A   1      30.580  27.173  26.202  1.00  0.00    -0.167 F 
ATOM     23  F   UNL A   1      29.016  25.671  26.241  1.00  0.00    -0.167 F 
ATOM     24  F   UNL A   1      31.100  25.051  26.172  1.00  0.00    -0.167 F 
ENDBRANCH  20  21
ENDBRANCH   6   9
ENDBRANCH   4   5
ENDBRANCH   3   4
ENDBRANCH   2   3
ENDBRANCH   1   2
BRANCH   1  25
ATOM     25  C   UNL A   1      31.693  31.466  26.662  1.00  0.00     0.021 C 
BRANCH  25  26
ATOM     26  C   UNL A   1      32.896  32.169  27.282  1.00  0.00     0.116 C 
BRANCH  26  27
ATOM     27  N   UNL A   1      32.643  33.577  27.530  1.00  0.00    -0.352 N 
ATOM     28  C   UNL A   1      33.207  34.403  28.473  1.00  0.00     0.251 C 
ATOM     29  H   UNL A   1      31.976  33.999  26.942  1.00  0.00     0.163 HD
ATOM     30  O   UNL A   1      32.753  35.528  28.654  1.00  0.00    -0.269 OA
BRANCH  28  31
ATOM     31  C   UNL A   1      34.341  33.912  29.285  1.00  0.00     0.039 A 
ATOM     32  C   UNL A   1      34.081  33.060  30.360  1.00  0.00     0.014 A 
ATOM     33  C   UNL A   1      35.656  34.273  28.970  1.00  0.00     0.014 A 
ATOM     34  C   UNL A   1      35.146  32.518  31.080  1.00  0.00     0.010 A 
ATOM     35  C   UNL A   1      36.718  33.683  29.652  1.00  0.00     0.010 A 
ATOM     36  C   UNL A   1      36.473  32.798  30.711  1.00  0.00    -0.014 A 
BRANCH  36  37
ATOM     37  C   UNL A   1      37.606  32.160  31.429  1.00  0.00     0.031 A 
ATOM     38  C   UNL A   1      38.376  31.042  30.785  1.00  0.00     0.074 A 
ATOM     39  C   UNL A   1      37.925  32.579  32.669  1.00  0.00     0.049 A 
ATOM     40  N   UNL A   1      39.397  30.370  31.251  1.00  0.00    -0.248 NA
ATOM     41  C   UNL A   1      37.929  30.608  29.452  1.00  0.00     0.031 C 
ATOM     42  C   UNL A   1      37.224  33.630  33.411  1.00  0.00     0.029 A 
ATOM     43  N   UNL A   1      38.927  32.186  33.520  1.00  0.00    -0.354 N 
ATOM     44  C   UNL A   1      39.716  29.438  30.271  1.00  0.00     0.074 A 
ATOM     45  C   UNL A   1      38.742  29.590  29.212  1.00  0.00     0.031 C 
ATOM     46  C   UNL A   1      37.846  33.830  34.584  1.00  0.00     0.029 A 
ATOM     47  C   UNL A   1      38.968  32.903  34.694  1.00  0.00     0.049 A 
ATOM     48  H   UNL A   1      39.556  31.459  33.312  1.00  0.00     0.167 HD
ATOM     49  C   UNL A   1      40.745  28.557  30.244  1.00  0.00     0.034 A 
ATOM     50  C   UNL A   1      39.820  32.830  35.736  1.00  0.00     0.034 A 
ATOM     51  C   UNL A   1      41.722  28.430  31.293  1.00  0.00     0.049 A 
ATOM     52  C   UNL A   1      40.945  31.831  35.692  1.00  0.00     0.074 A 
ATOM     53  C   UNL A   1      42.829  27.601  31.344  1.00  0.00     0.029 A 
ATOM     54  N   UNL A   1      41.712  29.154  32.476  1.00  0.00    -0.354 N 
ATOM     55  N   UNL A   1      41.243  30.971  34.746  1.00  0.00    -0.248 NA
ATOM     56  C   UNL A   1      41.849  31.791  36.851  1.00  0.00     0.031 C 
ATOM     57  C   UNL A   1      43.461  27.789  32.577  1.00  0.00     0.029 A 
ATOM     58  C   UNL A   1      42.779  28.776  33.272  1.00  0.00     0.049 A 
ATOM     59  H   UNL A   1      41.044  29.837  32.715  1.00  0.00     0.167 HD
ATOM     60  C   UNL A   1      42.381  30.305  35.185  1.00  0.00     0.074 A 
ATOM     61  C   UNL A   1      42.717  30.857  36.482  1.00  0.00     0.031 C 
ATOM     62  C   UNL A   1      43.091  29.332  34.564  1.00  0.00     0.034 A 
BRANCH  49  63
ATOM     63  C   UNL A   1      40.864  27.664  29.038  1.00  0.00     0.023 A 
ATOM     64  C   UNL A   1      41.847  27.889  28.058  1.00  0.00     0.031 A 
ATOM     65  C   UNL A   1      39.993  26.575  28.867  1.00  0.00     0.131 A 
ATOM     66  C   UNL A   1      41.902  27.066  26.925  1.00  0.00     0.055 A 
ATOM     67  C   UNL A   1      40.096  25.719  27.769  1.00  0.00     0.041 A 
ATOM     68  F   UNL A   1      39.027  26.326  29.765  1.00  0.00    -0.206 F 
ATOM     69  C   UNL A   1      41.050  25.968  26.784  1.00  0.00     0.022 A 
BRANCH  66  70
ATOM     70  S   UNL A   1      43.051  27.502  25.593  1.00  0.00     0.124 S 
ATOM     71  O   UNL A   1      42.206  28.332  24.739  1.00  0.00    -0.237 OA
ATOM     72  O   UNL A   1      44.117  28.196  26.305  1.00  0.00    -0.237 OA
ATOM     73  O   UNL A   1      43.422  26.207  25.024  1.00  0.00    -0.744 OA
ENDBRANCH  66  70
ENDBRANCH  49  63
BRANCH  50  74
ATOM     74  C   UNL A   1      39.651  33.743  36.898  1.00  0.00     0.023 A 
ATOM     75  C   UNL A   1      39.021  33.303  38.072  1.00  0.00     0.031 A 
ATOM     76  C   UNL A   1      40.127  35.065  36.855  1.00  0.00     0.131 A 
ATOM     77  C   UNL A   1      38.865  34.184  39.152  1.00  0.00     0.055 A 
ATOM     78  C   UNL A   1      39.998  35.928  37.944  1.00  0.00     0.041 A 
ATOM     79  F   UNL A   1      40.748  35.527  35.758  1.00  0.00    -0.206 F 
ATOM     80  C   UNL A   1      39.359  35.490  39.100  1.00  0.00     0.022 A 
BRANCH  77  81
ATOM     81  S   UNL A   1      37.985  33.606  40.629  1.00  0.00     0.124 S 
ATOM     82  O   UNL A   1      37.776  34.852  41.357  1.00  0.00    -0.237 OA
ATOM     83  O   UNL A   1      36.795  32.989  40.053  1.00  0.00    -0.237 OA
ATOM     84  O   UNL A   1      38.929  32.674  41.244  1.00  0.00    -0.744 OA
ENDBRANCH  77  81
ENDBRANCH  50  74
BRANCH  62  85
ATOM     85  C   UNL A   1      44.320  28.815  35.259  1.00  0.00     0.023 A 
ATOM     86  C   UNL A   1      44.264  27.696  36.103  1.00  0.00     0.031 A 
ATOM     87  C   UNL A   1      45.570  29.404  35.002  1.00  0.00     0.131 A 
ATOM     88  C   UNL A   1      45.445  27.202  36.676  1.00  0.00     0.055 A 
ATOM     89  C   UNL A   1      46.745  28.887  35.547  1.00  0.00     0.041 A 
ATOM     90  F   UNL A   1      45.668  30.471  34.193  1.00  0.00    -0.206 F 
ATOM     91  C   UNL A   1      46.686  27.780  36.389  1.00  0.00     0.022 A 
BRANCH  88  92
ATOM     92  S   UNL A   1      45.347  25.779  37.795  1.00  0.00     0.124 S 
ATOM     93  O   UNL A   1      46.443  24.942  37.314  1.00  0.00    -0.237 OA
ATOM     94  O   UNL A   1      45.539  26.387  39.107  1.00  0.00    -0.237 OA
ATOM     95  O   UNL A   1      44.007  25.246  37.553  1.00  0.00    -0.744 OA
ENDBRANCH  88  92
ENDBRANCH  62  85
ENDBRANCH  36  37
ENDBRANCH  28  31
ENDBRANCH  26  27
ENDBRANCH  25  26
ENDBRANCH   1  25
TORSDOF 17
ENDMDL
MODEL 2
REMARK VINA RESULT:     -11.9      1.476      7.622
REMARK SMILES Cc1cc(Br)cc2c1O[C@H](C(F)(F)F)C(C(=O)NCCCCCCNC(=O)c1ccc(-c3c4nc(c(-c5cc(S(=O)(=O)[O-])ccc5F)c5ccc([nH]5)c(-c5cc(S(=O)(=O)[O-])ccc5F)c5nc(c(-c6cc(S(=O)(=O)[O-])ccc6F)c6ccc3[nH]6)C=C5)C=C4)cc1)=C2
REMARK SMILES IDX 22 1 21 2 20 3 19 4 18 5 16 6 17 7 15 9 1 10 2 11 3 12 8 13
REMARK SMILES IDX 4 14 7 15 9 16 5 17 6 18 91 19 10 20 11 21 12 22 13 23 14 24
REMARK SMILES IDX 23 25 24 26 25 27 26 28 27 30 28 31 29 32 90 33 30 34 89 35
REMARK SMILES IDX 31 36 32 37 33 38 83 39 34 40 88 41 82 42 84 43 35 44 87 45
REMARK SMILES IDX 81 46 80 47 36 49 68 50 48 51 67 52 49 53 52 54 66 55 85 56
REMARK SMILES IDX 50 57 51 58 65 60 86 61 53 62 37 63 38 64 46 65 39 66 45 67
REMARK SMILES IDX 47 68 44 69 40 70 41 71 42 72 43 73 69 74 70 75 78 76 71 77
REMARK SMILES IDX 77 78 79 79 76 80 72 81 73 82 74 83 75 84 54 85 55 86 63 87
REMARK SMILES IDX 56 88 62 89 64 90 61 91 57 92 58 93 59 94 60 95
REMARK H PARENT 18 8 25 29 84 48 52 59
REMARK Flexibility Score: inf
ROOT
ATOM      1  C   UNL A   1      31.841  29.715  26.930  1.00  0.00     0.002 C 
ENDROOT
BRANCH   1   2
ATOM      2  C   UNL A   1      33.265  29.207  27.192  1.00  0.00     0.002 C 
BRANCH   2   3
ATOM      3  C   UNL A   1      33.944  28.497  26.017  1.00  0.00     0.021 C 
BRANCH   3   4
ATOM      4  C   UNL A   1      33.760  26.982  26.007  1.00  0.00     0.116 C 
BRANCH   4   5
ATOM      5  N   UNL A   1      33.745  26.448  24.656  1.00  0.00    -0.352 N 
ATOM      6  C   UNL A   1      32.884  26.410  23.614  1.00  0.00     0.251 C 
ATOM      7  O   UNL A   1      33.313  25.839  22.604  1.00  0.00    -0.270 OA
ATOM      8  H   UNL A   1      34.590  25.991  24.442  1.00  0.00     0.163 HD
BRANCH   6   9
ATOM      9  C   UNL A   1      31.506  26.988  23.599  1.00  0.00     0.067 C 
ATOM     10  C   UNL A   1      26.434  28.019  23.527  1.00  0.00     0.048 C 
ATOM     11  C   UNL A   1      27.706  28.802  23.360  1.00  0.00    -0.007 A 
ATOM     12  C   UNL A   1      27.628  30.192  23.190  1.00  0.00     0.023 A 
ATOM     13  C   UNL A   1      28.970  28.197  23.403  1.00  0.00     0.130 A 
ATOM     14  C   UNL A   1      28.792  30.948  23.046  1.00  0.00     0.019 A 
ATOM     15  C   UNL A   1      30.136  28.954  23.252  1.00  0.00     0.019 A 
ATOM     16  O   UNL A   1      29.010  26.840  23.544  1.00  0.00    -0.475 OA
ATOM     17  Br  UNL A   1      28.668  32.819  22.805  1.00  0.00    -0.051 Br
ATOM     18  C   UNL A   1      30.044  30.337  23.073  1.00  0.00     0.027 A 
ATOM     19  C   UNL A   1      31.433  28.287  23.252  1.00  0.00     0.025 C 
ATOM     20  C   UNL A   1      30.259  26.244  23.985  1.00  0.00     0.314 C 
BRANCH  20  21
ATOM     21  C   UNL A   1      30.173  25.967  25.496  1.00  0.00     0.429 C 
ATOM     22  F   UNL A   1      30.982  24.936  25.840  1.00  0.00    -0.167 F 
ATOM     23  F   UNL A   1      30.565  27.026  26.241  1.00  0.00    -0.167 F 
ATOM     24  F   UNL A   1      28.918  25.650  25.891  1.00  0.00    -0.167 F 
ENDBRANCH  20  21
ENDBRANCH   6   9
ENDBRANCH   4   5
ENDBRANCH   3   4
ENDBRANCH   2   3
ENDBRANCH   1   2
BRANCH   1  25
ATOM     25  C   UNL A   1      31.713  31.208  26.615  1.00  0.00     0.021 C 
BRANCH  25  26
ATOM     26  C   UNL A   1      32.966  32.035  26.884  1.00  0.00     0.116 C 
BRANCH  26  27
ATOM     27  N   UNL A   1      32.652  33.383  27.324  1.00  0.00    -0.352 N 
ATOM     28  C   UNL A   1      33.211  34.111  28.347  1.00  0.00     0.251 C 
ATOM     29  H   UNL A   1      31.941  33.840  26.818  1.00  0.00     0.163 HD
ATOM     30  O   UNL A   1      32.708  35.176  28.688  1.00  0.00    -0.269 OA
BRANCH  28  31
ATOM     31  C   UNL A   1      34.400  33.583  29.049  1.00  0.00     0.039 A 
ATOM     32  C   UNL A   1      34.223  32.613  30.037  1.00  0.00     0.014 A 
ATOM     33  C   UNL A   1      35.684  34.028  28.716  1.00  0.00     0.014 A 
ATOM     34  C   UNL A   1      35.340  32.041  30.647  1.00  0.00     0.010 A 
ATOM     35  C   UNL A   1      36.799  33.413  29.283  1.00  0.00     0.010 A 
ATOM     36  C   UNL A   1      36.637  32.411  30.251  1.00  0.00    -0.014 A 
BRANCH  36  37
ATOM     37  C   UNL A   1      37.825  31.747  30.844  1.00  0.00     0.031 A 
ATOM     38  C   UNL A   1      38.244  32.063  32.252  1.00  0.00     0.074 A 
ATOM     39  C   UNL A   1      38.536  30.875  30.103  1.00  0.00     0.049 A 
ATOM     40  N   UNL A   1      39.246  31.580  32.941  1.00  0.00    -0.248 NA
ATOM     41  C   UNL A   1      37.447  33.066  32.974  1.00  0.00     0.031 C 
ATOM     42  C   UNL A   1      38.248  30.519  28.711  1.00  0.00     0.029 A 
ATOM     43  N   UNL A   1      39.636  30.117  30.416  1.00  0.00    -0.354 N 
ATOM     44  C   UNL A   1      39.198  32.216  34.175  1.00  0.00     0.074 A 
ATOM     45  C   UNL A   1      38.107  33.165  34.119  1.00  0.00     0.031 C 
ATOM     46  C   UNL A   1      39.117  29.579  28.308  1.00  0.00     0.029 A 
ATOM     47  C   UNL A   1      40.044  29.288  29.397  1.00  0.00     0.049 A 
ATOM     48  H   UNL A   1      40.091  30.163  31.287  1.00  0.00     0.167 HD
ATOM     49  C   UNL A   1      39.974  32.007  35.266  1.00  0.00     0.034 A 
ATOM     50  C   UNL A   1      41.045  28.386  29.349  1.00  0.00     0.034 A 
ATOM     51  C   UNL A   1      41.044  31.044  35.319  1.00  0.00     0.049 A 
ATOM     52  C   UNL A   1      41.906  28.183  30.566  1.00  0.00     0.074 A 
ATOM     53  C   UNL A   1      41.861  30.723  36.388  1.00  0.00     0.029 A 
ATOM     54  N   UNL A   1      41.443  30.245  34.258  1.00  0.00    -0.354 N 
ATOM     55  N   UNL A   1      41.833  28.781  31.732  1.00  0.00    -0.248 NA
ATOM     56  C   UNL A   1      42.982  27.187  30.465  1.00  0.00     0.031 C 
ATOM     57  C   UNL A   1      42.785  29.764  35.961  1.00  0.00     0.029 A 
ATOM     58  C   UNL A   1      42.507  29.448  34.640  1.00  0.00     0.049 A 
ATOM     59  H   UNL A   1      41.029  30.245  33.364  1.00  0.00     0.167 HD
ATOM     60  C   UNL A   1      42.837  28.216  32.511  1.00  0.00     0.074 A 
ATOM     61  C   UNL A   1      43.507  27.233  31.683  1.00  0.00     0.031 C 
ATOM     62  C   UNL A   1      43.166  28.481  33.798  1.00  0.00     0.034 A 
BRANCH  49  63
ATOM     63  C   UNL A   1      39.692  32.836  36.490  1.00  0.00     0.023 A 
ATOM     64  C   UNL A   1      38.821  32.380  37.495  1.00  0.00     0.031 A 
ATOM     65  C   UNL A   1      40.302  34.091  36.659  1.00  0.00     0.131 A 
ATOM     66  C   UNL A   1      38.544  33.196  38.600  1.00  0.00     0.055 A 
ATOM     67  C   UNL A   1      40.073  34.870  37.795  1.00  0.00     0.041 A 
ATOM     68  F   UNL A   1      41.128  34.580  35.722  1.00  0.00    -0.206 F 
ATOM     69  C   UNL A   1      39.182  34.427  38.770  1.00  0.00     0.022 A 
BRANCH  66  70
ATOM     70  S   UNL A   1      37.271  32.662  39.774  1.00  0.00     0.124 S 
ATOM     71  O   UNL A   1      36.070  32.710  38.944  1.00  0.00    -0.237 OA
ATOM     72  O   UNL A   1      37.729  31.331  40.158  1.00  0.00    -0.237 OA
ATOM     73  O   UNL A   1      37.335  33.670  40.830  1.00  0.00    -0.744 OA
ENDBRANCH  66  70
ENDBRANCH  49  63
BRANCH  50  74
ATOM     74  C   UNL A   1      41.272  27.594  28.109  1.00  0.00     0.023 A 
ATOM     75  C   UNL A   1      40.942  26.231  28.057  1.00  0.00     0.031 A 
ATOM     76  C   UNL A   1      41.812  28.191  26.957  1.00  0.00     0.131 A 
ATOM     77  C   UNL A   1      41.172  25.502  26.881  1.00  0.00     0.055 A 
ATOM     78  C   UNL A   1      42.009  27.470  25.779  1.00  0.00     0.041 A 
ATOM     79  F   UNL A   1      42.131  29.496  26.957  1.00  0.00    -0.206 F 
ATOM     80  C   UNL A   1      41.693  26.115  25.738  1.00  0.00     0.022 A 
BRANCH  77  81
ATOM     81  S   UNL A   1      40.799  23.727  26.867  1.00  0.00     0.124 S 
ATOM     82  O   UNL A   1      39.382  23.725  26.525  1.00  0.00    -0.237 OA
ATOM     83  O   UNL A   1      41.711  23.232  25.840  1.00  0.00    -0.237 OA
ATOM     84  O   UNL A   1      41.114  23.303  28.230  1.00  0.00    -0.744 OA
ENDBRANCH  77  81
ENDBRANCH  50  74
BRANCH  62  85
ATOM     85  C   UNL A   1      44.281  27.681  34.410  1.00  0.00     0.023 A 
ATOM     86  C   UNL A   1      44.036  26.453  35.043  1.00  0.00     0.031 A 
ATOM     87  C   UNL A   1      45.611  28.118  34.281  1.00  0.00     0.131 A 
ATOM     88  C   UNL A   1      45.112  25.703  35.539  1.00  0.00     0.055 A 
ATOM     89  C   UNL A   1      46.679  27.352  34.745  1.00  0.00     0.041 A 
ATOM     90  F   UNL A   1      45.890  29.283  33.675  1.00  0.00    -0.206 F 
ATOM     91  C   UNL A   1      46.433  26.136  35.378  1.00  0.00     0.022 A 
BRANCH  88  92
ATOM     92  S   UNL A   1      44.771  24.137  36.388  1.00  0.00     0.124 S 
ATOM     93  O   UNL A   1      44.390  24.594  37.720  1.00  0.00    -0.237 OA
ATOM     94  O   UNL A   1      43.700  23.561  35.581  1.00  0.00    -0.237 OA
ATOM     95  O   UNL A   1      46.046  23.425  36.316  1.00  0.00    -0.744 OA
ENDBRANCH  88  92
ENDBRANCH  62  85
ENDBRANCH  36  37
ENDBRANCH  28  31
ENDBRANCH  26  27
ENDBRANCH  25  26
ENDBRANCH   1  25
TORSDOF 17
ENDMDL
MODEL 3
REMARK VINA RESULT:     -11.7      5.576      8.385
REMARK SMILES Cc1cc(Br)cc2c1O[C@H](C(F)(F)F)C(C(=O)NCCCCCCNC(=O)c1ccc(-c3c4nc(c(-c5cc(S(=O)(=O)[O-])ccc5F)c5ccc([nH]5)c(-c5cc(S(=O)(=O)[O-])ccc5F)c5nc(c(-c6cc(S(=O)(=O)[O-])ccc6F)c6ccc3[nH]6)C=C5)C=C4)cc1)=C2
REMARK SMILES IDX 22 1 21 2 20 3 19 4 18 5 16 6 17 7 15 9 1 10 2 11 3 12 8 13
REMARK SMILES IDX 4 14 7 15 9 16 5 17 6 18 91 19 10 20 11 21 12 22 13 23 14 24
REMARK SMILES IDX 23 25 24 26 25 27 26 28 27 30 28 31 29 32 90 33 30 34 89 35
REMARK SMILES IDX 31 36 32 37 33 38 83 39 34 40 88 41 82 42 84 43 35 44 87 45
REMARK SMILES IDX 81 46 80 47 36 49 68 50 48 51 67 52 49 53 52 54 66 55 85 56
REMARK SMILES IDX 50 57 51 58 65 60 86 61 53 62 37 63 38 64 46 65 39 66 45 67
REMARK SMILES IDX 47 68 44 69 40 70 41 71 42 72 43 73 69 74 70 75 78 76 71 77
REMARK SMILES IDX 77 78 79 79 76 80 72 81 73 82 74 83 75 84 54 85 55 86 63 87
REMARK SMILES IDX 56 88 62 89 64 90 61 91 57 92 58 93 59 94 60 95
REMARK H PARENT 18 8 25 29 84 48 52 59
REMARK Flexibility Score: inf
ROOT
ATOM      1  C   UNL A   1      35.042  23.146  26.378  1.00  0.00     0.002 C 
ENDROOT
BRANCH   1   2
ATOM      2  C   UNL A   1      33.927  23.043  27.427  1.00  0.00     0.002 C 
BRANCH   2   3
ATOM      3  C   UNL A   1      32.771  22.101  27.079  1.00  0.00     0.021 C 
BRANCH   3   4
ATOM      4  C   UNL A   1      31.536  22.802  26.518  1.00  0.00     0.116 C 
BRANCH   4   5
ATOM      5  N   UNL A   1      31.522  22.793  25.066  1.00  0.00    -0.352 N 
ATOM      6  C   UNL A   1      31.502  23.707  24.068  1.00  0.00     0.251 C 
ATOM      7  O   UNL A   1      31.515  23.232  22.926  1.00  0.00    -0.270 OA
ATOM      8  H   UNL A   1      31.530  21.875  24.713  1.00  0.00     0.163 HD
BRANCH   6   9
ATOM      9  C   UNL A   1      31.467  25.191  24.244  1.00  0.00     0.067 C 
ATOM     10  C   UNL A   1      32.027  30.156  25.594  1.00  0.00     0.048 C 
ATOM     11  C   UNL A   1      31.091  29.364  24.725  1.00  0.00    -0.007 A 
ATOM     12  C   UNL A   1      30.104  30.043  23.997  1.00  0.00     0.023 A 
ATOM     13  C   UNL A   1      31.191  27.972  24.591  1.00  0.00     0.130 A 
ATOM     14  C   UNL A   1      29.229  29.336  23.171  1.00  0.00     0.019 A 
ATOM     15  C   UNL A   1      30.309  27.262  23.769  1.00  0.00     0.019 A 
ATOM     16  O   UNL A   1      32.144  27.337  25.334  1.00  0.00    -0.475 OA
ATOM     17  Br  UNL A   1      27.897  30.268  22.205  1.00  0.00    -0.051 Br
ATOM     18  C   UNL A   1      29.324  27.951  23.056  1.00  0.00     0.027 A 
ATOM     19  C   UNL A   1      30.408  25.810  23.690  1.00  0.00     0.025 C 
ATOM     20  C   UNL A   1      32.533  25.998  24.930  1.00  0.00     0.314 C 
BRANCH  20  21
ATOM     21  C   UNL A   1      33.836  26.081  24.116  1.00  0.00     0.429 C 
ATOM     22  F   UNL A   1      34.235  27.369  23.984  1.00  0.00    -0.167 F 
ATOM     23  F   UNL A   1      34.860  25.422  24.706  1.00  0.00    -0.167 F 
ATOM     24  F   UNL A   1      33.699  25.567  22.872  1.00  0.00    -0.167 F 
ENDBRANCH  20  21
ENDBRANCH   6   9
ENDBRANCH   4   5
ENDBRANCH   3   4
ENDBRANCH   2   3
ENDBRANCH   1   2
BRANCH   1  25
ATOM     25  C   UNL A   1      35.562  21.816  25.826  1.00  0.00     0.021 C 
BRANCH  25  26
ATOM     26  C   UNL A   1      36.878  21.903  25.061  1.00  0.00     0.116 C 
BRANCH  26  27
ATOM     27  N   UNL A   1      37.787  20.822  25.400  1.00  0.00    -0.352 N 
ATOM     28  C   UNL A   1      39.043  20.889  25.952  1.00  0.00     0.251 C 
ATOM     29  H   UNL A   1      37.456  19.914  25.207  1.00  0.00     0.163 HD
ATOM     30  O   UNL A   1      39.740  19.881  26.016  1.00  0.00    -0.269 OA
BRANCH  28  31
ATOM     31  C   UNL A   1      39.556  22.188  26.437  1.00  0.00     0.039 A 
ATOM     32  C   UNL A   1      40.663  22.200  27.287  1.00  0.00     0.014 A 
ATOM     33  C   UNL A   1      38.959  23.388  26.036  1.00  0.00     0.014 A 
ATOM     34  C   UNL A   1      41.214  23.419  27.682  1.00  0.00     0.010 A 
ATOM     35  C   UNL A   1      39.547  24.603  26.382  1.00  0.00     0.010 A 
ATOM     36  C   UNL A   1      40.681  24.630  27.206  1.00  0.00    -0.014 A 
BRANCH  36  37
ATOM     37  C   UNL A   1      41.314  25.925  27.564  1.00  0.00     0.031 A 
ATOM     38  C   UNL A   1      42.698  26.251  27.078  1.00  0.00     0.074 A 
ATOM     39  C   UNL A   1      40.644  26.796  28.344  1.00  0.00     0.049 A 
ATOM     40  N   UNL A   1      43.409  27.330  27.281  1.00  0.00    -0.248 NA
ATOM     41  C   UNL A   1      43.380  25.223  26.277  1.00  0.00     0.031 C 
ATOM     42  C   UNL A   1      39.311  26.572  28.908  1.00  0.00     0.029 A 
ATOM     43  N   UNL A   1      40.983  28.050  28.787  1.00  0.00    -0.354 N 
ATOM     44  C   UNL A   1      44.618  27.114  26.632  1.00  0.00     0.074 A 
ATOM     45  C   UNL A   1      44.569  25.777  26.082  1.00  0.00     0.031 C 
ATOM     46  C   UNL A   1      38.927  27.669  29.579  1.00  0.00     0.029 A 
ATOM     47  C   UNL A   1      39.995  28.661  29.524  1.00  0.00     0.049 A 
ATOM     48  H   UNL A   1      41.851  28.471  28.596  1.00  0.00     0.167 HD
ATOM     49  C   UNL A   1      45.662  27.964  26.483  1.00  0.00     0.034 A 
ATOM     50  C   UNL A   1      39.951  29.888  30.082  1.00  0.00     0.034 A 
ATOM     51  C   UNL A   1      45.692  29.302  27.015  1.00  0.00     0.049 A 
ATOM     52  C   UNL A   1      41.130  30.809  29.920  1.00  0.00     0.074 A 
ATOM     53  C   UNL A   1      46.682  30.259  26.883  1.00  0.00     0.029 A 
ATOM     54  N   UNL A   1      44.685  29.873  27.779  1.00  0.00    -0.354 N 
ATOM     55  N   UNL A   1      42.258  30.593  29.285  1.00  0.00    -0.248 NA
ATOM     56  C   UNL A   1      41.033  32.135  30.545  1.00  0.00     0.031 C 
ATOM     57  C   UNL A   1      46.295  31.392  27.606  1.00  0.00     0.029 A 
ATOM     58  C   UNL A   1      45.038  31.160  28.143  1.00  0.00     0.049 A 
ATOM     59  H   UNL A   1      43.842  29.427  28.026  1.00  0.00     0.167 HD
ATOM     60  C   UNL A   1      42.995  31.765  29.414  1.00  0.00     0.074 A 
ATOM     61  C   UNL A   1      42.188  32.685  30.191  1.00  0.00     0.031 C 
ATOM     62  C   UNL A   1      44.224  32.056  28.924  1.00  0.00     0.034 A 
BRANCH  49  63
ATOM     63  C   UNL A   1      46.857  27.470  25.712  1.00  0.00     0.023 A 
ATOM     64  C   UNL A   1      47.069  27.847  24.375  1.00  0.00     0.031 A 
ATOM     65  C   UNL A   1      47.797  26.620  26.319  1.00  0.00     0.131 A 
ATOM     66  C   UNL A   1      48.167  27.333  23.671  1.00  0.00     0.055 A 
ATOM     67  C   UNL A   1      48.924  26.165  25.633  1.00  0.00     0.041 A 
ATOM     68  F   UNL A   1      47.633  26.216  27.589  1.00  0.00    -0.206 F 
ATOM     69  C   UNL A   1      49.109  26.514  24.298  1.00  0.00     0.022 A 
BRANCH  66  70
ATOM     70  S   UNL A   1      48.301  27.683  21.898  1.00  0.00     0.124 S 
ATOM     71  O   UNL A   1      49.434  28.603  21.867  1.00  0.00    -0.237 OA
ATOM     72  O   UNL A   1      48.536  26.361  21.329  1.00  0.00    -0.237 OA
ATOM     73  O   UNL A   1      47.008  28.281  21.569  1.00  0.00    -0.744 OA
ENDBRANCH  66  70
ENDBRANCH  49  63
BRANCH  50  74
ATOM     74  C   UNL A   1      38.739  30.319  30.830  1.00  0.00     0.023 A 
ATOM     75  C   UNL A   1      37.718  31.039  30.189  1.00  0.00     0.031 A 
ATOM     76  C   UNL A   1      38.580  30.009  32.192  1.00  0.00     0.131 A 
ATOM     77  C   UNL A   1      36.588  31.443  30.917  1.00  0.00     0.055 A 
ATOM     78  C   UNL A   1      37.440  30.385  32.902  1.00  0.00     0.041 A 
ATOM     79  F   UNL A   1      39.525  29.312  32.843  1.00  0.00    -0.206 F 
ATOM     80  C   UNL A   1      36.437  31.111  32.266  1.00  0.00     0.022 A 
BRANCH  77  81
ATOM     81  S   UNL A   1      35.319  32.430  30.078  1.00  0.00     0.124 S 
ATOM     82  O   UNL A   1      34.333  32.608  31.138  1.00  0.00    -0.237 OA
ATOM     83  O   UNL A   1      36.068  33.621  29.688  1.00  0.00    -0.237 OA
ATOM     84  O   UNL A   1      34.899  31.574  28.970  1.00  0.00    -0.744 OA
ENDBRANCH  77  81
ENDBRANCH  50  74
BRANCH  62  85
ATOM     85  C   UNL A   1      44.768  33.433  29.182  1.00  0.00     0.023 A 
ATOM     86  C   UNL A   1      44.513  34.495  28.302  1.00  0.00     0.031 A 
ATOM     87  C   UNL A   1      45.479  33.696  30.367  1.00  0.00     0.131 A 
ATOM     88  C   UNL A   1      44.979  35.781  28.615  1.00  0.00     0.055 A 
ATOM     89  C   UNL A   1      45.909  34.982  30.689  1.00  0.00     0.041 A 
ATOM     90  F   UNL A   1      45.736  32.709  31.240  1.00  0.00    -0.206 F 
ATOM     91  C   UNL A   1      45.659  36.034  29.811  1.00  0.00     0.022 A 
BRANCH  88  92
ATOM     92  S   UNL A   1      44.672  37.133  27.446  1.00  0.00     0.124 S 
ATOM     93  O   UNL A   1      45.817  37.019  26.548  1.00  0.00    -0.237 OA
ATOM     94  O   UNL A   1      43.378  36.776  26.875  1.00  0.00    -0.237 OA
ATOM     95  O   UNL A   1      44.664  38.323  28.295  1.00  0.00    -0.744 OA
ENDBRANCH  88  92
ENDBRANCH  62  85
ENDBRANCH  36  37
ENDBRANCH  28  31
ENDBRANCH  26  27
ENDBRANCH  25  26
ENDBRANCH   1  25
TORSDOF 17
ENDMDL
