MODEL 1
REMARK VINA RESULT:     -10.6      0.000      0.000
REMARK SMILES Cc1c(C(=O)NCCCCCCNC(=O)c2ccc(-c3c4nc(c(-c5cc(S(=O)(=O)[O-])ccc5F)c5ccc([nH]5)c(-c5cc(S(=O)(=O)[O-])ccc5F)c5nc(c(-c6cc(S(=O)(=O)[O-])ccc6F)c6ccc3[nH]6)C=C5)C=C4)cc2)ccc2c1N[C@@H](c1ccc(S(=O)(=O)N3CCOCC3)cc1)[C@@H]1CC=C[C@H]21
REMARK SMILES IDX 9 1 8 2 7 3 6 4 4 5 5 6 3 8 1 9 2 10 82 11 79 12 81 13 83 14
REMARK SMILES IDX 80 15 104 16 84 17 100 19 103 20 101 21 102 22 85 23 86 24
REMARK SMILES IDX 99 25 87 26 98 27 88 28 89 29 90 30 91 31 92 32 93 33 97 34
REMARK SMILES IDX 94 35 96 36 95 37 10 38 11 39 12 40 13 41 14 42 15 44 16 45
REMARK SMILES IDX 17 46 78 47 18 48 77 49 19 50 20 51 21 52 71 53 22 54 76 55
REMARK SMILES IDX 70 56 72 57 23 58 75 59 69 60 68 61 24 63 56 64 36 65 55 66
REMARK SMILES IDX 37 67 40 68 54 69 73 70 38 71 39 72 53 74 74 75 41 76 25 77
REMARK SMILES IDX 26 78 34 79 27 80 33 81 35 82 32 83 28 84 29 85 30 86 31 87
REMARK SMILES IDX 57 88 58 89 66 90 59 91 65 92 67 93 64 94 60 95 61 96 62 97
REMARK SMILES IDX 63 98 42 99 43 100 51 101 44 102 50 103 52 104 49 105 45 106
REMARK SMILES IDX 46 107 47 108 48 109
REMARK H PARENT 6 7 83 18 13 43 72 62 40 73
REMARK Flexibility Score: inf
ROOT
ATOM      1  C   UNL A   1      41.384  27.446  28.456  1.00  0.00     0.002 C 
ENDROOT
BRANCH   1   2
ATOM      2  C   UNL A   1      41.098  28.835  27.875  1.00  0.00     0.021 C 
BRANCH   2   3
ATOM      3  C   UNL A   1      41.420  30.019  28.778  1.00  0.00     0.116 C 
BRANCH   3   4
ATOM      4  N   UNL A   1      41.446  29.720  30.197  1.00  0.00    -0.352 N 
ATOM      5  C   UNL A   1      40.459  29.912  31.141  1.00  0.00     0.251 C 
ATOM      6  O   UNL A   1      40.670  29.584  32.307  1.00  0.00    -0.269 OA
ATOM      7  H   UNL A   1      42.283  29.326  30.532  1.00  0.00     0.163 HD
BRANCH   5   8
ATOM      8  C   UNL A   1      39.184  30.598  30.792  1.00  0.00     0.044 A 
ATOM      9  C   UNL A   1      37.867  28.465  30.297  1.00  0.00     0.047 C 
ATOM     10  C   UNL A   1      38.065  29.958  30.236  1.00  0.00    -0.015 A 
ATOM     11  C   UNL A   1      37.037  30.747  29.683  1.00  0.00     0.042 A 
ATOM     12  C   UNL A   1      39.127  31.974  31.059  1.00  0.00     0.014 A 
ATOM     13  C   UNL A   1      36.944  32.109  30.016  1.00  0.00    -0.017 A 
ATOM     14  N   UNL A   1      36.076  30.160  28.874  1.00  0.00    -0.377 N 
ATOM     15  C   UNL A   1      37.992  32.713  30.724  1.00  0.00     0.007 A 
ATOM     16  C   UNL A   1      35.677  32.876  29.708  1.00  0.00     0.049 C 
ATOM     17  C   UNL A   1      35.229  31.017  28.058  1.00  0.00     0.114 C 
ATOM     18  H   UNL A   1      35.970  29.182  28.851  1.00  0.00     0.161 HD
ATOM     19  C   UNL A   1      34.572  32.067  28.975  1.00  0.00     0.031 C 
ATOM     20  C   UNL A   1      35.849  34.066  28.800  1.00  0.00    -0.023 C 
ATOM     21  C   UNL A   1      33.779  33.143  28.212  1.00  0.00     0.034 C 
ATOM     22  C   UNL A   1      34.797  34.216  27.987  1.00  0.00    -0.030 C 
BRANCH  17  23
ATOM     23  C   UNL A   1      34.262  30.129  27.287  1.00  0.00    -0.025 A 
ATOM     24  C   UNL A   1      34.592  28.812  26.908  1.00  0.00     0.007 A 
ATOM     25  C   UNL A   1      33.026  30.651  26.878  1.00  0.00     0.007 A 
ATOM     26  C   UNL A   1      33.702  28.030  26.166  1.00  0.00     0.022 A 
ATOM     27  C   UNL A   1      32.140  29.877  26.131  1.00  0.00     0.022 A 
ATOM     28  C   UNL A   1      32.465  28.559  25.805  1.00  0.00     0.082 A 
BRANCH  28  29
ATOM     29  S   UNL A   1      31.248  27.518  25.017  1.00  0.00     0.243 S 
ATOM     30  O   UNL A   1      30.677  26.682  26.038  1.00  0.00    -0.207 OA
ATOM     31  O   UNL A   1      30.478  28.359  24.122  1.00  0.00    -0.207 OA
BRANCH  29  32
ATOM     32  N   UNL A   1      32.200  26.565  24.015  1.00  0.00    -0.193 NA
ATOM     33  C   UNL A   1      32.798  27.064  22.770  1.00  0.00     0.131 C 
ATOM     34  C   UNL A   1      32.454  25.152  24.326  1.00  0.00     0.131 C 
ATOM     35  C   UNL A   1      32.542  26.085  21.613  1.00  0.00     0.177 C 
ATOM     36  C   UNL A   1      32.098  24.302  23.105  1.00  0.00     0.177 C 
ATOM     37  O   UNL A   1      32.844  24.721  21.950  1.00  0.00    -0.379 OA
ENDBRANCH  29  32
ENDBRANCH  28  29
ENDBRANCH  17  23
ENDBRANCH   5   8
ENDBRANCH   3   4
ENDBRANCH   2   3
ENDBRANCH   1   2
BRANCH   1  38
ATOM     38  C   UNL A   1      40.185  26.527  28.714  1.00  0.00     0.002 C 
BRANCH  38  39
ATOM     39  C   UNL A   1      40.332  25.054  28.324  1.00  0.00     0.021 C 
BRANCH  39  40
ATOM     40  C   UNL A   1      40.520  24.768  26.838  1.00  0.00     0.116 C 
BRANCH  40  41
ATOM     41  N   UNL A   1      41.242  23.533  26.588  1.00  0.00    -0.352 N 
ATOM     42  C   UNL A   1      42.568  23.346  26.282  1.00  0.00     0.251 C 
ATOM     43  H   UNL A   1      40.704  22.711  26.648  1.00  0.00     0.163 HD
ATOM     44  O   UNL A   1      42.978  22.229  25.981  1.00  0.00    -0.269 OA
BRANCH  42  45
ATOM     45  C   UNL A   1      43.494  24.498  26.293  1.00  0.00     0.039 A 
ATOM     46  C   UNL A   1      44.051  24.902  27.510  1.00  0.00     0.014 A 
ATOM     47  C   UNL A   1      43.805  25.181  25.113  1.00  0.00     0.014 A 
ATOM     48  C   UNL A   1      44.960  25.961  27.536  1.00  0.00     0.010 A 
ATOM     49  C   UNL A   1      44.750  26.204  25.134  1.00  0.00     0.010 A 
ATOM     50  C   UNL A   1      45.329  26.610  26.346  1.00  0.00    -0.014 A 
BRANCH  50  51
ATOM     51  C   UNL A   1      46.296  27.734  26.361  1.00  0.00     0.031 A 
ATOM     52  C   UNL A   1      47.769  27.453  26.289  1.00  0.00     0.074 A 
ATOM     53  C   UNL A   1      45.851  28.999  26.479  1.00  0.00     0.049 A 
ATOM     54  N   UNL A   1      48.768  28.295  26.285  1.00  0.00    -0.248 NA
ATOM     55  C   UNL A   1      48.175  26.038  26.228  1.00  0.00     0.031 C 
ATOM     56  C   UNL A   1      44.446  29.386  26.598  1.00  0.00     0.029 A 
ATOM     57  N   UNL A   1      46.532  30.190  26.525  1.00  0.00    -0.354 N 
ATOM     58  C   UNL A   1      49.917  27.517  26.221  1.00  0.00     0.074 A 
ATOM     59  C   UNL A   1      49.496  26.135  26.245  1.00  0.00     0.031 C 
ATOM     60  C   UNL A   1      44.367  30.722  26.693  1.00  0.00     0.029 A 
ATOM     61  C   UNL A   1      45.715  31.289  26.663  1.00  0.00     0.049 A 
ATOM     62  H   UNL A   1      47.513  30.252  26.466  1.00  0.00     0.167 HD
ATOM     63  C   UNL A   1      51.205  27.922  26.122  1.00  0.00     0.034 A 
ATOM     64  C   UNL A   1      46.016  32.602  26.747  1.00  0.00     0.034 A 
ATOM     65  C   UNL A   1      51.611  29.301  26.083  1.00  0.00     0.049 A 
ATOM     66  C   UNL A   1      47.458  33.030  26.625  1.00  0.00     0.074 A 
ATOM     67  C   UNL A   1      52.889  29.812  25.938  1.00  0.00     0.029 A 
ATOM     68  N   UNL A   1      50.754  30.387  26.183  1.00  0.00    -0.354 N 
ATOM     69  N   UNL A   1      48.528  32.285  26.463  1.00  0.00    -0.248 NA
ATOM     70  C   UNL A   1      47.739  34.473  26.673  1.00  0.00     0.031 C 
ATOM     71  C   UNL A   1      52.810  31.204  25.990  1.00  0.00     0.029 A 
ATOM     72  C   UNL A   1      51.477  31.565  26.116  1.00  0.00     0.049 A 
ATOM     73  H   UNL A   1      49.777  30.328  26.288  1.00  0.00     0.167 HD
ATOM     74  C   UNL A   1      49.599  33.168  26.350  1.00  0.00     0.074 A 
ATOM     75  C   UNL A   1      49.049  34.503  26.453  1.00  0.00     0.031 C 
ATOM     76  C   UNL A   1      50.916  32.893  26.177  1.00  0.00     0.034 A 
BRANCH  63  77
ATOM     77  C   UNL A   1      52.276  26.870  26.013  1.00  0.00     0.023 A 
ATOM     78  C   UNL A   1      53.158  26.644  27.084  1.00  0.00     0.031 A 
ATOM     79  C   UNL A   1      52.485  26.171  24.811  1.00  0.00     0.131 A 
ATOM     80  C   UNL A   1      54.228  25.755  26.922  1.00  0.00     0.055 A 
ATOM     81  C   UNL A   1      53.533  25.261  24.667  1.00  0.00     0.041 A 
ATOM     82  F   UNL A   1      51.664  26.353  23.764  1.00  0.00    -0.206 F 
ATOM     83  C   UNL A   1      54.416  25.057  25.724  1.00  0.00     0.022 A 
BRANCH  80  84
ATOM     84  S   UNL A   1      55.434  25.492  28.250  1.00  0.00     0.124 S 
ATOM     85  O   UNL A   1      54.600  25.613  29.444  1.00  0.00    -0.237 OA
ATOM     86  O   UNL A   1      55.919  24.146  27.959  1.00  0.00    -0.237 OA
ATOM     87  O   UNL A   1      56.402  26.569  28.063  1.00  0.00    -0.744 OA
ENDBRANCH  80  84
ENDBRANCH  63  77
BRANCH  64  88
ATOM     88  C   UNL A   1      44.906  33.594  26.856  1.00  0.00     0.023 A 
ATOM     89  C   UNL A   1      44.339  33.923  28.101  1.00  0.00     0.031 A 
ATOM     90  C   UNL A   1      44.325  34.136  25.698  1.00  0.00     0.131 A 
ATOM     91  C   UNL A   1      43.190  34.725  28.151  1.00  0.00     0.055 A 
ATOM     92  C   UNL A   1      43.220  34.988  25.757  1.00  0.00     0.041 A 
ATOM     93  F   UNL A   1      44.817  33.833  24.487  1.00  0.00    -0.206 F 
ATOM     94  C   UNL A   1      42.639  35.273  26.988  1.00  0.00     0.022 A 
BRANCH  91  95
ATOM     95  S   UNL A   1      42.283  34.966  29.706  1.00  0.00     0.124 S 
ATOM     96  O   UNL A   1      40.952  35.319  29.223  1.00  0.00    -0.237 OA
ATOM     97  O   UNL A   1      42.395  33.647  30.325  1.00  0.00    -0.237 OA
ATOM     98  O   UNL A   1      43.030  36.020  30.384  1.00  0.00    -0.744 OA
ENDBRANCH  91  95
ENDBRANCH  64  88
BRANCH  76  99
ATOM     99  C   UNL A   1      51.888  34.039  26.049  1.00  0.00     0.023 A 
ATOM    100  C   UNL A   1      52.394  34.656  27.209  1.00  0.00     0.031 A 
ATOM    101  C   UNL A   1      52.174  34.622  24.803  1.00  0.00     0.131 A 
ATOM    102  C   UNL A   1      53.123  35.847  27.103  1.00  0.00     0.055 A 
ATOM    103  C   UNL A   1      52.937  35.786  24.700  1.00  0.00     0.041 A 
ATOM    104  F   UNL A   1      51.702  34.075  23.671  1.00  0.00    -0.206 F 
ATOM    105  C   UNL A   1      53.403  36.411  25.854  1.00  0.00     0.022 A 
BRANCH 102 106
ATOM    106  S   UNL A   1      53.667  36.748  28.580  1.00  0.00     0.124 S 
ATOM    107  O   UNL A   1      52.490  37.553  28.897  1.00  0.00    -0.237 OA
ATOM    108  O   UNL A   1      53.950  35.662  29.515  1.00  0.00    -0.237 OA
ATOM    109  O   UNL A   1      54.830  37.502  28.124  1.00  0.00    -0.744 OA
ENDBRANCH 102 106
ENDBRANCH  76  99
ENDBRANCH  50  51
ENDBRANCH  42  45
ENDBRANCH  40  41
ENDBRANCH  39  40
ENDBRANCH  38  39
ENDBRANCH   1  38
TORSDOF 19
ENDMDL
MODEL 2
REMARK VINA RESULT:     -10.5      6.482     15.066
REMARK SMILES Cc1c(C(=O)NCCCCCCNC(=O)c2ccc(-c3c4nc(c(-c5cc(S(=O)(=O)[O-])ccc5F)c5ccc([nH]5)c(-c5cc(S(=O)(=O)[O-])ccc5F)c5nc(c(-c6cc(S(=O)(=O)[O-])ccc6F)c6ccc3[nH]6)C=C5)C=C4)cc2)ccc2c1N[C@@H](c1ccc(S(=O)(=O)N3CCOCC3)cc1)[C@@H]1CC=C[C@H]21
REMARK SMILES IDX 9 1 8 2 7 3 6 4 4 5 5 6 3 8 1 9 2 10 82 11 79 12 81 13 83 14
REMARK SMILES IDX 80 15 104 16 84 17 100 19 103 20 101 21 102 22 85 23 86 24
REMARK SMILES IDX 99 25 87 26 98 27 88 28 89 29 90 30 91 31 92 32 93 33 97 34
REMARK SMILES IDX 94 35 96 36 95 37 10 38 11 39 12 40 13 41 14 42 15 44 16 45
REMARK SMILES IDX 17 46 78 47 18 48 77 49 19 50 20 51 21 52 71 53 22 54 76 55
REMARK SMILES IDX 70 56 72 57 23 58 75 59 69 60 68 61 24 63 56 64 36 65 55 66
REMARK SMILES IDX 37 67 40 68 54 69 73 70 38 71 39 72 53 74 74 75 41 76 25 77
REMARK SMILES IDX 26 78 34 79 27 80 33 81 35 82 32 83 28 84 29 85 30 86 31 87
REMARK SMILES IDX 57 88 58 89 66 90 59 91 65 92 67 93 64 94 60 95 61 96 62 97
REMARK SMILES IDX 63 98 42 99 43 100 51 101 44 102 50 103 52 104 49 105 45 106
REMARK SMILES IDX 46 107 47 108 48 109
REMARK H PARENT 6 7 83 18 13 43 72 62 40 73
REMARK Flexibility Score: inf
ROOT
ATOM      1  C   UNL A   1      45.149  40.061  34.184  1.00  0.00     0.002 C 
ENDROOT
BRANCH   1   2
ATOM      2  C   UNL A   1      45.005  41.573  33.972  1.00  0.00     0.021 C 
BRANCH   2   3
ATOM      3  C   UNL A   1      43.850  42.245  34.704  1.00  0.00     0.116 C 
BRANCH   3   4
ATOM      4  N   UNL A   1      43.556  43.598  34.274  1.00  0.00    -0.352 N 
ATOM      5  C   UNL A   1      43.153  44.045  33.033  1.00  0.00     0.251 C 
ATOM      6  O   UNL A   1      42.944  45.244  32.864  1.00  0.00    -0.269 OA
ATOM      7  H   UNL A   1      43.657  44.294  34.962  1.00  0.00     0.163 HD
BRANCH   5   8
ATOM      8  C   UNL A   1      43.065  43.115  31.872  1.00  0.00     0.044 A 
ATOM      9  C   UNL A   1      45.350  43.706  30.892  1.00  0.00     0.047 C 
ATOM     10  C   UNL A   1      43.977  43.092  30.804  1.00  0.00    -0.015 A 
ATOM     11  C   UNL A   1      43.635  42.382  29.636  1.00  0.00     0.042 A 
ATOM     12  C   UNL A   1      41.994  42.210  31.881  1.00  0.00     0.014 A 
ATOM     13  C   UNL A   1      42.610  41.423  29.675  1.00  0.00    -0.017 A 
ATOM     14  N   UNL A   1      44.362  42.579  28.472  1.00  0.00    -0.377 N 
ATOM     15  C   UNL A   1      41.801  41.331  30.815  1.00  0.00     0.007 A 
ATOM     16  C   UNL A   1      42.460  40.432  28.541  1.00  0.00     0.049 C 
ATOM     17  C   UNL A   1      43.811  42.103  27.212  1.00  0.00     0.114 C 
ATOM     18  H   UNL A   1      45.235  43.033  28.497  1.00  0.00     0.161 HD
ATOM     19  C   UNL A   1      43.462  40.609  27.367  1.00  0.00     0.031 C 
ATOM     20  C   UNL A   1      41.134  40.464  27.828  1.00  0.00    -0.023 C 
ATOM     21  C   UNL A   1      42.714  40.022  26.157  1.00  0.00     0.034 C 
ATOM     22  C   UNL A   1      41.277  40.226  26.519  1.00  0.00    -0.030 C 
BRANCH  17  23
ATOM     23  C   UNL A   1      44.806  42.428  26.107  1.00  0.00    -0.025 A 
ATOM     24  C   UNL A   1      45.875  41.567  25.783  1.00  0.00     0.007 A 
ATOM     25  C   UNL A   1      44.705  43.652  25.428  1.00  0.00     0.007 A 
ATOM     26  C   UNL A   1      46.800  41.907  24.790  1.00  0.00     0.022 A 
ATOM     27  C   UNL A   1      45.629  43.996  24.444  1.00  0.00     0.022 A 
ATOM     28  C   UNL A   1      46.654  43.111  24.104  1.00  0.00     0.082 A 
BRANCH  28  29
ATOM     29  S   UNL A   1      47.714  43.477  22.717  1.00  0.00     0.243 S 
ATOM     30  O   UNL A   1      48.715  44.401  23.178  1.00  0.00    -0.207 OA
ATOM     31  O   UNL A   1      48.004  42.221  22.054  1.00  0.00    -0.207 OA
BRANCH  29  32
ATOM     32  N   UNL A   1      46.671  44.290  21.683  1.00  0.00    -0.193 NA
ATOM     33  C   UNL A   1      45.478  43.664  21.098  1.00  0.00     0.131 C 
ATOM     34  C   UNL A   1      46.926  45.680  21.284  1.00  0.00     0.131 C 
ATOM     35  C   UNL A   1      45.412  43.930  19.586  1.00  0.00     0.177 C 
ATOM     36  C   UNL A   1      46.886  45.775  19.758  1.00  0.00     0.177 C 
ATOM     37  O   UNL A   1      45.626  45.310  19.245  1.00  0.00    -0.379 OA
ENDBRANCH  29  32
ENDBRANCH  28  29
ENDBRANCH  17  23
ENDBRANCH   5   8
ENDBRANCH   3   4
ENDBRANCH   2   3
ENDBRANCH   1   2
BRANCH   1  38
ATOM     38  C   UNL A   1      44.230  39.143  33.371  1.00  0.00     0.002 C 
BRANCH  38  39
ATOM     39  C   UNL A   1      44.321  39.231  31.845  1.00  0.00     0.021 C 
BRANCH  39  40
ATOM     40  C   UNL A   1      44.749  37.958  31.123  1.00  0.00     0.116 C 
BRANCH  40  41
ATOM     41  N   UNL A   1      45.787  38.192  30.134  1.00  0.00    -0.352 N 
ATOM     42  C   UNL A   1      46.334  37.321  29.225  1.00  0.00     0.251 C 
ATOM     43  H   UNL A   1      46.150  39.107  30.112  1.00  0.00     0.163 HD
ATOM     44  O   UNL A   1      47.297  37.667  28.546  1.00  0.00    -0.269 OA
BRANCH  42  45
ATOM     45  C   UNL A   1      45.778  35.959  29.083  1.00  0.00     0.039 A 
ATOM     46  C   UNL A   1      44.853  35.714  28.064  1.00  0.00     0.014 A 
ATOM     47  C   UNL A   1      46.157  34.934  29.954  1.00  0.00     0.014 A 
ATOM     48  C   UNL A   1      44.346  34.425  27.886  1.00  0.00     0.010 A 
ATOM     49  C   UNL A   1      45.689  33.638  29.744  1.00  0.00     0.010 A 
ATOM     50  C   UNL A   1      44.772  33.375  28.715  1.00  0.00    -0.014 A 
BRANCH  50  51
ATOM     51  C   UNL A   1      44.244  32.001  28.534  1.00  0.00     0.031 A 
ATOM     52  C   UNL A   1      42.934  31.616  29.159  1.00  0.00     0.074 A 
ATOM     53  C   UNL A   1      44.960  31.093  27.845  1.00  0.00     0.049 A 
ATOM     54  N   UNL A   1      42.305  30.471  29.113  1.00  0.00    -0.248 NA
ATOM     55  C   UNL A   1      42.246  32.649  29.952  1.00  0.00     0.031 C 
ATOM     56  C   UNL A   1      46.263  31.343  27.231  1.00  0.00     0.029 A 
ATOM     57  N   UNL A   1      44.698  29.778  27.550  1.00  0.00    -0.354 N 
ATOM     58  C   UNL A   1      41.152  30.644  29.867  1.00  0.00     0.074 A 
ATOM     59  C   UNL A   1      41.193  31.984  30.406  1.00  0.00     0.031 C 
ATOM     60  C   UNL A   1      46.683  30.223  26.623  1.00  0.00     0.029 A 
ATOM     61  C   UNL A   1      45.691  29.166  26.820  1.00  0.00     0.049 A 
ATOM     62  H   UNL A   1      43.877  29.316  27.836  1.00  0.00     0.167 HD
ATOM     63  C   UNL A   1      40.136  29.772  30.066  1.00  0.00     0.034 A 
ATOM     64  C   UNL A   1      45.788  27.903  26.356  1.00  0.00     0.034 A 
ATOM     65  C   UNL A   1      40.098  28.446  29.511  1.00  0.00     0.049 A 
ATOM     66  C   UNL A   1      44.640  26.951  26.582  1.00  0.00     0.074 A 
ATOM     67  C   UNL A   1      39.090  27.503  29.619  1.00  0.00     0.029 A 
ATOM     68  N   UNL A   1      41.101  27.875  28.743  1.00  0.00    -0.354 N 
ATOM     69  N   UNL A   1      43.508  27.161  27.213  1.00  0.00    -0.248 NA
ATOM     70  C   UNL A   1      44.765  25.598  26.019  1.00  0.00     0.031 C 
ATOM     71  C   UNL A   1      39.501  26.349  28.950  1.00  0.00     0.029 A 
ATOM     72  C   UNL A   1      40.743  26.588  28.381  1.00  0.00     0.049 A 
ATOM     73  H   UNL A   1      41.944  28.318  28.493  1.00  0.00     0.167 HD
ATOM     74  C   UNL A   1      42.772  25.986  27.088  1.00  0.00     0.074 A 
ATOM     75  C   UNL A   1      43.583  25.069  26.314  1.00  0.00     0.031 C 
ATOM     76  C   UNL A   1      41.538  25.696  27.573  1.00  0.00     0.034 A 
BRANCH  63  77
ATOM     77  C   UNL A   1      38.960  30.224  30.890  1.00  0.00     0.023 A 
ATOM     78  C   UNL A   1      37.944  31.001  30.308  1.00  0.00     0.031 A 
ATOM     79  C   UNL A   1      38.906  29.975  32.273  1.00  0.00     0.131 A 
ATOM     80  C   UNL A   1      36.924  31.522  31.113  1.00  0.00     0.055 A 
ATOM     81  C   UNL A   1      37.869  30.469  33.065  1.00  0.00     0.041 A 
ATOM     82  F   UNL A   1      39.853  29.234  32.871  1.00  0.00    -0.206 F 
ATOM     83  C   UNL A   1      36.877  31.255  32.486  1.00  0.00     0.022 A 
BRANCH  80  84
ATOM     84  S   UNL A   1      35.638  32.593  30.417  1.00  0.00     0.124 S 
ATOM     85  O   UNL A   1      34.535  32.387  31.354  1.00  0.00    -0.237 OA
ATOM     86  O   UNL A   1      36.270  33.907  30.476  1.00  0.00    -0.237 OA
ATOM     87  O   UNL A   1      35.417  32.054  29.079  1.00  0.00    -0.744 OA
ENDBRANCH  80  84
ENDBRANCH  63  77
BRANCH  64  88
ATOM     88  C   UNL A   1      46.983  27.519  25.547  1.00  0.00     0.023 A 
ATOM     89  C   UNL A   1      47.126  27.935  24.210  1.00  0.00     0.031 A 
ATOM     90  C   UNL A   1      47.938  26.632  26.072  1.00  0.00     0.131 A 
ATOM     91  C   UNL A   1      48.169  27.417  23.430  1.00  0.00     0.055 A 
ATOM     92  C   UNL A   1      49.014  26.171  25.310  1.00  0.00     0.041 A 
ATOM     93  F   UNL A   1      47.830  26.191  27.334  1.00  0.00    -0.206 F 
ATOM     94  C   UNL A   1      49.123  26.552  23.977  1.00  0.00     0.022 A 
BRANCH  91  95
ATOM     95  S   UNL A   1      48.244  27.728  21.642  1.00  0.00     0.124 S 
ATOM     96  O   UNL A   1      46.978  28.411  21.404  1.00  0.00    -0.237 OA
ATOM     97  O   UNL A   1      49.438  28.565  21.533  1.00  0.00    -0.237 OA
ATOM     98  O   UNL A   1      48.384  26.396  21.063  1.00  0.00    -0.744 OA
ENDBRANCH  91  95
ENDBRANCH  64  88
BRANCH  76  99
ATOM     99  C   UNL A   1      40.935  24.347  27.270  1.00  0.00     0.023 A 
ATOM    100  C   UNL A   1      39.742  24.268  26.527  1.00  0.00     0.031 A 
ATOM    101  C   UNL A   1      41.437  23.172  27.854  1.00  0.00     0.131 A 
ATOM    102  C   UNL A   1      39.064  23.047  26.424  1.00  0.00     0.055 A 
ATOM    103  C   UNL A   1      40.780  21.949  27.714  1.00  0.00     0.041 A 
ATOM    104  F   UNL A   1      42.564  23.202  28.583  1.00  0.00    -0.206 F 
ATOM    105  C   UNL A   1      39.582  21.885  27.008  1.00  0.00     0.022 A 
BRANCH 102 106
ATOM    106  S   UNL A   1      37.454  22.935  25.598  1.00  0.00     0.124 S 
ATOM    107  O   UNL A   1      37.227  21.492  25.567  1.00  0.00    -0.237 OA
ATOM    108  O   UNL A   1      36.590  23.682  26.508  1.00  0.00    -0.237 OA
ATOM    109  O   UNL A   1      37.681  23.555  24.297  1.00  0.00    -0.744 OA
ENDBRANCH 102 106
ENDBRANCH  76  99
ENDBRANCH  50  51
ENDBRANCH  42  45
ENDBRANCH  40  41
ENDBRANCH  39  40
ENDBRANCH  38  39
ENDBRANCH   1  38
TORSDOF 19
ENDMDL
MODEL 3
REMARK VINA RESULT:     -10.5      4.952      9.463
REMARK SMILES Cc1c(C(=O)NCCCCCCNC(=O)c2ccc(-c3c4nc(c(-c5cc(S(=O)(=O)[O-])ccc5F)c5ccc([nH]5)c(-c5cc(S(=O)(=O)[O-])ccc5F)c5nc(c(-c6cc(S(=O)(=O)[O-])ccc6F)c6ccc3[nH]6)C=C5)C=C4)cc2)ccc2c1N[C@@H](c1ccc(S(=O)(=O)N3CCOCC3)cc1)[C@@H]1CC=C[C@H]21
REMARK SMILES IDX 9 1 8 2 7 3 6 4 4 5 5 6 3 8 1 9 2 10 82 11 79 12 81 13 83 14
REMARK SMILES IDX 80 15 104 16 84 17 100 19 103 20 101 21 102 22 85 23 86 24
REMARK SMILES IDX 99 25 87 26 98 27 88 28 89 29 90 30 91 31 92 32 93 33 97 34
REMARK SMILES IDX 94 35 96 36 95 37 10 38 11 39 12 40 13 41 14 42 15 44 16 45
REMARK SMILES IDX 17 46 78 47 18 48 77 49 19 50 20 51 21 52 71 53 22 54 76 55
REMARK SMILES IDX 70 56 72 57 23 58 75 59 69 60 68 61 24 63 56 64 36 65 55 66
REMARK SMILES IDX 37 67 40 68 54 69 73 70 38 71 39 72 53 74 74 75 41 76 25 77
REMARK SMILES IDX 26 78 34 79 27 80 33 81 35 82 32 83 28 84 29 85 30 86 31 87
REMARK SMILES IDX 57 88 58 89 66 90 59 91 65 92 67 93 64 94 60 95 61 96 62 97
REMARK SMILES IDX 63 98 42 99 43 100 51 101 44 102 50 103 52 104 49 105 45 106
REMARK SMILES IDX 46 107 47 108 48 109
REMARK H PARENT 6 7 83 18 13 43 72 62 40 73
REMARK Flexibility Score: inf
ROOT
ATOM      1  C   UNL A   1      38.493  32.505  37.240  1.00  0.00     0.002 C 
ENDROOT
BRANCH   1   2
ATOM      2  C   UNL A   1      38.722  31.320  36.295  1.00  0.00     0.021 C 
BRANCH   2   3
ATOM      3  C   UNL A   1      38.321  31.534  34.841  1.00  0.00     0.116 C 
BRANCH   3   4
ATOM      4  N   UNL A   1      39.344  31.208  33.867  1.00  0.00    -0.352 N 
ATOM      5  C   UNL A   1      39.337  31.409  32.502  1.00  0.00     0.251 C 
ATOM      6  O   UNL A   1      40.313  31.067  31.839  1.00  0.00    -0.269 OA
ATOM      7  H   UNL A   1      40.155  30.784  34.229  1.00  0.00     0.163 HD
BRANCH   5   8
ATOM      8  C   UNL A   1      38.129  31.940  31.809  1.00  0.00     0.044 A 
ATOM      9  C   UNL A   1      37.031  29.666  31.423  1.00  0.00     0.047 C 
ATOM     10  C   UNL A   1      37.173  31.143  31.160  1.00  0.00    -0.015 A 
ATOM     11  C   UNL A   1      36.244  31.762  30.301  1.00  0.00     0.042 A 
ATOM     12  C   UNL A   1      37.962  33.332  31.833  1.00  0.00     0.014 A 
ATOM     13  C   UNL A   1      36.029  33.148  30.385  1.00  0.00    -0.017 A 
ATOM     14  N   UNL A   1      35.491  30.991  29.429  1.00  0.00    -0.377 N 
ATOM     15  C   UNL A   1      36.887  33.927  31.172  1.00  0.00     0.007 A 
ATOM     16  C   UNL A   1      34.818  33.765  29.720  1.00  0.00     0.049 C 
ATOM     17  C   UNL A   1      34.789  31.651  28.338  1.00  0.00     0.114 C 
ATOM     18  H   UNL A   1      35.433  30.015  29.544  1.00  0.00     0.161 HD
ATOM     19  C   UNL A   1      33.917  32.776  28.929  1.00  0.00     0.031 C 
ATOM     20  C   UNL A   1      35.118  34.814  28.681  1.00  0.00    -0.023 C 
ATOM     21  C   UNL A   1      33.249  33.663  27.865  1.00  0.00     0.034 C 
ATOM     22  C   UNL A   1      34.245  34.762  27.668  1.00  0.00    -0.030 C 
BRANCH  17  23
ATOM     23  C   UNL A   1      34.034  30.588  27.550  1.00  0.00    -0.025 A 
ATOM     24  C   UNL A   1      34.656  29.406  27.100  1.00  0.00     0.007 A 
ATOM     25  C   UNL A   1      32.695  30.814  27.198  1.00  0.00     0.007 A 
ATOM     26  C   UNL A   1      33.952  28.463  26.344  1.00  0.00     0.022 A 
ATOM     27  C   UNL A   1      31.994  29.880  26.439  1.00  0.00     0.022 A 
ATOM     28  C   UNL A   1      32.612  28.693  26.041  1.00  0.00     0.082 A 
BRANCH  28  29
ATOM     29  S   UNL A   1      31.652  27.424  25.235  1.00  0.00     0.243 S 
ATOM     30  O   UNL A   1      31.290  26.461  26.241  1.00  0.00    -0.207 OA
ATOM     31  O   UNL A   1      30.706  28.089  24.362  1.00  0.00    -0.207 OA
BRANCH  29  32
ATOM     32  N   UNL A   1      32.783  26.726  24.210  1.00  0.00    -0.193 NA
ATOM     33  C   UNL A   1      33.215  27.352  22.953  1.00  0.00     0.131 C 
ATOM     34  C   UNL A   1      33.380  25.419  24.513  1.00  0.00     0.131 C 
ATOM     35  C   UNL A   1      33.178  26.336  21.801  1.00  0.00     0.177 C 
ATOM     36  C   UNL A   1      33.214  24.504  23.299  1.00  0.00     0.177 C 
ATOM     37  O   UNL A   1      33.810  25.087  22.127  1.00  0.00    -0.379 OA
ENDBRANCH  29  32
ENDBRANCH  28  29
ENDBRANCH  17  23
ENDBRANCH   5   8
ENDBRANCH   3   4
ENDBRANCH   2   3
ENDBRANCH   1   2
BRANCH   1  38
ATOM     38  C   UNL A   1      39.464  32.670  38.414  1.00  0.00     0.002 C 
BRANCH  38  39
ATOM     39  C   UNL A   1      39.129  33.740  39.457  1.00  0.00     0.021 C 
BRANCH  39  40
ATOM     40  C   UNL A   1      38.532  35.036  38.922  1.00  0.00     0.116 C 
BRANCH  40  41
ATOM     41  N   UNL A   1      39.409  36.179  39.105  1.00  0.00    -0.352 N 
ATOM     42  C   UNL A   1      40.577  36.492  38.454  1.00  0.00     0.251 C 
ATOM     43  H   UNL A   1      39.125  36.823  39.793  1.00  0.00     0.163 HD
ATOM     44  O   UNL A   1      41.254  37.444  38.830  1.00  0.00    -0.269 OA
BRANCH  42  45
ATOM     45  C   UNL A   1      41.030  35.665  37.316  1.00  0.00     0.039 A 
ATOM     46  C   UNL A   1      42.283  35.051  37.387  1.00  0.00     0.014 A 
ATOM     47  C   UNL A   1      40.228  35.504  36.181  1.00  0.00     0.014 A 
ATOM     48  C   UNL A   1      42.713  34.232  36.341  1.00  0.00     0.010 A 
ATOM     49  C   UNL A   1      40.636  34.646  35.161  1.00  0.00     0.010 A 
ATOM     50  C   UNL A   1      41.886  34.012  35.227  1.00  0.00    -0.014 A 
BRANCH  50  51
ATOM     51  C   UNL A   1      42.329  33.142  34.111  1.00  0.00     0.031 A 
ATOM     52  C   UNL A   1      42.566  31.679  34.352  1.00  0.00     0.074 A 
ATOM     53  C   UNL A   1      42.556  33.675  32.896  1.00  0.00     0.049 A 
ATOM     54  N   UNL A   1      42.950  30.758  33.509  1.00  0.00    -0.248 NA
ATOM     55  C   UNL A   1      42.358  31.189  35.725  1.00  0.00     0.031 C 
ATOM     56  C   UNL A   1      42.400  35.089  32.558  1.00  0.00     0.029 A 
ATOM     57  N   UNL A   1      42.973  33.094  31.724  1.00  0.00    -0.354 N 
ATOM     58  C   UNL A   1      43.029  29.582  34.245  1.00  0.00     0.074 A 
ATOM     59  C   UNL A   1      42.708  29.916  35.614  1.00  0.00     0.031 C 
ATOM     60  C   UNL A   1      42.705  35.265  31.263  1.00  0.00     0.029 A 
ATOM     61  C   UNL A   1      43.100  33.983  30.681  1.00  0.00     0.049 A 
ATOM     62  H   UNL A   1      43.163  32.132  31.637  1.00  0.00     0.167 HD
ATOM     63  C   UNL A   1      43.315  28.332  33.810  1.00  0.00     0.034 A 
ATOM     64  C   UNL A   1      43.483  33.787  29.402  1.00  0.00     0.034 A 
ATOM     65  C   UNL A   1      43.616  28.010  32.441  1.00  0.00     0.049 A 
ATOM     66  C   UNL A   1      43.788  32.384  28.937  1.00  0.00     0.074 A 
ATOM     67  C   UNL A   1      43.875  26.765  31.894  1.00  0.00     0.029 A 
ATOM     68  N   UNL A   1      43.696  28.928  31.405  1.00  0.00    -0.354 N 
ATOM     69  N   UNL A   1      43.760  31.265  29.623  1.00  0.00    -0.248 NA
ATOM     70  C   UNL A   1      44.154  32.207  27.524  1.00  0.00     0.031 C 
ATOM     71  C   UNL A   1      44.150  26.935  30.537  1.00  0.00     0.029 A 
ATOM     72  C   UNL A   1      44.012  28.279  30.225  1.00  0.00     0.049 A 
ATOM     73  H   UNL A   1      43.551  29.897  31.496  1.00  0.00     0.167 HD
ATOM     74  C   UNL A   1      44.065  30.250  28.720  1.00  0.00     0.074 A 
ATOM     75  C   UNL A   1      44.265  30.886  27.434  1.00  0.00     0.031 C 
ATOM     76  C   UNL A   1      44.168  28.916  28.939  1.00  0.00     0.034 A 
BRANCH  63  77
ATOM     77  C   UNL A   1      43.284  27.207  34.808  1.00  0.00     0.023 A 
ATOM     78  C   UNL A   1      44.462  26.809  35.463  1.00  0.00     0.031 A 
ATOM     79  C   UNL A   1      42.111  26.463  35.027  1.00  0.00     0.131 A 
ATOM     80  C   UNL A   1      44.446  25.680  36.291  1.00  0.00     0.055 A 
ATOM     81  C   UNL A   1      42.093  25.358  35.878  1.00  0.00     0.041 A 
ATOM     82  F   UNL A   1      40.961  26.809  34.424  1.00  0.00    -0.206 F 
ATOM     83  C   UNL A   1      43.267  24.957  36.508  1.00  0.00     0.022 A 
BRANCH  80  84
ATOM     84  S   UNL A   1      45.959  25.086  37.094  1.00  0.00     0.124 S 
ATOM     85  O   UNL A   1      46.032  25.945  38.275  1.00  0.00    -0.237 OA
ATOM     86  O   UNL A   1      45.636  23.687  37.358  1.00  0.00    -0.237 OA
ATOM     87  O   UNL A   1      47.000  25.319  36.099  1.00  0.00    -0.744 OA
ENDBRANCH  80  84
ENDBRANCH  63  77
BRANCH  64  88
ATOM     88  C   UNL A   1      43.494  34.947  28.463  1.00  0.00     0.023 A 
ATOM     89  C   UNL A   1      44.696  35.581  28.097  1.00  0.00     0.031 A 
ATOM     90  C   UNL A   1      42.285  35.506  28.013  1.00  0.00     0.131 A 
ATOM     91  C   UNL A   1      44.656  36.769  27.353  1.00  0.00     0.055 A 
ATOM     92  C   UNL A   1      42.254  36.652  27.217  1.00  0.00     0.041 A 
ATOM     93  F   UNL A   1      41.114  34.949  28.355  1.00  0.00    -0.206 F 
ATOM     94  C   UNL A   1      43.444  37.297  26.897  1.00  0.00     0.022 A 
BRANCH  91  95
ATOM     95  S   UNL A   1      46.159  37.751  27.076  1.00  0.00     0.124 S 
ATOM     96  O   UNL A   1      45.648  38.859  26.277  1.00  0.00    -0.237 OA
ATOM     97  O   UNL A   1      46.550  38.092  28.443  1.00  0.00    -0.237 OA
ATOM     98  O   UNL A   1      47.061  36.823  26.402  1.00  0.00    -0.744 OA
ENDBRANCH  91  95
ENDBRANCH  64  88
BRANCH  76  99
ATOM     99  C   UNL A   1      44.480  28.008  27.775  1.00  0.00     0.023 A 
ATOM    100  C   UNL A   1      43.458  27.219  27.213  1.00  0.00     0.031 A 
ATOM    101  C   UNL A   1      45.800  27.798  27.342  1.00  0.00     0.131 A 
ATOM    102  C   UNL A   1      43.778  26.224  26.282  1.00  0.00     0.055 A 
ATOM    103  C   UNL A   1      46.109  26.833  26.383  1.00  0.00     0.041 A 
ATOM    104  F   UNL A   1      46.808  28.518  27.860  1.00  0.00    -0.206 F 
ATOM    105  C   UNL A   1      45.098  26.032  25.858  1.00  0.00     0.022 A 
BRANCH 102 106
ATOM    106  S   UNL A   1      42.511  25.093  25.644  1.00  0.00     0.124 S 
ATOM    107  O   UNL A   1      42.028  24.457  26.867  1.00  0.00    -0.237 OA
ATOM    108  O   UNL A   1      41.573  26.012  25.007  1.00  0.00    -0.237 OA
ATOM    109  O   UNL A   1      43.245  24.216  24.738  1.00  0.00    -0.744 OA
ENDBRANCH 102 106
ENDBRANCH  76  99
ENDBRANCH  50  51
ENDBRANCH  42  45
ENDBRANCH  40  41
ENDBRANCH  39  40
ENDBRANCH  38  39
ENDBRANCH   1  38
TORSDOF 19
ENDMDL
