MODEL 1
REMARK VINA RESULT:     -12.0      0.000      0.000
REMARK SMILES C[C@@H]1[NH2+]CC[C@@H]1C(=O)Nc1cc(F)ccc1C(=O)NCCCCCCNC(=O)c1ccc(-c2c3nc(c(-c4cc(S(=O)(=O)[O-])ccc4F)c4ccc([nH]4)c(-c4cc(S(=O)(=O)[O-])ccc4F)c4nc(c(-c5cc(S(=O)(=O)[O-])ccc5F)c5ccc2[nH]5)C=C4)C=C3)cc1
REMARK SMILES IDX 23 1 22 2 21 3 20 4 19 5 17 6 18 7 16 9 10 10 11 11 12 12
REMARK SMILES IDX 15 13 13 14 14 15 9 16 7 17 8 18 6 20 1 21 2 22 3 23 4 24
REMARK SMILES IDX 5 27 24 28 25 29 26 30 27 31 28 33 29 34 30 35 91 36 31 37
REMARK SMILES IDX 90 38 32 39 33 40 34 41 84 42 35 43 89 44 83 45 85 46 36 47
REMARK SMILES IDX 88 48 82 49 81 50 37 52 69 53 49 54 68 55 50 56 53 57 67 58
REMARK SMILES IDX 86 59 51 60 52 61 66 63 87 64 54 65 38 66 39 67 47 68 40 69
REMARK SMILES IDX 46 70 48 71 45 72 41 73 42 74 43 75 44 76 70 77 71 78 79 79
REMARK SMILES IDX 72 80 78 81 80 82 77 83 73 84 74 85 75 86 76 87 55 88 56 89
REMARK SMILES IDX 64 90 57 91 63 92 65 93 62 94 58 95 59 96 60 97 61 98
REMARK H PARENT 19 8 9 19 3 25 3 26 26 32 85 51 53 62
REMARK Flexibility Score: inf
ROOT
ATOM      1  C   UNL A   1      31.373  27.344  25.992  1.00  0.00     0.002 C 
ENDROOT
BRANCH   1   2
ATOM      2  C   UNL A   1      30.673  26.085  25.471  1.00  0.00     0.002 C 
BRANCH   2   3
ATOM      3  C   UNL A   1      31.551  24.903  25.051  1.00  0.00     0.021 C 
BRANCH   3   4
ATOM      4  C   UNL A   1      32.040  24.887  23.607  1.00  0.00     0.116 C 
BRANCH   4   5
ATOM      5  N   UNL A   1      31.866  23.627  22.918  1.00  0.00    -0.352 N 
ATOM      6  C   UNL A   1      32.614  22.477  22.901  1.00  0.00     0.253 C 
ATOM      7  O   UNL A   1      32.168  21.533  22.244  1.00  0.00    -0.269 OA
ATOM      8  H   UNL A   1      31.061  23.588  22.356  1.00  0.00     0.163 HD
BRANCH   6   9
ATOM      9  C   UNL A   1      33.948  22.303  23.558  1.00  0.00     0.063 A 
ATOM     10  C   UNL A   1      34.266  21.483  24.664  1.00  0.00     0.056 A 
ATOM     11  C   UNL A   1      35.605  21.402  25.068  1.00  0.00     0.066 A 
ATOM     12  C   UNL A   1      36.607  22.115  24.417  1.00  0.00     0.125 A 
ATOM     13  C   UNL A   1      34.990  23.017  22.915  1.00  0.00     0.019 A 
ATOM     14  F   UNL A   1      37.879  21.963  24.805  1.00  0.00    -0.207 F 
ATOM     15  C   UNL A   1      36.312  22.927  23.342  1.00  0.00     0.040 A 
BRANCH  10  16
ATOM     16  N   UNL A   1      33.323  20.607  25.229  1.00  0.00    -0.325 N 
ATOM     17  C   UNL A   1      33.133  19.251  25.138  1.00  0.00     0.233 C 
ATOM     18  O   UNL A   1      32.169  18.794  25.761  1.00  0.00    -0.274 OA
ATOM     19  H   UNL A   1      32.665  21.058  25.807  1.00  0.00     0.169 HD
BRANCH  17  20
ATOM     20  C   UNL A   1      34.133  18.328  24.436  1.00  0.00     0.142 C 
ATOM     21  C   UNL A   1      32.263  18.022  22.666  1.00  0.00     0.076 C 
ATOM     22  C   UNL A   1      33.746  17.892  23.016  1.00  0.00     0.192 C 
ATOM     23  N   UNL A   1      34.165  16.483  22.901  1.00  0.00    -0.343 N 
ATOM     24  C   UNL A   1      33.891  15.907  24.218  1.00  0.00     0.261 C 
ATOM     25  H   UNL A   1      35.159  16.420  22.680  1.00  0.00     0.346 HD
ATOM     26  H   UNL A   1      33.672  15.993  22.153  1.00  0.00     0.346 HD
ATOM     27  C   UNL A   1      34.331  16.992  25.187  1.00  0.00     0.081 C 
ENDBRANCH  17  20
ENDBRANCH  10  16
ENDBRANCH   6   9
ENDBRANCH   4   5
ENDBRANCH   3   4
ENDBRANCH   2   3
ENDBRANCH   1   2
BRANCH   1  28
ATOM     28  C   UNL A   1      31.661  28.462  24.987  1.00  0.00     0.021 C 
BRANCH  28  29
ATOM     29  C   UNL A   1      32.792  29.425  25.333  1.00  0.00     0.116 C 
BRANCH  29  30
ATOM     30  N   UNL A   1      32.327  30.689  25.876  1.00  0.00    -0.352 N 
ATOM     31  C   UNL A   1      32.848  31.461  26.884  1.00  0.00     0.251 C 
ATOM     32  H   UNL A   1      31.513  31.047  25.456  1.00  0.00     0.163 HD
ATOM     33  O   UNL A   1      32.227  32.459  27.256  1.00  0.00    -0.269 OA
BRANCH  31  34
ATOM     34  C   UNL A   1      34.120  31.095  27.549  1.00  0.00     0.039 A 
ATOM     35  C   UNL A   1      35.047  32.107  27.817  1.00  0.00     0.014 A 
ATOM     36  C   UNL A   1      34.420  29.773  27.893  1.00  0.00     0.014 A 
ATOM     37  C   UNL A   1      36.240  31.805  28.482  1.00  0.00     0.010 A 
ATOM     38  C   UNL A   1      35.580  29.484  28.613  1.00  0.00     0.010 A 
ATOM     39  C   UNL A   1      36.500  30.497  28.919  1.00  0.00    -0.014 A 
BRANCH  39  40
ATOM     40  C   UNL A   1      37.723  30.180  29.704  1.00  0.00     0.031 A 
ATOM     41  C   UNL A   1      38.798  29.305  29.117  1.00  0.00     0.074 A 
ATOM     42  C   UNL A   1      37.847  30.645  30.963  1.00  0.00     0.049 A 
ATOM     43  N   UNL A   1      39.896  28.860  29.675  1.00  0.00    -0.248 NA
ATOM     44  C   UNL A   1      38.605  28.857  27.729  1.00  0.00     0.031 C 
ATOM     45  C   UNL A   1      36.866  31.485  31.652  1.00  0.00     0.029 A 
ATOM     46  N   UNL A   1      38.847  30.479  31.889  1.00  0.00    -0.354 N 
ATOM     47  C   UNL A   1      40.519  28.072  28.713  1.00  0.00     0.074 A 
ATOM     48  C   UNL A   1      39.653  28.064  27.553  1.00  0.00     0.031 C 
ATOM     49  C   UNL A   1      37.327  31.788  32.875  1.00  0.00     0.029 A 
ATOM     50  C   UNL A   1      38.612  31.126  33.080  1.00  0.00     0.049 A 
ATOM     51  H   UNL A   1      39.658  29.947  31.716  1.00  0.00     0.167 HD
ATOM     52  C   UNL A   1      41.711  27.433  28.784  1.00  0.00     0.034 A 
ATOM     53  C   UNL A   1      39.339  31.173  34.215  1.00  0.00     0.034 A 
ATOM     54  C   UNL A   1      42.577  27.465  29.937  1.00  0.00     0.049 A 
ATOM     55  C   UNL A   1      40.642  30.426  34.284  1.00  0.00     0.074 A 
ATOM     56  C   UNL A   1      43.827  26.889  30.089  1.00  0.00     0.029 A 
ATOM     57  N   UNL A   1      42.286  28.105  31.134  1.00  0.00    -0.354 N 
ATOM     58  N   UNL A   1      41.217  29.688  33.363  1.00  0.00    -0.248 NA
ATOM     59  C   UNL A   1      41.395  30.514  35.543  1.00  0.00     0.031 C 
ATOM     60  C   UNL A   1      44.264  27.127  31.395  1.00  0.00     0.029 A 
ATOM     61  C   UNL A   1      43.319  27.912  32.038  1.00  0.00     0.049 A 
ATOM     62  H   UNL A   1      41.467  28.620  31.315  1.00  0.00     0.167 HD
ATOM     63  C   UNL A   1      42.408  29.240  33.925  1.00  0.00     0.074 A 
ATOM     64  C   UNL A   1      42.473  29.792  35.263  1.00  0.00     0.031 C 
ATOM     65  C   UNL A   1      43.365  28.450  33.376  1.00  0.00     0.034 A 
BRANCH  52  66
ATOM     66  C   UNL A   1      42.146  26.626  27.588  1.00  0.00     0.023 A 
ATOM     67  C   UNL A   1      41.849  25.257  27.476  1.00  0.00     0.031 A 
ATOM     68  C   UNL A   1      42.847  27.239  26.535  1.00  0.00     0.131 A 
ATOM     69  C   UNL A   1      42.293  24.534  26.359  1.00  0.00     0.055 A 
ATOM     70  C   UNL A   1      43.229  26.528  25.395  1.00  0.00     0.041 A 
ATOM     71  F   UNL A   1      43.173  28.539  26.597  1.00  0.00    -0.206 F 
ATOM     72  C   UNL A   1      42.959  25.166  25.306  1.00  0.00     0.022 A 
BRANCH  69  73
ATOM     73  S   UNL A   1      42.062  22.736  26.338  1.00  0.00     0.124 S 
ATOM     74  O   UNL A   1      42.668  22.378  25.058  1.00  0.00    -0.237 OA
ATOM     75  O   UNL A   1      42.786  22.309  27.529  1.00  0.00    -0.237 OA
ATOM     76  O   UNL A   1      40.611  22.576  26.400  1.00  0.00    -0.744 OA
ENDBRANCH  69  73
ENDBRANCH  52  66
BRANCH  53  77
ATOM     77  C   UNL A   1      38.839  31.952  35.380  1.00  0.00     0.023 A 
ATOM     78  C   UNL A   1      38.218  31.314  36.464  1.00  0.00     0.031 A 
ATOM     79  C   UNL A   1      38.995  33.349  35.433  1.00  0.00     0.131 A 
ATOM     80  C   UNL A   1      37.761  32.073  37.553  1.00  0.00     0.055 A 
ATOM     81  C   UNL A   1      38.571  34.095  36.534  1.00  0.00     0.041 A 
ATOM     82  F   UNL A   1      39.591  34.004  34.424  1.00  0.00    -0.206 F 
ATOM     83  C   UNL A   1      37.946  33.458  37.600  1.00  0.00     0.022 A 
BRANCH  80  84
ATOM     84  S   UNL A   1      36.904  31.226  38.908  1.00  0.00     0.124 S 
ATOM     85  O   UNL A   1      37.859  31.373  40.000  1.00  0.00    -0.237 OA
ATOM     86  O   UNL A   1      35.672  32.000  39.023  1.00  0.00    -0.237 OA
ATOM     87  O   UNL A   1      36.734  29.865  38.405  1.00  0.00    -0.744 OA
ENDBRANCH  80  84
ENDBRANCH  53  77
BRANCH  65  88
ATOM     88  C   UNL A   1      44.584  28.152  34.208  1.00  0.00     0.023 A 
ATOM     89  C   UNL A   1      44.646  27.026  35.045  1.00  0.00     0.031 A 
ATOM     90  C   UNL A   1      45.716  28.982  34.121  1.00  0.00     0.131 A 
ATOM     91  C   UNL A   1      45.812  26.769  35.781  1.00  0.00     0.055 A 
ATOM     92  C   UNL A   1      46.889  28.697  34.821  1.00  0.00     0.041 A 
ATOM     93  F   UNL A   1      45.706  30.069  33.335  1.00  0.00    -0.206 F 
ATOM     94  C   UNL A   1      46.940  27.588  35.660  1.00  0.00     0.022 A 
BRANCH  91  95
ATOM     95  S   UNL A   1      45.834  25.361  36.924  1.00  0.00     0.124 S 
ATOM     96  O   UNL A   1      46.914  25.729  37.834  1.00  0.00    -0.237 OA
ATOM     97  O   UNL A   1      44.489  25.390  37.487  1.00  0.00    -0.237 OA
ATOM     98  O   UNL A   1      46.115  24.219  36.056  1.00  0.00    -0.744 OA
ENDBRANCH  91  95
ENDBRANCH  65  88
ENDBRANCH  39  40
ENDBRANCH  31  34
ENDBRANCH  29  30
ENDBRANCH  28  29
ENDBRANCH   1  28
TORSDOF 18
ENDMDL
MODEL 2
REMARK VINA RESULT:     -12.0      2.713      4.505
REMARK SMILES C[C@@H]1[NH2+]CC[C@@H]1C(=O)Nc1cc(F)ccc1C(=O)NCCCCCCNC(=O)c1ccc(-c2c3nc(c(-c4cc(S(=O)(=O)[O-])ccc4F)c4ccc([nH]4)c(-c4cc(S(=O)(=O)[O-])ccc4F)c4nc(c(-c5cc(S(=O)(=O)[O-])ccc5F)c5ccc2[nH]5)C=C4)C=C3)cc1
REMARK SMILES IDX 23 1 22 2 21 3 20 4 19 5 17 6 18 7 16 9 10 10 11 11 12 12
REMARK SMILES IDX 15 13 13 14 14 15 9 16 7 17 8 18 6 20 1 21 2 22 3 23 4 24
REMARK SMILES IDX 5 27 24 28 25 29 26 30 27 31 28 33 29 34 30 35 91 36 31 37
REMARK SMILES IDX 90 38 32 39 33 40 34 41 84 42 35 43 89 44 83 45 85 46 36 47
REMARK SMILES IDX 88 48 82 49 81 50 37 52 69 53 49 54 68 55 50 56 53 57 67 58
REMARK SMILES IDX 86 59 51 60 52 61 66 63 87 64 54 65 38 66 39 67 47 68 40 69
REMARK SMILES IDX 46 70 48 71 45 72 41 73 42 74 43 75 44 76 70 77 71 78 79 79
REMARK SMILES IDX 72 80 78 81 80 82 77 83 73 84 74 85 75 86 76 87 55 88 56 89
REMARK SMILES IDX 64 90 57 91 63 92 65 93 62 94 58 95 59 96 60 97 61 98
REMARK H PARENT 19 8 9 19 3 25 3 26 26 32 85 51 53 62
REMARK Flexibility Score: inf
ROOT
ATOM      1  C   UNL A   1      35.027  31.885  27.724  1.00  0.00     0.002 C 
ENDROOT
BRANCH   1   2
ATOM      2  C   UNL A   1      35.365  30.550  28.396  1.00  0.00     0.002 C 
BRANCH   2   3
ATOM      3  C   UNL A   1      35.568  29.329  27.494  1.00  0.00     0.021 C 
BRANCH   3   4
ATOM      4  C   UNL A   1      34.341  28.804  26.759  1.00  0.00     0.116 C 
BRANCH   4   5
ATOM      5  N   UNL A   1      33.213  28.485  27.607  1.00  0.00    -0.352 N 
ATOM      6  C   UNL A   1      31.942  28.052  27.323  1.00  0.00     0.253 C 
ATOM      7  O   UNL A   1      31.209  27.811  28.286  1.00  0.00    -0.269 OA
ATOM      8  H   UNL A   1      33.390  28.601  28.567  1.00  0.00     0.163 HD
BRANCH   6   9
ATOM      9  C   UNL A   1      31.362  27.915  25.951  1.00  0.00     0.063 A 
ATOM     10  C   UNL A   1      30.679  26.803  25.408  1.00  0.00     0.056 A 
ATOM     11  C   UNL A   1      30.138  26.919  24.121  1.00  0.00     0.066 A 
ATOM     12  C   UNL A   1      30.273  28.085  23.376  1.00  0.00     0.125 A 
ATOM     13  C   UNL A   1      31.484  29.091  25.168  1.00  0.00     0.019 A 
ATOM     14  F   UNL A   1      29.693  28.167  22.172  1.00  0.00    -0.207 F 
ATOM     15  C   UNL A   1      30.945  29.177  23.886  1.00  0.00     0.040 A 
BRANCH  10  16
ATOM     16  N   UNL A   1      30.358  25.680  26.190  1.00  0.00    -0.325 N 
ATOM     17  C   UNL A   1      31.026  24.516  26.475  1.00  0.00     0.233 C 
ATOM     18  O   UNL A   1      30.431  23.710  27.197  1.00  0.00    -0.274 OA
ATOM     19  H   UNL A   1      29.475  25.742  26.622  1.00  0.00     0.169 HD
BRANCH  17  20
ATOM     20  C   UNL A   1      32.479  24.280  26.053  1.00  0.00     0.142 C 
ATOM     21  C   UNL A   1      31.453  23.300  23.882  1.00  0.00     0.076 C 
ATOM     22  C   UNL A   1      32.685  23.870  24.588  1.00  0.00     0.192 C 
ATOM     23  N   UNL A   1      33.764  22.866  24.600  1.00  0.00    -0.343 N 
ATOM     24  C   UNL A   1      33.532  22.088  25.818  1.00  0.00     0.261 C 
ATOM     25  H   UNL A   1      34.677  23.319  24.631  1.00  0.00     0.346 HD
ATOM     26  H   UNL A   1      33.760  22.284  23.762  1.00  0.00     0.346 HD
ATOM     27  C   UNL A   1      33.146  23.135  26.849  1.00  0.00     0.081 C 
ENDBRANCH  17  20
ENDBRANCH  10  16
ENDBRANCH   6   9
ENDBRANCH   4   5
ENDBRANCH   3   4
ENDBRANCH   2   3
ENDBRANCH   1   2
BRANCH   1  28
ATOM     28  C   UNL A   1      33.656  32.497  28.018  1.00  0.00     0.021 C 
BRANCH  28  29
ATOM     29  C   UNL A   1      33.504  33.996  27.776  1.00  0.00     0.116 C 
BRANCH  29  30
ATOM     30  N   UNL A   1      32.987  34.717  28.925  1.00  0.00    -0.352 N 
ATOM     31  C   UNL A   1      33.408  34.714  30.231  1.00  0.00     0.251 C 
ATOM     32  H   UNL A   1      32.215  35.297  28.738  1.00  0.00     0.163 HD
ATOM     33  O   UNL A   1      32.751  35.330  31.073  1.00  0.00    -0.269 OA
BRANCH  31  34
ATOM     34  C   UNL A   1      34.612  33.957  30.645  1.00  0.00     0.039 A 
ATOM     35  C   UNL A   1      35.865  34.419  30.229  1.00  0.00     0.014 A 
ATOM     36  C   UNL A   1      34.525  32.794  31.416  1.00  0.00     0.014 A 
ATOM     37  C   UNL A   1      37.026  33.755  30.636  1.00  0.00     0.010 A 
ATOM     38  C   UNL A   1      35.686  32.171  31.875  1.00  0.00     0.010 A 
ATOM     39  C   UNL A   1      36.950  32.647  31.493  1.00  0.00    -0.014 A 
BRANCH  39  40
ATOM     40  C   UNL A   1      38.180  31.985  32.004  1.00  0.00     0.031 A 
ATOM     41  C   UNL A   1      38.838  30.886  31.213  1.00  0.00     0.074 A 
ATOM     42  C   UNL A   1      38.682  32.344  33.202  1.00  0.00     0.049 A 
ATOM     43  N   UNL A   1      39.868  30.145  31.531  1.00  0.00    -0.248 NA
ATOM     44  C   UNL A   1      38.249  30.567  29.904  1.00  0.00     0.031 C 
ATOM     45  C   UNL A   1      38.124  33.381  34.074  1.00  0.00     0.029 A 
ATOM     46  N   UNL A   1      39.772  31.882  33.897  1.00  0.00    -0.354 N 
ATOM     47  C   UNL A   1      40.047  29.265  30.468  1.00  0.00     0.074 A 
ATOM     48  C   UNL A   1      38.987  29.536  29.519  1.00  0.00     0.031 C 
ATOM     49  C   UNL A   1      38.893  33.498  35.167  1.00  0.00     0.029 A 
ATOM     50  C   UNL A   1      39.970  32.514  35.103  1.00  0.00     0.049 A 
ATOM     51  H   UNL A   1      40.358  31.164  33.562  1.00  0.00     0.167 HD
ATOM     52  C   UNL A   1      41.014  28.334  30.292  1.00  0.00     0.034 A 
ATOM     53  C   UNL A   1      40.902  32.318  36.057  1.00  0.00     0.034 A 
ATOM     54  C   UNL A   1      42.077  28.086  31.235  1.00  0.00     0.049 A 
ATOM     55  C   UNL A   1      41.945  31.252  35.856  1.00  0.00     0.074 A 
ATOM     56  C   UNL A   1      43.132  27.196  31.125  1.00  0.00     0.029 A 
ATOM     57  N   UNL A   1      42.222  28.726  32.459  1.00  0.00    -0.354 N 
ATOM     58  N   UNL A   1      42.099  30.432  34.844  1.00  0.00    -0.248 NA
ATOM     59  C   UNL A   1      42.939  31.084  36.926  1.00  0.00     0.031 C 
ATOM     60  C   UNL A   1      43.879  27.253  32.306  1.00  0.00     0.029 A 
ATOM     61  C   UNL A   1      43.331  28.228  33.124  1.00  0.00     0.049 A 
ATOM     62  H   UNL A   1      41.625  29.428  32.803  1.00  0.00     0.167 HD
ATOM     63  C   UNL A   1      43.218  29.663  35.146  1.00  0.00     0.074 A 
ATOM     64  C   UNL A   1      43.704  30.118  36.433  1.00  0.00     0.031 C 
ATOM     65  C   UNL A   1      43.796  28.675  34.416  1.00  0.00     0.034 A 
BRANCH  52  66
ATOM     66  C   UNL A   1      40.960  27.495  29.041  1.00  0.00     0.023 A 
ATOM     67  C   UNL A   1      41.859  27.698  27.981  1.00  0.00     0.031 A 
ATOM     68  C   UNL A   1      40.011  26.466  28.917  1.00  0.00     0.131 A 
ATOM     69  C   UNL A   1      41.761  26.914  26.821  1.00  0.00     0.055 A 
ATOM     70  C   UNL A   1      39.961  25.645  27.788  1.00  0.00     0.041 A 
ATOM     71  F   UNL A   1      39.117  26.240  29.892  1.00  0.00    -0.206 F 
ATOM     72  C   UNL A   1      40.833  25.872  26.729  1.00  0.00     0.022 A 
BRANCH  69  73
ATOM     73  S   UNL A   1      42.806  27.327  25.399  1.00  0.00     0.124 S 
ATOM     74  O   UNL A   1      44.061  27.689  26.054  1.00  0.00    -0.237 OA
ATOM     75  O   UNL A   1      42.818  26.083  24.640  1.00  0.00    -0.237 OA
ATOM     76  O   UNL A   1      42.099  28.438  24.765  1.00  0.00    -0.744 OA
ENDBRANCH  69  73
ENDBRANCH  52  66
BRANCH  53  77
ATOM     77  C   UNL A   1      40.881  33.148  37.292  1.00  0.00     0.023 A 
ATOM     78  C   UNL A   1      40.126  32.761  38.409  1.00  0.00     0.031 A 
ATOM     79  C   UNL A   1      41.634  34.332  37.377  1.00  0.00     0.131 A 
ATOM     80  C   UNL A   1      40.129  33.560  39.563  1.00  0.00     0.055 A 
ATOM     81  C   UNL A   1      41.662  35.104  38.539  1.00  0.00     0.041 A 
ATOM     82  F   UNL A   1      42.380  34.738  36.337  1.00  0.00    -0.206 F 
ATOM     83  C   UNL A   1      40.903  34.722  39.640  1.00  0.00     0.022 A 
BRANCH  80  84
ATOM     84  S   UNL A   1      39.091  33.069  40.967  1.00  0.00     0.124 S 
ATOM     85  O   UNL A   1      37.766  33.039  40.360  1.00  0.00    -0.237 OA
ATOM     86  O   UNL A   1      39.660  31.775  41.331  1.00  0.00    -0.237 OA
ATOM     87  O   UNL A   1      39.309  34.136  41.941  1.00  0.00    -0.744 OA
ENDBRANCH  80  84
ENDBRANCH  53  77
BRANCH  65  88
ATOM     88  C   UNL A   1      45.037  28.031  34.974  1.00  0.00     0.023 A 
ATOM     89  C   UNL A   1      44.978  26.839  35.714  1.00  0.00     0.031 A 
ATOM     90  C   UNL A   1      46.299  28.594  34.716  1.00  0.00     0.131 A 
ATOM     91  C   UNL A   1      46.162  26.257  36.191  1.00  0.00     0.055 A 
ATOM     92  C   UNL A   1      47.476  27.987  35.154  1.00  0.00     0.041 A 
ATOM     93  F   UNL A   1      46.407  29.732  34.012  1.00  0.00    -0.206 F 
ATOM     94  C   UNL A   1      47.411  26.814  35.900  1.00  0.00     0.022 A 
BRANCH  91  95
ATOM     95  S   UNL A   1      46.052  24.770  37.223  1.00  0.00     0.124 S 
ATOM     96  O   UNL A   1      45.460  25.296  38.448  1.00  0.00    -0.237 OA
ATOM     97  O   UNL A   1      45.198  23.895  36.427  1.00  0.00    -0.237 OA
ATOM     98  O   UNL A   1      47.442  24.332  37.344  1.00  0.00    -0.744 OA
ENDBRANCH  91  95
ENDBRANCH  65  88
ENDBRANCH  39  40
ENDBRANCH  31  34
ENDBRANCH  29  30
ENDBRANCH  28  29
ENDBRANCH   1  28
TORSDOF 18
ENDMDL
MODEL 3
REMARK VINA RESULT:     -12.0      5.607     10.868
REMARK SMILES C[C@@H]1[NH2+]CC[C@@H]1C(=O)Nc1cc(F)ccc1C(=O)NCCCCCCNC(=O)c1ccc(-c2c3nc(c(-c4cc(S(=O)(=O)[O-])ccc4F)c4ccc([nH]4)c(-c4cc(S(=O)(=O)[O-])ccc4F)c4nc(c(-c5cc(S(=O)(=O)[O-])ccc5F)c5ccc2[nH]5)C=C4)C=C3)cc1
REMARK SMILES IDX 23 1 22 2 21 3 20 4 19 5 17 6 18 7 16 9 10 10 11 11 12 12
REMARK SMILES IDX 15 13 13 14 14 15 9 16 7 17 8 18 6 20 1 21 2 22 3 23 4 24
REMARK SMILES IDX 5 27 24 28 25 29 26 30 27 31 28 33 29 34 30 35 91 36 31 37
REMARK SMILES IDX 90 38 32 39 33 40 34 41 84 42 35 43 89 44 83 45 85 46 36 47
REMARK SMILES IDX 88 48 82 49 81 50 37 52 69 53 49 54 68 55 50 56 53 57 67 58
REMARK SMILES IDX 86 59 51 60 52 61 66 63 87 64 54 65 38 66 39 67 47 68 40 69
REMARK SMILES IDX 46 70 48 71 45 72 41 73 42 74 43 75 44 76 70 77 71 78 79 79
REMARK SMILES IDX 72 80 78 81 80 82 77 83 73 84 74 85 75 86 76 87 55 88 56 89
REMARK SMILES IDX 64 90 57 91 63 92 65 93 62 94 58 95 59 96 60 97 61 98
REMARK H PARENT 19 8 9 19 3 25 3 26 26 32 85 51 53 62
REMARK Flexibility Score: inf
ROOT
ATOM      1  C   UNL A   1      36.855  21.457  24.871  1.00  0.00     0.002 C 
ENDROOT
BRANCH   1   2
ATOM      2  C   UNL A   1      35.463  21.096  25.398  1.00  0.00     0.002 C 
BRANCH   2   3
ATOM      3  C   UNL A   1      34.950  21.848  26.630  1.00  0.00     0.021 C 
BRANCH   3   4
ATOM      4  C   UNL A   1      33.621  21.386  27.216  1.00  0.00     0.116 C 
BRANCH   4   5
ATOM      5  N   UNL A   1      32.676  22.445  27.495  1.00  0.00    -0.352 N 
ATOM      6  C   UNL A   1      32.080  23.382  26.690  1.00  0.00     0.253 C 
ATOM      7  O   UNL A   1      31.260  24.133  27.224  1.00  0.00    -0.269 OA
ATOM      8  H   UNL A   1      32.412  22.504  28.440  1.00  0.00     0.163 HD
BRANCH   6   9
ATOM      9  C   UNL A   1      32.394  23.604  25.244  1.00  0.00     0.063 A 
ATOM     10  C   UNL A   1      33.110  24.679  24.670  1.00  0.00     0.056 A 
ATOM     11  C   UNL A   1      33.367  24.648  23.293  1.00  0.00     0.066 A 
ATOM     12  C   UNL A   1      32.922  23.601  22.493  1.00  0.00     0.125 A 
ATOM     13  C   UNL A   1      31.954  22.551  24.403  1.00  0.00     0.019 A 
ATOM     14  F   UNL A   1      33.237  23.588  21.191  1.00  0.00    -0.207 F 
ATOM     15  C   UNL A   1      32.213  22.549  23.034  1.00  0.00     0.040 A 
BRANCH  10  16
ATOM     16  N   UNL A   1      33.736  25.656  25.463  1.00  0.00    -0.325 N 
ATOM     17  C   UNL A   1      33.429  26.961  25.758  1.00  0.00     0.233 C 
ATOM     18  O   UNL A   1      34.227  27.556  26.489  1.00  0.00    -0.274 OA
ATOM     19  H   UNL A   1      34.563  25.340  25.896  1.00  0.00     0.169 HD
BRANCH  17  20
ATOM     20  C   UNL A   1      32.106  27.608  25.336  1.00  0.00     0.142 C 
ATOM     21  C   UNL A   1      33.489  28.641  23.401  1.00  0.00     0.076 C 
ATOM     22  C   UNL A   1      32.110  28.283  23.957  1.00  0.00     0.192 C 
ATOM     23  N   UNL A   1      31.299  29.504  24.107  1.00  0.00    -0.343 N 
ATOM     24  C   UNL A   1      31.617  29.998  25.447  1.00  0.00     0.261 C 
ATOM     25  H   UNL A   1      30.305  29.288  24.029  1.00  0.00     0.346 HD
ATOM     26  H   UNL A   1      31.500  30.194  23.381  1.00  0.00     0.346 HD
ATOM     27  C   UNL A   1      31.669  28.738  26.295  1.00  0.00     0.081 C 
ENDBRANCH  17  20
ENDBRANCH  10  16
ENDBRANCH   6   9
ENDBRANCH   4   5
ENDBRANCH   3   4
ENDBRANCH   2   3
ENDBRANCH   1   2
BRANCH   1  28
ATOM     28  C   UNL A   1      37.955  20.400  24.993  1.00  0.00     0.021 C 
BRANCH  28  29
ATOM     29  C   UNL A   1      39.072  20.681  25.993  1.00  0.00     0.116 C 
BRANCH  29  30
ATOM     30  N   UNL A   1      40.127  19.684  25.974  1.00  0.00    -0.352 N 
ATOM     31  C   UNL A   1      41.483  19.830  26.130  1.00  0.00     0.251 C 
ATOM     32  H   UNL A   1      39.823  18.760  25.827  1.00  0.00     0.163 HD
ATOM     33  O   UNL A   1      42.213  18.848  25.975  1.00  0.00    -0.269 OA
BRANCH  31  34
ATOM     34  C   UNL A   1      42.079  21.149  26.446  1.00  0.00     0.039 A 
ATOM     35  C   UNL A   1      42.334  22.034  25.394  1.00  0.00     0.014 A 
ATOM     36  C   UNL A   1      42.409  21.516  27.754  1.00  0.00     0.014 A 
ATOM     37  C   UNL A   1      42.857  23.303  25.658  1.00  0.00     0.010 A 
ATOM     38  C   UNL A   1      42.870  22.805  28.024  1.00  0.00     0.010 A 
ATOM     39  C   UNL A   1      43.094  23.715  26.979  1.00  0.00    -0.014 A 
BRANCH  39  40
ATOM     40  C   UNL A   1      43.567  25.092  27.281  1.00  0.00     0.031 A 
ATOM     41  C   UNL A   1      42.617  26.120  27.834  1.00  0.00     0.074 A 
ATOM     42  C   UNL A   1      44.845  25.431  27.018  1.00  0.00     0.049 A 
ATOM     43  N   UNL A   1      42.827  27.386  28.089  1.00  0.00    -0.248 NA
ATOM     44  C   UNL A   1      41.246  25.669  28.121  1.00  0.00     0.031 C 
ATOM     45  C   UNL A   1      45.859  24.533  26.462  1.00  0.00     0.029 A 
ATOM     46  N   UNL A   1      45.513  26.620  27.180  1.00  0.00    -0.354 N 
ATOM     47  C   UNL A   1      41.616  27.887  28.555  1.00  0.00     0.074 A 
ATOM     48  C   UNL A   1      40.664  26.798  28.503  1.00  0.00     0.031 C 
ATOM     49  C   UNL A   1      47.024  25.190  26.362  1.00  0.00     0.029 A 
ATOM     50  C   UNL A   1      46.833  26.571  26.798  1.00  0.00     0.049 A 
ATOM     51  H   UNL A   1      45.085  27.433  27.537  1.00  0.00     0.167 HD
ATOM     52  C   UNL A   1      41.331  29.133  29.002  1.00  0.00     0.034 A 
ATOM     53  C   UNL A   1      47.783  27.528  26.786  1.00  0.00     0.034 A 
ATOM     54  C   UNL A   1      42.292  30.206  29.070  1.00  0.00     0.049 A 
ATOM     55  C   UNL A   1      47.433  28.915  27.253  1.00  0.00     0.074 A 
ATOM     56  C   UNL A   1      42.112  31.492  29.553  1.00  0.00     0.029 A 
ATOM     57  N   UNL A   1      43.611  30.124  28.643  1.00  0.00    -0.354 N 
ATOM     58  N   UNL A   1      46.284  29.369  27.692  1.00  0.00    -0.248 NA
ATOM     59  C   UNL A   1      48.507  29.918  27.222  1.00  0.00     0.031 C 
ATOM     60  C   UNL A   1      43.300  32.203  29.361  1.00  0.00     0.029 A 
ATOM     61  C   UNL A   1      44.244  31.343  28.823  1.00  0.00     0.049 A 
ATOM     62  H   UNL A   1      44.033  29.318  28.266  1.00  0.00     0.167 HD
ATOM     63  C   UNL A   1      46.500  30.707  28.008  1.00  0.00     0.074 A 
ATOM     64  C   UNL A   1      47.891  30.986  27.712  1.00  0.00     0.031 C 
ATOM     65  C   UNL A   1      45.626  31.616  28.507  1.00  0.00     0.034 A 
BRANCH  52  66
ATOM     66  C   UNL A   1      39.916  29.414  29.439  1.00  0.00     0.023 A 
ATOM     67  C   UNL A   1      39.566  29.489  30.797  1.00  0.00     0.031 A 
ATOM     68  C   UNL A   1      38.909  29.632  28.483  1.00  0.00     0.131 A 
ATOM     69  C   UNL A   1      38.233  29.727  31.164  1.00  0.00     0.055 A 
ATOM     70  C   UNL A   1      37.597  29.934  28.854  1.00  0.00     0.041 A 
ATOM     71  F   UNL A   1      39.183  29.555  27.172  1.00  0.00    -0.206 F 
ATOM     72  C   UNL A   1      37.251  29.975  30.201  1.00  0.00     0.022 A 
BRANCH  69  73
ATOM     73  S   UNL A   1      37.781  29.625  32.916  1.00  0.00     0.124 S 
ATOM     74  O   UNL A   1      36.648  30.545  32.981  1.00  0.00    -0.237 OA
ATOM     75  O   UNL A   1      37.465  28.211  33.081  1.00  0.00    -0.237 OA
ATOM     76  O   UNL A   1      38.984  30.080  33.608  1.00  0.00    -0.744 OA
ENDBRANCH  69  73
ENDBRANCH  52  66
BRANCH  53  77
ATOM     77  C   UNL A   1      49.153  27.203  26.304  1.00  0.00     0.023 A 
ATOM     78  C   UNL A   1      49.531  27.456  24.977  1.00  0.00     0.031 A 
ATOM     79  C   UNL A   1      50.111  26.652  27.174  1.00  0.00     0.131 A 
ATOM     80  C   UNL A   1      50.832  27.145  24.551  1.00  0.00     0.055 A 
ATOM     81  C   UNL A   1      51.413  26.379  26.755  1.00  0.00     0.041 A 
ATOM     82  F   UNL A   1      49.798  26.402  28.455  1.00  0.00    -0.206 F 
ATOM     83  C   UNL A   1      51.779  26.621  25.435  1.00  0.00     0.022 A 
BRANCH  80  84
ATOM     84  S   UNL A   1      51.270  27.422  22.813  1.00  0.00     0.124 S 
ATOM     85  O   UNL A   1      51.255  28.878  22.732  1.00  0.00    -0.237 OA
ATOM     86  O   UNL A   1      52.581  26.787  22.722  1.00  0.00    -0.237 OA
ATOM     87  O   UNL A   1      50.202  26.745  22.081  1.00  0.00    -0.744 OA
ENDBRANCH  80  84
ENDBRANCH  53  77
BRANCH  65  88
ATOM     88  C   UNL A   1      46.148  32.999  28.794  1.00  0.00     0.023 A 
ATOM     89  C   UNL A   1      46.073  34.027  27.840  1.00  0.00     0.031 A 
ATOM     90  C   UNL A   1      46.681  33.302  30.060  1.00  0.00     0.131 A 
ATOM     91  C   UNL A   1      46.545  35.309  28.159  1.00  0.00     0.055 A 
ATOM     92  C   UNL A   1      47.107  34.590  30.387  1.00  0.00     0.041 A 
ATOM     93  F   UNL A   1      46.772  32.354  31.006  1.00  0.00    -0.206 F 
ATOM     94  C   UNL A   1      47.045  35.601  29.432  1.00  0.00     0.022 A 
BRANCH  91  95
ATOM     95  S   UNL A   1      46.523  36.593  26.879  1.00  0.00     0.124 S 
ATOM     96  O   UNL A   1      47.527  37.530  27.375  1.00  0.00    -0.237 OA
ATOM     97  O   UNL A   1      46.885  35.849  25.678  1.00  0.00    -0.237 OA
ATOM     98  O   UNL A   1      45.147  37.085  26.910  1.00  0.00    -0.744 OA
ENDBRANCH  91  95
ENDBRANCH  65  88
ENDBRANCH  39  40
ENDBRANCH  31  34
ENDBRANCH  29  30
ENDBRANCH  28  29
ENDBRANCH   1  28
TORSDOF 18
ENDMDL
