MODEL 1
REMARK VINA RESULT:     -11.3      0.000      0.000
REMARK SMILES CC(C)[NH2+][C@@]1(C(=O)NCCCCCCNC(=O)c2ccc(-c3c4nc(c(-c5cc(S(=O)(=O)[O-])ccc5F)c5ccc([nH]5)c(-c5cc(S(=O)(=O)[O-])ccc5F)c5nc(c(-c6cc(S(=O)(=O)[O-])ccc6F)c6ccc3[nH]6)C=C5)C=C4)cc2)CCC[C@@H]([NH+]2CCS(=O)CC2)C1
REMARK SMILES IDX 12 1 11 2 10 3 9 4 8 5 6 6 7 7 5 9 81 10 92 11 82 12 84 13
REMARK SMILES IDX 83 14 4 15 2 18 1 19 3 20 85 21 86 22 91 23 87 25 90 26
REMARK SMILES IDX 88 27 89 28 13 29 14 30 15 31 16 32 17 34 18 35 19 36 80 37
REMARK SMILES IDX 20 38 79 39 21 40 22 41 23 42 73 43 24 44 78 45 72 46 74 47
REMARK SMILES IDX 25 48 77 49 71 50 70 51 26 53 58 54 38 55 57 56 39 57 42 58
REMARK SMILES IDX 56 59 75 60 40 61 41 62 55 64 76 65 43 66 27 67 28 68 36 69
REMARK SMILES IDX 29 70 35 71 37 72 34 73 30 74 31 75 32 76 33 77 59 78 60 79
REMARK SMILES IDX 68 80 61 81 67 82 69 83 66 84 62 85 63 86 64 87 65 88 44 89
REMARK SMILES IDX 45 90 53 91 46 92 52 93 54 94 51 95 47 96 48 97 49 98 50 99
REMARK H PARENT 8 8 4 16 4 17 85 24 15 33 74 52 42 63
REMARK Flexibility Score: inf
ROOT
ATOM      1  C   UNL A   1      31.218  31.190  25.785  1.00  0.00     0.002 C 
ENDROOT
BRANCH   1   2
ATOM      2  C   UNL A   1      31.541  29.691  25.746  1.00  0.00     0.002 C 
BRANCH   2   3
ATOM      3  C   UNL A   1      32.896  29.295  26.338  1.00  0.00     0.021 C 
BRANCH   3   4
ATOM      4  C   UNL A   1      32.900  27.947  27.065  1.00  0.00     0.116 C 
BRANCH   4   5
ATOM      5  N   UNL A   1      31.653  27.235  26.924  1.00  0.00    -0.351 N 
ATOM      6  C   UNL A   1      31.210  26.218  26.150  1.00  0.00     0.281 C 
ATOM      7  O   UNL A   1      30.022  25.925  26.378  1.00  0.00    -0.268 OA
ATOM      8  H   UNL A   1      30.960  27.568  27.538  1.00  0.00     0.163 HD
BRANCH   6   9
ATOM      9  C   UNL A   1      32.009  25.476  24.959  1.00  0.00     0.181 C 
ATOM     10  C   UNL A   1      31.181  24.380  24.256  1.00  0.00     0.079 C 
ATOM     11  C   UNL A   1      33.384  25.038  25.512  1.00  0.00     0.144 C 
ATOM     12  C   UNL A   1      31.430  22.927  24.649  1.00  0.00     0.013 C 
ATOM     13  C   UNL A   1      33.539  23.578  25.960  1.00  0.00     0.190 C 
ATOM     14  C   UNL A   1      32.888  22.613  24.956  1.00  0.00     0.065 C 
BRANCH   9  15
ATOM     15  N   UNL A   1      32.232  26.613  24.005  1.00  0.00    -0.331 N 
ATOM     16  H   UNL A   1      31.467  26.548  23.333  1.00  0.00     0.347 HD
ATOM     17  H   UNL A   1      32.326  27.377  24.675  1.00  0.00     0.347 HD
BRANCH  15  18
ATOM     18  C   UNL A   1      33.419  26.857  23.201  1.00  0.00     0.176 C 
ATOM     19  C   UNL A   1      33.186  26.208  21.828  1.00  0.00     0.075 C 
ATOM     20  C   UNL A   1      33.796  28.320  22.991  1.00  0.00     0.075 C 
ENDBRANCH  15  18
ENDBRANCH   9  15
BRANCH  13  21
ATOM     21  N   UNL A   1      34.905  23.180  26.369  1.00  0.00    -0.331 N 
ATOM     22  C   UNL A   1      35.235  21.764  26.537  1.00  0.00     0.276 C 
ATOM     23  C   UNL A   1      36.034  23.923  25.791  1.00  0.00     0.276 C 
ATOM     24  H   UNL A   1      34.782  23.514  27.324  1.00  0.00     0.348 HD
ATOM     25  C   UNL A   1      35.539  21.032  25.240  1.00  0.00     0.166 C 
ATOM     26  C   UNL A   1      36.559  23.428  24.440  1.00  0.00     0.166 C 
ATOM     27  S   UNL A   1      37.024  21.677  24.423  1.00  0.00     0.032 S 
ATOM     28  O   UNL A   1      38.194  21.487  25.340  1.00  0.00    -0.259 OA
ENDBRANCH  13  21
ENDBRANCH   6   9
ENDBRANCH   4   5
ENDBRANCH   3   4
ENDBRANCH   2   3
ENDBRANCH   1   2
BRANCH   1  29
ATOM     29  C   UNL A   1      31.533  31.913  27.099  1.00  0.00     0.021 C 
BRANCH  29  30
ATOM     30  C   UNL A   1      32.846  32.695  27.118  1.00  0.00     0.116 C 
BRANCH  30  31
ATOM     31  N   UNL A   1      32.664  34.051  27.609  1.00  0.00    -0.352 N 
ATOM     32  C   UNL A   1      33.212  34.685  28.690  1.00  0.00     0.251 C 
ATOM     33  H   UNL A   1      32.045  34.604  27.077  1.00  0.00     0.163 HD
ATOM     34  O   UNL A   1      32.723  35.755  29.069  1.00  0.00    -0.269 OA
BRANCH  32  35
ATOM     35  C   UNL A   1      34.366  34.108  29.411  1.00  0.00     0.039 A 
ATOM     36  C   UNL A   1      34.130  33.193  30.442  1.00  0.00     0.014 A 
ATOM     37  C   UNL A   1      35.675  34.504  29.119  1.00  0.00     0.014 A 
ATOM     38  C   UNL A   1      35.204  32.639  31.142  1.00  0.00     0.010 A 
ATOM     39  C   UNL A   1      36.749  33.904  29.775  1.00  0.00     0.010 A 
ATOM     40  C   UNL A   1      36.525  32.968  30.797  1.00  0.00    -0.014 A 
BRANCH  40  41
ATOM     41  C   UNL A   1      37.677  32.340  31.493  1.00  0.00     0.031 A 
ATOM     42  C   UNL A   1      38.427  31.205  30.850  1.00  0.00     0.074 A 
ATOM     43  C   UNL A   1      38.012  32.759  32.729  1.00  0.00     0.049 A 
ATOM     44  N   UNL A   1      39.422  30.497  31.322  1.00  0.00    -0.248 NA
ATOM     45  C   UNL A   1      37.979  30.796  29.512  1.00  0.00     0.031 C 
ATOM     46  C   UNL A   1      37.333  33.824  33.470  1.00  0.00     0.029 A 
ATOM     47  N   UNL A   1      39.000  32.339  33.583  1.00  0.00    -0.354 N 
ATOM     48  C   UNL A   1      39.713  29.550  30.344  1.00  0.00     0.074 A 
ATOM     49  C   UNL A   1      38.748  29.742  29.282  1.00  0.00     0.031 C 
ATOM     50  C   UNL A   1      37.938  33.986  34.658  1.00  0.00     0.029 A 
ATOM     51  C   UNL A   1      39.018  33.014  34.782  1.00  0.00     0.049 A 
ATOM     52  H   UNL A   1      39.636  31.621  33.361  1.00  0.00     0.167 HD
ATOM     53  C   UNL A   1      40.705  28.625  30.326  1.00  0.00     0.034 A 
ATOM     54  C   UNL A   1      39.811  32.863  35.861  1.00  0.00     0.034 A 
ATOM     55  C   UNL A   1      41.662  28.454  31.393  1.00  0.00     0.049 A 
ATOM     56  C   UNL A   1      40.894  31.816  35.827  1.00  0.00     0.074 A 
ATOM     57  C   UNL A   1      42.742  27.589  31.456  1.00  0.00     0.029 A 
ATOM     58  N   UNL A   1      41.649  29.155  32.594  1.00  0.00    -0.354 N 
ATOM     59  N   UNL A   1      41.191  30.965  34.872  1.00  0.00    -0.248 NA
ATOM     60  C   UNL A   1      41.754  31.718  37.012  1.00  0.00     0.031 C 
ATOM     61  C   UNL A   1      43.339  27.720  32.715  1.00  0.00     0.029 A 
ATOM     62  C   UNL A   1      42.679  28.719  33.414  1.00  0.00     0.049 A 
ATOM     63  H   UNL A   1      41.001  29.859  32.828  1.00  0.00     0.167 HD
ATOM     64  C   UNL A   1      42.290  30.247  35.333  1.00  0.00     0.074 A 
ATOM     65  C   UNL A   1      42.612  30.778  36.642  1.00  0.00     0.031 C 
ATOM     66  C   UNL A   1      42.975  29.243  34.728  1.00  0.00     0.034 A 
BRANCH  53  67
ATOM     67  C   UNL A   1      40.779  27.712  29.124  1.00  0.00     0.023 A 
ATOM     68  C   UNL A   1      41.719  27.917  28.098  1.00  0.00     0.031 A 
ATOM     69  C   UNL A   1      39.878  26.643  28.981  1.00  0.00     0.131 A 
ATOM     70  C   UNL A   1      41.681  27.124  26.940  1.00  0.00     0.055 A 
ATOM     71  C   UNL A   1      39.899  25.803  27.865  1.00  0.00     0.041 A 
ATOM     72  F   UNL A   1      38.945  26.405  29.917  1.00  0.00    -0.206 F 
ATOM     73  C   UNL A   1      40.794  26.051  26.827  1.00  0.00     0.022 A 
BRANCH  70  74
ATOM     74  S   UNL A   1      42.703  27.610  25.522  1.00  0.00     0.124 S 
ATOM     75  O   UNL A   1      42.668  26.399  24.706  1.00  0.00    -0.237 OA
ATOM     76  O   UNL A   1      41.980  28.759  24.991  1.00  0.00    -0.237 OA
ATOM     77  O   UNL A   1      44.001  27.911  26.122  1.00  0.00    -0.744 OA
ENDBRANCH  70  74
ENDBRANCH  53  67
BRANCH  54  78
ATOM     78  C   UNL A   1      39.610  33.716  37.065  1.00  0.00     0.023 A 
ATOM     79  C   UNL A   1      38.928  33.227  38.191  1.00  0.00     0.031 A 
ATOM     80  C   UNL A   1      40.075  35.043  37.099  1.00  0.00     0.131 A 
ATOM     81  C   UNL A   1      38.697  34.070  39.288  1.00  0.00     0.055 A 
ATOM     82  C   UNL A   1      39.884  35.863  38.211  1.00  0.00     0.041 A 
ATOM     83  F   UNL A   1      40.739  35.555  36.051  1.00  0.00    -0.206 F 
ATOM     84  C   UNL A   1      39.181  35.381  39.311  1.00  0.00     0.022 A 
BRANCH  81  85
ATOM     85  S   UNL A   1      37.693  33.449  40.666  1.00  0.00     0.124 S 
ATOM     86  O   UNL A   1      37.401  34.676  41.398  1.00  0.00    -0.237 OA
ATOM     87  O   UNL A   1      36.567  32.836  39.966  1.00  0.00    -0.237 OA
ATOM     88  O   UNL A   1      38.587  32.513  41.343  1.00  0.00    -0.744 OA
ENDBRANCH  81  85
ENDBRANCH  54  78
BRANCH  66  89
ATOM     89  C   UNL A   1      44.161  28.683  35.473  1.00  0.00     0.023 A 
ATOM     90  C   UNL A   1      44.026  27.618  36.383  1.00  0.00     0.031 A 
ATOM     91  C   UNL A   1      45.440  29.237  35.290  1.00  0.00     0.131 A 
ATOM     92  C   UNL A   1      45.139  27.182  37.117  1.00  0.00     0.055 A 
ATOM     93  C   UNL A   1      46.554  28.759  35.979  1.00  0.00     0.041 A 
ATOM     94  F   UNL A   1      45.626  30.258  34.437  1.00  0.00    -0.206 F 
ATOM     95  C   UNL A   1      46.406  27.734  36.909  1.00  0.00     0.022 A 
BRANCH  92  96
ATOM     96  S   UNL A   1      44.891  25.945  38.421  1.00  0.00     0.124 S 
ATOM     97  O   UNL A   1      44.082  24.940  37.737  1.00  0.00    -0.237 OA
ATOM     98  O   UNL A   1      46.259  25.550  38.741  1.00  0.00    -0.237 OA
ATOM     99  O   UNL A   1      44.198  26.688  39.472  1.00  0.00    -0.744 OA
ENDBRANCH  92  96
ENDBRANCH  66  89
ENDBRANCH  40  41
ENDBRANCH  32  35
ENDBRANCH  30  31
ENDBRANCH  29  30
ENDBRANCH   1  29
TORSDOF 19
ENDMDL
MODEL 2
REMARK VINA RESULT:     -11.2      1.632      3.015
REMARK SMILES CC(C)[NH2+][C@@]1(C(=O)NCCCCCCNC(=O)c2ccc(-c3c4nc(c(-c5cc(S(=O)(=O)[O-])ccc5F)c5ccc([nH]5)c(-c5cc(S(=O)(=O)[O-])ccc5F)c5nc(c(-c6cc(S(=O)(=O)[O-])ccc6F)c6ccc3[nH]6)C=C5)C=C4)cc2)CCC[C@@H]([NH+]2CCS(=O)CC2)C1
REMARK SMILES IDX 12 1 11 2 10 3 9 4 8 5 6 6 7 7 5 9 81 10 92 11 82 12 84 13
REMARK SMILES IDX 83 14 4 15 2 18 1 19 3 20 85 21 86 22 91 23 87 25 90 26
REMARK SMILES IDX 88 27 89 28 13 29 14 30 15 31 16 32 17 34 18 35 19 36 80 37
REMARK SMILES IDX 20 38 79 39 21 40 22 41 23 42 73 43 24 44 78 45 72 46 74 47
REMARK SMILES IDX 25 48 77 49 71 50 70 51 26 53 58 54 38 55 57 56 39 57 42 58
REMARK SMILES IDX 56 59 75 60 40 61 41 62 55 64 76 65 43 66 27 67 28 68 36 69
REMARK SMILES IDX 29 70 35 71 37 72 34 73 30 74 31 75 32 76 33 77 59 78 60 79
REMARK SMILES IDX 68 80 61 81 67 82 69 83 66 84 62 85 63 86 64 87 65 88 44 89
REMARK SMILES IDX 45 90 53 91 46 92 52 93 54 94 51 95 47 96 48 97 49 98 50 99
REMARK H PARENT 8 8 4 16 4 17 85 24 15 33 74 52 42 63
REMARK Flexibility Score: inf
ROOT
ATOM      1  C   UNL A   1      31.657  30.365  26.214  1.00  0.00     0.002 C 
ENDROOT
BRANCH   1   2
ATOM      2  C   UNL A   1      31.776  29.215  27.222  1.00  0.00     0.002 C 
BRANCH   2   3
ATOM      3  C   UNL A   1      31.309  27.848  26.718  1.00  0.00     0.021 C 
BRANCH   3   4
ATOM      4  C   UNL A   1      32.311  26.712  26.943  1.00  0.00     0.116 C 
BRANCH   4   5
ATOM      5  N   UNL A   1      31.669  25.447  27.204  1.00  0.00    -0.351 N 
ATOM      6  C   UNL A   1      31.671  24.229  26.614  1.00  0.00     0.281 C 
ATOM      7  O   UNL A   1      30.941  23.411  27.203  1.00  0.00    -0.268 OA
ATOM      8  H   UNL A   1      31.092  25.476  28.001  1.00  0.00     0.163 HD
BRANCH   6   9
ATOM      9  C   UNL A   1      32.406  23.811  25.239  1.00  0.00     0.181 C 
ATOM     10  C   UNL A   1      33.944  23.770  25.354  1.00  0.00     0.079 C 
ATOM     11  C   UNL A   1      31.834  24.694  24.108  1.00  0.00     0.144 C 
ATOM     12  C   UNL A   1      34.737  24.961  24.827  1.00  0.00     0.013 C 
ATOM     13  C   UNL A   1      32.651  25.922  23.681  1.00  0.00     0.190 C 
ATOM     14  C   UNL A   1      34.147  25.587  23.571  1.00  0.00     0.065 C 
BRANCH   9  15
ATOM     15  N   UNL A   1      31.889  22.415  25.045  1.00  0.00    -0.331 N 
ATOM     16  H   UNL A   1      31.758  22.048  25.988  1.00  0.00     0.347 HD
ATOM     17  H   UNL A   1      31.117  22.611  24.407  1.00  0.00     0.347 HD
BRANCH  15  18
ATOM     18  C   UNL A   1      32.536  21.340  24.310  1.00  0.00     0.176 C 
ATOM     19  C   UNL A   1      32.244  20.030  25.057  1.00  0.00     0.075 C 
ATOM     20  C   UNL A   1      32.111  21.175  22.854  1.00  0.00     0.075 C 
ENDBRANCH  15  18
ENDBRANCH   9  15
BRANCH  13  21
ATOM     21  N   UNL A   1      32.120  26.666  22.517  1.00  0.00    -0.331 N 
ATOM     22  C   UNL A   1      30.682  26.663  22.240  1.00  0.00     0.276 C 
ATOM     23  C   UNL A   1      32.715  27.975  22.214  1.00  0.00     0.276 C 
ATOM     24  H   UNL A   1      32.496  26.000  21.842  1.00  0.00     0.348 HD
ATOM     25  C   UNL A   1      29.879  27.642  23.081  1.00  0.00     0.166 C 
ATOM     26  C   UNL A   1      32.122  29.183  22.946  1.00  0.00     0.166 C 
ATOM     27  S   UNL A   1      30.330  29.365  22.741  1.00  0.00     0.032 S 
ATOM     28  O   UNL A   1      30.044  29.659  21.300  1.00  0.00    -0.259 OA
ENDBRANCH  13  21
ENDBRANCH   6   9
ENDBRANCH   4   5
ENDBRANCH   3   4
ENDBRANCH   2   3
ENDBRANCH   1   2
BRANCH   1  29
ATOM     29  C   UNL A   1      31.556  31.774  26.808  1.00  0.00     0.021 C 
BRANCH  29  30
ATOM     30  C   UNL A   1      32.880  32.526  26.941  1.00  0.00     0.116 C 
BRANCH  30  31
ATOM     31  N   UNL A   1      32.702  33.839  27.539  1.00  0.00    -0.352 N 
ATOM     32  C   UNL A   1      33.257  34.384  28.664  1.00  0.00     0.251 C 
ATOM     33  H   UNL A   1      32.081  34.432  27.056  1.00  0.00     0.163 HD
ATOM     34  O   UNL A   1      32.771  35.421  29.129  1.00  0.00    -0.269 OA
BRANCH  32  35
ATOM     35  C   UNL A   1      34.414  33.751  29.330  1.00  0.00     0.039 A 
ATOM     36  C   UNL A   1      35.692  34.275  29.109  1.00  0.00     0.014 A 
ATOM     37  C   UNL A   1      34.258  32.610  30.124  1.00  0.00     0.014 A 
ATOM     38  C   UNL A   1      36.801  33.691  29.723  1.00  0.00     0.010 A 
ATOM     39  C   UNL A   1      35.358  32.065  30.786  1.00  0.00     0.010 A 
ATOM     40  C   UNL A   1      36.642  32.597  30.589  1.00  0.00    -0.014 A 
BRANCH  40  41
ATOM     41  C   UNL A   1      37.807  32.004  31.295  1.00  0.00     0.031 A 
ATOM     42  C   UNL A   1      38.595  30.890  30.660  1.00  0.00     0.074 A 
ATOM     43  C   UNL A   1      38.120  32.434  32.533  1.00  0.00     0.049 A 
ATOM     44  N   UNL A   1      39.606  30.212  31.140  1.00  0.00    -0.248 NA
ATOM     45  C   UNL A   1      38.168  30.466  29.319  1.00  0.00     0.031 C 
ATOM     46  C   UNL A   1      37.405  33.480  33.267  1.00  0.00     0.029 A 
ATOM     47  N   UNL A   1      39.113  32.044  33.395  1.00  0.00    -0.354 N 
ATOM     48  C   UNL A   1      39.931  29.273  30.166  1.00  0.00     0.074 A 
ATOM     49  C   UNL A   1      38.969  29.434  29.096  1.00  0.00     0.031 C 
ATOM     50  C   UNL A   1      37.995  33.661  34.459  1.00  0.00     0.029 A 
ATOM     51  C   UNL A   1      39.103  32.721  34.593  1.00  0.00     0.049 A 
ATOM     52  H   UNL A   1      39.771  31.344  33.179  1.00  0.00     0.167 HD
ATOM     53  C   UNL A   1      40.950  28.377  30.157  1.00  0.00     0.034 A 
ATOM     54  C   UNL A   1      39.891  32.595  35.678  1.00  0.00     0.034 A 
ATOM     55  C   UNL A   1      41.904  28.235  31.232  1.00  0.00     0.049 A 
ATOM     56  C   UNL A   1      41.004  31.579  35.654  1.00  0.00     0.074 A 
ATOM     57  C   UNL A   1      43.007  27.402  31.304  1.00  0.00     0.029 A 
ATOM     58  N   UNL A   1      41.860  28.937  32.431  1.00  0.00    -0.354 N 
ATOM     59  N   UNL A   1      41.333  30.736  34.703  1.00  0.00    -0.248 NA
ATOM     60  C   UNL A   1      41.858  31.509  36.846  1.00  0.00     0.031 C 
ATOM     61  C   UNL A   1      43.590  27.552  32.568  1.00  0.00     0.029 A 
ATOM     62  C   UNL A   1      42.897  28.532  33.260  1.00  0.00     0.049 A 
ATOM     63  H   UNL A   1      41.191  29.622  32.659  1.00  0.00     0.167 HD
ATOM     64  C   UNL A   1      42.449  30.051  35.173  1.00  0.00     0.074 A 
ATOM     65  C   UNL A   1      42.745  30.593  36.484  1.00  0.00     0.031 C 
ATOM     66  C   UNL A   1      43.167  29.067  34.575  1.00  0.00     0.034 A 
BRANCH  53  67
ATOM     67  C   UNL A   1      41.060  27.464  28.957  1.00  0.00     0.023 A 
ATOM     68  C   UNL A   1      42.057  27.645  27.981  1.00  0.00     0.031 A 
ATOM     69  C   UNL A   1      40.137  26.422  28.764  1.00  0.00     0.131 A 
ATOM     70  C   UNL A   1      42.056  26.856  26.820  1.00  0.00     0.055 A 
ATOM     71  C   UNL A   1      40.192  25.584  27.648  1.00  0.00     0.041 A 
ATOM     72  F   UNL A   1      39.151  26.208  29.650  1.00  0.00    -0.206 F 
ATOM     73  C   UNL A   1      41.145  25.809  26.658  1.00  0.00     0.022 A 
BRANCH  70  74
ATOM     74  S   UNL A   1      43.163  27.315  25.458  1.00  0.00     0.124 S 
ATOM     75  O   UNL A   1      43.471  26.011  24.877  1.00  0.00    -0.237 OA
ATOM     76  O   UNL A   1      42.323  28.192  24.651  1.00  0.00    -0.237 OA
ATOM     77  O   UNL A   1      44.283  27.969  26.132  1.00  0.00    -0.744 OA
ENDBRANCH  70  74
ENDBRANCH  53  67
BRANCH  54  78
ATOM     78  C   UNL A   1      39.656  33.443  36.879  1.00  0.00     0.023 A 
ATOM     79  C   UNL A   1      39.005  32.928  38.011  1.00  0.00     0.031 A 
ATOM     80  C   UNL A   1      40.058  34.791  36.904  1.00  0.00     0.131 A 
ATOM     81  C   UNL A   1      38.739  33.765  39.106  1.00  0.00     0.055 A 
ATOM     82  C   UNL A   1      39.834  35.606  38.014  1.00  0.00     0.041 A 
ATOM     83  F   UNL A   1      40.691  35.329  35.850  1.00  0.00    -0.206 F 
ATOM     84  C   UNL A   1      39.160  35.097  39.120  1.00  0.00     0.022 A 
BRANCH  81  85
ATOM     85  S   UNL A   1      37.773  33.103  40.492  1.00  0.00     0.124 S 
ATOM     86  O   UNL A   1      36.467  32.901  39.874  1.00  0.00    -0.237 OA
ATOM     87  O   UNL A   1      38.518  31.894  40.830  1.00  0.00    -0.237 OA
ATOM     88  O   UNL A   1      37.835  34.170  41.488  1.00  0.00    -0.744 OA
ENDBRANCH  81  85
ENDBRANCH  54  78
BRANCH  66  89
ATOM     89  C   UNL A   1      44.364  28.542  35.331  1.00  0.00     0.023 A 
ATOM     90  C   UNL A   1      44.240  27.526  36.295  1.00  0.00     0.031 A 
ATOM     91  C   UNL A   1      45.641  29.082  35.099  1.00  0.00     0.131 A 
ATOM     92  C   UNL A   1      45.364  27.125  37.035  1.00  0.00     0.055 A 
ATOM     93  C   UNL A   1      46.764  28.637  35.795  1.00  0.00     0.041 A 
ATOM     94  F   UNL A   1      45.816  30.057  34.192  1.00  0.00    -0.206 F 
ATOM     95  C   UNL A   1      46.628  27.662  36.779  1.00  0.00     0.022 A 
BRANCH  92  96
ATOM     96  S   UNL A   1      45.133  25.958  38.405  1.00  0.00     0.124 S 
ATOM     97  O   UNL A   1      46.388  26.098  39.137  1.00  0.00    -0.237 OA
ATOM     98  O   UNL A   1      43.946  26.486  39.069  1.00  0.00    -0.237 OA
ATOM     99  O   UNL A   1      44.947  24.672  37.733  1.00  0.00    -0.744 OA
ENDBRANCH  92  96
ENDBRANCH  66  89
ENDBRANCH  40  41
ENDBRANCH  32  35
ENDBRANCH  30  31
ENDBRANCH  29  30
ENDBRANCH   1  29
TORSDOF 19
ENDMDL
MODEL 3
REMARK VINA RESULT:     -11.2      6.201     11.426
REMARK SMILES CC(C)[NH2+][C@@]1(C(=O)NCCCCCCNC(=O)c2ccc(-c3c4nc(c(-c5cc(S(=O)(=O)[O-])ccc5F)c5ccc([nH]5)c(-c5cc(S(=O)(=O)[O-])ccc5F)c5nc(c(-c6cc(S(=O)(=O)[O-])ccc6F)c6ccc3[nH]6)C=C5)C=C4)cc2)CCC[C@@H]([NH+]2CCS(=O)CC2)C1
REMARK SMILES IDX 12 1 11 2 10 3 9 4 8 5 6 6 7 7 5 9 81 10 92 11 82 12 84 13
REMARK SMILES IDX 83 14 4 15 2 18 1 19 3 20 85 21 86 22 91 23 87 25 90 26
REMARK SMILES IDX 88 27 89 28 13 29 14 30 15 31 16 32 17 34 18 35 19 36 80 37
REMARK SMILES IDX 20 38 79 39 21 40 22 41 23 42 73 43 24 44 78 45 72 46 74 47
REMARK SMILES IDX 25 48 77 49 71 50 70 51 26 53 58 54 38 55 57 56 39 57 42 58
REMARK SMILES IDX 56 59 75 60 40 61 41 62 55 64 76 65 43 66 27 67 28 68 36 69
REMARK SMILES IDX 29 70 35 71 37 72 34 73 30 74 31 75 32 76 33 77 59 78 60 79
REMARK SMILES IDX 68 80 61 81 67 82 69 83 66 84 62 85 63 86 64 87 65 88 44 89
REMARK SMILES IDX 45 90 53 91 46 92 52 93 54 94 51 95 47 96 48 97 49 98 50 99
REMARK H PARENT 8 8 4 16 4 17 85 24 15 33 74 52 42 63
REMARK Flexibility Score: inf
ROOT
ATOM      1  C   UNL A   1      37.680  21.211  24.636  1.00  0.00     0.002 C 
ENDROOT
BRANCH   1   2
ATOM      2  C   UNL A   1      37.837  22.252  25.751  1.00  0.00     0.002 C 
BRANCH   2   3
ATOM      3  C   UNL A   1      37.392  23.672  25.393  1.00  0.00     0.021 C 
BRANCH   3   4
ATOM      4  C   UNL A   1      36.021  24.067  25.947  1.00  0.00     0.116 C 
BRANCH   4   5
ATOM      5  N   UNL A   1      35.377  22.989  26.659  1.00  0.00    -0.351 N 
ATOM      6  C   UNL A   1      34.357  22.140  26.398  1.00  0.00     0.281 C 
ATOM      7  O   UNL A   1      34.140  21.351  27.336  1.00  0.00    -0.268 OA
ATOM      8  H   UNL A   1      35.774  22.836  27.547  1.00  0.00     0.163 HD
BRANCH   6   9
ATOM      9  C   UNL A   1      33.393  22.138  25.104  1.00  0.00     0.181 C 
ATOM     10  C   UNL A   1      34.163  22.155  23.767  1.00  0.00     0.079 C 
ATOM     11  C   UNL A   1      32.342  23.255  25.294  1.00  0.00     0.144 C 
ATOM     12  C   UNL A   1      34.306  23.485  23.035  1.00  0.00     0.013 C 
ATOM     13  C   UNL A   1      32.590  24.595  24.588  1.00  0.00     0.190 C 
ATOM     14  C   UNL A   1      33.083  24.385  23.148  1.00  0.00     0.065 C 
BRANCH   9  15
ATOM     15  N   UNL A   1      32.700  20.816  25.257  1.00  0.00    -0.331 N 
ATOM     16  H   UNL A   1      32.739  20.611  26.256  1.00  0.00     0.347 HD
ATOM     17  H   UNL A   1      31.834  21.023  24.760  1.00  0.00     0.347 HD
BRANCH  15  18
ATOM     18  C   UNL A   1      33.054  19.566  24.603  1.00  0.00     0.176 C 
ATOM     19  C   UNL A   1      32.862  18.440  25.630  1.00  0.00     0.075 C 
ATOM     20  C   UNL A   1      32.260  19.220  23.347  1.00  0.00     0.075 C 
ENDBRANCH  15  18
ENDBRANCH   9  15
BRANCH  13  21
ATOM     21  N   UNL A   1      31.499  25.587  24.706  1.00  0.00    -0.331 N 
ATOM     22  C   UNL A   1      31.722  26.840  25.431  1.00  0.00     0.276 C 
ATOM     23  C   UNL A   1      30.641  25.800  23.532  1.00  0.00     0.276 C 
ATOM     24  H   UNL A   1      30.969  25.018  25.366  1.00  0.00     0.348 HD
ATOM     25  C   UNL A   1      32.446  27.908  24.628  1.00  0.00     0.166 C 
ATOM     26  C   UNL A   1      31.130  26.824  22.503  1.00  0.00     0.166 C 
ATOM     27  S   UNL A   1      31.479  28.462  23.198  1.00  0.00     0.032 S 
ATOM     28  O   UNL A   1      30.193  29.053  23.690  1.00  0.00    -0.259 OA
ENDBRANCH  13  21
ENDBRANCH   6   9
ENDBRANCH   4   5
ENDBRANCH   3   4
ENDBRANCH   2   3
ENDBRANCH   1   2
BRANCH   1  29
ATOM     29  C   UNL A   1      38.397  19.875  24.857  1.00  0.00     0.021 C 
BRANCH  29  30
ATOM     30  C   UNL A   1      39.088  19.717  26.210  1.00  0.00     0.116 C 
BRANCH  30  31
ATOM     31  N   UNL A   1      40.330  18.968  26.103  1.00  0.00    -0.352 N 
ATOM     32  C   UNL A   1      41.624  19.402  26.026  1.00  0.00     0.251 C 
ATOM     33  H   UNL A   1      40.220  17.988  26.084  1.00  0.00     0.163 HD
ATOM     34  O   UNL A   1      42.504  18.603  25.683  1.00  0.00    -0.269 OA
BRANCH  32  35
ATOM     35  C   UNL A   1      41.982  20.802  26.334  1.00  0.00     0.039 A 
ATOM     36  C   UNL A   1      42.345  21.134  27.644  1.00  0.00     0.014 A 
ATOM     37  C   UNL A   1      41.905  21.801  25.359  1.00  0.00     0.014 A 
ATOM     38  C   UNL A   1      42.682  22.452  27.960  1.00  0.00     0.010 A 
ATOM     39  C   UNL A   1      42.301  23.104  25.662  1.00  0.00     0.010 A 
ATOM     40  C   UNL A   1      42.689  23.443  26.967  1.00  0.00    -0.014 A 
BRANCH  40  41
ATOM     41  C   UNL A   1      43.103  24.836  27.278  1.00  0.00     0.031 A 
ATOM     42  C   UNL A   1      42.140  25.785  27.939  1.00  0.00     0.074 A 
ATOM     43  C   UNL A   1      44.329  25.259  26.916  1.00  0.00     0.049 A 
ATOM     44  N   UNL A   1      42.299  27.049  28.242  1.00  0.00    -0.248 NA
ATOM     45  C   UNL A   1      40.815  25.247  28.278  1.00  0.00     0.031 C 
ATOM     46  C   UNL A   1      45.335  24.442  26.233  1.00  0.00     0.029 A 
ATOM     47  N   UNL A   1      44.939  26.480  27.062  1.00  0.00    -0.354 N 
ATOM     48  C   UNL A   1      41.091  27.462  28.797  1.00  0.00     0.074 A 
ATOM     49  C   UNL A   1      40.195  26.327  28.731  1.00  0.00     0.031 C 
ATOM     50  C   UNL A   1      46.441  25.177  26.039  1.00  0.00     0.029 A 
ATOM     51  C   UNL A   1      46.213  26.527  26.545  1.00  0.00     0.049 A 
ATOM     52  H   UNL A   1      44.505  27.250  27.495  1.00  0.00     0.167 HD
ATOM     53  C   UNL A   1      40.770  28.667  29.329  1.00  0.00     0.034 A 
ATOM     54  C   UNL A   1      47.094  27.543  26.478  1.00  0.00     0.034 A 
ATOM     55  C   UNL A   1      41.681  29.786  29.391  1.00  0.00     0.049 A 
ATOM     56  C   UNL A   1      46.709  28.880  27.058  1.00  0.00     0.074 A 
ATOM     57  C   UNL A   1      41.481  31.034  29.958  1.00  0.00     0.029 A 
ATOM     58  N   UNL A   1      42.963  29.799  28.854  1.00  0.00    -0.354 N 
ATOM     59  N   UNL A   1      45.582  29.238  27.629  1.00  0.00    -0.248 NA
ATOM     60  C   UNL A   1      47.719  29.942  26.995  1.00  0.00     0.031 C 
ATOM     61  C   UNL A   1      42.613  31.818  29.708  1.00  0.00     0.029 A 
ATOM     62  C   UNL A   1      43.552  31.040  29.049  1.00  0.00     0.049 A 
ATOM     63  H   UNL A   1      43.391  29.036  28.402  1.00  0.00     0.167 HD
ATOM     64  C   UNL A   1      45.759  30.564  28.015  1.00  0.00     0.074 A 
ATOM     65  C   UNL A   1      47.106  30.932  27.628  1.00  0.00     0.031 C 
ATOM     66  C   UNL A   1      44.889  31.400  28.637  1.00  0.00     0.034 A 
BRANCH  53  67
ATOM     67  C   UNL A   1      39.364  28.839  29.859  1.00  0.00     0.023 A 
ATOM     68  C   UNL A   1      38.337  29.379  29.064  1.00  0.00     0.031 A 
ATOM     69  C   UNL A   1      39.053  28.493  31.185  1.00  0.00     0.131 A 
ATOM     70  C   UNL A   1      37.076  29.636  29.625  1.00  0.00     0.055 A 
ATOM     71  C   UNL A   1      37.773  28.673  31.714  1.00  0.00     0.041 A 
ATOM     72  F   UNL A   1      39.994  27.990  32.000  1.00  0.00    -0.206 F 
ATOM     73  C   UNL A   1      36.779  29.263  30.938  1.00  0.00     0.022 A 
BRANCH  70  74
ATOM     74  S   UNL A   1      35.880  30.603  28.663  1.00  0.00     0.124 S 
ATOM     75  O   UNL A   1      36.736  31.193  27.637  1.00  0.00    -0.237 OA
ATOM     76  O   UNL A   1      34.945  29.582  28.205  1.00  0.00    -0.237 OA
ATOM     77  O   UNL A   1      35.341  31.551  29.636  1.00  0.00    -0.744 OA
ENDBRANCH  70  74
ENDBRANCH  53  67
BRANCH  54  78
ATOM     78  C   UNL A   1      48.422  27.344  25.834  1.00  0.00     0.023 A 
ATOM     79  C   UNL A   1      48.587  27.510  24.450  1.00  0.00     0.031 A 
ATOM     80  C   UNL A   1      49.544  26.960  26.592  1.00  0.00     0.131 A 
ATOM     81  C   UNL A   1      49.834  27.255  23.860  1.00  0.00     0.055 A 
ATOM     82  C   UNL A   1      50.793  26.754  26.007  1.00  0.00     0.041 A 
ATOM     83  F   UNL A   1      49.441  26.796  27.920  1.00  0.00    -0.206 F 
ATOM     84  C   UNL A   1      50.941  26.890  24.630  1.00  0.00     0.022 A 
BRANCH  81  85
ATOM     85  S   UNL A   1      49.974  27.343  22.053  1.00  0.00     0.124 S 
ATOM     86  O   UNL A   1      51.294  26.763  21.828  1.00  0.00    -0.237 OA
ATOM     87  O   UNL A   1      48.837  26.536  21.622  1.00  0.00    -0.237 OA
ATOM     88  O   UNL A   1      49.863  28.772  21.773  1.00  0.00    -0.744 OA
ENDBRANCH  81  85
ENDBRANCH  54  78
BRANCH  66  89
ATOM     89  C   UNL A   1      45.391  32.785  28.963  1.00  0.00     0.023 A 
ATOM     90  C   UNL A   1      45.096  33.889  28.143  1.00  0.00     0.031 A 
ATOM     91  C   UNL A   1      46.196  32.998  30.096  1.00  0.00     0.131 A 
ATOM     92  C   UNL A   1      45.652  35.144  28.437  1.00  0.00     0.055 A 
ATOM     93  C   UNL A   1      46.696  34.261  30.415  1.00  0.00     0.041 A 
ATOM     94  F   UNL A   1      46.512  31.979  30.912  1.00  0.00    -0.206 F 
ATOM     95  C   UNL A   1      46.436  35.341  29.576  1.00  0.00     0.022 A 
BRANCH  92  96
ATOM     96  S   UNL A   1      45.415  36.499  27.253  1.00  0.00     0.124 S 
ATOM     97  O   UNL A   1      45.452  37.672  28.122  1.00  0.00    -0.237 OA
ATOM     98  O   UNL A   1      46.555  36.334  26.357  1.00  0.00    -0.237 OA
ATOM     99  O   UNL A   1      44.112  36.210  26.657  1.00  0.00    -0.744 OA
ENDBRANCH  92  96
ENDBRANCH  66  89
ENDBRANCH  40  41
ENDBRANCH  32  35
ENDBRANCH  30  31
ENDBRANCH  29  30
ENDBRANCH   1  29
TORSDOF 19
ENDMDL
