MODEL 1
REMARK VINA RESULT:     -10.6      0.000      0.000
REMARK SMILES CCC[C@@]1(C(=O)N[C@@](C)(C(=O)NCCCCCCNC(=O)c2ccc(-c3c4nc(c(-c5cc(S(=O)(=O)[O-])ccc5F)c5ccc([nH]5)c(-c5cc(S(=O)(=O)[O-])ccc5F)c5nc(c(-c6cc(S(=O)(=O)[O-])ccc6F)c6ccc3[nH]6)C=C5)C=C4)cc2)C(F)(F)F)CC[NH2+]C1
REMARK SMILES IDX 15 1 14 2 13 3 12 4 10 5 11 6 8 8 9 9 7 10 5 11 6 12 4 14
REMARK SMILES IDX 89 15 92 16 90 17 91 18 3 21 2 22 1 23 85 24 86 25 87 26
REMARK SMILES IDX 88 27 16 28 17 29 18 30 19 31 20 32 21 34 22 35 23 36 84 37
REMARK SMILES IDX 24 38 83 39 25 40 26 41 27 42 77 43 28 44 82 45 76 46 78 47
REMARK SMILES IDX 29 48 81 49 75 50 74 51 30 53 62 54 42 55 61 56 43 57 46 58
REMARK SMILES IDX 60 59 79 60 44 61 45 62 59 64 80 65 47 66 31 67 32 68 40 69
REMARK SMILES IDX 33 70 39 71 41 72 38 73 34 74 35 75 36 76 37 77 63 78 64 79
REMARK SMILES IDX 72 80 65 81 71 82 73 83 70 84 66 85 67 86 68 87 69 88 48 89
REMARK SMILES IDX 49 90 57 91 50 92 56 93 58 94 55 95 51 96 52 97 53 98 54 99
REMARK H PARENT 12 7 7 13 91 19 91 20 19 33 78 52 46 63
REMARK Flexibility Score: inf
ROOT
ATOM      1  C   UNL A   1      34.747  20.348  25.142  1.00  0.00     0.002 C 
ENDROOT
BRANCH   1   2
ATOM      2  C   UNL A   1      33.977  21.272  26.093  1.00  0.00     0.021 C 
BRANCH   2   3
ATOM      3  C   UNL A   1      32.831  22.044  25.449  1.00  0.00     0.116 C 
BRANCH   3   4
ATOM      4  N   UNL A   1      32.933  21.985  24.008  1.00  0.00    -0.354 N 
ATOM      5  C   UNL A   1      32.616  22.852  23.017  1.00  0.00     0.254 C 
ATOM      6  O   UNL A   1      32.533  22.328  21.901  1.00  0.00    -0.272 OA
ATOM      7  H   UNL A   1      33.311  21.138  23.678  1.00  0.00     0.163 HD
BRANCH   5   8
ATOM      8  C   UNL A   1      32.273  24.336  23.263  1.00  0.00     0.212 C 
ATOM      9  C   UNL A   1      32.330  25.206  21.985  1.00  0.00     0.056 C 
BRANCH   8  10
ATOM     10  N   UNL A   1      33.353  24.864  24.196  1.00  0.00    -0.334 N 
ATOM     11  C   UNL A   1      33.650  25.794  25.129  1.00  0.00     0.233 C 
ATOM     12  O   UNL A   1      34.730  25.573  25.696  1.00  0.00    -0.274 OA
ATOM     13  H   UNL A   1      34.153  24.304  24.070  1.00  0.00     0.164 HD
BRANCH  11  14
ATOM     14  C   UNL A   1      32.816  27.018  25.527  1.00  0.00     0.103 C 
ATOM     15  C   UNL A   1      33.657  27.920  26.436  1.00  0.00     0.084 C 
ATOM     16  C   UNL A   1      31.631  26.608  26.382  1.00  0.00     0.277 C 
ATOM     17  C   UNL A   1      32.668  28.465  27.453  1.00  0.00     0.261 C 
ATOM     18  N   UNL A   1      31.514  27.566  27.477  1.00  0.00    -0.345 N 
ATOM     19  H   UNL A   1      30.657  28.107  27.368  1.00  0.00     0.346 HD
ATOM     20  H   UNL A   1      31.484  27.068  28.367  1.00  0.00     0.346 HD
BRANCH  14  21
ATOM     21  C   UNL A   1      32.391  27.878  24.277  1.00  0.00     0.023 C 
BRANCH  21  22
ATOM     22  C   UNL A   1      33.381  28.927  23.739  1.00  0.00    -0.002 C 
ATOM     23  C   UNL A   1      34.115  28.470  22.478  1.00  0.00     0.004 C 
ENDBRANCH  21  22
ENDBRANCH  14  21
ENDBRANCH  11  14
ENDBRANCH   8  10
BRANCH   8  24
ATOM     24  C   UNL A   1      30.756  24.256  23.599  1.00  0.00     0.420 C 
ATOM     25  F   UNL A   1      30.066  23.365  22.874  1.00  0.00    -0.168 F 
ATOM     26  F   UNL A   1      30.543  24.001  24.913  1.00  0.00    -0.168 F 
ATOM     27  F   UNL A   1      30.163  25.469  23.392  1.00  0.00    -0.168 F 
ENDBRANCH   8  24
ENDBRANCH   5   8
ENDBRANCH   3   4
ENDBRANCH   2   3
ENDBRANCH   1   2
BRANCH   1  28
ATOM     28  C   UNL A   1      36.186  20.774  24.838  1.00  0.00     0.002 C 
BRANCH  28  29
ATOM     29  C   UNL A   1      36.410  22.285  24.761  1.00  0.00     0.021 C 
BRANCH  29  30
ATOM     30  C   UNL A   1      37.418  22.818  25.766  1.00  0.00     0.116 C 
BRANCH  30  31
ATOM     31  N   UNL A   1      38.396  21.812  26.135  1.00  0.00    -0.352 N 
ATOM     32  C   UNL A   1      39.677  22.005  26.583  1.00  0.00     0.251 C 
ATOM     33  H   UNL A   1      38.104  20.876  26.055  1.00  0.00     0.163 HD
ATOM     34  O   UNL A   1      40.459  21.058  26.640  1.00  0.00    -0.269 OA
BRANCH  32  35
ATOM     35  C   UNL A   1      40.104  23.366  26.965  1.00  0.00     0.039 A 
ATOM     36  C   UNL A   1      39.746  24.444  26.155  1.00  0.00     0.014 A 
ATOM     37  C   UNL A   1      40.837  23.574  28.139  1.00  0.00     0.014 A 
ATOM     38  C   UNL A   1      40.097  25.738  26.541  1.00  0.00     0.010 A 
ATOM     39  C   UNL A   1      41.100  24.869  28.568  1.00  0.00     0.010 A 
ATOM     40  C   UNL A   1      40.758  25.963  27.760  1.00  0.00    -0.014 A 
BRANCH  40  41
ATOM     41  C   UNL A   1      41.156  27.331  28.177  1.00  0.00     0.031 A 
ATOM     42  C   UNL A   1      42.602  27.741  28.101  1.00  0.00     0.074 A 
ATOM     43  C   UNL A   1      40.231  28.181  28.661  1.00  0.00     0.049 A 
ATOM     44  N   UNL A   1      43.165  28.869  28.452  1.00  0.00    -0.248 NA
ATOM     45  C   UNL A   1      43.545  26.732  27.595  1.00  0.00     0.031 C 
ATOM     46  C   UNL A   1      38.805  27.884  28.812  1.00  0.00     0.029 A 
ATOM     47  N   UNL A   1      40.350  29.472  29.110  1.00  0.00    -0.354 N 
ATOM     48  C   UNL A   1      44.527  28.696  28.228  1.00  0.00     0.074 A 
ATOM     49  C   UNL A   1      44.708  27.331  27.789  1.00  0.00     0.031 C 
ATOM     50  C   UNL A   1      38.176  28.976  29.274  1.00  0.00     0.029 A 
ATOM     51  C   UNL A   1      39.157  30.033  29.499  1.00  0.00     0.049 A 
ATOM     52  H   UNL A   1      41.209  29.950  29.150  1.00  0.00     0.167 HD
ATOM     53  C   UNL A   1      45.529  29.602  28.350  1.00  0.00     0.034 A 
ATOM     54  C   UNL A   1      38.887  31.261  29.984  1.00  0.00     0.034 A 
ATOM     55  C   UNL A   1      45.321  30.964  28.781  1.00  0.00     0.049 A 
ATOM     56  C   UNL A   1      40.019  32.243  30.148  1.00  0.00     0.074 A 
ATOM     57  C   UNL A   1      46.248  31.986  28.886  1.00  0.00     0.029 A 
ATOM     58  N   UNL A   1      44.101  31.491  29.190  1.00  0.00    -0.354 N 
ATOM     59  N   UNL A   1      41.297  32.086  29.883  1.00  0.00    -0.248 NA
ATOM     60  C   UNL A   1      39.670  33.571  30.665  1.00  0.00     0.031 C 
ATOM     61  C   UNL A   1      45.608  33.100  29.440  1.00  0.00     0.029 A 
ATOM     62  C   UNL A   1      44.261  32.810  29.588  1.00  0.00     0.049 A 
ATOM     63  H   UNL A   1      43.249  31.000  29.196  1.00  0.00     0.167 HD
ATOM     64  C   UNL A   1      41.895  33.312  30.161  1.00  0.00     0.074 A 
ATOM     65  C   UNL A   1      40.837  34.196  30.609  1.00  0.00     0.031 C 
ATOM     66  C   UNL A   1      43.198  33.678  30.044  1.00  0.00     0.034 A 
BRANCH  53  67
ATOM     67  C   UNL A   1      46.934  29.124  28.052  1.00  0.00     0.023 A 
ATOM     68  C   UNL A   1      47.377  28.890  26.737  1.00  0.00     0.031 A 
ATOM     69  C   UNL A   1      47.823  28.833  29.101  1.00  0.00     0.131 A 
ATOM     70  C   UNL A   1      48.620  28.281  26.512  1.00  0.00     0.055 A 
ATOM     71  C   UNL A   1      49.102  28.324  28.864  1.00  0.00     0.041 A 
ATOM     72  F   UNL A   1      47.457  29.012  30.379  1.00  0.00    -0.206 F 
ATOM     73  C   UNL A   1      49.499  28.023  27.564  1.00  0.00     0.022 A 
BRANCH  70  74
ATOM     74  S   UNL A   1      48.982  27.648  24.851  1.00  0.00     0.124 S 
ATOM     75  O   UNL A   1      47.853  28.173  24.083  1.00  0.00    -0.237 OA
ATOM     76  O   UNL A   1      50.282  28.243  24.563  1.00  0.00    -0.237 OA
ATOM     77  O   UNL A   1      48.981  26.198  25.028  1.00  0.00    -0.744 OA
ENDBRANCH  70  74
ENDBRANCH  53  67
BRANCH  54  78
ATOM     78  C   UNL A   1      37.488  31.642  30.330  1.00  0.00     0.023 A 
ATOM     79  C   UNL A   1      36.619  32.148  29.349  1.00  0.00     0.031 A 
ATOM     80  C   UNL A   1      37.005  31.531  31.645  1.00  0.00     0.131 A 
ATOM     81  C   UNL A   1      35.326  32.561  29.706  1.00  0.00     0.055 A 
ATOM     82  C   UNL A   1      35.700  31.893  31.985  1.00  0.00     0.041 A 
ATOM     83  F   UNL A   1      37.793  31.048  32.618  1.00  0.00    -0.206 F 
ATOM     84  C   UNL A   1      34.855  32.423  31.014  1.00  0.00     0.022 A 
BRANCH  81  85
ATOM     85  S   UNL A   1      34.289  33.352  28.447  1.00  0.00     0.124 S 
ATOM     86  O   UNL A   1      33.637  34.405  29.218  1.00  0.00    -0.237 OA
ATOM     87  O   UNL A   1      35.278  33.790  27.469  1.00  0.00    -0.237 OA
ATOM     88  O   UNL A   1      33.413  32.271  28.000  1.00  0.00    -0.744 OA
ENDBRANCH  81  85
ENDBRANCH  54  78
BRANCH  66  89
ATOM     89  C   UNL A   1      43.539  35.120  30.350  1.00  0.00     0.023 A 
ATOM     90  C   UNL A   1      43.522  36.117  29.360  1.00  0.00     0.031 A 
ATOM     91  C   UNL A   1      43.899  35.493  31.658  1.00  0.00     0.131 A 
ATOM     92  C   UNL A   1      43.921  37.425  29.679  1.00  0.00     0.055 A 
ATOM     93  C   UNL A   1      44.224  36.810  31.985  1.00  0.00     0.041 A 
ATOM     94  F   UNL A   1      43.938  34.583  32.644  1.00  0.00    -0.206 F 
ATOM     95  C   UNL A   1      44.252  37.782  30.988  1.00  0.00     0.022 A 
BRANCH  92  96
ATOM     96  S   UNL A   1      44.114  38.628  28.336  1.00  0.00     0.124 S 
ATOM     97  O   UNL A   1      43.501  39.823  28.908  1.00  0.00    -0.237 OA
ATOM     98  O   UNL A   1      45.562  38.674  28.164  1.00  0.00    -0.237 OA
ATOM     99  O   UNL A   1      43.377  38.025  27.226  1.00  0.00    -0.744 OA
ENDBRANCH  92  96
ENDBRANCH  66  89
ENDBRANCH  40  41
ENDBRANCH  32  35
ENDBRANCH  30  31
ENDBRANCH  29  30
ENDBRANCH  28  29
ENDBRANCH   1  28
TORSDOF 21
ENDMDL
MODEL 2
REMARK VINA RESULT:     -10.5      2.194      7.702
REMARK SMILES CCC[C@@]1(C(=O)N[C@@](C)(C(=O)NCCCCCCNC(=O)c2ccc(-c3c4nc(c(-c5cc(S(=O)(=O)[O-])ccc5F)c5ccc([nH]5)c(-c5cc(S(=O)(=O)[O-])ccc5F)c5nc(c(-c6cc(S(=O)(=O)[O-])ccc6F)c6ccc3[nH]6)C=C5)C=C4)cc2)C(F)(F)F)CC[NH2+]C1
REMARK SMILES IDX 15 1 14 2 13 3 12 4 10 5 11 6 8 8 9 9 7 10 5 11 6 12 4 14
REMARK SMILES IDX 89 15 92 16 90 17 91 18 3 21 2 22 1 23 85 24 86 25 87 26
REMARK SMILES IDX 88 27 16 28 17 29 18 30 19 31 20 32 21 34 22 35 23 36 84 37
REMARK SMILES IDX 24 38 83 39 25 40 26 41 27 42 77 43 28 44 82 45 76 46 78 47
REMARK SMILES IDX 29 48 81 49 75 50 74 51 30 53 62 54 42 55 61 56 43 57 46 58
REMARK SMILES IDX 60 59 79 60 44 61 45 62 59 64 80 65 47 66 31 67 32 68 40 69
REMARK SMILES IDX 33 70 39 71 41 72 38 73 34 74 35 75 36 76 37 77 63 78 64 79
REMARK SMILES IDX 72 80 65 81 71 82 73 83 70 84 66 85 67 86 68 87 69 88 48 89
REMARK SMILES IDX 49 90 57 91 50 92 56 93 58 94 55 95 51 96 52 97 53 98 54 99
REMARK H PARENT 12 7 7 13 91 19 91 20 19 33 78 52 46 63
REMARK Flexibility Score: inf
ROOT
ATOM      1  C   UNL A   1      33.652  20.741  25.832  1.00  0.00     0.002 C 
ENDROOT
BRANCH   1   2
ATOM      2  C   UNL A   1      34.061  21.098  27.266  1.00  0.00     0.021 C 
BRANCH   2   3
ATOM      3  C   UNL A   1      33.617  22.479  27.734  1.00  0.00     0.116 C 
BRANCH   3   4
ATOM      4  N   UNL A   1      32.192  22.637  27.550  1.00  0.00    -0.354 N 
ATOM      5  C   UNL A   1      31.436  23.528  26.864  1.00  0.00     0.254 C 
ATOM      6  O   UNL A   1      30.250  23.548  27.208  1.00  0.00    -0.272 OA
ATOM      7  H   UNL A   1      31.659  21.957  28.021  1.00  0.00     0.163 HD
BRANCH   5   8
ATOM      8  C   UNL A   1      32.013  24.514  25.827  1.00  0.00     0.212 C 
ATOM      9  C   UNL A   1      33.554  24.456  25.706  1.00  0.00     0.056 C 
BRANCH   8  10
ATOM     10  N   UNL A   1      31.670  25.905  26.340  1.00  0.00    -0.334 N 
ATOM     11  C   UNL A   1      31.280  27.148  25.986  1.00  0.00     0.233 C 
ATOM     12  O   UNL A   1      30.972  27.847  26.963  1.00  0.00    -0.274 OA
ATOM     13  H   UNL A   1      31.773  25.894  27.319  1.00  0.00     0.164 HD
BRANCH  11  14
ATOM     14  C   UNL A   1      31.182  27.731  24.570  1.00  0.00     0.103 C 
ATOM     15  C   UNL A   1      31.091  29.257  24.664  1.00  0.00     0.084 C 
ATOM     16  C   UNL A   1      29.887  27.308  23.902  1.00  0.00     0.277 C 
ATOM     17  C   UNL A   1      30.133  29.651  23.553  1.00  0.00     0.261 C 
ATOM     18  N   UNL A   1      29.337  28.471  23.212  1.00  0.00    -0.345 N 
ATOM     19  H   UNL A   1      29.367  28.317  22.205  1.00  0.00     0.346 HD
ATOM     20  H   UNL A   1      28.369  28.615  23.501  1.00  0.00     0.346 HD
BRANCH  14  21
ATOM     21  C   UNL A   1      32.451  27.389  23.701  1.00  0.00     0.023 C 
BRANCH  21  22
ATOM     22  C   UNL A   1      33.688  28.297  23.824  1.00  0.00    -0.002 C 
ATOM     23  C   UNL A   1      34.346  28.604  22.478  1.00  0.00     0.004 C 
ENDBRANCH  21  22
ENDBRANCH  14  21
ENDBRANCH  11  14
ENDBRANCH   8  10
BRANCH   8  24
ATOM     24  C   UNL A   1      31.505  23.898  24.491  1.00  0.00     0.420 C 
ATOM     25  F   UNL A   1      30.281  24.296  24.119  1.00  0.00    -0.168 F 
ATOM     26  F   UNL A   1      32.364  24.132  23.469  1.00  0.00    -0.168 F 
ATOM     27  F   UNL A   1      31.460  22.537  24.587  1.00  0.00    -0.168 F 
ENDBRANCH   8  24
ENDBRANCH   5   8
ENDBRANCH   3   4
ENDBRANCH   2   3
ENDBRANCH   1   2
BRANCH   1  28
ATOM     28  C   UNL A   1      34.810  20.556  24.847  1.00  0.00     0.002 C 
BRANCH  28  29
ATOM     29  C   UNL A   1      35.361  21.851  24.248  1.00  0.00     0.021 C 
BRANCH  29  30
ATOM     30  C   UNL A   1      36.831  22.098  24.542  1.00  0.00     0.116 C 
BRANCH  30  31
ATOM     31  N   UNL A   1      37.485  20.913  25.065  1.00  0.00    -0.352 N 
ATOM     32  C   UNL A   1      38.703  20.826  25.686  1.00  0.00     0.251 C 
ATOM     33  H   UNL A   1      36.991  20.067  24.961  1.00  0.00     0.163 HD
ATOM     34  O   UNL A   1      39.223  19.727  25.870  1.00  0.00    -0.269 OA
BRANCH  32  35
ATOM     35  C   UNL A   1      39.386  22.068  26.099  1.00  0.00     0.039 A 
ATOM     36  C   UNL A   1      40.740  22.019  26.434  1.00  0.00     0.014 A 
ATOM     37  C   UNL A   1      38.691  23.281  26.130  1.00  0.00     0.014 A 
ATOM     38  C   UNL A   1      41.405  23.199  26.770  1.00  0.00     0.010 A 
ATOM     39  C   UNL A   1      39.377  24.464  26.370  1.00  0.00     0.010 A 
ATOM     40  C   UNL A   1      40.735  24.433  26.721  1.00  0.00    -0.014 A 
BRANCH  40  41
ATOM     41  C   UNL A   1      41.422  25.696  27.093  1.00  0.00     0.031 A 
ATOM     42  C   UNL A   1      40.719  26.693  27.974  1.00  0.00     0.074 A 
ATOM     43  C   UNL A   1      42.650  25.961  26.608  1.00  0.00     0.049 A 
ATOM     44  N   UNL A   1      41.122  27.869  28.383  1.00  0.00    -0.248 NA
ATOM     45  C   UNL A   1      39.366  26.333  28.424  1.00  0.00     0.031 C 
ATOM     46  C   UNL A   1      43.415  25.085  25.720  1.00  0.00     0.029 A 
ATOM     47  N   UNL A   1      43.472  27.043  26.798  1.00  0.00    -0.354 N 
ATOM     48  C   UNL A   1      40.065  28.395  29.120  1.00  0.00     0.074 A 
ATOM     49  C   UNL A   1      38.980  27.443  29.031  1.00  0.00     0.031 C 
ATOM     50  C   UNL A   1      44.613  25.642  25.480  1.00  0.00     0.029 A 
ATOM     51  C   UNL A   1      44.682  26.935  26.154  1.00  0.00     0.049 A 
ATOM     52  H   UNL A   1      43.219  27.822  27.342  1.00  0.00     0.167 HD
ATOM     53  C   UNL A   1      40.016  29.550  29.828  1.00  0.00     0.034 A 
ATOM     54  C   UNL A   1      45.727  27.785  26.113  1.00  0.00     0.034 A 
ATOM     55  C   UNL A   1      41.117  30.480  29.910  1.00  0.00     0.049 A 
ATOM     56  C   UNL A   1      45.640  29.082  26.876  1.00  0.00     0.074 A 
ATOM     57  C   UNL A   1      41.204  31.651  30.642  1.00  0.00     0.029 A 
ATOM     58  N   UNL A   1      42.320  30.349  29.225  1.00  0.00    -0.354 N 
ATOM     59  N   UNL A   1      44.656  29.545  27.614  1.00  0.00    -0.248 NA
ATOM     60  C   UNL A   1      46.810  29.964  26.811  1.00  0.00     0.031 C 
ATOM     61  C   UNL A   1      42.420  32.269  30.331  1.00  0.00     0.029 A 
ATOM     62  C   UNL A   1      43.137  31.440  29.485  1.00  0.00     0.049 A 
ATOM     63  H   UNL A   1      42.558  29.594  28.641  1.00  0.00     0.167 HD
ATOM     64  C   UNL A   1      45.108  30.753  28.135  1.00  0.00     0.074 A 
ATOM     65  C   UNL A   1      46.454  30.943  27.630  1.00  0.00     0.031 C 
ATOM     66  C   UNL A   1      44.475  31.622  28.966  1.00  0.00     0.034 A 
BRANCH  53  67
ATOM     67  C   UNL A   1      38.714  29.878  30.527  1.00  0.00     0.023 A 
ATOM     68  C   UNL A   1      37.752  30.726  29.947  1.00  0.00     0.031 A 
ATOM     69  C   UNL A   1      38.459  29.391  31.821  1.00  0.00     0.131 A 
ATOM     70  C   UNL A   1      36.644  31.147  30.697  1.00  0.00     0.055 A 
ATOM     71  C   UNL A   1      37.300  29.732  32.522  1.00  0.00     0.041 A 
ATOM     72  F   UNL A   1      39.345  28.596  32.441  1.00  0.00    -0.206 F 
ATOM     73  C   UNL A   1      36.395  30.634  31.970  1.00  0.00     0.022 A 
BRANCH  70  74
ATOM     74  S   UNL A   1      35.649  32.526  30.064  1.00  0.00     0.124 S 
ATOM     75  O   UNL A   1      36.515  33.669  30.348  1.00  0.00    -0.237 OA
ATOM     76  O   UNL A   1      35.488  32.179  28.657  1.00  0.00    -0.237 OA
ATOM     77  O   UNL A   1      34.429  32.466  30.868  1.00  0.00    -0.744 OA
ENDBRANCH  70  74
ENDBRANCH  53  67
BRANCH  54  78
ATOM     78  C   UNL A   1      46.953  27.432  25.341  1.00  0.00     0.023 A 
ATOM     79  C   UNL A   1      47.093  27.822  24.000  1.00  0.00     0.031 A 
ATOM     80  C   UNL A   1      47.990  26.682  25.922  1.00  0.00     0.131 A 
ATOM     81  C   UNL A   1      48.225  27.426  23.271  1.00  0.00     0.055 A 
ATOM     82  C   UNL A   1      49.139  26.336  25.208  1.00  0.00     0.041 A 
ATOM     83  F   UNL A   1      47.908  26.289  27.203  1.00  0.00    -0.206 F 
ATOM     84  C   UNL A   1      49.256  26.698  23.870  1.00  0.00     0.022 A 
BRANCH  81  85
ATOM     85  S   UNL A   1      48.298  27.814  21.501  1.00  0.00     0.124 S 
ATOM     86  O   UNL A   1      49.360  28.813  21.461  1.00  0.00    -0.237 OA
ATOM     87  O   UNL A   1      48.615  26.515  20.917  1.00  0.00    -0.237 OA
ATOM     88  O   UNL A   1      46.957  28.315  21.208  1.00  0.00    -0.744 OA
ENDBRANCH  81  85
ENDBRANCH  54  78
BRANCH  66  89
ATOM     89  C   UNL A   1      45.259  32.829  29.429  1.00  0.00     0.023 A 
ATOM     90  C   UNL A   1      45.222  34.054  28.742  1.00  0.00     0.031 A 
ATOM     91  C   UNL A   1      46.068  32.741  30.577  1.00  0.00     0.131 A 
ATOM     92  C   UNL A   1      46.028  35.121  29.169  1.00  0.00     0.055 A 
ATOM     93  C   UNL A   1      46.811  33.828  31.040  1.00  0.00     0.041 A 
ATOM     94  F   UNL A   1      46.148  31.595  31.272  1.00  0.00    -0.206 F 
ATOM     95  C   UNL A   1      46.806  35.022  30.325  1.00  0.00     0.022 A 
BRANCH  92  96
ATOM     96  S   UNL A   1      46.135  36.602  28.128  1.00  0.00     0.124 S 
ATOM     97  O   UNL A   1      44.837  37.228  28.357  1.00  0.00    -0.237 OA
ATOM     98  O   UNL A   1      47.287  37.298  28.693  1.00  0.00    -0.237 OA
ATOM     99  O   UNL A   1      46.335  36.063  26.784  1.00  0.00    -0.744 OA
ENDBRANCH  92  96
ENDBRANCH  66  89
ENDBRANCH  40  41
ENDBRANCH  32  35
ENDBRANCH  30  31
ENDBRANCH  29  30
ENDBRANCH  28  29
ENDBRANCH   1  28
TORSDOF 21
ENDMDL
MODEL 3
REMARK VINA RESULT:     -10.5      4.969     10.015
REMARK SMILES CCC[C@@]1(C(=O)N[C@@](C)(C(=O)NCCCCCCNC(=O)c2ccc(-c3c4nc(c(-c5cc(S(=O)(=O)[O-])ccc5F)c5ccc([nH]5)c(-c5cc(S(=O)(=O)[O-])ccc5F)c5nc(c(-c6cc(S(=O)(=O)[O-])ccc6F)c6ccc3[nH]6)C=C5)C=C4)cc2)C(F)(F)F)CC[NH2+]C1
REMARK SMILES IDX 15 1 14 2 13 3 12 4 10 5 11 6 8 8 9 9 7 10 5 11 6 12 4 14
REMARK SMILES IDX 89 15 92 16 90 17 91 18 3 21 2 22 1 23 85 24 86 25 87 26
REMARK SMILES IDX 88 27 16 28 17 29 18 30 19 31 20 32 21 34 22 35 23 36 84 37
REMARK SMILES IDX 24 38 83 39 25 40 26 41 27 42 77 43 28 44 82 45 76 46 78 47
REMARK SMILES IDX 29 48 81 49 75 50 74 51 30 53 62 54 42 55 61 56 43 57 46 58
REMARK SMILES IDX 60 59 79 60 44 61 45 62 59 64 80 65 47 66 31 67 32 68 40 69
REMARK SMILES IDX 33 70 39 71 41 72 38 73 34 74 35 75 36 76 37 77 63 78 64 79
REMARK SMILES IDX 72 80 65 81 71 82 73 83 70 84 66 85 67 86 68 87 69 88 48 89
REMARK SMILES IDX 49 90 57 91 50 92 56 93 58 94 55 95 51 96 52 97 53 98 54 99
REMARK H PARENT 12 7 7 13 91 19 91 20 19 33 78 52 46 63
REMARK Flexibility Score: inf
ROOT
ATOM      1  C   UNL A   1      33.450  29.801  27.306  1.00  0.00     0.002 C 
ENDROOT
BRANCH   1   2
ATOM      2  C   UNL A   1      34.154  28.776  26.409  1.00  0.00     0.021 C 
BRANCH   2   3
ATOM      3  C   UNL A   1      33.222  27.936  25.543  1.00  0.00     0.116 C 
BRANCH   3   4
ATOM      4  N   UNL A   1      32.723  26.805  26.293  1.00  0.00    -0.354 N 
ATOM      5  C   UNL A   1      31.843  25.816  26.008  1.00  0.00     0.254 C 
ATOM      6  O   UNL A   1      31.417  25.223  27.004  1.00  0.00    -0.272 OA
ATOM      7  H   UNL A   1      33.102  26.740  27.199  1.00  0.00     0.163 HD
BRANCH   5   8
ATOM      8  C   UNL A   1      31.322  25.524  24.585  1.00  0.00     0.212 C 
ATOM      9  C   UNL A   1      30.658  24.134  24.440  1.00  0.00     0.056 C 
BRANCH   8  10
ATOM     10  N   UNL A   1      32.550  25.514  23.686  1.00  0.00    -0.334 N 
ATOM     11  C   UNL A   1      33.723  24.899  23.424  1.00  0.00     0.233 C 
ATOM     12  O   UNL A   1      34.231  25.278  22.358  1.00  0.00    -0.274 OA
ATOM     13  H   UNL A   1      32.448  26.248  23.038  1.00  0.00     0.164 HD
BRANCH  11  14
ATOM     14  C   UNL A   1      34.433  23.836  24.272  1.00  0.00     0.103 C 
ATOM     15  C   UNL A   1      35.006  24.500  25.527  1.00  0.00     0.084 C 
ATOM     16  C   UNL A   1      35.643  23.284  23.541  1.00  0.00     0.277 C 
ATOM     17  C   UNL A   1      36.326  23.788  25.766  1.00  0.00     0.261 C 
ATOM     18  N   UNL A   1      36.736  23.174  24.502  1.00  0.00    -0.345 N 
ATOM     19  H   UNL A   1      36.959  22.191  24.656  1.00  0.00     0.346 HD
ATOM     20  H   UNL A   1      37.561  23.651  24.139  1.00  0.00     0.346 HD
BRANCH  14  21
ATOM     21  C   UNL A   1      33.446  22.704  24.749  1.00  0.00     0.023 C 
BRANCH  21  22
ATOM     22  C   UNL A   1      33.232  21.486  23.832  1.00  0.00    -0.002 C 
ATOM     23  C   UNL A   1      32.473  20.346  24.514  1.00  0.00     0.004 C 
ENDBRANCH  21  22
ENDBRANCH  14  21
ENDBRANCH  11  14
ENDBRANCH   8  10
BRANCH   8  24
ATOM     24  C   UNL A   1      30.136  26.524  24.473  1.00  0.00     0.420 C 
ATOM     25  F   UNL A   1      30.405  27.766  24.899  1.00  0.00    -0.168 F 
ATOM     26  F   UNL A   1      29.654  26.597  23.208  1.00  0.00    -0.168 F 
ATOM     27  F   UNL A   1      29.075  26.081  25.211  1.00  0.00    -0.168 F 
ENDBRANCH   8  24
ENDBRANCH   5   8
ENDBRANCH   3   4
ENDBRANCH   2   3
ENDBRANCH   1   2
BRANCH   1  28
ATOM     28  C   UNL A   1      32.021  30.163  26.891  1.00  0.00     0.002 C 
BRANCH  28  29
ATOM     29  C   UNL A   1      31.711  31.660  26.885  1.00  0.00     0.021 C 
BRANCH  29  30
ATOM     30  C   UNL A   1      32.940  32.552  26.852  1.00  0.00     0.116 C 
BRANCH  30  31
ATOM     31  N   UNL A   1      32.686  33.845  27.459  1.00  0.00    -0.352 N 
ATOM     32  C   UNL A   1      33.249  34.371  28.592  1.00  0.00     0.251 C 
ATOM     33  H   UNL A   1      32.028  34.415  26.999  1.00  0.00     0.163 HD
ATOM     34  O   UNL A   1      32.771  35.379  29.107  1.00  0.00    -0.269 OA
BRANCH  32  35
ATOM     35  C   UNL A   1      34.414  33.692  29.194  1.00  0.00     0.039 A 
ATOM     36  C   UNL A   1      34.204  32.607  30.045  1.00  0.00     0.014 A 
ATOM     37  C   UNL A   1      35.713  34.115  28.892  1.00  0.00     0.014 A 
ATOM     38  C   UNL A   1      35.302  31.925  30.571  1.00  0.00     0.010 A 
ATOM     39  C   UNL A   1      36.801  33.376  29.339  1.00  0.00     0.010 A 
ATOM     40  C   UNL A   1      36.608  32.291  30.206  1.00  0.00    -0.014 A 
BRANCH  40  41
ATOM     41  C   UNL A   1      37.788  31.588  30.770  1.00  0.00     0.031 A 
ATOM     42  C   UNL A   1      38.237  31.897  32.173  1.00  0.00     0.074 A 
ATOM     43  C   UNL A   1      38.475  30.713  30.012  1.00  0.00     0.049 A 
ATOM     44  N   UNL A   1      39.261  31.429  32.840  1.00  0.00    -0.248 NA
ATOM     45  C   UNL A   1      37.448  32.895  32.910  1.00  0.00     0.031 C 
ATOM     46  C   UNL A   1      38.153  30.357  28.629  1.00  0.00     0.029 A 
ATOM     47  N   UNL A   1      39.583  29.957  30.300  1.00  0.00    -0.354 N 
ATOM     48  C   UNL A   1      39.249  32.090  34.064  1.00  0.00     0.074 A 
ATOM     49  C   UNL A   1      38.165  33.045  34.011  1.00  0.00     0.031 C 
ATOM     50  C   UNL A   1      39.015  29.419  28.206  1.00  0.00     0.029 A 
ATOM     51  C   UNL A   1      39.980  29.143  29.266  1.00  0.00     0.049 A 
ATOM     52  H   UNL A   1      40.050  29.995  31.165  1.00  0.00     0.167 HD
ATOM     53  C   UNL A   1      40.049  31.896  35.141  1.00  0.00     0.034 A 
ATOM     54  C   UNL A   1      41.006  28.273  29.183  1.00  0.00     0.034 A 
ATOM     55  C   UNL A   1      41.119  30.928  35.173  1.00  0.00     0.049 A 
ATOM     56  C   UNL A   1      41.908  28.098  30.378  1.00  0.00     0.074 A 
ATOM     57  C   UNL A   1      41.957  30.602  36.225  1.00  0.00     0.029 A 
ATOM     58  N   UNL A   1      41.507  30.137  34.097  1.00  0.00    -0.354 N 
ATOM     59  N   UNL A   1      41.854  28.689  31.551  1.00  0.00    -0.248 NA
ATOM     60  C   UNL A   1      43.001  27.129  30.242  1.00  0.00     0.031 C 
ATOM     61  C   UNL A   1      42.903  29.682  35.760  1.00  0.00     0.029 A 
ATOM     62  C   UNL A   1      42.598  29.355  34.449  1.00  0.00     0.049 A 
ATOM     63  H   UNL A   1      41.072  30.131  33.215  1.00  0.00     0.167 HD
ATOM     64  C   UNL A   1      42.881  28.130  32.305  1.00  0.00     0.074 A 
ATOM     65  C   UNL A   1      43.532  27.152  31.456  1.00  0.00     0.031 C 
ATOM     66  C   UNL A   1      43.246  28.391  33.588  1.00  0.00     0.034 A 
BRANCH  53  67
ATOM     67  C   UNL A   1      39.814  32.782  36.346  1.00  0.00     0.023 A 
ATOM     68  C   UNL A   1      39.055  32.350  37.449  1.00  0.00     0.031 A 
ATOM     69  C   UNL A   1      40.300  34.101  36.364  1.00  0.00     0.131 A 
ATOM     70  C   UNL A   1      38.711  33.257  38.463  1.00  0.00     0.055 A 
ATOM     71  C   UNL A   1      40.041  34.967  37.429  1.00  0.00     0.041 A 
ATOM     72  F   UNL A   1      41.012  34.583  35.334  1.00  0.00    -0.206 F 
ATOM     73  C   UNL A   1      39.223  34.555  38.476  1.00  0.00     0.022 A 
BRANCH  70  74
ATOM     74  S   UNL A   1      37.426  32.776  39.650  1.00  0.00     0.124 S 
ATOM     75  O   UNL A   1      37.389  33.941  40.532  1.00  0.00    -0.237 OA
ATOM     76  O   UNL A   1      36.261  32.584  38.794  1.00  0.00    -0.237 OA
ATOM     77  O   UNL A   1      37.962  31.561  40.262  1.00  0.00    -0.744 OA
ENDBRANCH  70  74
ENDBRANCH  53  67
BRANCH  54  78
ATOM     78  C   UNL A   1      41.226  27.486  27.937  1.00  0.00     0.023 A 
ATOM     79  C   UNL A   1      40.924  26.115  27.890  1.00  0.00     0.031 A 
ATOM     80  C   UNL A   1      41.762  28.082  26.782  1.00  0.00     0.131 A 
ATOM     81  C   UNL A   1      41.198  25.377  26.729  1.00  0.00     0.055 A 
ATOM     82  C   UNL A   1      41.982  27.355  25.611  1.00  0.00     0.041 A 
ATOM     83  F   UNL A   1      42.062  29.390  26.771  1.00  0.00    -0.206 F 
ATOM     84  C   UNL A   1      41.711  25.991  25.583  1.00  0.00     0.022 A 
BRANCH  81  85
ATOM     85  S   UNL A   1      40.940  23.582  26.759  1.00  0.00     0.124 S 
ATOM     86  O   UNL A   1      41.897  23.129  25.756  1.00  0.00    -0.237 OA
ATOM     87  O   UNL A   1      41.258  23.254  28.145  1.00  0.00    -0.237 OA
ATOM     88  O   UNL A   1      39.533  23.435  26.394  1.00  0.00    -0.744 OA
ENDBRANCH  81  85
ENDBRANCH  54  78
BRANCH  66  89
ATOM     89  C   UNL A   1      44.366  27.557  34.169  1.00  0.00     0.023 A 
ATOM     90  C   UNL A   1      44.141  26.286  34.725  1.00  0.00     0.031 A 
ATOM     91  C   UNL A   1      45.681  28.056  34.174  1.00  0.00     0.131 A 
ATOM     92  C   UNL A   1      45.201  25.586  35.321  1.00  0.00     0.055 A 
ATOM     93  C   UNL A   1      46.745  27.324  34.702  1.00  0.00     0.041 A 
ATOM     94  F   UNL A   1      45.957  29.266  33.661  1.00  0.00    -0.206 F 
ATOM     95  C   UNL A   1      46.505  26.087  35.295  1.00  0.00     0.022 A 
BRANCH  92  96
ATOM     96  S   UNL A   1      44.834  24.063  36.235  1.00  0.00     0.124 S 
ATOM     97  O   UNL A   1      44.876  24.522  37.619  1.00  0.00    -0.237 OA
ATOM     98  O   UNL A   1      43.517  23.701  35.722  1.00  0.00    -0.237 OA
ATOM     99  O   UNL A   1      45.919  23.161  35.848  1.00  0.00    -0.744 OA
ENDBRANCH  92  96
ENDBRANCH  66  89
ENDBRANCH  40  41
ENDBRANCH  32  35
ENDBRANCH  30  31
ENDBRANCH  29  30
ENDBRANCH  28  29
ENDBRANCH   1  28
TORSDOF 21
ENDMDL
