MODEL 1
REMARK VINA RESULT:     -11.8      0.000      0.000
REMARK SMILES O=C(NCCCCCCNC(=O)[C@H]1Cc2cc(O)ccc2C[NH2+]1)c1ccc(-c2c3nc(c(-c4cc(S(=O)(=O)[O-])ccc4F)c4ccc([nH]4)c(-c4cc(S(=O)(=O)[O-])ccc4F)c4nc(c(-c5cc(S(=O)(=O)[O-])ccc5F)c5ccc2[nH]5)C=C4)C=C3)cc1
REMARK SMILES IDX 5 1 4 2 3 3 1 4 2 5 24 7 25 8 86 9 26 10 85 11 27 12 28 13
REMARK SMILES IDX 29 14 79 15 30 16 84 17 78 18 80 19 31 20 83 21 77 22 76 23
REMARK SMILES IDX 32 25 64 26 44 27 63 28 45 29 48 30 62 31 81 32 46 33 47 34
REMARK SMILES IDX 61 36 82 37 49 38 33 39 34 40 42 41 35 42 41 43 43 44 40 45
REMARK SMILES IDX 36 46 37 47 38 48 39 49 65 50 66 51 74 52 67 53 73 54 75 55
REMARK SMILES IDX 72 56 68 57 69 58 70 59 71 60 50 61 51 62 59 63 52 64 58 65
REMARK SMILES IDX 60 66 57 67 53 68 54 69 55 70 56 71 6 72 7 73 8 74 9 75
REMARK SMILES IDX 10 76 11 77 12 79 13 80 14 81 23 82 15 83 22 84 16 87 21 88
REMARK SMILES IDX 17 89 20 90 19 91 18 92
REMARK H PARENT 3 6 80 24 48 35 10 78 23 85 23 86 18 93
REMARK Flexibility Score: inf
ROOT
ATOM      1  C   UNL A   1      32.208  29.868  25.345  1.00  0.00     0.021 C 
ENDROOT
BRANCH   1   2
ATOM      2  C   UNL A   1      31.984  30.425  26.743  1.00  0.00     0.116 C 
BRANCH   2   3
ATOM      3  N   UNL A   1      31.919  31.877  26.766  1.00  0.00    -0.352 N 
ATOM      4  O   UNL A   1      32.449  33.963  27.428  1.00  0.00    -0.269 OA
ATOM      5  C   UNL A   1      32.754  32.770  27.387  1.00  0.00     0.251 C 
ATOM      6  H   UNL A   1      31.170  32.274  26.267  1.00  0.00     0.163 HD
BRANCH   5   7
ATOM      7  C   UNL A   1      34.010  32.305  28.017  1.00  0.00     0.039 A 
ATOM      8  C   UNL A   1      34.109  30.971  28.420  1.00  0.00     0.014 A 
ATOM      9  C   UNL A   1      35.081  33.178  28.228  1.00  0.00     0.014 A 
ATOM     10  C   UNL A   1      35.289  30.513  29.011  1.00  0.00     0.010 A 
ATOM     11  C   UNL A   1      36.290  32.695  28.718  1.00  0.00     0.010 A 
ATOM     12  C   UNL A   1      36.397  31.366  29.151  1.00  0.00    -0.014 A 
BRANCH  12  13
ATOM     13  C   UNL A   1      37.650  30.893  29.797  1.00  0.00     0.031 A 
ATOM     14  C   UNL A   1      38.002  31.344  31.191  1.00  0.00     0.074 A 
ATOM     15  C   UNL A   1      38.480  30.071  29.127  1.00  0.00     0.049 A 
ATOM     16  N   UNL A   1      39.038  31.024  31.923  1.00  0.00    -0.248 NA
ATOM     17  C   UNL A   1      37.090  32.303  31.835  1.00  0.00     0.031 C 
ATOM     18  C   UNL A   1      38.281  29.622  27.750  1.00  0.00     0.029 A 
ATOM     19  N   UNL A   1      39.651  29.465  29.511  1.00  0.00    -0.354 N 
ATOM     20  C   UNL A   1      38.896  31.736  33.110  1.00  0.00     0.074 A 
ATOM     21  C   UNL A   1      37.733  32.579  32.959  1.00  0.00     0.031 C 
ATOM     22  C   UNL A   1      39.269  28.778  27.419  1.00  0.00     0.029 A 
ATOM     23  C   UNL A   1      40.197  28.657  28.543  1.00  0.00     0.049 A 
ATOM     24  H   UNL A   1      40.060  29.597  30.397  1.00  0.00     0.167 HD
ATOM     25  C   UNL A   1      39.635  31.658  34.241  1.00  0.00     0.034 A 
ATOM     26  C   UNL A   1      41.312  27.898  28.554  1.00  0.00     0.034 A 
ATOM     27  C   UNL A   1      40.785  30.802  34.384  1.00  0.00     0.049 A 
ATOM     28  C   UNL A   1      42.124  27.817  29.822  1.00  0.00     0.074 A 
ATOM     29  C   UNL A   1      41.584  30.620  35.498  1.00  0.00     0.029 A 
ATOM     30  N   UNL A   1      41.300  29.983  33.388  1.00  0.00    -0.354 N 
ATOM     31  N   UNL A   1      41.923  28.426  30.969  1.00  0.00    -0.248 NA
ATOM     32  C   UNL A   1      43.296  26.934  29.812  1.00  0.00     0.031 C 
ATOM     33  C   UNL A   1      42.617  29.746  35.158  1.00  0.00     0.029 A 
ATOM     34  C   UNL A   1      42.420  29.313  33.855  1.00  0.00     0.049 A 
ATOM     35  H   UNL A   1      40.925  29.891  32.482  1.00  0.00     0.167 HD
ATOM     36  C   UNL A   1      42.938  27.992  31.819  1.00  0.00     0.074 A 
ATOM     37  C   UNL A   1      43.721  27.033  31.066  1.00  0.00     0.031 C 
ATOM     38  C   UNL A   1      43.204  28.363  33.098  1.00  0.00     0.034 A 
BRANCH  25  39
ATOM     39  C   UNL A   1      39.205  32.481  35.434  1.00  0.00     0.023 A 
ATOM     40  C   UNL A   1      39.682  33.793  35.604  1.00  0.00     0.031 A 
ATOM     41  C   UNL A   1      38.407  31.930  36.456  1.00  0.00     0.131 A 
ATOM     42  C   UNL A   1      39.384  34.497  36.778  1.00  0.00     0.055 A 
ATOM     43  C   UNL A   1      38.065  32.655  37.597  1.00  0.00     0.041 A 
ATOM     44  F   UNL A   1      37.928  30.679  36.348  1.00  0.00    -0.206 F 
ATOM     45  C   UNL A   1      38.566  33.941  37.768  1.00  0.00     0.022 A 
BRANCH  42  46
ATOM     46  S   UNL A   1      40.099  36.130  37.104  1.00  0.00     0.124 S 
ATOM     47  O   UNL A   1      39.260  36.613  38.198  1.00  0.00    -0.237 OA
ATOM     48  O   UNL A   1      41.471  35.793  37.472  1.00  0.00    -0.237 OA
ATOM     49  O   UNL A   1      39.940  36.841  35.840  1.00  0.00    -0.744 OA
ENDBRANCH  42  46
ENDBRANCH  25  39
BRANCH  26  50
ATOM     50  C   UNL A   1      41.655  27.106  27.335  1.00  0.00     0.023 A 
ATOM     51  C   UNL A   1      41.441  25.715  27.301  1.00  0.00     0.031 A 
ATOM     52  C   UNL A   1      42.330  27.696  26.254  1.00  0.00     0.131 A 
ATOM     53  C   UNL A   1      41.976  24.953  26.254  1.00  0.00     0.055 A 
ATOM     54  C   UNL A   1      42.787  26.943  25.171  1.00  0.00     0.041 A 
ATOM     55  F   UNL A   1      42.571  29.016  26.246  1.00  0.00    -0.206 F 
ATOM     56  C   UNL A   1      42.631  25.560  25.179  1.00  0.00     0.022 A 
BRANCH  53  57
ATOM     57  S   UNL A   1      41.979  23.140  26.336  1.00  0.00     0.124 S 
ATOM     58  O   UNL A   1      42.767  22.889  27.538  1.00  0.00    -0.237 OA
ATOM     59  O   UNL A   1      40.552  22.845  26.443  1.00  0.00    -0.237 OA
ATOM     60  O   UNL A   1      42.601  22.739  25.079  1.00  0.00    -0.744 OA
ENDBRANCH  53  57
ENDBRANCH  26  50
BRANCH  38  61
ATOM     61  C   UNL A   1      44.408  27.759  33.788  1.00  0.00     0.023 A 
ATOM     62  C   UNL A   1      44.273  26.589  34.560  1.00  0.00     0.031 A 
ATOM     63  C   UNL A   1      45.654  28.412  33.791  1.00  0.00     0.131 A 
ATOM     64  C   UNL A   1      45.351  26.131  35.330  1.00  0.00     0.055 A 
ATOM     65  C   UNL A   1      46.742  27.917  34.511  1.00  0.00     0.041 A 
ATOM     66  F   UNL A   1      45.834  29.542  33.088  1.00  0.00    -0.206 F 
ATOM     67  C   UNL A   1      46.589  26.779  35.297  1.00  0.00     0.022 A 
BRANCH  64  68
ATOM     68  S   UNL A   1      45.160  24.737  36.476  1.00  0.00     0.124 S 
ATOM     69  O   UNL A   1      45.244  23.591  35.574  1.00  0.00    -0.237 OA
ATOM     70  O   UNL A   1      46.305  24.914  37.367  1.00  0.00    -0.237 OA
ATOM     71  O   UNL A   1      43.853  24.956  37.084  1.00  0.00    -0.744 OA
ENDBRANCH  64  68
ENDBRANCH  38  61
ENDBRANCH  12  13
ENDBRANCH   5   7
ENDBRANCH   2   3
ENDBRANCH   1   2
BRANCH   1  72
ATOM     72  C   UNL A   1      33.518  29.105  25.148  1.00  0.00     0.002 C 
BRANCH  72  73
ATOM     73  C   UNL A   1      33.736  27.911  26.081  1.00  0.00     0.002 C 
BRANCH  73  74
ATOM     74  C   UNL A   1      33.598  26.529  25.441  1.00  0.00     0.021 C 
BRANCH  74  75
ATOM     75  C   UNL A   1      32.424  25.686  25.930  1.00  0.00     0.116 C 
BRANCH  75  76
ATOM     76  N   UNL A   1      31.920  24.781  24.912  1.00  0.00    -0.351 N 
ATOM     77  C   UNL A   1      30.898  24.958  24.024  1.00  0.00     0.278 C 
ATOM     78  H   UNL A   1      32.382  23.913  24.854  1.00  0.00     0.163 HD
ATOM     79  O   UNL A   1      30.693  24.059  23.200  1.00  0.00    -0.268 OA
BRANCH  77  80
ATOM     80  C   UNL A   1      29.968  26.187  24.084  1.00  0.00     0.277 C 
ATOM     81  C   UNL A   1      30.497  27.239  23.103  1.00  0.00     0.111 C 
ATOM     82  N   UNL A   1      28.564  25.812  23.831  1.00  0.00    -0.332 N 
ATOM     83  C   UNL A   1      29.539  28.388  22.927  1.00  0.00    -0.029 A 
ATOM     84  C   UNL A   1      27.661  26.958  23.880  1.00  0.00     0.298 C 
ATOM     85  H   UNL A   1      28.273  25.136  24.538  1.00  0.00     0.347 HD
ATOM     86  H   UNL A   1      28.513  25.417  22.892  1.00  0.00     0.347 HD
ATOM     87  C   UNL A   1      29.994  29.610  22.412  1.00  0.00     0.050 A 
ATOM     88  C   UNL A   1      28.176  28.215  23.218  1.00  0.00     0.010 A 
ATOM     89  C   UNL A   1      29.097  30.649  22.194  1.00  0.00     0.115 A 
ATOM     90  C   UNL A   1      27.285  29.272  22.970  1.00  0.00     0.013 A 
ATOM     91  C   UNL A   1      27.742  30.486  22.456  1.00  0.00     0.046 A 
BRANCH  89  92
ATOM     92  O   UNL A   1      29.592  31.829  21.720  1.00  0.00    -0.508 OA
ATOM     93  H   UNL A   1      30.452  32.109  21.964  1.00  0.00     0.293 HD
ENDBRANCH  89  92
ENDBRANCH  77  80
ENDBRANCH  75  76
ENDBRANCH  74  75
ENDBRANCH  73  74
ENDBRANCH  72  73
ENDBRANCH   1  72
TORSDOF 17
ENDMDL
MODEL 2
REMARK VINA RESULT:     -11.7      4.948      9.959
REMARK SMILES O=C(NCCCCCCNC(=O)[C@H]1Cc2cc(O)ccc2C[NH2+]1)c1ccc(-c2c3nc(c(-c4cc(S(=O)(=O)[O-])ccc4F)c4ccc([nH]4)c(-c4cc(S(=O)(=O)[O-])ccc4F)c4nc(c(-c5cc(S(=O)(=O)[O-])ccc5F)c5ccc2[nH]5)C=C4)C=C3)cc1
REMARK SMILES IDX 5 1 4 2 3 3 1 4 2 5 24 7 25 8 86 9 26 10 85 11 27 12 28 13
REMARK SMILES IDX 29 14 79 15 30 16 84 17 78 18 80 19 31 20 83 21 77 22 76 23
REMARK SMILES IDX 32 25 64 26 44 27 63 28 45 29 48 30 62 31 81 32 46 33 47 34
REMARK SMILES IDX 61 36 82 37 49 38 33 39 34 40 42 41 35 42 41 43 43 44 40 45
REMARK SMILES IDX 36 46 37 47 38 48 39 49 65 50 66 51 74 52 67 53 73 54 75 55
REMARK SMILES IDX 72 56 68 57 69 58 70 59 71 60 50 61 51 62 59 63 52 64 58 65
REMARK SMILES IDX 60 66 57 67 53 68 54 69 55 70 56 71 6 72 7 73 8 74 9 75
REMARK SMILES IDX 10 76 11 77 12 79 13 80 14 81 23 82 15 83 22 84 16 87 21 88
REMARK SMILES IDX 17 89 20 90 19 91 18 92
REMARK H PARENT 3 6 80 24 48 35 10 78 23 85 23 86 18 93
REMARK Flexibility Score: inf
ROOT
ATOM      1  C   UNL A   1      36.893  22.571  23.848  1.00  0.00     0.021 C 
ENDROOT
BRANCH   1   2
ATOM      2  C   UNL A   1      37.130  22.472  25.348  1.00  0.00     0.116 C 
BRANCH   2   3
ATOM      3  N   UNL A   1      38.042  21.397  25.702  1.00  0.00    -0.352 N 
ATOM      4  O   UNL A   1      39.990  20.456  26.327  1.00  0.00    -0.269 OA
ATOM      5  C   UNL A   1      39.301  21.474  26.240  1.00  0.00     0.251 C 
ATOM      6  H   UNL A   1      37.709  20.487  25.531  1.00  0.00     0.163 HD
BRANCH   5   7
ATOM      7  C   UNL A   1      39.838  22.773  26.703  1.00  0.00     0.039 A 
ATOM      8  C   UNL A   1      39.359  23.947  26.119  1.00  0.00     0.014 A 
ATOM      9  C   UNL A   1      40.819  22.839  27.696  1.00  0.00     0.014 A 
ATOM     10  C   UNL A   1      39.850  25.183  26.548  1.00  0.00     0.010 A 
ATOM     11  C   UNL A   1      41.228  24.071  28.194  1.00  0.00     0.010 A 
ATOM     12  C   UNL A   1      40.777  25.258  27.602  1.00  0.00    -0.014 A 
BRANCH  12  13
ATOM     13  C   UNL A   1      41.320  26.568  28.051  1.00  0.00     0.031 A 
ATOM     14  C   UNL A   1      42.756  26.930  27.773  1.00  0.00     0.074 A 
ATOM     15  C   UNL A   1      40.529  27.425  28.723  1.00  0.00     0.049 A 
ATOM     16  N   UNL A   1      43.401  28.029  28.069  1.00  0.00    -0.248 NA
ATOM     17  C   UNL A   1      43.585  25.915  27.103  1.00  0.00     0.031 C 
ATOM     18  C   UNL A   1      39.145  27.158  29.111  1.00  0.00     0.029 A 
ATOM     19  N   UNL A   1      40.770  28.692  29.194  1.00  0.00    -0.354 N 
ATOM     20  C   UNL A   1      44.702  27.836  27.617  1.00  0.00     0.074 A 
ATOM     21  C   UNL A   1      44.780  26.483  27.120  1.00  0.00     0.031 C 
ATOM     22  C   UNL A   1      38.645  28.243  29.721  1.00  0.00     0.029 A 
ATOM     23  C   UNL A   1      39.684  29.269  29.809  1.00  0.00     0.049 A 
ATOM     24  H   UNL A   1      41.640  29.145  29.102  1.00  0.00     0.167 HD
ATOM     25  C   UNL A   1      45.725  28.722  27.571  1.00  0.00     0.034 A 
ATOM     26  C   UNL A   1      39.533  30.485  30.372  1.00  0.00     0.034 A 
ATOM     27  C   UNL A   1      45.630  30.075  28.057  1.00  0.00     0.049 A 
ATOM     28  C   UNL A   1      40.679  31.463  30.310  1.00  0.00     0.074 A 
ATOM     29  C   UNL A   1      46.594  31.066  28.026  1.00  0.00     0.029 A 
ATOM     30  N   UNL A   1      44.507  30.632  28.656  1.00  0.00    -0.354 N 
ATOM     31  N   UNL A   1      41.876  31.298  29.794  1.00  0.00    -0.248 NA
ATOM     32  C   UNL A   1      40.454  32.796  30.882  1.00  0.00     0.031 C 
ATOM     33  C   UNL A   1      46.081  32.196  28.664  1.00  0.00     0.029 A 
ATOM     34  C   UNL A   1      44.765  31.944  29.022  1.00  0.00     0.049 A 
ATOM     35  H   UNL A   1      43.654  30.163  28.801  1.00  0.00     0.167 HD
ATOM     36  C   UNL A   1      42.542  32.508  29.971  1.00  0.00     0.074 A 
ATOM     37  C   UNL A   1      41.597  33.409  30.598  1.00  0.00     0.031 C 
ATOM     38  C   UNL A   1      43.822  32.838  29.655  1.00  0.00     0.034 A 
BRANCH  25  39
ATOM     39  C   UNL A   1      47.024  28.282  26.937  1.00  0.00     0.023 A 
ATOM     40  C   UNL A   1      47.148  28.213  25.537  1.00  0.00     0.031 A 
ATOM     41  C   UNL A   1      48.106  27.830  27.719  1.00  0.00     0.131 A 
ATOM     42  C   UNL A   1      48.309  27.678  24.965  1.00  0.00     0.055 A 
ATOM     43  C   UNL A   1      49.283  27.352  27.144  1.00  0.00     0.041 A 
ATOM     44  F   UNL A   1      48.041  27.869  29.060  1.00  0.00    -0.206 F 
ATOM     45  C   UNL A   1      49.382  27.261  25.759  1.00  0.00     0.022 A 
BRANCH  42  46
ATOM     46  S   UNL A   1      48.449  27.433  23.174  1.00  0.00     0.124 S 
ATOM     47  O   UNL A   1      49.772  27.987  22.897  1.00  0.00    -0.237 OA
ATOM     48  O   UNL A   1      48.342  25.982  23.057  1.00  0.00    -0.237 OA
ATOM     49  O   UNL A   1      47.330  28.195  22.628  1.00  0.00    -0.744 OA
ENDBRANCH  42  46
ENDBRANCH  25  39
BRANCH  26  50
ATOM     50  C   UNL A   1      38.209  30.843  30.965  1.00  0.00     0.023 A 
ATOM     51  C   UNL A   1      37.202  31.422  30.170  1.00  0.00     0.031 A 
ATOM     52  C   UNL A   1      37.987  30.749  32.348  1.00  0.00     0.131 A 
ATOM     53  C   UNL A   1      36.061  31.963  30.777  1.00  0.00     0.055 A 
ATOM     54  C   UNL A   1      36.809  31.214  32.938  1.00  0.00     0.041 A 
ATOM     55  F   UNL A   1      38.922  30.218  33.150  1.00  0.00    -0.206 F 
ATOM     56  C   UNL A   1      35.849  31.847  32.153  1.00  0.00     0.022 A 
BRANCH  53  57
ATOM     57  S   UNL A   1      34.897  32.976  29.822  1.00  0.00     0.124 S 
ATOM     58  O   UNL A   1      34.264  31.985  28.959  1.00  0.00    -0.237 OA
ATOM     59  O   UNL A   1      34.050  33.529  30.876  1.00  0.00    -0.237 OA
ATOM     60  O   UNL A   1      35.755  33.945  29.146  1.00  0.00    -0.744 OA
ENDBRANCH  53  57
ENDBRANCH  26  50
BRANCH  38  61
ATOM     61  C   UNL A   1      44.312  34.229  29.995  1.00  0.00     0.023 A 
ATOM     62  C   UNL A   1      44.071  35.302  29.117  1.00  0.00     0.031 A 
ATOM     63  C   UNL A   1      45.129  34.463  31.117  1.00  0.00     0.131 A 
ATOM     64  C   UNL A   1      44.669  36.547  29.353  1.00  0.00     0.055 A 
ATOM     65  C   UNL A   1      45.672  35.721  31.380  1.00  0.00     0.041 A 
ATOM     66  F   UNL A   1      45.408  33.470  31.977  1.00  0.00    -0.206 F 
ATOM     67  C   UNL A   1      45.455  36.767  30.488  1.00  0.00     0.022 A 
BRANCH  64  68
ATOM     68  S   UNL A   1      44.531  37.899  28.150  1.00  0.00     0.124 S 
ATOM     69  O   UNL A   1      43.388  38.648  28.668  1.00  0.00    -0.237 OA
ATOM     70  O   UNL A   1      45.825  38.564  28.287  1.00  0.00    -0.237 OA
ATOM     71  O   UNL A   1      44.308  37.219  26.879  1.00  0.00    -0.744 OA
ENDBRANCH  64  68
ENDBRANCH  38  61
ENDBRANCH  12  13
ENDBRANCH   5   7
ENDBRANCH   2   3
ENDBRANCH   1   2
BRANCH   1  72
ATOM     72  C   UNL A   1      35.625  23.319  23.435  1.00  0.00     0.002 C 
BRANCH  72  73
ATOM     73  C   UNL A   1      34.385  23.043  24.290  1.00  0.00     0.002 C 
BRANCH  73  74
ATOM     74  C   UNL A   1      33.233  22.327  23.584  1.00  0.00     0.021 C 
BRANCH  74  75
ATOM     75  C   UNL A   1      32.158  23.228  22.988  1.00  0.00     0.116 C 
BRANCH  75  76
ATOM     76  N   UNL A   1      32.644  24.020  21.871  1.00  0.00    -0.351 N 
ATOM     77  C   UNL A   1      32.767  25.376  21.757  1.00  0.00     0.278 C 
ATOM     78  H   UNL A   1      32.926  23.505  21.080  1.00  0.00     0.163 HD
ATOM     79  O   UNL A   1      33.273  25.820  20.721  1.00  0.00    -0.268 OA
BRANCH  77  80
ATOM     80  C   UNL A   1      32.224  26.337  22.834  1.00  0.00     0.277 C 
ATOM     81  C   UNL A   1      33.371  26.689  23.788  1.00  0.00     0.111 C 
ATOM     82  N   UNL A   1      31.590  27.522  22.226  1.00  0.00    -0.332 N 
ATOM     83  C   UNL A   1      32.999  27.790  24.746  1.00  0.00    -0.029 A 
ATOM     84  C   UNL A   1      31.068  28.452  23.223  1.00  0.00     0.298 C 
ATOM     85  H   UNL A   1      30.820  27.214  21.632  1.00  0.00     0.347 HD
ATOM     86  H   UNL A   1      32.304  28.014  21.688  1.00  0.00     0.347 HD
ATOM     87  C   UNL A   1      33.732  27.973  25.927  1.00  0.00     0.050 A 
ATOM     88  C   UNL A   1      31.957  28.676  24.425  1.00  0.00     0.010 A 
ATOM     89  C   UNL A   1      33.425  29.026  26.780  1.00  0.00     0.115 A 
ATOM     90  C   UNL A   1      31.679  29.747  25.291  1.00  0.00     0.013 A 
ATOM     91  C   UNL A   1      32.413  29.925  26.465  1.00  0.00     0.046 A 
BRANCH  89  92
ATOM     92  O   UNL A   1      34.147  29.145  27.931  1.00  0.00    -0.508 OA
ATOM     93  H   UNL A   1      34.010  29.879  28.498  1.00  0.00     0.293 HD
ENDBRANCH  89  92
ENDBRANCH  77  80
ENDBRANCH  75  76
ENDBRANCH  74  75
ENDBRANCH  73  74
ENDBRANCH  72  73
ENDBRANCH   1  72
TORSDOF 17
ENDMDL
MODEL 3
REMARK VINA RESULT:     -11.6      2.291      3.937
REMARK SMILES O=C(NCCCCCCNC(=O)[C@H]1Cc2cc(O)ccc2C[NH2+]1)c1ccc(-c2c3nc(c(-c4cc(S(=O)(=O)[O-])ccc4F)c4ccc([nH]4)c(-c4cc(S(=O)(=O)[O-])ccc4F)c4nc(c(-c5cc(S(=O)(=O)[O-])ccc5F)c5ccc2[nH]5)C=C4)C=C3)cc1
REMARK SMILES IDX 5 1 4 2 3 3 1 4 2 5 24 7 25 8 86 9 26 10 85 11 27 12 28 13
REMARK SMILES IDX 29 14 79 15 30 16 84 17 78 18 80 19 31 20 83 21 77 22 76 23
REMARK SMILES IDX 32 25 64 26 44 27 63 28 45 29 48 30 62 31 81 32 46 33 47 34
REMARK SMILES IDX 61 36 82 37 49 38 33 39 34 40 42 41 35 42 41 43 43 44 40 45
REMARK SMILES IDX 36 46 37 47 38 48 39 49 65 50 66 51 74 52 67 53 73 54 75 55
REMARK SMILES IDX 72 56 68 57 69 58 70 59 71 60 50 61 51 62 59 63 52 64 58 65
REMARK SMILES IDX 60 66 57 67 53 68 54 69 55 70 56 71 6 72 7 73 8 74 9 75
REMARK SMILES IDX 10 76 11 77 12 79 13 80 14 81 23 82 15 83 22 84 16 87 21 88
REMARK SMILES IDX 17 89 20 90 19 91 18 92
REMARK H PARENT 3 6 80 24 48 35 10 78 23 85 23 86 18 93
REMARK Flexibility Score: inf
ROOT
ATOM      1  C   UNL A   1      31.790  29.592  26.517  1.00  0.00     0.021 C 
ENDROOT
BRANCH   1   2
ATOM      2  C   UNL A   1      33.146  30.274  26.618  1.00  0.00     0.116 C 
BRANCH   2   3
ATOM      3  N   UNL A   1      33.041  31.693  26.913  1.00  0.00    -0.352 N 
ATOM      4  O   UNL A   1      33.483  33.623  27.986  1.00  0.00    -0.269 OA
ATOM      5  C   UNL A   1      33.822  32.466  27.735  1.00  0.00     0.251 C 
ATOM      6  H   UNL A   1      32.306  32.166  26.461  1.00  0.00     0.163 HD
BRANCH   5   7
ATOM      7  C   UNL A   1      35.058  31.910  28.328  1.00  0.00     0.039 A 
ATOM      8  C   UNL A   1      35.004  30.667  28.961  1.00  0.00     0.014 A 
ATOM      9  C   UNL A   1      36.265  32.615  28.279  1.00  0.00     0.014 A 
ATOM     10  C   UNL A   1      36.163  30.125  29.521  1.00  0.00     0.010 A 
ATOM     11  C   UNL A   1      37.437  32.026  28.743  1.00  0.00     0.010 A 
ATOM     12  C   UNL A   1      37.395  30.792  29.403  1.00  0.00    -0.014 A 
BRANCH  12  13
ATOM     13  C   UNL A   1      38.630  30.232  30.014  1.00  0.00     0.031 A 
ATOM     14  C   UNL A   1      39.065  30.675  31.387  1.00  0.00     0.074 A 
ATOM     15  C   UNL A   1      39.369  29.338  29.331  1.00  0.00     0.049 A 
ATOM     16  N   UNL A   1      40.099  30.286  32.088  1.00  0.00    -0.248 NA
ATOM     17  C   UNL A   1      38.254  31.712  32.045  1.00  0.00     0.031 C 
ATOM     18  C   UNL A   1      39.086  28.885  27.970  1.00  0.00     0.029 A 
ATOM     19  N   UNL A   1      40.502  28.647  29.685  1.00  0.00    -0.354 N 
ATOM     20  C   UNL A   1      40.055  31.025  33.266  1.00  0.00     0.074 A 
ATOM     21  C   UNL A   1      38.956  31.953  33.141  1.00  0.00     0.031 C 
ATOM     22  C   UNL A   1      39.993  27.961  27.619  1.00  0.00     0.029 A 
ATOM     23  C   UNL A   1      40.949  27.785  28.712  1.00  0.00     0.049 A 
ATOM     24  H   UNL A   1      40.952  28.761  30.553  1.00  0.00     0.167 HD
ATOM     25  C   UNL A   1      40.826  30.906  34.373  1.00  0.00     0.034 A 
ATOM     26  C   UNL A   1      42.002  26.941  28.699  1.00  0.00     0.034 A 
ATOM     27  C   UNL A   1      41.911  29.965  34.491  1.00  0.00     0.049 A 
ATOM     28  C   UNL A   1      42.850  26.817  29.939  1.00  0.00     0.074 A 
ATOM     29  C   UNL A   1      42.732  29.738  35.580  1.00  0.00     0.029 A 
ATOM     30  N   UNL A   1      42.324  29.093  33.492  1.00  0.00    -0.354 N 
ATOM     31  N   UNL A   1      42.738  27.457  31.081  1.00  0.00    -0.248 NA
ATOM     32  C   UNL A   1      43.949  25.844  29.904  1.00  0.00     0.031 C 
ATOM     33  C   UNL A   1      43.682  28.781  35.219  1.00  0.00     0.029 A 
ATOM     34  C   UNL A   1      43.405  28.345  33.932  1.00  0.00     0.049 A 
ATOM     35  H   UNL A   1      41.911  29.018  32.601  1.00  0.00     0.167 HD
ATOM     36  C   UNL A   1      43.746  26.957  31.903  1.00  0.00     0.074 A 
ATOM     37  C   UNL A   1      44.425  25.929  31.140  1.00  0.00     0.031 C 
ATOM     38  C   UNL A   1      44.086  27.325  33.166  1.00  0.00     0.034 A 
BRANCH  25  39
ATOM     39  C   UNL A   1      40.504  31.777  35.565  1.00  0.00     0.023 A 
ATOM     40  C   UNL A   1      39.372  31.514  36.357  1.00  0.00     0.031 A 
ATOM     41  C   UNL A   1      41.260  32.931  35.855  1.00  0.00     0.131 A 
ATOM     42  C   UNL A   1      39.011  32.404  37.376  1.00  0.00     0.055 A 
ATOM     43  C   UNL A   1      40.930  33.783  36.908  1.00  0.00     0.041 A 
ATOM     44  F   UNL A   1      42.349  33.234  35.129  1.00  0.00    -0.206 F 
ATOM     45  C   UNL A   1      39.791  33.529  37.665  1.00  0.00     0.022 A 
BRANCH  42  46
ATOM     46  S   UNL A   1      37.480  32.182  38.321  1.00  0.00     0.124 S 
ATOM     47  O   UNL A   1      37.218  30.756  38.138  1.00  0.00    -0.237 OA
ATOM     48  O   UNL A   1      37.893  32.573  39.665  1.00  0.00    -0.237 OA
ATOM     49  O   UNL A   1      36.531  33.077  37.666  1.00  0.00    -0.744 OA
ENDBRANCH  42  46
ENDBRANCH  25  39
BRANCH  26  50
ATOM     50  C   UNL A   1      42.238  26.107  27.482  1.00  0.00     0.023 A 
ATOM     51  C   UNL A   1      41.743  24.792  27.410  1.00  0.00     0.031 A 
ATOM     52  C   UNL A   1      43.077  26.555  26.449  1.00  0.00     0.131 A 
ATOM     53  C   UNL A   1      42.164  23.945  26.376  1.00  0.00     0.055 A 
ATOM     54  C   UNL A   1      43.427  25.733  25.375  1.00  0.00     0.041 A 
ATOM     55  F   UNL A   1      43.587  27.796  26.480  1.00  0.00    -0.206 F 
ATOM     56  C   UNL A   1      42.988  24.412  25.348  1.00  0.00     0.022 A 
BRANCH  53  57
ATOM     57  S   UNL A   1      41.788  22.170  26.421  1.00  0.00     0.124 S 
ATOM     58  O   UNL A   1      42.660  21.645  25.375  1.00  0.00    -0.237 OA
ATOM     59  O   UNL A   1      42.163  21.822  27.790  1.00  0.00    -0.237 OA
ATOM     60  O   UNL A   1      40.358  22.113  26.138  1.00  0.00    -0.744 OA
ENDBRANCH  53  57
ENDBRANCH  26  50
BRANCH  38  61
ATOM     61  C   UNL A   1      45.263  26.639  33.823  1.00  0.00     0.023 A 
ATOM     62  C   UNL A   1      45.060  25.532  34.669  1.00  0.00     0.031 A 
ATOM     63  C   UNL A   1      46.566  27.162  33.722  1.00  0.00     0.131 A 
ATOM     64  C   UNL A   1      46.131  25.008  35.405  1.00  0.00     0.055 A 
ATOM     65  C   UNL A   1      47.640  26.598  34.410  1.00  0.00     0.041 A 
ATOM     66  F   UNL A   1      46.814  28.230  32.945  1.00  0.00    -0.206 F 
ATOM     67  C   UNL A   1      47.422  25.524  35.268  1.00  0.00     0.022 A 
BRANCH  64  68
ATOM     68  S   UNL A   1      45.873  23.703  36.639  1.00  0.00     0.124 S 
ATOM     69  O   UNL A   1      47.183  23.631  37.281  1.00  0.00    -0.237 OA
ATOM     70  O   UNL A   1      44.805  24.266  37.463  1.00  0.00    -0.237 OA
ATOM     71  O   UNL A   1      45.503  22.535  35.846  1.00  0.00    -0.744 OA
ENDBRANCH  64  68
ENDBRANCH  38  61
ENDBRANCH  12  13
ENDBRANCH   5   7
ENDBRANCH   2   3
ENDBRANCH   1   2
BRANCH   1  72
ATOM     72  C   UNL A   1      31.669  28.265  27.266  1.00  0.00     0.002 C 
BRANCH  72  73
ATOM     73  C   UNL A   1      31.763  27.005  26.402  1.00  0.00     0.002 C 
BRANCH  73  74
ATOM     74  C   UNL A   1      30.754  26.903  25.257  1.00  0.00     0.021 C 
BRANCH  74  75
ATOM     75  C   UNL A   1      30.308  25.492  24.890  1.00  0.00     0.116 C 
BRANCH  75  76
ATOM     76  N   UNL A   1      29.983  24.685  26.053  1.00  0.00    -0.351 N 
ATOM     77  C   UNL A   1      30.627  23.590  26.556  1.00  0.00     0.278 C 
ATOM     78  H   UNL A   1      29.182  24.967  26.552  1.00  0.00     0.163 HD
ATOM     79  O   UNL A   1      30.194  23.104  27.607  1.00  0.00    -0.268 OA
BRANCH  77  80
ATOM     80  C   UNL A   1      31.798  22.918  25.811  1.00  0.00     0.277 C 
ATOM     81  C   UNL A   1      33.105  23.563  26.288  1.00  0.00     0.111 C 
ATOM     82  N   UNL A   1      31.777  21.454  25.985  1.00  0.00    -0.332 N 
ATOM     83  C   UNL A   1      34.320  22.832  25.783  1.00  0.00    -0.029 A 
ATOM     84  C   UNL A   1      32.878  20.791  25.292  1.00  0.00     0.298 C 
ATOM     85  H   UNL A   1      30.897  21.093  25.618  1.00  0.00     0.347 HD
ATOM     86  H   UNL A   1      31.877  21.258  26.981  1.00  0.00     0.347 HD
ATOM     87  C   UNL A   1      35.568  23.471  25.762  1.00  0.00     0.050 A 
ATOM     88  C   UNL A   1      34.217  21.486  25.393  1.00  0.00     0.010 A 
ATOM     89  C   UNL A   1      36.699  22.775  25.351  1.00  0.00     0.115 A 
ATOM     90  C   UNL A   1      35.377  20.797  25.003  1.00  0.00     0.013 A 
ATOM     91  C   UNL A   1      36.617  21.437  24.985  1.00  0.00     0.046 A 
BRANCH  89  92
ATOM     92  O   UNL A   1      37.885  23.448  25.320  1.00  0.00    -0.508 OA
ATOM     93  H   UNL A   1      38.214  23.856  26.096  1.00  0.00     0.293 HD
ENDBRANCH  89  92
ENDBRANCH  77  80
ENDBRANCH  75  76
ENDBRANCH  74  75
ENDBRANCH  73  74
ENDBRANCH  72  73
ENDBRANCH   1  72
TORSDOF 17
ENDMDL
