MODEL 1
REMARK VINA RESULT:     -11.3      0.000      0.000
REMARK SMILES COc1ccc(NS(=O)(=O)c2ccc(Cl)c(C(=O)NCCCCCCNC(=O)c3ccc(-c4c5nc(c(-c6cc(S(=O)(=O)[O-])ccc6F)c6ccc([nH]6)c(-c6cc(S(=O)(=O)[O-])ccc6F)c6nc(c(-c7cc(S(=O)(=O)[O-])ccc7F)c7ccc4[nH]7)C=C6)C=C5)cc3)c2)cc1Cl
REMARK SMILES IDX 22 1 21 2 20 3 19 4 17 5 18 6 16 8 11 9 12 10 92 11 13 12
REMARK SMILES IDX 14 13 15 14 8 15 9 16 10 17 7 18 6 20 3 21 4 22 94 23 5 24
REMARK SMILES IDX 93 25 95 26 2 27 1 28 23 29 24 30 25 31 26 32 27 33 28 35
REMARK SMILES IDX 29 36 30 37 91 38 31 39 90 40 32 41 33 42 34 43 84 44 35 45
REMARK SMILES IDX 89 46 83 47 85 48 36 49 88 50 82 51 81 52 37 54 69 55 49 56
REMARK SMILES IDX 68 57 50 58 53 59 67 60 86 61 51 62 52 63 66 65 87 66 54 67
REMARK SMILES IDX 38 68 39 69 47 70 40 71 46 72 48 73 45 74 41 75 42 76 43 77
REMARK SMILES IDX 44 78 70 79 71 80 79 81 72 82 78 83 80 84 77 85 73 86 74 87
REMARK SMILES IDX 75 88 76 89 55 90 56 91 64 92 57 93 63 94 65 95 62 96 58 97
REMARK SMILES IDX 59 98 60 99 61 100
REMARK H PARENT 19 7 7 19 26 34 85 53 53 64
REMARK Flexibility Score: inf
ROOT
ATOM      1  C   UNL A   1      39.649  22.327  26.447  1.00  0.00     0.002 C 
ENDROOT
BRANCH   1   2
ATOM      2  C   UNL A   1      38.939  23.669  26.641  1.00  0.00     0.021 C 
BRANCH   2   3
ATOM      3  C   UNL A   1      37.531  23.774  26.078  1.00  0.00     0.116 C 
BRANCH   3   4
ATOM      4  N   UNL A   1      37.449  23.625  24.643  1.00  0.00    -0.352 N 
ATOM      5  C   UNL A   1      36.490  23.044  23.857  1.00  0.00     0.252 C 
ATOM      6  O   UNL A   1      36.642  23.108  22.636  1.00  0.00    -0.269 OA
ATOM      7  H   UNL A   1      38.210  24.004  24.148  1.00  0.00     0.163 HD
BRANCH   5   8
ATOM      8  C   UNL A   1      35.325  22.275  24.382  1.00  0.00     0.059 A 
ATOM      9  C   UNL A   1      33.139  22.523  25.425  1.00  0.00     0.088 A 
ATOM     10  C   UNL A   1      33.022  21.146  25.594  1.00  0.00     0.024 A 
ATOM     11  C   UNL A   1      34.210  23.071  24.710  1.00  0.00     0.037 A 
ATOM     12  C   UNL A   1      34.111  20.345  25.254  1.00  0.00     0.023 A 
ATOM     13  C   UNL A   1      35.297  20.925  24.767  1.00  0.00     0.053 A 
ATOM     14  Cl  UNL A   1      36.714  19.960  25.003  1.00  0.00    -0.083 Cl
BRANCH   9  15
ATOM     15  S   UNL A   1      32.086  23.614  26.347  1.00  0.00     0.261 S 
ATOM     16  O   UNL A   1      32.779  24.876  26.489  1.00  0.00    -0.201 OA
ATOM     17  O   UNL A   1      31.594  22.911  27.514  1.00  0.00    -0.201 OA
BRANCH  15  18
ATOM     18  N   UNL A   1      30.745  23.924  25.327  1.00  0.00    -0.280 N 
ATOM     19  H   UNL A   1      29.977  23.308  25.345  1.00  0.00     0.180 HD
BRANCH  18  20
ATOM     20  C   UNL A   1      30.711  25.063  24.445  1.00  0.00     0.051 A 
ATOM     21  C   UNL A   1      30.455  27.193  22.622  1.00  0.00     0.137 A 
ATOM     22  C   UNL A   1      29.766  27.223  23.828  1.00  0.00     0.050 A 
ATOM     23  C   UNL A   1      31.280  26.103  22.325  1.00  0.00     0.085 A 
ATOM     24  C   UNL A   1      29.850  26.133  24.696  1.00  0.00     0.030 A 
ATOM     25  C   UNL A   1      31.417  25.045  23.239  1.00  0.00     0.051 A 
ATOM     26  Cl  UNL A   1      32.099  25.998  20.808  1.00  0.00    -0.080 Cl
BRANCH  21  27
ATOM     27  O   UNL A   1      30.333  28.261  21.774  1.00  0.00    -0.495 OA
ATOM     28  C   UNL A   1      29.570  29.308  22.377  1.00  0.00     0.278 C 
ENDBRANCH  21  27
ENDBRANCH  18  20
ENDBRANCH  15  18
ENDBRANCH   9  15
ENDBRANCH   5   8
ENDBRANCH   3   4
ENDBRANCH   2   3
ENDBRANCH   1   2
BRANCH   1  29
ATOM     29  C   UNL A   1      40.519  21.825  27.603  1.00  0.00     0.002 C 
BRANCH  29  30
ATOM     30  C   UNL A   1      41.108  20.419  27.467  1.00  0.00     0.021 C 
BRANCH  30  31
ATOM     31  C   UNL A   1      40.920  19.739  26.115  1.00  0.00     0.116 C 
BRANCH  31  32
ATOM     32  N   UNL A   1      42.157  19.198  25.582  1.00  0.00    -0.352 N 
ATOM     33  C   UNL A   1      43.346  19.829  25.311  1.00  0.00     0.251 C 
ATOM     34  H   UNL A   1      42.141  18.233  25.385  1.00  0.00     0.163 HD
ATOM     35  O   UNL A   1      44.227  19.222  24.708  1.00  0.00    -0.269 OA
BRANCH  33  36
ATOM     36  C   UNL A   1      43.555  21.240  25.712  1.00  0.00     0.039 A 
ATOM     37  C   UNL A   1      44.088  21.504  26.977  1.00  0.00     0.014 A 
ATOM     38  C   UNL A   1      43.221  22.299  24.863  1.00  0.00     0.014 A 
ATOM     39  C   UNL A   1      44.342  22.822  27.364  1.00  0.00     0.010 A 
ATOM     40  C   UNL A   1      43.544  23.608  25.221  1.00  0.00     0.010 A 
ATOM     41  C   UNL A   1      44.109  23.885  26.475  1.00  0.00    -0.014 A 
BRANCH  41  42
ATOM     42  C   UNL A   1      44.463  25.282  26.844  1.00  0.00     0.031 A 
ATOM     43  C   UNL A   1      43.420  26.209  27.410  1.00  0.00     0.074 A 
ATOM     44  C   UNL A   1      45.717  25.728  26.626  1.00  0.00     0.049 A 
ATOM     45  N   UNL A   1      43.529  27.469  27.745  1.00  0.00    -0.248 NA
ATOM     46  C   UNL A   1      42.073  25.652  27.597  1.00  0.00     0.031 C 
ATOM     47  C   UNL A   1      46.804  24.935  26.048  1.00  0.00     0.029 A 
ATOM     48  N   UNL A   1      46.290  26.954  26.858  1.00  0.00    -0.354 N 
ATOM     49  C   UNL A   1      42.265  27.859  28.178  1.00  0.00     0.074 A 
ATOM     50  C   UNL A   1      41.394  26.716  28.000  1.00  0.00     0.031 C 
ATOM     51  C   UNL A   1      47.917  25.683  26.000  1.00  0.00     0.029 A 
ATOM     52  C   UNL A   1      47.616  27.023  26.494  1.00  0.00     0.049 A 
ATOM     53  H   UNL A   1      45.799  27.712  27.249  1.00  0.00     0.167 HD
ATOM     54  C   UNL A   1      41.874  29.050  28.695  1.00  0.00     0.034 A 
ATOM     55  C   UNL A   1      48.486  28.052  26.537  1.00  0.00     0.034 A 
ATOM     56  C   UNL A   1      42.758  30.179  28.869  1.00  0.00     0.049 A 
ATOM     57  C   UNL A   1      48.016  29.378  27.081  1.00  0.00     0.074 A 
ATOM     58  C   UNL A   1      42.479  31.412  29.430  1.00  0.00     0.029 A 
ATOM     59  N   UNL A   1      44.089  30.218  28.474  1.00  0.00    -0.354 N 
ATOM     60  N   UNL A   1      46.830  29.712  27.536  1.00  0.00    -0.248 NA
ATOM     61  C   UNL A   1      49.006  30.462  27.127  1.00  0.00     0.031 C 
ATOM     62  C   UNL A   1      43.614  32.221  29.304  1.00  0.00     0.029 A 
ATOM     63  C   UNL A   1      44.632  31.466  28.744  1.00  0.00     0.049 A 
ATOM     64  H   UNL A   1      44.578  29.468  28.063  1.00  0.00     0.167 HD
ATOM     65  C   UNL A   1      46.944  31.036  27.951  1.00  0.00     0.074 A 
ATOM     66  C   UNL A   1      48.317  31.429  27.712  1.00  0.00     0.031 C 
ATOM     67  C   UNL A   1      45.999  31.853  28.485  1.00  0.00     0.034 A 
BRANCH  54  68
ATOM     68  C   UNL A   1      40.420  29.200  29.084  1.00  0.00     0.023 A 
ATOM     69  C   UNL A   1      40.006  29.162  30.427  1.00  0.00     0.031 A 
ATOM     70  C   UNL A   1      39.432  29.367  28.097  1.00  0.00     0.131 A 
ATOM     71  C   UNL A   1      38.640  29.215  30.742  1.00  0.00     0.055 A 
ATOM     72  C   UNL A   1      38.081  29.507  28.423  1.00  0.00     0.041 A 
ATOM     73  F   UNL A   1      39.761  29.390  26.796  1.00  0.00    -0.206 F 
ATOM     74  C   UNL A   1      37.676  29.415  29.751  1.00  0.00     0.022 A 
BRANCH  71  75
ATOM     75  S   UNL A   1      38.129  28.873  32.448  1.00  0.00     0.124 S 
ATOM     76  O   UNL A   1      38.980  29.793  33.200  1.00  0.00    -0.237 OA
ATOM     77  O   UNL A   1      36.708  29.195  32.423  1.00  0.00    -0.237 OA
ATOM     78  O   UNL A   1      38.447  27.458  32.624  1.00  0.00    -0.744 OA
ENDBRANCH  71  75
ENDBRANCH  54  68
BRANCH  55  79
ATOM     79  C   UNL A   1      49.883  27.884  26.039  1.00  0.00     0.023 A 
ATOM     80  C   UNL A   1      50.178  27.954  24.669  1.00  0.00     0.031 A 
ATOM     81  C   UNL A   1      50.938  27.601  26.926  1.00  0.00     0.131 A 
ATOM     82  C   UNL A   1      51.482  27.692  24.218  1.00  0.00     0.055 A 
ATOM     83  C   UNL A   1      52.246  27.401  26.479  1.00  0.00     0.041 A 
ATOM     84  F   UNL A   1      50.714  27.523  28.247  1.00  0.00    -0.206 F 
ATOM     85  C   UNL A   1      52.521  27.431  25.115  1.00  0.00     0.022 A 
BRANCH  82  86
ATOM     86  S   UNL A   1      51.781  27.597  22.432  1.00  0.00     0.124 S 
ATOM     87  O   UNL A   1      52.190  28.963  22.128  1.00  0.00    -0.237 OA
ATOM     88  O   UNL A   1      52.824  26.580  22.353  1.00  0.00    -0.237 OA
ATOM     89  O   UNL A   1      50.483  27.198  21.892  1.00  0.00    -0.744 OA
ENDBRANCH  82  86
ENDBRANCH  55  79
BRANCH  67  90
ATOM     90  C   UNL A   1      46.439  33.244  28.881  1.00  0.00     0.023 A 
ATOM     91  C   UNL A   1      46.332  34.334  28.000  1.00  0.00     0.031 A 
ATOM     92  C   UNL A   1      46.992  33.476  30.153  1.00  0.00     0.131 A 
ATOM     93  C   UNL A   1      46.831  35.590  28.376  1.00  0.00     0.055 A 
ATOM     94  C   UNL A   1      47.424  34.743  30.548  1.00  0.00     0.041 A 
ATOM     95  F   UNL A   1      47.124  32.472  31.035  1.00  0.00    -0.206 F 
ATOM     96  C   UNL A   1      47.359  35.806  29.652  1.00  0.00     0.022 A 
BRANCH  93  97
ATOM     97  S   UNL A   1      46.883  36.913  27.137  1.00  0.00     0.124 S 
ATOM     98  O   UNL A   1      45.888  37.848  27.649  1.00  0.00    -0.237 OA
ATOM     99  O   UNL A   1      48.271  37.356  27.211  1.00  0.00    -0.237 OA
ATOM    100  O   UNL A   1      46.515  36.234  25.896  1.00  0.00    -0.744 OA
ENDBRANCH  93  97
ENDBRANCH  67  90
ENDBRANCH  41  42
ENDBRANCH  33  36
ENDBRANCH  31  32
ENDBRANCH  30  31
ENDBRANCH  29  30
ENDBRANCH   1  29
TORSDOF 20
ENDMDL
MODEL 2
REMARK VINA RESULT:     -11.3      5.815     11.666
REMARK SMILES COc1ccc(NS(=O)(=O)c2ccc(Cl)c(C(=O)NCCCCCCNC(=O)c3ccc(-c4c5nc(c(-c6cc(S(=O)(=O)[O-])ccc6F)c6ccc([nH]6)c(-c6cc(S(=O)(=O)[O-])ccc6F)c6nc(c(-c7cc(S(=O)(=O)[O-])ccc7F)c7ccc4[nH]7)C=C6)C=C5)cc3)c2)cc1Cl
REMARK SMILES IDX 22 1 21 2 20 3 19 4 17 5 18 6 16 8 11 9 12 10 92 11 13 12
REMARK SMILES IDX 14 13 15 14 8 15 9 16 10 17 7 18 6 20 3 21 4 22 94 23 5 24
REMARK SMILES IDX 93 25 95 26 2 27 1 28 23 29 24 30 25 31 26 32 27 33 28 35
REMARK SMILES IDX 29 36 30 37 91 38 31 39 90 40 32 41 33 42 34 43 84 44 35 45
REMARK SMILES IDX 89 46 83 47 85 48 36 49 88 50 82 51 81 52 37 54 69 55 49 56
REMARK SMILES IDX 68 57 50 58 53 59 67 60 86 61 51 62 52 63 66 65 87 66 54 67
REMARK SMILES IDX 38 68 39 69 47 70 40 71 46 72 48 73 45 74 41 75 42 76 43 77
REMARK SMILES IDX 44 78 70 79 71 80 79 81 72 82 78 83 80 84 77 85 73 86 74 87
REMARK SMILES IDX 75 88 76 89 55 90 56 91 64 92 57 93 63 94 65 95 62 96 58 97
REMARK SMILES IDX 59 98 60 99 61 100
REMARK H PARENT 19 7 7 19 26 34 85 53 53 64
REMARK Flexibility Score: inf
ROOT
ATOM      1  C   UNL A   1      33.111  29.419  25.349  1.00  0.00     0.002 C 
ENDROOT
BRANCH   1   2
ATOM      2  C   UNL A   1      33.069  29.216  23.833  1.00  0.00     0.021 C 
BRANCH   2   3
ATOM      3  C   UNL A   1      34.019  28.172  23.267  1.00  0.00     0.116 C 
BRANCH   3   4
ATOM      4  N   UNL A   1      33.411  27.261  22.324  1.00  0.00    -0.352 N 
ATOM      5  C   UNL A   1      32.366  26.388  22.470  1.00  0.00     0.252 C 
ATOM      6  O   UNL A   1      32.007  25.761  21.472  1.00  0.00    -0.269 OA
ATOM      7  H   UNL A   1      33.816  27.269  21.428  1.00  0.00     0.163 HD
BRANCH   5   8
ATOM      8  C   UNL A   1      31.694  26.090  23.768  1.00  0.00     0.059 A 
ATOM      9  C   UNL A   1      31.428  24.373  25.473  1.00  0.00     0.088 A 
ATOM     10  C   UNL A   1      30.473  25.132  26.143  1.00  0.00     0.024 A 
ATOM     11  C   UNL A   1      32.126  24.897  24.379  1.00  0.00     0.037 A 
ATOM     12  C   UNL A   1      30.051  26.325  25.557  1.00  0.00     0.023 A 
ATOM     13  C   UNL A   1      30.573  26.734  24.316  1.00  0.00     0.053 A 
ATOM     14  Cl  UNL A   1      29.550  27.811  23.429  1.00  0.00    -0.083 Cl
BRANCH   9  15
ATOM     15  S   UNL A   1      31.575  22.639  25.823  1.00  0.00     0.261 S 
ATOM     16  O   UNL A   1      30.242  22.121  26.039  1.00  0.00    -0.201 OA
ATOM     17  O   UNL A   1      32.607  22.450  26.822  1.00  0.00    -0.201 OA
BRANCH  15  18
ATOM     18  N   UNL A   1      32.128  21.925  24.367  1.00  0.00    -0.280 N 
ATOM     19  H   UNL A   1      31.869  22.328  23.506  1.00  0.00     0.180 HD
BRANCH  18  20
ATOM     20  C   UNL A   1      32.964  20.750  24.369  1.00  0.00     0.051 A 
ATOM     21  C   UNL A   1      34.554  18.439  24.601  1.00  0.00     0.137 A 
ATOM     22  C   UNL A   1      33.185  18.324  24.390  1.00  0.00     0.050 A 
ATOM     23  C   UNL A   1      35.134  19.709  24.689  1.00  0.00     0.085 A 
ATOM     24  C   UNL A   1      32.397  19.475  24.340  1.00  0.00     0.030 A 
ATOM     25  C   UNL A   1      34.343  20.863  24.562  1.00  0.00     0.051 A 
ATOM     26  Cl  UNL A   1      36.820  19.893  25.017  1.00  0.00    -0.080 Cl
BRANCH  21  27
ATOM     27  O   UNL A   1      35.301  17.295  24.676  1.00  0.00    -0.495 OA
ATOM     28  C   UNL A   1      34.492  16.178  25.051  1.00  0.00     0.278 C 
ENDBRANCH  21  27
ENDBRANCH  18  20
ENDBRANCH  15  18
ENDBRANCH   9  15
ENDBRANCH   5   8
ENDBRANCH   3   4
ENDBRANCH   2   3
ENDBRANCH   1   2
BRANCH   1  29
ATOM     29  C   UNL A   1      31.803  29.823  26.035  1.00  0.00     0.002 C 
BRANCH  29  30
ATOM     30  C   UNL A   1      31.637  31.301  26.398  1.00  0.00     0.021 C 
BRANCH  30  31
ATOM     31  C   UNL A   1      32.831  31.963  27.077  1.00  0.00     0.116 C 
BRANCH  31  32
ATOM     32  N   UNL A   1      32.603  33.366  27.369  1.00  0.00    -0.352 N 
ATOM     33  C   UNL A   1      33.202  34.178  28.302  1.00  0.00     0.251 C 
ATOM     34  H   UNL A   1      31.915  33.803  26.815  1.00  0.00     0.163 HD
ATOM     35  O   UNL A   1      32.751  35.302  28.501  1.00  0.00    -0.269 OA
BRANCH  33  36
ATOM     36  C   UNL A   1      34.361  33.691  29.085  1.00  0.00     0.039 A 
ATOM     37  C   UNL A   1      34.135  32.776  30.117  1.00  0.00     0.014 A 
ATOM     38  C   UNL A   1      35.660  34.136  28.822  1.00  0.00     0.014 A 
ATOM     39  C   UNL A   1      35.214  32.263  30.841  1.00  0.00     0.010 A 
ATOM     40  C   UNL A   1      36.741  33.567  29.495  1.00  0.00     0.010 A 
ATOM     41  C   UNL A   1      36.531  32.624  30.512  1.00  0.00    -0.014 A 
BRANCH  41  42
ATOM     42  C   UNL A   1      37.690  32.011  31.216  1.00  0.00     0.031 A 
ATOM     43  C   UNL A   1      38.465  30.890  30.576  1.00  0.00     0.074 A 
ATOM     44  C   UNL A   1      38.016  32.437  32.453  1.00  0.00     0.049 A 
ATOM     45  N   UNL A   1      39.471  30.203  31.053  1.00  0.00    -0.248 NA
ATOM     46  C   UNL A   1      38.034  30.470  29.235  1.00  0.00     0.031 C 
ATOM     47  C   UNL A   1      37.316  33.490  33.192  1.00  0.00     0.029 A 
ATOM     48  N   UNL A   1      39.011  32.038  33.311  1.00  0.00    -0.354 N 
ATOM     49  C   UNL A   1      39.791  29.266  30.075  1.00  0.00     0.074 A 
ATOM     50  C   UNL A   1      38.828  29.435  29.007  1.00  0.00     0.031 C 
ATOM     51  C   UNL A   1      37.922  33.674  34.376  1.00  0.00     0.029 A 
ATOM     52  C   UNL A   1      39.019  32.721  34.506  1.00  0.00     0.049 A 
ATOM     53  H   UNL A   1      39.658  31.329  33.091  1.00  0.00     0.167 HD
ATOM     54  C   UNL A   1      40.805  28.366  30.060  1.00  0.00     0.034 A 
ATOM     55  C   UNL A   1      39.809  32.586  35.590  1.00  0.00     0.034 A 
ATOM     56  C   UNL A   1      41.760  28.214  31.134  1.00  0.00     0.049 A 
ATOM     57  C   UNL A   1      40.907  31.551  35.563  1.00  0.00     0.074 A 
ATOM     58  C   UNL A   1      42.855  27.372  31.198  1.00  0.00     0.029 A 
ATOM     59  N   UNL A   1      41.728  28.912  32.334  1.00  0.00    -0.354 N 
ATOM     60  N   UNL A   1      41.228  30.710  34.607  1.00  0.00    -0.248 NA
ATOM     61  C   UNL A   1      41.754  31.456  36.759  1.00  0.00     0.031 C 
ATOM     62  C   UNL A   1      43.437  27.501  32.464  1.00  0.00     0.029 A 
ATOM     63  C   UNL A   1      42.760  28.490  33.160  1.00  0.00     0.049 A 
ATOM     64  H   UNL A   1      41.068  29.605  32.566  1.00  0.00     0.167 HD
ATOM     65  C   UNL A   1      42.335  30.009  35.077  1.00  0.00     0.074 A 
ATOM     66  C   UNL A   1      42.637  30.541  36.390  1.00  0.00     0.031 C 
ATOM     67  C   UNL A   1      43.041  29.016  34.476  1.00  0.00     0.034 A 
BRANCH  54  68
ATOM     68  C   UNL A   1      40.916  27.458  28.856  1.00  0.00     0.023 A 
ATOM     69  C   UNL A   1      41.928  27.625  27.894  1.00  0.00     0.031 A 
ATOM     70  C   UNL A   1      39.988  26.420  28.659  1.00  0.00     0.131 A 
ATOM     71  C   UNL A   1      41.944  26.818  26.746  1.00  0.00     0.055 A 
ATOM     72  C   UNL A   1      40.062  25.564  27.557  1.00  0.00     0.041 A 
ATOM     73  F   UNL A   1      38.987  26.222  29.530  1.00  0.00    -0.206 F 
ATOM     74  C   UNL A   1      41.035  25.772  26.584  1.00  0.00     0.022 A 
BRANCH  71  75
ATOM     75  S   UNL A   1      43.079  27.251  25.399  1.00  0.00     0.124 S 
ATOM     76  O   UNL A   1      43.287  25.953  24.761  1.00  0.00    -0.237 OA
ATOM     77  O   UNL A   1      42.306  28.222  24.635  1.00  0.00    -0.237 OA
ATOM     78  O   UNL A   1      44.247  27.789  26.094  1.00  0.00    -0.744 OA
ENDBRANCH  71  75
ENDBRANCH  54  68
BRANCH  55  79
ATOM     79  C   UNL A   1      39.591  33.434  36.798  1.00  0.00     0.023 A 
ATOM     80  C   UNL A   1      38.951  32.921  37.938  1.00  0.00     0.031 A 
ATOM     81  C   UNL A   1      39.974  34.787  36.812  1.00  0.00     0.131 A 
ATOM     82  C   UNL A   1      38.666  33.767  39.022  1.00  0.00     0.055 A 
ATOM     83  C   UNL A   1      39.744  35.609  37.917  1.00  0.00     0.041 A 
ATOM     84  F   UNL A   1      40.590  35.331  35.750  1.00  0.00    -0.206 F 
ATOM     85  C   UNL A   1      39.072  35.103  39.025  1.00  0.00     0.022 A 
BRANCH  82  86
ATOM     86  S   UNL A   1      37.666  33.119  40.389  1.00  0.00     0.124 S 
ATOM     87  O   UNL A   1      36.374  32.921  39.743  1.00  0.00    -0.237 OA
ATOM     88  O   UNL A   1      38.397  31.909  40.751  1.00  0.00    -0.237 OA
ATOM     89  O   UNL A   1      37.712  34.192  41.380  1.00  0.00    -0.744 OA
ENDBRANCH  82  86
ENDBRANCH  55  79
BRANCH  67  90
ATOM     90  C   UNL A   1      44.235  28.472  35.226  1.00  0.00     0.023 A 
ATOM     91  C   UNL A   1      44.105  27.459  36.191  1.00  0.00     0.031 A 
ATOM     92  C   UNL A   1      45.520  28.992  34.985  1.00  0.00     0.131 A 
ATOM     93  C   UNL A   1      45.226  27.043  36.926  1.00  0.00     0.055 A 
ATOM     94  C   UNL A   1      46.643  28.526  35.669  1.00  0.00     0.041 A 
ATOM     95  F   UNL A   1      45.705  29.965  34.078  1.00  0.00    -0.206 F 
ATOM     96  C   UNL A   1      46.497  27.556  36.657  1.00  0.00     0.022 A 
BRANCH  93  97
ATOM     97  S   UNL A   1      44.982  25.902  38.314  1.00  0.00     0.124 S 
ATOM     98  O   UNL A   1      44.387  24.745  37.654  1.00  0.00    -0.237 OA
ATOM     99  O   UNL A   1      46.341  25.721  38.812  1.00  0.00    -0.237 OA
ATOM    100  O   UNL A   1      44.086  26.634  39.207  1.00  0.00    -0.744 OA
ENDBRANCH  93  97
ENDBRANCH  67  90
ENDBRANCH  41  42
ENDBRANCH  33  36
ENDBRANCH  31  32
ENDBRANCH  30  31
ENDBRANCH  29  30
ENDBRANCH   1  29
TORSDOF 20
ENDMDL
MODEL 3
REMARK VINA RESULT:     -10.9      5.077      9.060
REMARK SMILES COc1ccc(NS(=O)(=O)c2ccc(Cl)c(C(=O)NCCCCCCNC(=O)c3ccc(-c4c5nc(c(-c6cc(S(=O)(=O)[O-])ccc6F)c6ccc([nH]6)c(-c6cc(S(=O)(=O)[O-])ccc6F)c6nc(c(-c7cc(S(=O)(=O)[O-])ccc7F)c7ccc4[nH]7)C=C6)C=C5)cc3)c2)cc1Cl
REMARK SMILES IDX 22 1 21 2 20 3 19 4 17 5 18 6 16 8 11 9 12 10 92 11 13 12
REMARK SMILES IDX 14 13 15 14 8 15 9 16 10 17 7 18 6 20 3 21 4 22 94 23 5 24
REMARK SMILES IDX 93 25 95 26 2 27 1 28 23 29 24 30 25 31 26 32 27 33 28 35
REMARK SMILES IDX 29 36 30 37 91 38 31 39 90 40 32 41 33 42 34 43 84 44 35 45
REMARK SMILES IDX 89 46 83 47 85 48 36 49 88 50 82 51 81 52 37 54 69 55 49 56
REMARK SMILES IDX 68 57 50 58 53 59 67 60 86 61 51 62 52 63 66 65 87 66 54 67
REMARK SMILES IDX 38 68 39 69 47 70 40 71 46 72 48 73 45 74 41 75 42 76 43 77
REMARK SMILES IDX 44 78 70 79 71 80 79 81 72 82 78 83 80 84 77 85 73 86 74 87
REMARK SMILES IDX 75 88 76 89 55 90 56 91 64 92 57 93 63 94 65 95 62 96 58 97
REMARK SMILES IDX 59 98 60 99 61 100
REMARK H PARENT 19 7 7 19 26 34 85 53 53 64
REMARK Flexibility Score: inf
ROOT
ATOM      1  C   UNL A   1      33.015  28.952  25.064  1.00  0.00     0.002 C 
ENDROOT
BRANCH   1   2
ATOM      2  C   UNL A   1      34.042  28.505  24.022  1.00  0.00     0.021 C 
BRANCH   2   3
ATOM      3  C   UNL A   1      33.542  28.376  22.593  1.00  0.00     0.116 C 
BRANCH   3   4
ATOM      4  N   UNL A   1      33.578  27.031  22.066  1.00  0.00    -0.352 N 
ATOM      5  C   UNL A   1      32.890  25.906  22.437  1.00  0.00     0.252 C 
ATOM      6  O   UNL A   1      33.071  24.885  21.771  1.00  0.00    -0.269 OA
ATOM      7  H   UNL A   1      34.203  26.901  21.318  1.00  0.00     0.163 HD
BRANCH   5   8
ATOM      8  C   UNL A   1      32.005  25.818  23.633  1.00  0.00     0.059 A 
ATOM      9  C   UNL A   1      31.445  24.413  25.541  1.00  0.00     0.088 A 
ATOM     10  C   UNL A   1      30.391  25.250  25.897  1.00  0.00     0.024 A 
ATOM     11  C   UNL A   1      32.322  24.760  24.507  1.00  0.00     0.037 A 
ATOM     12  C   UNL A   1      30.080  26.313  25.050  1.00  0.00     0.023 A 
ATOM     13  C   UNL A   1      30.808  26.516  23.863  1.00  0.00     0.053 A 
ATOM     14  Cl  UNL A   1      29.956  27.397  22.642  1.00  0.00    -0.083 Cl
BRANCH   9  15
ATOM     15  S   UNL A   1      31.524  22.769  26.207  1.00  0.00     0.261 S 
ATOM     16  O   UNL A   1      30.264  22.120  25.921  1.00  0.00    -0.201 OA
ATOM     17  O   UNL A   1      32.022  22.840  27.565  1.00  0.00    -0.201 OA
BRANCH  15  18
ATOM     18  N   UNL A   1      32.700  21.952  25.267  1.00  0.00    -0.280 N 
ATOM     19  H   UNL A   1      33.448  22.465  24.883  1.00  0.00     0.180 HD
BRANCH  18  20
ATOM     20  C   UNL A   1      32.624  20.534  25.023  1.00  0.00     0.051 A 
ATOM     21  C   UNL A   1      32.708  17.764  24.528  1.00  0.00     0.137 A 
ATOM     22  C   UNL A   1      32.855  18.244  25.824  1.00  0.00     0.050 A 
ATOM     23  C   UNL A   1      32.510  18.665  23.476  1.00  0.00     0.085 A 
ATOM     24  C   UNL A   1      32.875  19.621  26.049  1.00  0.00     0.030 A 
ATOM     25  C   UNL A   1      32.457  20.047  23.724  1.00  0.00     0.051 A 
ATOM     26  Cl  UNL A   1      32.390  18.111  21.845  1.00  0.00    -0.080 Cl
BRANCH  21  27
ATOM     27  O   UNL A   1      32.720  16.409  24.328  1.00  0.00    -0.495 OA
ATOM     28  C   UNL A   1      32.786  15.709  25.572  1.00  0.00     0.278 C 
ENDBRANCH  21  27
ENDBRANCH  18  20
ENDBRANCH  15  18
ENDBRANCH   9  15
ENDBRANCH   5   8
ENDBRANCH   3   4
ENDBRANCH   2   3
ENDBRANCH   1   2
BRANCH   1  29
ATOM     29  C   UNL A   1      33.183  28.410  26.487  1.00  0.00     0.002 C 
BRANCH  29  30
ATOM     30  C   UNL A   1      33.524  29.425  27.580  1.00  0.00     0.021 C 
BRANCH  30  31
ATOM     31  C   UNL A   1      34.115  30.748  27.106  1.00  0.00     0.116 C 
BRANCH  31  32
ATOM     32  N   UNL A   1      33.949  31.816  28.074  1.00  0.00    -0.352 N 
ATOM     33  C   UNL A   1      34.698  32.119  29.185  1.00  0.00     0.251 C 
ATOM     34  H   UNL A   1      33.183  32.414  27.911  1.00  0.00     0.163 HD
ATOM     35  O   UNL A   1      34.294  32.972  29.970  1.00  0.00    -0.269 OA
BRANCH  33  36
ATOM     36  C   UNL A   1      35.966  31.402  29.452  1.00  0.00     0.039 A 
ATOM     37  C   UNL A   1      37.142  31.881  28.867  1.00  0.00     0.014 A 
ATOM     38  C   UNL A   1      36.006  30.260  30.258  1.00  0.00     0.014 A 
ATOM     39  C   UNL A   1      38.361  31.255  29.140  1.00  0.00     0.010 A 
ATOM     40  C   UNL A   1      37.231  29.683  30.589  1.00  0.00     0.010 A 
ATOM     41  C   UNL A   1      38.423  30.173  30.034  1.00  0.00    -0.014 A 
BRANCH  41  42
ATOM     42  C   UNL A   1      39.728  29.559  30.403  1.00  0.00     0.031 A 
ATOM     43  C   UNL A   1      40.544  30.125  31.534  1.00  0.00     0.074 A 
ATOM     44  C   UNL A   1      40.197  28.518  29.686  1.00  0.00     0.049 A 
ATOM     45  N   UNL A   1      41.722  29.757  31.970  1.00  0.00    -0.248 NA
ATOM     46  C   UNL A   1      39.971  31.274  32.252  1.00  0.00     0.031 C 
ATOM     47  C   UNL A   1      39.514  27.906  28.544  1.00  0.00     0.029 A 
ATOM     48  N   UNL A   1      41.356  27.792  29.805  1.00  0.00    -0.354 N 
ATOM     49  C   UNL A   1      42.035  30.629  33.007  1.00  0.00     0.074 A 
ATOM     50  C   UNL A   1      40.949  31.583  33.090  1.00  0.00     0.031 C 
ATOM     51  C   UNL A   1      40.251  26.881  28.089  1.00  0.00     0.029 A 
ATOM     52  C   UNL A   1      41.481  26.791  28.869  1.00  0.00     0.049 A 
ATOM     53  H   UNL A   1      42.035  27.971  30.496  1.00  0.00     0.167 HD
ATOM     54  C   UNL A   1      43.115  30.620  33.827  1.00  0.00     0.034 A 
ATOM     55  C   UNL A   1      42.479  25.911  28.651  1.00  0.00     0.034 A 
ATOM     56  C   UNL A   1      44.187  29.657  33.733  1.00  0.00     0.049 A 
ATOM     57  C   UNL A   1      43.687  25.946  29.554  1.00  0.00     0.074 A 
ATOM     58  C   UNL A   1      45.300  29.526  34.544  1.00  0.00     0.029 A 
ATOM     59  N   UNL A   1      44.288  28.668  32.762  1.00  0.00    -0.354 N 
ATOM     60  N   UNL A   1      43.942  26.744  30.565  1.00  0.00    -0.248 NA
ATOM     61  C   UNL A   1      44.738  24.954  29.291  1.00  0.00     0.031 C 
ATOM     62  C   UNL A   1      46.111  28.512  34.020  1.00  0.00     0.029 A 
ATOM     63  C   UNL A   1      45.462  27.949  32.932  1.00  0.00     0.049 A 
ATOM     64  H   UNL A   1      43.622  28.501  32.057  1.00  0.00     0.167 HD
ATOM     65  C   UNL A   1      45.167  26.327  31.077  1.00  0.00     0.074 A 
ATOM     66  C   UNL A   1      45.588  25.196  30.276  1.00  0.00     0.031 C 
ATOM     67  C   UNL A   1      45.881  26.833  32.117  1.00  0.00     0.034 A 
BRANCH  54  68
ATOM     68  C   UNL A   1      43.202  31.702  34.880  1.00  0.00     0.023 A 
ATOM     69  C   UNL A   1      42.500  31.610  36.095  1.00  0.00     0.031 A 
ATOM     70  C   UNL A   1      43.985  32.850  34.660  1.00  0.00     0.131 A 
ATOM     71  C   UNL A   1      42.537  32.675  37.009  1.00  0.00     0.055 A 
ATOM     72  C   UNL A   1      44.085  33.868  35.611  1.00  0.00     0.041 A 
ATOM     73  F   UNL A   1      44.660  33.007  33.511  1.00  0.00    -0.206 F 
ATOM     74  C   UNL A   1      43.345  33.791  36.788  1.00  0.00     0.022 A 
BRANCH  71  75
ATOM     75  S   UNL A   1      41.397  32.645  38.420  1.00  0.00     0.124 S 
ATOM     76  O   UNL A   1      41.345  34.059  38.786  1.00  0.00    -0.237 OA
ATOM     77  O   UNL A   1      40.183  32.092  37.833  1.00  0.00    -0.237 OA
ATOM     78  O   UNL A   1      42.072  31.783  39.388  1.00  0.00    -0.744 OA
ENDBRANCH  71  75
ENDBRANCH  54  68
BRANCH  55  79
ATOM     79  C   UNL A   1      42.394  24.931  27.529  1.00  0.00     0.023 A 
ATOM     80  C   UNL A   1      41.553  23.809  27.607  1.00  0.00     0.031 A 
ATOM     81  C   UNL A   1      43.193  25.075  26.380  1.00  0.00     0.131 A 
ATOM     82  C   UNL A   1      41.569  22.849  26.583  1.00  0.00     0.055 A 
ATOM     83  C   UNL A   1      43.159  24.149  25.335  1.00  0.00     0.041 A 
ATOM     84  F   UNL A   1      44.015  26.128  26.251  1.00  0.00    -0.206 F 
ATOM     85  C   UNL A   1      42.354  23.019  25.441  1.00  0.00     0.022 A 
BRANCH  82  86
ATOM     86  S   UNL A   1      40.619  21.320  26.812  1.00  0.00     0.124 S 
ATOM     87  O   UNL A   1      39.262  21.771  26.528  1.00  0.00    -0.237 OA
ATOM     88  O   UNL A   1      41.224  20.438  25.820  1.00  0.00    -0.237 OA
ATOM     89  O   UNL A   1      40.883  20.963  28.204  1.00  0.00    -0.744 OA
ENDBRANCH  82  86
ENDBRANCH  55  79
BRANCH  67  90
ATOM     90  C   UNL A   1      47.173  26.132  32.467  1.00  0.00     0.023 A 
ATOM     91  C   UNL A   1      48.376  26.420  31.800  1.00  0.00     0.031 A 
ATOM     92  C   UNL A   1      47.194  25.146  33.470  1.00  0.00     0.131 A 
ATOM     93  C   UNL A   1      49.535  25.686  32.097  1.00  0.00     0.055 A 
ATOM     94  C   UNL A   1      48.366  24.467  33.810  1.00  0.00     0.041 A 
ATOM     95  F   UNL A   1      46.074  24.825  34.138  1.00  0.00    -0.206 F 
ATOM     96  C   UNL A   1      49.541  24.725  33.111  1.00  0.00     0.022 A 
BRANCH  93  97
ATOM     97  S   UNL A   1      51.006  25.926  31.064  1.00  0.00     0.124 S 
ATOM     98  O   UNL A   1      51.970  25.032  31.696  1.00  0.00    -0.237 OA
ATOM     99  O   UNL A   1      50.531  25.520  29.745  1.00  0.00    -0.237 OA
ATOM    100  O   UNL A   1      51.296  27.352  31.207  1.00  0.00    -0.744 OA
ENDBRANCH  93  97
ENDBRANCH  67  90
ENDBRANCH  41  42
ENDBRANCH  33  36
ENDBRANCH  31  32
ENDBRANCH  30  31
ENDBRANCH  29  30
ENDBRANCH   1  29
TORSDOF 20
ENDMDL
