MODEL 1
REMARK VINA RESULT:     -11.0      0.000      0.000
REMARK SMILES CC(=O)N/N=C\c1ccc(C(=O)NCCCCCCNC(=O)c2ccc(-c3c4nc(c(-c5cc(S(=O)(=O)[O-])ccc5F)c5ccc([nH]5)c(-c5cc(S(=O)(=O)[O-])ccc5F)c5nc(c(-c6cc(S(=O)(=O)[O-])ccc6F)c6ccc3[nH]6)C=C5)C=C4)cc2)cc1
REMARK SMILES IDX 17 1 16 2 15 3 14 4 13 5 11 6 12 7 10 9 7 10 8 11 87 12 9 13
REMARK SMILES IDX 86 14 6 15 5 16 4 17 1 18 2 19 3 20 18 22 19 23 20 24 21 25
REMARK SMILES IDX 22 27 23 28 24 29 85 30 25 31 84 32 26 33 27 34 28 35 78 36
REMARK SMILES IDX 29 37 83 38 77 39 79 40 30 41 82 42 76 43 75 44 31 46 63 47
REMARK SMILES IDX 43 48 62 49 44 50 47 51 61 52 80 53 45 54 46 55 60 57 81 58
REMARK SMILES IDX 48 59 32 60 33 61 41 62 34 63 40 64 42 65 39 66 35 67 36 68
REMARK SMILES IDX 37 69 38 70 64 71 65 72 73 73 66 74 72 75 74 76 71 77 67 78
REMARK SMILES IDX 68 79 69 80 70 81 49 82 50 83 58 84 51 85 57 86 59 87 56 88
REMARK SMILES IDX 52 89 53 90 54 91 55 92
REMARK H PARENT 13 8 4 21 20 26 79 45 47 56
REMARK Flexibility Score: inf
ROOT
ATOM      1  C   UNL A   1      32.151  30.042  26.584  1.00  0.00     0.002 C 
ENDROOT
BRANCH   1   2
ATOM      2  C   UNL A   1      33.562  29.765  26.052  1.00  0.00     0.002 C 
BRANCH   2   3
ATOM      3  C   UNL A   1      34.184  28.452  26.546  1.00  0.00     0.021 C 
BRANCH   3   4
ATOM      4  C   UNL A   1      33.373  27.219  26.136  1.00  0.00     0.116 C 
BRANCH   4   5
ATOM      5  N   UNL A   1      33.695  26.866  24.761  1.00  0.00    -0.352 N 
ATOM      6  C   UNL A   1      32.992  26.994  23.592  1.00  0.00     0.251 C 
ATOM      7  O   UNL A   1      33.476  26.537  22.557  1.00  0.00    -0.269 OA
ATOM      8  H   UNL A   1      34.584  26.458  24.651  1.00  0.00     0.163 HD
BRANCH   6   9
ATOM      9  C   UNL A   1      31.738  27.786  23.514  1.00  0.00     0.039 A 
ATOM     10  C   UNL A   1      29.210  28.802  22.992  1.00  0.00    -0.005 A 
ATOM     11  C   UNL A   1      29.342  27.739  23.885  1.00  0.00     0.010 A 
ATOM     12  C   UNL A   1      30.331  29.477  22.510  1.00  0.00     0.010 A 
ATOM     13  C   UNL A   1      30.611  27.223  24.134  1.00  0.00     0.014 A 
ATOM     14  C   UNL A   1      31.604  28.979  22.799  1.00  0.00     0.014 A 
BRANCH  10  15
ATOM     15  C   UNL A   1      27.864  29.065  22.462  1.00  0.00     0.141 C 
ATOM     16  N   UNL A   1      27.219  30.196  22.422  1.00  0.00    -0.181 NA
BRANCH  16  17
ATOM     17  N   UNL A   1      27.796  31.347  22.873  1.00  0.00    -0.247 N 
ATOM     18  C   UNL A   1      27.944  32.551  20.689  1.00  0.00     0.116 C 
ATOM     19  C   UNL A   1      28.150  32.477  22.177  1.00  0.00     0.236 C 
ATOM     20  O   UNL A   1      28.652  33.430  22.780  1.00  0.00    -0.274 OA
ATOM     21  H   UNL A   1      27.986  31.371  23.840  1.00  0.00     0.193 HD
ENDBRANCH  16  17
ENDBRANCH  10  15
ENDBRANCH   6   9
ENDBRANCH   4   5
ENDBRANCH   3   4
ENDBRANCH   2   3
ENDBRANCH   1   2
BRANCH   1  22
ATOM     22  C   UNL A   1      31.871  31.502  26.951  1.00  0.00     0.021 C 
BRANCH  22  23
ATOM     23  C   UNL A   1      33.116  32.369  27.113  1.00  0.00     0.116 C 
BRANCH  23  24
ATOM     24  N   UNL A   1      32.788  33.709  27.573  1.00  0.00    -0.352 N 
ATOM     25  C   UNL A   1      33.270  34.390  28.662  1.00  0.00     0.251 C 
ATOM     26  H   UNL A   1      32.128  34.195  27.028  1.00  0.00     0.163 HD
ATOM     27  O   UNL A   1      32.722  35.433  29.021  1.00  0.00    -0.269 OA
BRANCH  25  28
ATOM     28  C   UNL A   1      34.429  33.862  29.413  1.00  0.00     0.039 A 
ATOM     29  C   UNL A   1      34.220  32.871  30.376  1.00  0.00     0.014 A 
ATOM     30  C   UNL A   1      35.719  34.349  29.175  1.00  0.00     0.014 A 
ATOM     31  C   UNL A   1      35.311  32.328  31.061  1.00  0.00     0.010 A 
ATOM     32  C   UNL A   1      36.810  33.762  29.813  1.00  0.00     0.010 A 
ATOM     33  C   UNL A   1      36.618  32.749  30.764  1.00  0.00    -0.014 A 
BRANCH  33  34
ATOM     34  C   UNL A   1      37.793  32.143  31.442  1.00  0.00     0.031 A 
ATOM     35  C   UNL A   1      38.544  31.016  30.785  1.00  0.00     0.074 A 
ATOM     36  C   UNL A   1      38.145  32.564  32.673  1.00  0.00     0.049 A 
ATOM     37  N   UNL A   1      39.539  30.304  31.247  1.00  0.00    -0.248 NA
ATOM     38  C   UNL A   1      38.096  30.623  29.442  1.00  0.00     0.031 C 
ATOM     39  C   UNL A   1      37.473  33.624  33.427  1.00  0.00     0.029 A 
ATOM     40  N   UNL A   1      39.149  32.148  33.512  1.00  0.00    -0.354 N 
ATOM     41  C   UNL A   1      39.829  29.369  30.258  1.00  0.00     0.074 A 
ATOM     42  C   UNL A   1      38.864  29.572  29.198  1.00  0.00     0.031 C 
ATOM     43  C   UNL A   1      38.094  33.787  34.606  1.00  0.00     0.029 A 
ATOM     44  C   UNL A   1      39.178  32.817  34.714  1.00  0.00     0.049 A 
ATOM     45  H   UNL A   1      39.787  31.437  33.275  1.00  0.00     0.167 HD
ATOM     46  C   UNL A   1      40.821  28.444  30.227  1.00  0.00     0.034 A 
ATOM     47  C   UNL A   1      39.980  32.658  35.786  1.00  0.00     0.034 A 
ATOM     48  C   UNL A   1      41.783  28.263  31.288  1.00  0.00     0.049 A 
ATOM     49  C   UNL A   1      41.059  31.607  35.738  1.00  0.00     0.074 A 
ATOM     50  C   UNL A   1      42.859  27.393  31.338  1.00  0.00     0.029 A 
ATOM     51  N   UNL A   1      41.782  28.960  32.490  1.00  0.00    -0.354 N 
ATOM     52  N   UNL A   1      41.348  30.760  34.776  1.00  0.00    -0.248 NA
ATOM     53  C   UNL A   1      41.927  31.496  36.918  1.00  0.00     0.031 C 
ATOM     54  C   UNL A   1      43.469  27.519  32.591  1.00  0.00     0.029 A 
ATOM     55  C   UNL A   1      42.820  28.518  33.299  1.00  0.00     0.049 A 
ATOM     56  H   UNL A   1      41.139  29.664  32.733  1.00  0.00     0.167 HD
ATOM     57  C   UNL A   1      42.449  30.038  35.226  1.00  0.00     0.074 A 
ATOM     58  C   UNL A   1      42.781  30.558  36.536  1.00  0.00     0.031 C 
ATOM     59  C   UNL A   1      43.129  29.037  34.609  1.00  0.00     0.034 A 
BRANCH  46  60
ATOM     60  C   UNL A   1      40.892  27.544  29.016  1.00  0.00     0.023 A 
ATOM     61  C   UNL A   1      41.856  27.735  28.010  1.00  0.00     0.031 A 
ATOM     62  C   UNL A   1      39.967  26.498  28.848  1.00  0.00     0.131 A 
ATOM     63  C   UNL A   1      41.824  26.949  26.849  1.00  0.00     0.055 A 
ATOM     64  C   UNL A   1      39.992  25.665  27.728  1.00  0.00     0.041 A 
ATOM     65  F   UNL A   1      39.011  26.277  29.765  1.00  0.00    -0.206 F 
ATOM     66  C   UNL A   1      40.914  25.897  26.712  1.00  0.00     0.022 A 
BRANCH  63  67
ATOM     67  S   UNL A   1      42.894  27.411  25.460  1.00  0.00     0.124 S 
ATOM     68  O   UNL A   1      44.092  27.879  26.155  1.00  0.00    -0.237 OA
ATOM     69  O   UNL A   1      43.026  26.155  24.732  1.00  0.00    -0.237 OA
ATOM     70  O   UNL A   1      42.134  28.454  24.773  1.00  0.00    -0.744 OA
ENDBRANCH  63  67
ENDBRANCH  46  60
BRANCH  47  71
ATOM     71  C   UNL A   1      39.793  33.499  37.001  1.00  0.00     0.023 A 
ATOM     72  C   UNL A   1      40.593  34.630  37.227  1.00  0.00     0.031 A 
ATOM     73  C   UNL A   1      38.839  33.160  37.977  1.00  0.00     0.131 A 
ATOM     74  C   UNL A   1      40.459  35.354  38.422  1.00  0.00     0.055 A 
ATOM     75  C   UNL A   1      38.674  33.914  39.141  1.00  0.00     0.041 A 
ATOM     76  F   UNL A   1      38.045  32.091  37.808  1.00  0.00    -0.206 F 
ATOM     77  C   UNL A   1      39.497  35.011  39.374  1.00  0.00     0.022 A 
BRANCH  74  78
ATOM     78  S   UNL A   1      41.623  36.707  38.751  1.00  0.00     0.124 S 
ATOM     79  O   UNL A   1      42.433  36.147  39.826  1.00  0.00    -0.237 OA
ATOM     80  O   UNL A   1      42.285  36.857  37.460  1.00  0.00    -0.237 OA
ATOM     81  O   UNL A   1      40.753  37.817  39.136  1.00  0.00    -0.744 OA
ENDBRANCH  74  78
ENDBRANCH  47  71
BRANCH  59  82
ATOM     82  C   UNL A   1      44.325  28.475  35.338  1.00  0.00     0.023 A 
ATOM     83  C   UNL A   1      44.226  27.332  36.150  1.00  0.00     0.031 A 
ATOM     84  C   UNL A   1      45.578  29.104  35.229  1.00  0.00     0.131 A 
ATOM     85  C   UNL A   1      45.346  26.884  36.866  1.00  0.00     0.055 A 
ATOM     86  C   UNL A   1      46.703  28.620  35.898  1.00  0.00     0.041 A 
ATOM     87  F   UNL A   1      45.729  30.200  34.469  1.00  0.00    -0.206 F 
ATOM     88  C   UNL A   1      46.587  27.511  36.733  1.00  0.00     0.022 A 
BRANCH  85  89
ATOM     89  S   UNL A   1      45.140  25.520  38.044  1.00  0.00     0.124 S 
ATOM     90  O   UNL A   1      44.172  26.075  38.985  1.00  0.00    -0.237 OA
ATOM     91  O   UNL A   1      44.653  24.442  37.191  1.00  0.00    -0.237 OA
ATOM     92  O   UNL A   1      46.485  25.325  38.581  1.00  0.00    -0.744 OA
ENDBRANCH  85  89
ENDBRANCH  59  82
ENDBRANCH  33  34
ENDBRANCH  25  28
ENDBRANCH  23  24
ENDBRANCH  22  23
ENDBRANCH   1  22
TORSDOF 18
ENDMDL
MODEL 2
REMARK VINA RESULT:     -11.0      3.861      9.508
REMARK SMILES CC(=O)N/N=C\c1ccc(C(=O)NCCCCCCNC(=O)c2ccc(-c3c4nc(c(-c5cc(S(=O)(=O)[O-])ccc5F)c5ccc([nH]5)c(-c5cc(S(=O)(=O)[O-])ccc5F)c5nc(c(-c6cc(S(=O)(=O)[O-])ccc6F)c6ccc3[nH]6)C=C5)C=C4)cc2)cc1
REMARK SMILES IDX 17 1 16 2 15 3 14 4 13 5 11 6 12 7 10 9 7 10 8 11 87 12 9 13
REMARK SMILES IDX 86 14 6 15 5 16 4 17 1 18 2 19 3 20 18 22 19 23 20 24 21 25
REMARK SMILES IDX 22 27 23 28 24 29 85 30 25 31 84 32 26 33 27 34 28 35 78 36
REMARK SMILES IDX 29 37 83 38 77 39 79 40 30 41 82 42 76 43 75 44 31 46 63 47
REMARK SMILES IDX 43 48 62 49 44 50 47 51 61 52 80 53 45 54 46 55 60 57 81 58
REMARK SMILES IDX 48 59 32 60 33 61 41 62 34 63 40 64 42 65 39 66 35 67 36 68
REMARK SMILES IDX 37 69 38 70 64 71 65 72 73 73 66 74 72 75 74 76 71 77 67 78
REMARK SMILES IDX 68 79 69 80 70 81 49 82 50 83 58 84 51 85 57 86 59 87 56 88
REMARK SMILES IDX 52 89 53 90 54 91 55 92
REMARK H PARENT 13 8 4 21 20 26 79 45 47 56
REMARK Flexibility Score: inf
ROOT
ATOM      1  C   UNL A   1      32.653  28.092  24.878  1.00  0.00     0.002 C 
ENDROOT
BRANCH   1   2
ATOM      2  C   UNL A   1      32.525  27.051  25.996  1.00  0.00     0.002 C 
BRANCH   2   3
ATOM      3  C   UNL A   1      31.093  26.832  26.504  1.00  0.00     0.021 C 
BRANCH   3   4
ATOM      4  C   UNL A   1      30.311  25.823  25.660  1.00  0.00     0.116 C 
BRANCH   4   5
ATOM      5  N   UNL A   1      29.760  24.793  26.529  1.00  0.00    -0.352 N 
ATOM      6  C   UNL A   1      30.199  23.536  26.856  1.00  0.00     0.251 C 
ATOM      7  O   UNL A   1      29.489  22.829  27.571  1.00  0.00    -0.269 OA
ATOM      8  H   UNL A   1      28.912  25.046  26.961  1.00  0.00     0.163 HD
BRANCH   6   9
ATOM      9  C   UNL A   1      31.558  23.061  26.492  1.00  0.00     0.039 A 
ATOM     10  C   UNL A   1      33.801  21.633  25.703  1.00  0.00    -0.005 A 
ATOM     11  C   UNL A   1      32.903  22.075  24.731  1.00  0.00     0.010 A 
ATOM     12  C   UNL A   1      33.690  22.055  27.027  1.00  0.00     0.010 A 
ATOM     13  C   UNL A   1      31.771  22.779  25.133  1.00  0.00     0.014 A 
ATOM     14  C   UNL A   1      32.574  22.799  27.415  1.00  0.00     0.014 A 
BRANCH  10  15
ATOM     15  C   UNL A   1      34.754  20.587  25.303  1.00  0.00     0.141 C 
ATOM     16  N   UNL A   1      36.051  20.668  25.211  1.00  0.00    -0.181 NA
BRANCH  16  17
ATOM     17  N   UNL A   1      36.704  21.820  25.539  1.00  0.00    -0.247 N 
ATOM     18  C   UNL A   1      36.616  22.929  23.302  1.00  0.00     0.116 C 
ATOM     19  C   UNL A   1      36.998  22.910  24.756  1.00  0.00     0.236 C 
ATOM     20  O   UNL A   1      37.590  23.872  25.252  1.00  0.00    -0.274 OA
ATOM     21  H   UNL A   1      37.010  21.879  26.474  1.00  0.00     0.193 HD
ENDBRANCH  16  17
ENDBRANCH  10  15
ENDBRANCH   6   9
ENDBRANCH   4   5
ENDBRANCH   3   4
ENDBRANCH   2   3
ENDBRANCH   1   2
BRANCH   1  22
ATOM     22  C   UNL A   1      33.009  29.506  25.345  1.00  0.00     0.021 C 
BRANCH  22  23
ATOM     23  C   UNL A   1      33.786  29.567  26.657  1.00  0.00     0.116 C 
BRANCH  23  24
ATOM     24  N   UNL A   1      33.663  30.865  27.302  1.00  0.00    -0.352 N 
ATOM     25  C   UNL A   1      34.450  31.423  28.276  1.00  0.00     0.251 C 
ATOM     26  H   UNL A   1      32.910  31.420  26.997  1.00  0.00     0.163 HD
ATOM     27  O   UNL A   1      34.072  32.442  28.857  1.00  0.00    -0.269 OA
BRANCH  25  28
ATOM     28  C   UNL A   1      35.737  30.792  28.642  1.00  0.00     0.039 A 
ATOM     29  C   UNL A   1      36.909  31.231  28.020  1.00  0.00     0.014 A 
ATOM     30  C   UNL A   1      35.786  29.764  29.589  1.00  0.00     0.014 A 
ATOM     31  C   UNL A   1      38.138  30.678  28.390  1.00  0.00     0.010 A 
ATOM     32  C   UNL A   1      37.018  29.259  30.000  1.00  0.00     0.010 A 
ATOM     33  C   UNL A   1      38.206  29.708  29.404  1.00  0.00    -0.014 A 
BRANCH  33  34
ATOM     34  C   UNL A   1      39.510  29.150  29.848  1.00  0.00     0.031 A 
ATOM     35  C   UNL A   1      40.274  29.814  30.962  1.00  0.00     0.074 A 
ATOM     36  C   UNL A   1      40.033  28.085  29.209  1.00  0.00     0.049 A 
ATOM     37  N   UNL A   1      41.459  29.531  31.436  1.00  0.00    -0.248 NA
ATOM     38  C   UNL A   1      39.627  30.966  31.606  1.00  0.00     0.031 C 
ATOM     39  C   UNL A   1      39.404  27.377  28.092  1.00  0.00     0.029 A 
ATOM     40  N   UNL A   1      41.217  27.417  29.398  1.00  0.00    -0.354 N 
ATOM     41  C   UNL A   1      41.708  30.477  32.427  1.00  0.00     0.074 A 
ATOM     42  C   UNL A   1      40.571  31.374  32.440  1.00  0.00     0.031 C 
ATOM     43  C   UNL A   1      40.199  26.365  27.710  1.00  0.00     0.029 A 
ATOM     44  C   UNL A   1      41.411  26.375  28.521  1.00  0.00     0.049 A 
ATOM     45  H   UNL A   1      41.866  27.661  30.097  1.00  0.00     0.167 HD
ATOM     46  C   UNL A   1      42.773  30.574  33.261  1.00  0.00     0.034 A 
ATOM     47  C   UNL A   1      42.454  25.534  28.377  1.00  0.00     0.034 A 
ATOM     48  C   UNL A   1      43.892  29.663  33.243  1.00  0.00     0.049 A 
ATOM     49  C   UNL A   1      43.638  25.676  29.300  1.00  0.00     0.074 A 
ATOM     50  C   UNL A   1      44.998  29.637  34.076  1.00  0.00     0.029 A 
ATOM     51  N   UNL A   1      44.054  28.619  32.340  1.00  0.00    -0.354 N 
ATOM     52  N   UNL A   1      43.837  26.549  30.261  1.00  0.00    -0.248 NA
ATOM     53  C   UNL A   1      44.733  24.713  29.124  1.00  0.00     0.031 C 
ATOM     54  C   UNL A   1      45.855  28.621  33.639  1.00  0.00     0.029 A 
ATOM     55  C   UNL A   1      45.253  27.964  32.578  1.00  0.00     0.049 A 
ATOM     56  H   UNL A   1      43.411  28.380  31.635  1.00  0.00     0.167 HD
ATOM     57  C   UNL A   1      45.068  26.219  30.821  1.00  0.00     0.074 A 
ATOM     58  C   UNL A   1      45.556  25.061  30.103  1.00  0.00     0.031 C 
ATOM     59  C   UNL A   1      45.733  26.818  31.843  1.00  0.00     0.034 A 
BRANCH  46  60
ATOM     60  C   UNL A   1      42.783  31.722  34.243  1.00  0.00     0.023 A 
ATOM     61  C   UNL A   1      42.224  31.599  35.527  1.00  0.00     0.031 A 
ATOM     62  C   UNL A   1      43.330  32.966  33.882  1.00  0.00     0.131 A 
ATOM     63  C   UNL A   1      42.154  32.716  36.372  1.00  0.00     0.055 A 
ATOM     64  C   UNL A   1      43.332  34.052  34.758  1.00  0.00     0.041 A 
ATOM     65  F   UNL A   1      43.861  33.151  32.662  1.00  0.00    -0.206 F 
ATOM     66  C   UNL A   1      42.728  33.937  36.006  1.00  0.00     0.022 A 
BRANCH  63  67
ATOM     67  S   UNL A   1      41.177  32.592  37.895  1.00  0.00     0.124 S 
ATOM     68  O   UNL A   1      42.022  31.725  38.715  1.00  0.00    -0.237 OA
ATOM     69  O   UNL A   1      41.082  33.982  38.323  1.00  0.00    -0.237 OA
ATOM     70  O   UNL A   1      39.923  31.987  37.450  1.00  0.00    -0.744 OA
ENDBRANCH  63  67
ENDBRANCH  46  60
BRANCH  47  71
ATOM     71  C   UNL A   1      42.440  24.488  27.315  1.00  0.00     0.023 A 
ATOM     72  C   UNL A   1      41.681  23.317  27.464  1.00  0.00     0.031 A 
ATOM     73  C   UNL A   1      43.223  24.624  26.155  1.00  0.00     0.131 A 
ATOM     74  C   UNL A   1      41.755  22.307  26.493  1.00  0.00     0.055 A 
ATOM     75  C   UNL A   1      43.253  23.639  25.166  1.00  0.00     0.041 A 
ATOM     76  F   UNL A   1      43.964  25.726  25.961  1.00  0.00    -0.206 F 
ATOM     77  C   UNL A   1      42.526  22.465  25.339  1.00  0.00     0.022 A 
BRANCH  74  78
ATOM     78  S   UNL A   1      40.890  20.742  26.801  1.00  0.00     0.124 S 
ATOM     79  O   UNL A   1      40.759  20.756  28.254  1.00  0.00    -0.237 OA
ATOM     80  O   UNL A   1      39.657  20.923  26.044  1.00  0.00    -0.237 OA
ATOM     81  O   UNL A   1      41.806  19.737  26.266  1.00  0.00    -0.744 OA
ENDBRANCH  74  78
ENDBRANCH  47  71
BRANCH  59  82
ATOM     82  C   UNL A   1      47.042  26.194  32.262  1.00  0.00     0.023 A 
ATOM     83  C   UNL A   1      47.108  25.229  33.282  1.00  0.00     0.031 A 
ATOM     84  C   UNL A   1      48.241  26.585  31.640  1.00  0.00     0.131 A 
ATOM     85  C   UNL A   1      48.354  24.727  33.689  1.00  0.00     0.055 A 
ATOM     86  C   UNL A   1      49.471  26.040  32.010  1.00  0.00     0.041 A 
ATOM     87  F   UNL A   1      48.235  27.505  30.663  1.00  0.00    -0.206 F 
ATOM     88  C   UNL A   1      49.533  25.115  33.049  1.00  0.00     0.022 A 
BRANCH  85  89
ATOM     89  S   UNL A   1      48.421  23.623  35.126  1.00  0.00     0.124 S 
ATOM     90  O   UNL A   1      48.626  22.321  34.500  1.00  0.00    -0.237 OA
ATOM     91  O   UNL A   1      49.553  24.155  35.876  1.00  0.00    -0.237 OA
ATOM     92  O   UNL A   1      47.117  23.807  35.761  1.00  0.00    -0.744 OA
ENDBRANCH  85  89
ENDBRANCH  59  82
ENDBRANCH  33  34
ENDBRANCH  25  28
ENDBRANCH  23  24
ENDBRANCH  22  23
ENDBRANCH   1  22
TORSDOF 18
ENDMDL
MODEL 3
REMARK VINA RESULT:     -10.9      3.735      9.169
REMARK SMILES CC(=O)N/N=C\c1ccc(C(=O)NCCCCCCNC(=O)c2ccc(-c3c4nc(c(-c5cc(S(=O)(=O)[O-])ccc5F)c5ccc([nH]5)c(-c5cc(S(=O)(=O)[O-])ccc5F)c5nc(c(-c6cc(S(=O)(=O)[O-])ccc6F)c6ccc3[nH]6)C=C5)C=C4)cc2)cc1
REMARK SMILES IDX 17 1 16 2 15 3 14 4 13 5 11 6 12 7 10 9 7 10 8 11 87 12 9 13
REMARK SMILES IDX 86 14 6 15 5 16 4 17 1 18 2 19 3 20 18 22 19 23 20 24 21 25
REMARK SMILES IDX 22 27 23 28 24 29 85 30 25 31 84 32 26 33 27 34 28 35 78 36
REMARK SMILES IDX 29 37 83 38 77 39 79 40 30 41 82 42 76 43 75 44 31 46 63 47
REMARK SMILES IDX 43 48 62 49 44 50 47 51 61 52 80 53 45 54 46 55 60 57 81 58
REMARK SMILES IDX 48 59 32 60 33 61 41 62 34 63 40 64 42 65 39 66 35 67 36 68
REMARK SMILES IDX 37 69 38 70 64 71 65 72 73 73 66 74 72 75 74 76 71 77 67 78
REMARK SMILES IDX 68 79 69 80 70 81 49 82 50 83 58 84 51 85 57 86 59 87 56 88
REMARK SMILES IDX 52 89 53 90 54 91 55 92
REMARK H PARENT 13 8 4 21 20 26 79 45 47 56
REMARK Flexibility Score: inf
ROOT
ATOM      1  C   UNL A   1      33.348  28.955  25.959  1.00  0.00     0.002 C 
ENDROOT
BRANCH   1   2
ATOM      2  C   UNL A   1      33.589  28.142  24.682  1.00  0.00     0.002 C 
BRANCH   2   3
ATOM      3  C   UNL A   1      33.055  26.704  24.730  1.00  0.00     0.021 C 
BRANCH   3   4
ATOM      4  C   UNL A   1      34.150  25.656  24.518  1.00  0.00     0.116 C 
BRANCH   4   5
ATOM      5  N   UNL A   1      33.929  24.979  23.248  1.00  0.00    -0.352 N 
ATOM      6  C   UNL A   1      33.747  23.658  22.932  1.00  0.00     0.251 C 
ATOM      7  O   UNL A   1      33.654  23.340  21.747  1.00  0.00    -0.269 OA
ATOM      8  H   UNL A   1      33.908  25.583  22.471  1.00  0.00     0.163 HD
BRANCH   6   9
ATOM      9  C   UNL A   1      33.519  22.626  23.976  1.00  0.00     0.039 A 
ATOM     10  C   UNL A   1      33.125  20.304  25.441  1.00  0.00    -0.005 A 
ATOM     11  C   UNL A   1      34.410  20.615  24.997  1.00  0.00     0.010 A 
ATOM     12  C   UNL A   1      32.084  21.225  25.326  1.00  0.00     0.010 A 
ATOM     13  C   UNL A   1      34.601  21.774  24.249  1.00  0.00     0.014 A 
ATOM     14  C   UNL A   1      32.295  22.407  24.612  1.00  0.00     0.014 A 
BRANCH  10  15
ATOM     15  C   UNL A   1      32.887  18.920  25.878  1.00  0.00     0.141 C 
ATOM     16  N   UNL A   1      32.395  17.930  25.189  1.00  0.00    -0.181 NA
BRANCH  16  17
ATOM     17  N   UNL A   1      32.059  18.089  23.877  1.00  0.00    -0.247 N 
ATOM     18  C   UNL A   1      34.038  16.953  22.861  1.00  0.00     0.116 C 
ATOM     19  C   UNL A   1      32.723  17.672  22.749  1.00  0.00     0.236 C 
ATOM     20  O   UNL A   1      32.239  17.904  21.638  1.00  0.00    -0.274 OA
ATOM     21  H   UNL A   1      31.217  18.574  23.714  1.00  0.00     0.193 HD
ENDBRANCH  16  17
ENDBRANCH  10  15
ENDBRANCH   6   9
ENDBRANCH   4   5
ENDBRANCH   3   4
ENDBRANCH   2   3
ENDBRANCH   1   2
BRANCH   1  22
ATOM     22  C   UNL A   1      32.606  30.279  25.756  1.00  0.00     0.021 C 
BRANCH  22  23
ATOM     23  C   UNL A   1      32.162  30.966  27.044  1.00  0.00     0.116 C 
BRANCH  23  24
ATOM     24  N   UNL A   1      32.395  32.400  27.003  1.00  0.00    -0.352 N 
ATOM     25  C   UNL A   1      33.403  33.128  27.582  1.00  0.00     0.251 C 
ATOM     26  H   UNL A   1      31.738  32.922  26.489  1.00  0.00     0.163 HD
ATOM     27  O   UNL A   1      33.323  34.357  27.622  1.00  0.00    -0.269 OA
BRANCH  25  28
ATOM     28  C   UNL A   1      34.570  32.438  28.174  1.00  0.00     0.039 A 
ATOM     29  C   UNL A   1      35.813  33.077  28.167  1.00  0.00     0.014 A 
ATOM     30  C   UNL A   1      34.440  31.160  28.728  1.00  0.00     0.014 A 
ATOM     31  C   UNL A   1      36.914  32.459  28.765  1.00  0.00     0.010 A 
ATOM     32  C   UNL A   1      35.524  30.574  29.379  1.00  0.00     0.010 A 
ATOM     33  C   UNL A   1      36.772  31.215  29.402  1.00  0.00    -0.014 A 
BRANCH  33  34
ATOM     34  C   UNL A   1      37.919  30.569  30.091  1.00  0.00     0.031 A 
ATOM     35  C   UNL A   1      38.236  30.922  31.520  1.00  0.00     0.074 A 
ATOM     36  C   UNL A   1      38.710  29.713  29.414  1.00  0.00     0.049 A 
ATOM     37  N   UNL A   1      39.237  30.534  32.267  1.00  0.00    -0.248 NA
ATOM     38  C   UNL A   1      37.320  31.861  32.183  1.00  0.00     0.031 C 
ATOM     39  C   UNL A   1      38.525  29.319  28.016  1.00  0.00     0.029 A 
ATOM     40  N   UNL A   1      39.833  29.027  29.805  1.00  0.00    -0.354 N 
ATOM     41  C   UNL A   1      39.079  31.188  33.485  1.00  0.00     0.074 A 
ATOM     42  C   UNL A   1      37.917  32.042  33.351  1.00  0.00     0.031 C 
ATOM     43  C   UNL A   1      39.488  28.448  27.674  1.00  0.00     0.029 A 
ATOM     44  C   UNL A   1      40.383  28.254  28.809  1.00  0.00     0.049 A 
ATOM     45  H   UNL A   1      40.208  29.083  30.713  1.00  0.00     0.167 HD
ATOM     46  C   UNL A   1      39.820  31.070  34.615  1.00  0.00     0.034 A 
ATOM     47  C   UNL A   1      41.491  27.487  28.807  1.00  0.00     0.034 A 
ATOM     48  C   UNL A   1      40.968  30.203  34.735  1.00  0.00     0.049 A 
ATOM     49  C   UNL A   1      42.313  27.390  30.068  1.00  0.00     0.074 A 
ATOM     50  C   UNL A   1      41.758  29.968  35.847  1.00  0.00     0.029 A 
ATOM     51  N   UNL A   1      41.496  29.434  33.705  1.00  0.00    -0.354 N 
ATOM     52  N   UNL A   1      42.124  27.982  31.225  1.00  0.00    -0.248 NA
ATOM     53  C   UNL A   1      43.492  26.515  30.024  1.00  0.00     0.031 C 
ATOM     54  C   UNL A   1      42.797  29.108  35.474  1.00  0.00     0.029 A 
ATOM     55  C   UNL A   1      42.617  28.748  34.148  1.00  0.00     0.049 A 
ATOM     56  H   UNL A   1      41.128  29.384  32.795  1.00  0.00     0.167 HD
ATOM     57  C   UNL A   1      43.145  27.525  32.054  1.00  0.00     0.074 A 
ATOM     58  C   UNL A   1      43.935  26.600  31.269  1.00  0.00     0.031 C 
ATOM     59  C   UNL A   1      43.403  27.839  33.350  1.00  0.00     0.034 A 
BRANCH  46  60
ATOM     60  C   UNL A   1      39.420  31.920  35.798  1.00  0.00     0.023 A 
ATOM     61  C   UNL A   1      38.638  31.403  36.847  1.00  0.00     0.031 A 
ATOM     62  C   UNL A   1      39.798  33.272  35.866  1.00  0.00     0.131 A 
ATOM     63  C   UNL A   1      38.196  32.249  37.874  1.00  0.00     0.055 A 
ATOM     64  C   UNL A   1      39.424  34.089  36.934  1.00  0.00     0.041 A 
ATOM     65  F   UNL A   1      40.528  33.828  34.885  1.00  0.00    -0.206 F 
ATOM     66  C   UNL A   1      38.604  33.584  37.939  1.00  0.00     0.022 A 
BRANCH  63  67
ATOM     67  S   UNL A   1      36.963  31.619  39.045  1.00  0.00     0.124 S 
ATOM     68  O   UNL A   1      35.907  32.623  38.929  1.00  0.00    -0.237 OA
ATOM     69  O   UNL A   1      36.656  30.302  38.502  1.00  0.00    -0.237 OA
ATOM     70  O   UNL A   1      37.672  31.618  40.323  1.00  0.00    -0.744 OA
ENDBRANCH  63  67
ENDBRANCH  46  60
BRANCH  47  71
ATOM     71  C   UNL A   1      41.903  26.756  27.575  1.00  0.00     0.023 A 
ATOM     72  C   UNL A   1      41.669  25.379  27.439  1.00  0.00     0.031 A 
ATOM     73  C   UNL A   1      42.577  27.417  26.532  1.00  0.00     0.131 A 
ATOM     74  C   UNL A   1      42.146  24.696  26.310  1.00  0.00     0.055 A 
ATOM     75  C   UNL A   1      43.004  26.743  25.387  1.00  0.00     0.041 A 
ATOM     76  F   UNL A   1      42.821  28.735  26.609  1.00  0.00    -0.206 F 
ATOM     77  C   UNL A   1      42.801  25.371  25.278  1.00  0.00     0.022 A 
BRANCH  74  78
ATOM     78  S   UNL A   1      41.972  22.892  26.250  1.00  0.00     0.124 S 
ATOM     79  O   UNL A   1      42.651  22.569  25.001  1.00  0.00    -0.237 OA
ATOM     80  O   UNL A   1      42.649  22.481  27.475  1.00  0.00    -0.237 OA
ATOM     81  O   UNL A   1      40.524  22.691  26.244  1.00  0.00    -0.744 OA
ENDBRANCH  74  78
ENDBRANCH  47  71
BRANCH  59  82
ATOM     82  C   UNL A   1      44.569  27.137  34.002  1.00  0.00     0.023 A 
ATOM     83  C   UNL A   1      44.442  25.851  34.556  1.00  0.00     0.031 A 
ATOM     84  C   UNL A   1      45.821  27.772  34.082  1.00  0.00     0.131 A 
ATOM     85  C   UNL A   1      45.533  25.263  35.215  1.00  0.00     0.055 A 
ATOM     86  C   UNL A   1      46.917  27.159  34.689  1.00  0.00     0.041 A 
ATOM     87  F   UNL A   1      45.997  29.001  33.572  1.00  0.00    -0.206 F 
ATOM     88  C   UNL A   1      46.773  25.903  35.271  1.00  0.00     0.022 A 
BRANCH  85  89
ATOM     89  S   UNL A   1      45.284  23.686  36.076  1.00  0.00     0.124 S 
ATOM     90  O   UNL A   1      44.023  23.224  35.504  1.00  0.00    -0.237 OA
ATOM     91  O   UNL A   1      46.472  22.932  35.695  1.00  0.00    -0.237 OA
ATOM     92  O   UNL A   1      45.220  24.072  37.485  1.00  0.00    -0.744 OA
ENDBRANCH  85  89
ENDBRANCH  59  82
ENDBRANCH  33  34
ENDBRANCH  25  28
ENDBRANCH  23  24
ENDBRANCH  22  23
ENDBRANCH   1  22
TORSDOF 18
ENDMDL
