MODEL 1
REMARK VINA RESULT:     -11.2      0.000      0.000
REMARK SMILES CCOc1ccc(C(=O)N2CCC(C(=O)NCCCCCCNC(=O)c3ccc(-c4c5nc(c(-c6cc(S(=O)(=O)[O-])ccc6F)c6ccc([nH]6)c(-c6cc(S(=O)(=O)[O-])ccc6F)c6nc(c(-c7cc(S(=O)(=O)[O-])ccc7F)c7ccc4[nH]7)C=C6)C=C5)cc3)(c3ccccc3)CC2)cc1OC
REMARK SMILES IDX 19 1 18 2 17 3 16 4 14 5 15 6 13 8 8 9 9 10 10 11 11 12
REMARK SMILES IDX 96 13 12 14 95 15 7 16 4 17 5 18 98 19 6 20 97 21 3 22 2 23
REMARK SMILES IDX 1 24 99 25 100 26 89 27 90 28 94 29 91 30 93 31 92 32 20 33
REMARK SMILES IDX 21 34 22 35 23 36 24 37 25 39 26 40 27 41 88 42 28 43 87 44
REMARK SMILES IDX 29 45 30 46 31 47 81 48 32 49 86 50 80 51 82 52 33 53 85 54
REMARK SMILES IDX 79 55 78 56 34 58 66 59 46 60 65 61 47 62 50 63 64 64 83 65
REMARK SMILES IDX 48 66 49 67 63 69 84 70 51 71 35 72 36 73 44 74 37 75 43 76
REMARK SMILES IDX 45 77 42 78 38 79 39 80 40 81 41 82 67 83 68 84 76 85 69 86
REMARK SMILES IDX 75 87 77 88 74 89 70 90 71 91 72 92 73 93 52 94 53 95 61 96
REMARK SMILES IDX 54 97 60 98 62 99 59 100 55 101 56 102 57 103 58 104
REMARK H PARENT 16 7 23 38 82 57 50 68
REMARK Flexibility Score: inf
ROOT
ATOM      1  C   UNL A   1      29.629  31.936  24.492  1.00  0.00     0.002 C 
ENDROOT
BRANCH   1   2
ATOM      2  C   UNL A   1      29.057  31.096  23.345  1.00  0.00     0.021 C 
BRANCH   2   3
ATOM      3  C   UNL A   1      29.599  29.671  23.295  1.00  0.00     0.116 C 
BRANCH   3   4
ATOM      4  N   UNL A   1      30.869  29.632  22.588  1.00  0.00    -0.355 N 
ATOM      5  C   UNL A   1      32.027  28.936  22.788  1.00  0.00     0.230 C 
ATOM      6  O   UNL A   1      32.944  29.296  22.048  1.00  0.00    -0.274 OA
ATOM      7  H   UNL A   1      30.900  30.229  21.806  1.00  0.00     0.163 HD
BRANCH   5   8
ATOM      8  C   UNL A   1      32.125  27.785  23.854  1.00  0.00     0.077 C 
ATOM      9  C   UNL A   1      31.041  23.584  23.361  1.00  0.00     0.253 C 
ATOM     10  O   UNL A   1      29.930  23.386  22.869  1.00  0.00    -0.269 OA
ATOM     11  N   UNL A   1      31.495  24.892  23.620  1.00  0.00    -0.339 N 
ATOM     12  C   UNL A   1      30.531  25.750  24.287  1.00  0.00     0.121 C 
ATOM     13  C   UNL A   1      32.895  25.310  23.603  1.00  0.00     0.121 C 
ATOM     14  C   UNL A   1      30.680  27.244  24.042  1.00  0.00     0.043 C 
ATOM     15  C   UNL A   1      33.123  26.763  23.231  1.00  0.00     0.043 C 
BRANCH   9  16
ATOM     16  C   UNL A   1      31.819  22.391  23.835  1.00  0.00     0.043 A 
ATOM     17  C   UNL A   1      33.075  20.049  24.816  1.00  0.00     0.161 A 
ATOM     18  C   UNL A   1      32.604  20.112  23.494  1.00  0.00     0.051 A 
ATOM     19  C   UNL A   1      32.950  21.165  25.637  1.00  0.00     0.161 A 
ATOM     20  C   UNL A   1      31.992  21.280  23.002  1.00  0.00     0.018 A 
ATOM     21  C   UNL A   1      32.256  22.273  25.153  1.00  0.00     0.064 A 
BRANCH  17  22
ATOM     22  O   UNL A   1      33.710  18.923  25.255  1.00  0.00    -0.490 OA
BRANCH  22  23
ATOM     23  C   UNL A   1      32.816  17.937  25.789  1.00  0.00     0.226 C 
ATOM     24  C   UNL A   1      33.388  16.557  25.498  1.00  0.00     0.049 C 
ENDBRANCH  22  23
ENDBRANCH  17  22
BRANCH  19  25
ATOM     25  O   UNL A   1      33.397  21.400  26.905  1.00  0.00    -0.493 OA
ATOM     26  C   UNL A   1      32.765  22.365  27.718  1.00  0.00     0.278 C 
ENDBRANCH  19  25
ENDBRANCH   9  16
BRANCH   8  27
ATOM     27  C   UNL A   1      32.670  28.194  25.274  1.00  0.00    -0.032 A 
ATOM     28  C   UNL A   1      31.915  28.148  26.458  1.00  0.00     0.005 A 
ATOM     29  C   UNL A   1      34.003  28.642  25.429  1.00  0.00     0.005 A 
ATOM     30  C   UNL A   1      32.443  28.529  27.700  1.00  0.00     0.000 A 
ATOM     31  C   UNL A   1      34.532  29.037  26.664  1.00  0.00     0.000 A 
ATOM     32  C   UNL A   1      33.750  28.981  27.804  1.00  0.00     0.000 A 
ENDBRANCH   8  27
ENDBRANCH   5   8
ENDBRANCH   3   4
ENDBRANCH   2   3
ENDBRANCH   1   2
BRANCH   1  33
ATOM     33  C   UNL A   1      30.731  31.247  25.304  1.00  0.00     0.002 C 
BRANCH  33  34
ATOM     34  C   UNL A   1      30.987  31.861  26.682  1.00  0.00     0.021 C 
BRANCH  34  35
ATOM     35  C   UNL A   1      32.387  32.434  26.862  1.00  0.00     0.116 C 
BRANCH  35  36
ATOM     36  N   UNL A   1      32.352  33.808  27.332  1.00  0.00    -0.352 N 
ATOM     37  C   UNL A   1      33.098  34.403  28.319  1.00  0.00     0.251 C 
ATOM     38  H   UNL A   1      31.704  34.393  26.878  1.00  0.00     0.163 HD
ATOM     39  O   UNL A   1      32.783  35.511  28.737  1.00  0.00    -0.269 OA
BRANCH  37  40
ATOM     40  C   UNL A   1      34.261  33.685  28.885  1.00  0.00     0.039 A 
ATOM     41  C   UNL A   1      35.528  34.258  28.769  1.00  0.00     0.014 A 
ATOM     42  C   UNL A   1      34.098  32.457  29.533  1.00  0.00     0.014 A 
ATOM     43  C   UNL A   1      36.625  33.623  29.353  1.00  0.00     0.010 A 
ATOM     44  C   UNL A   1      35.178  31.870  30.185  1.00  0.00     0.010 A 
ATOM     45  C   UNL A   1      36.456  32.441  30.094  1.00  0.00    -0.014 A 
BRANCH  45  46
ATOM     46  C   UNL A   1      37.606  31.793  30.776  1.00  0.00     0.031 A 
ATOM     47  C   UNL A   1      38.427  30.758  30.056  1.00  0.00     0.074 A 
ATOM     48  C   UNL A   1      37.882  32.104  32.058  1.00  0.00     0.049 A 
ATOM     49  N   UNL A   1      39.440  30.054  30.491  1.00  0.00    -0.248 NA
ATOM     50  C   UNL A   1      38.036  30.456  28.671  1.00  0.00     0.031 C 
ATOM     51  C   UNL A   1      37.135  33.065  32.873  1.00  0.00     0.029 A 
ATOM     52  N   UNL A   1      38.865  31.649  32.900  1.00  0.00    -0.354 N 
ATOM     53  C   UNL A   1      39.805  29.222  29.438  1.00  0.00     0.074 A 
ATOM     54  C   UNL A   1      38.853  29.459  28.372  1.00  0.00     0.031 C 
ATOM     55  C   UNL A   1      37.709  33.155  34.082  1.00  0.00     0.029 A 
ATOM     56  C   UNL A   1      38.831  32.224  34.151  1.00  0.00     0.049 A 
ATOM     57  H   UNL A   1      39.532  30.974  32.636  1.00  0.00     0.167 HD
ATOM     58  C   UNL A   1      40.851  28.361  29.356  1.00  0.00     0.034 A 
ATOM     59  C   UNL A   1      39.609  32.017  35.232  1.00  0.00     0.034 A 
ATOM     60  C   UNL A   1      41.785  28.136  30.433  1.00  0.00     0.049 A 
ATOM     61  C   UNL A   1      40.734  31.019  35.136  1.00  0.00     0.074 A 
ATOM     62  C   UNL A   1      42.905  27.322  30.447  1.00  0.00     0.029 A 
ATOM     63  N   UNL A   1      41.704  28.716  31.695  1.00  0.00    -0.354 N 
ATOM     64  N   UNL A   1      41.098  30.275  34.117  1.00  0.00    -0.248 NA
ATOM     65  C   UNL A   1      41.559  30.840  36.337  1.00  0.00     0.031 C 
ATOM     66  C   UNL A   1      43.449  27.346  31.737  1.00  0.00     0.029 A 
ATOM     67  C   UNL A   1      42.729  28.246  32.504  1.00  0.00     0.049 A 
ATOM     68  H   UNL A   1      41.019  29.366  31.973  1.00  0.00     0.167 HD
ATOM     69  C   UNL A   1      42.216  29.565  34.545  1.00  0.00     0.074 A 
ATOM     70  C   UNL A   1      42.474  29.984  35.908  1.00  0.00     0.031 C 
ATOM     71  C   UNL A   1      42.966  28.655  33.870  1.00  0.00     0.034 A 
BRANCH  58  72
ATOM     72  C   UNL A   1      41.008  27.583  28.070  1.00  0.00     0.023 A 
ATOM     73  C   UNL A   1      40.670  26.219  27.985  1.00  0.00     0.031 A 
ATOM     74  C   UNL A   1      41.545  28.195  26.923  1.00  0.00     0.131 A 
ATOM     75  C   UNL A   1      40.958  25.494  26.819  1.00  0.00     0.055 A 
ATOM     76  C   UNL A   1      41.741  27.489  25.733  1.00  0.00     0.041 A 
ATOM     77  F   UNL A   1      41.910  29.486  26.944  1.00  0.00    -0.206 F 
ATOM     78  C   UNL A   1      41.465  26.126  25.682  1.00  0.00     0.022 A 
BRANCH  75  79
ATOM     79  S   UNL A   1      40.827  23.686  26.871  1.00  0.00     0.124 S 
ATOM     80  O   UNL A   1      39.408  23.484  26.590  1.00  0.00    -0.237 OA
ATOM     81  O   UNL A   1      41.752  23.272  25.823  1.00  0.00    -0.237 OA
ATOM     82  O   UNL A   1      41.238  23.352  28.234  1.00  0.00    -0.744 OA
ENDBRANCH  75  79
ENDBRANCH  58  72
BRANCH  59  83
ATOM     83  C   UNL A   1      39.353  32.764  36.496  1.00  0.00     0.023 A 
ATOM     84  C   UNL A   1      40.004  33.979  36.763  1.00  0.00     0.031 A 
ATOM     85  C   UNL A   1      38.476  32.259  37.473  1.00  0.00     0.131 A 
ATOM     86  C   UNL A   1      39.803  34.627  37.991  1.00  0.00     0.055 A 
ATOM     87  C   UNL A   1      38.234  32.936  38.670  1.00  0.00     0.041 A 
ATOM     88  F   UNL A   1      37.825  31.103  37.269  1.00  0.00    -0.206 F 
ATOM     89  C   UNL A   1      38.910  34.122  38.939  1.00  0.00     0.022 A 
BRANCH  86  90
ATOM     90  S   UNL A   1      40.790  36.101  38.368  1.00  0.00     0.124 S 
ATOM     91  O   UNL A   1      40.391  37.007  37.297  1.00  0.00    -0.237 OA
ATOM     92  O   UNL A   1      40.322  36.444  39.708  1.00  0.00    -0.237 OA
ATOM     93  O   UNL A   1      42.166  35.616  38.297  1.00  0.00    -0.744 OA
ENDBRANCH  86  90
ENDBRANCH  59  83
BRANCH  71  94
ATOM     94  C   UNL A   1      44.166  28.084  34.590  1.00  0.00     0.023 A 
ATOM     95  C   UNL A   1      44.080  26.914  35.365  1.00  0.00     0.031 A 
ATOM     96  C   UNL A   1      45.411  28.735  34.516  1.00  0.00     0.131 A 
ATOM     97  C   UNL A   1      45.199  26.467  36.086  1.00  0.00     0.055 A 
ATOM     98  C   UNL A   1      46.539  28.245  35.176  1.00  0.00     0.041 A 
ATOM     99  F   UNL A   1      45.553  29.860  33.796  1.00  0.00    -0.206 F 
ATOM    100  C   UNL A   1      46.433  27.114  35.979  1.00  0.00     0.022 A 
BRANCH  97 101
ATOM    101  S   UNL A   1      44.992  25.095  37.253  1.00  0.00     0.124 S 
ATOM    102  O   UNL A   1      45.722  24.019  36.590  1.00  0.00    -0.237 OA
ATOM    103  O   UNL A   1      45.600  25.624  38.470  1.00  0.00    -0.237 OA
ATOM    104  O   UNL A   1      43.542  24.913  37.315  1.00  0.00    -0.744 OA
ENDBRANCH  97 101
ENDBRANCH  71  94
ENDBRANCH  45  46
ENDBRANCH  37  40
ENDBRANCH  35  36
ENDBRANCH  34  35
ENDBRANCH  33  34
ENDBRANCH   1  33
TORSDOF 21
ENDMDL
MODEL 2
REMARK VINA RESULT:     -11.0      1.814      7.472
REMARK SMILES CCOc1ccc(C(=O)N2CCC(C(=O)NCCCCCCNC(=O)c3ccc(-c4c5nc(c(-c6cc(S(=O)(=O)[O-])ccc6F)c6ccc([nH]6)c(-c6cc(S(=O)(=O)[O-])ccc6F)c6nc(c(-c7cc(S(=O)(=O)[O-])ccc7F)c7ccc4[nH]7)C=C6)C=C5)cc3)(c3ccccc3)CC2)cc1OC
REMARK SMILES IDX 19 1 18 2 17 3 16 4 14 5 15 6 13 8 8 9 9 10 10 11 11 12
REMARK SMILES IDX 96 13 12 14 95 15 7 16 4 17 5 18 98 19 6 20 97 21 3 22 2 23
REMARK SMILES IDX 1 24 99 25 100 26 89 27 90 28 94 29 91 30 93 31 92 32 20 33
REMARK SMILES IDX 21 34 22 35 23 36 24 37 25 39 26 40 27 41 88 42 28 43 87 44
REMARK SMILES IDX 29 45 30 46 31 47 81 48 32 49 86 50 80 51 82 52 33 53 85 54
REMARK SMILES IDX 79 55 78 56 34 58 66 59 46 60 65 61 47 62 50 63 64 64 83 65
REMARK SMILES IDX 48 66 49 67 63 69 84 70 51 71 35 72 36 73 44 74 37 75 43 76
REMARK SMILES IDX 45 77 42 78 38 79 39 80 40 81 41 82 67 83 68 84 76 85 69 86
REMARK SMILES IDX 75 87 77 88 74 89 70 90 71 91 72 92 73 93 52 94 53 95 61 96
REMARK SMILES IDX 54 97 60 98 62 99 59 100 55 101 56 102 57 103 58 104
REMARK H PARENT 16 7 23 38 82 57 50 68
REMARK Flexibility Score: inf
ROOT
ATOM      1  C   UNL A   1      30.039  31.138  24.629  1.00  0.00     0.002 C 
ENDROOT
BRANCH   1   2
ATOM      2  C   UNL A   1      29.774  30.088  23.544  1.00  0.00     0.021 C 
BRANCH   2   3
ATOM      3  C   UNL A   1      30.220  28.680  23.928  1.00  0.00     0.116 C 
BRANCH   3   4
ATOM      4  N   UNL A   1      30.497  27.891  22.738  1.00  0.00    -0.355 N 
ATOM      5  C   UNL A   1      31.331  26.838  22.492  1.00  0.00     0.230 C 
ATOM      6  O   UNL A   1      31.394  26.537  21.299  1.00  0.00    -0.274 OA
ATOM      7  H   UNL A   1      29.979  28.175  21.950  1.00  0.00     0.163 HD
BRANCH   5   8
ATOM      8  C   UNL A   1      32.096  26.101  23.650  1.00  0.00     0.077 C 
ATOM      9  C   UNL A   1      32.891  21.824  24.035  1.00  0.00     0.253 C 
ATOM     10  O   UNL A   1      31.914  21.095  23.866  1.00  0.00    -0.269 OA
ATOM     11  N   UNL A   1      32.764  23.227  23.988  1.00  0.00    -0.339 N 
ATOM     12  C   UNL A   1      31.646  23.763  24.746  1.00  0.00     0.121 C 
ATOM     13  C   UNL A   1      33.817  24.148  23.566  1.00  0.00     0.121 C 
ATOM     14  C   UNL A   1      31.086  25.092  24.264  1.00  0.00     0.043 C 
ATOM     15  C   UNL A   1      33.323  25.443  22.949  1.00  0.00     0.043 C 
BRANCH   9  16
ATOM     16  C   UNL A   1      34.179  21.182  24.464  1.00  0.00     0.043 A 
ATOM     17  C   UNL A   1      36.676  19.975  25.036  1.00  0.00     0.161 A 
ATOM     18  C   UNL A   1      36.521  21.370  25.100  1.00  0.00     0.051 A 
ATOM     19  C   UNL A   1      35.579  19.182  24.720  1.00  0.00     0.161 A 
ATOM     20  C   UNL A   1      35.276  21.969  24.830  1.00  0.00     0.018 A 
ATOM     21  C   UNL A   1      34.384  19.808  24.364  1.00  0.00     0.064 A 
BRANCH  17  22
ATOM     22  O   UNL A   1      37.880  19.414  25.351  1.00  0.00    -0.490 OA
BRANCH  22  23
ATOM     23  C   UNL A   1      38.954  20.361  25.411  1.00  0.00     0.226 C 
ATOM     24  C   UNL A   1      40.180  19.668  25.985  1.00  0.00     0.049 C 
ENDBRANCH  22  23
ENDBRANCH  17  22
BRANCH  19  25
ATOM     25  O   UNL A   1      35.434  17.825  24.681  1.00  0.00    -0.493 OA
ATOM     26  C   UNL A   1      34.383  17.239  23.943  1.00  0.00     0.278 C 
ENDBRANCH  19  25
ENDBRANCH   9  16
BRANCH   8  27
ATOM     27  C   UNL A   1      32.634  27.009  24.820  1.00  0.00    -0.032 A 
ATOM     28  C   UNL A   1      33.752  27.855  24.719  1.00  0.00     0.005 A 
ATOM     29  C   UNL A   1      31.988  27.016  26.078  1.00  0.00     0.005 A 
ATOM     30  C   UNL A   1      34.198  28.641  25.792  1.00  0.00     0.000 A 
ATOM     31  C   UNL A   1      32.436  27.787  27.158  1.00  0.00     0.000 A 
ATOM     32  C   UNL A   1      33.545  28.602  27.015  1.00  0.00     0.000 A 
ENDBRANCH   8  27
ENDBRANCH   5   8
ENDBRANCH   3   4
ENDBRANCH   2   3
ENDBRANCH   1   2
BRANCH   1  33
ATOM     33  C   UNL A   1      31.279  30.873  25.490  1.00  0.00     0.002 C 
BRANCH  33  34
ATOM     34  C   UNL A   1      31.336  31.674  26.792  1.00  0.00     0.021 C 
BRANCH  34  35
ATOM     35  C   UNL A   1      32.688  32.315  27.076  1.00  0.00     0.116 C 
BRANCH  35  36
ATOM     36  N   UNL A   1      32.556  33.709  27.464  1.00  0.00    -0.352 N 
ATOM     37  C   UNL A   1      33.215  34.397  28.451  1.00  0.00     0.251 C 
ATOM     38  H   UNL A   1      31.902  34.231  26.945  1.00  0.00     0.163 HD
ATOM     39  O   UNL A   1      32.820  35.506  28.789  1.00  0.00    -0.269 OA
BRANCH  37  40
ATOM     40  C   UNL A   1      34.382  33.777  29.116  1.00  0.00     0.039 A 
ATOM     41  C   UNL A   1      34.165  32.775  30.063  1.00  0.00     0.014 A 
ATOM     42  C   UNL A   1      35.683  34.179  28.800  1.00  0.00     0.014 A 
ATOM     43  C   UNL A   1      35.258  32.138  30.652  1.00  0.00     0.010 A 
ATOM     44  C   UNL A   1      36.769  33.486  29.325  1.00  0.00     0.010 A 
ATOM     45  C   UNL A   1      36.569  32.464  30.264  1.00  0.00    -0.014 A 
BRANCH  45  46
ATOM     46  C   UNL A   1      37.738  31.746  30.836  1.00  0.00     0.031 A 
ATOM     47  C   UNL A   1      38.220  32.070  32.224  1.00  0.00     0.074 A 
ATOM     48  C   UNL A   1      38.391  30.835  30.088  1.00  0.00     0.049 A 
ATOM     49  N   UNL A   1      39.241  31.583  32.882  1.00  0.00    -0.248 NA
ATOM     50  C   UNL A   1      37.469  33.099  32.958  1.00  0.00     0.031 C 
ATOM     51  C   UNL A   1      38.040  30.462  28.716  1.00  0.00     0.029 A 
ATOM     52  N   UNL A   1      39.483  30.055  30.374  1.00  0.00    -0.354 N 
ATOM     53  C   UNL A   1      39.260  32.249  34.103  1.00  0.00     0.074 A 
ATOM     54  C   UNL A   1      38.192  33.226  34.059  1.00  0.00     0.031 C 
ATOM     55  C   UNL A   1      38.876  29.501  28.295  1.00  0.00     0.029 A 
ATOM     56  C   UNL A   1      39.854  29.223  29.342  1.00  0.00     0.049 A 
ATOM     57  H   UNL A   1      39.958  30.088  31.236  1.00  0.00     0.167 HD
ATOM     58  C   UNL A   1      40.072  32.047  35.170  1.00  0.00     0.034 A 
ATOM     59  C   UNL A   1      40.870  28.343  29.247  1.00  0.00     0.034 A 
ATOM     60  C   UNL A   1      41.135  31.070  35.190  1.00  0.00     0.049 A 
ATOM     61  C   UNL A   1      41.794  28.170  30.426  1.00  0.00     0.074 A 
ATOM     62  C   UNL A   1      41.991  30.749  36.230  1.00  0.00     0.029 A 
ATOM     63  N   UNL A   1      41.499  30.264  34.117  1.00  0.00    -0.354 N 
ATOM     64  N   UNL A   1      41.768  28.772  31.593  1.00  0.00    -0.248 NA
ATOM     65  C   UNL A   1      42.877  27.192  30.276  1.00  0.00     0.031 C 
ATOM     66  C   UNL A   1      42.920  29.813  35.760  1.00  0.00     0.029 A 
ATOM     67  C   UNL A   1      42.590  29.477  34.458  1.00  0.00     0.049 A 
ATOM     68  H   UNL A   1      41.047  30.252  33.242  1.00  0.00     0.167 HD
ATOM     69  C   UNL A   1      42.813  28.219  32.328  1.00  0.00     0.074 A 
ATOM     70  C   UNL A   1      43.435  27.225  31.477  1.00  0.00     0.031 C 
ATOM     71  C   UNL A   1      43.216  28.501  33.594  1.00  0.00     0.034 A 
BRANCH  58  72
ATOM     72  C   UNL A   1      39.857  32.925  36.381  1.00  0.00     0.023 A 
ATOM     73  C   UNL A   1      39.091  32.494  37.480  1.00  0.00     0.031 A 
ATOM     74  C   UNL A   1      40.383  34.229  36.423  1.00  0.00     0.131 A 
ATOM     75  C   UNL A   1      38.796  33.383  38.524  1.00  0.00     0.055 A 
ATOM     76  C   UNL A   1      40.164  35.078  37.512  1.00  0.00     0.041 A 
ATOM     77  F   UNL A   1      41.103  34.710  35.398  1.00  0.00    -0.206 F 
ATOM     78  C   UNL A   1      39.351  34.663  38.561  1.00  0.00     0.022 A 
BRANCH  75  79
ATOM     79  S   UNL A   1      37.535  32.903  39.737  1.00  0.00     0.124 S 
ATOM     80  O   UNL A   1      38.113  31.685  40.298  1.00  0.00    -0.237 OA
ATOM     81  O   UNL A   1      37.496  34.059  40.625  1.00  0.00    -0.237 OA
ATOM     82  O   UNL A   1      36.338  32.699  38.924  1.00  0.00    -0.744 OA
ENDBRANCH  75  79
ENDBRANCH  58  72
BRANCH  59  83
ATOM     83  C   UNL A   1      41.074  27.562  27.995  1.00  0.00     0.023 A 
ATOM     84  C   UNL A   1      40.755  26.195  27.935  1.00  0.00     0.031 A 
ATOM     85  C   UNL A   1      41.620  28.161  26.845  1.00  0.00     0.131 A 
ATOM     86  C   UNL A   1      41.024  25.464  26.768  1.00  0.00     0.055 A 
ATOM     87  C   UNL A   1      41.831  27.442  25.667  1.00  0.00     0.041 A 
ATOM     88  F   UNL A   1      41.940  29.465  26.845  1.00  0.00    -0.206 F 
ATOM     89  C   UNL A   1      41.544  26.081  25.628  1.00  0.00     0.022 A 
BRANCH  86  90
ATOM     90  S   UNL A   1      40.759  23.670  26.787  1.00  0.00     0.124 S 
ATOM     91  O   UNL A   1      41.134  23.329  28.153  1.00  0.00    -0.237 OA
ATOM     92  O   UNL A   1      39.338  23.570  26.466  1.00  0.00    -0.237 OA
ATOM     93  O   UNL A   1      41.665  23.182  25.749  1.00  0.00    -0.744 OA
ENDBRANCH  86  90
ENDBRANCH  59  83
BRANCH  71  94
ATOM     94  C   UNL A   1      44.363  27.687  34.147  1.00  0.00     0.023 A 
ATOM     95  C   UNL A   1      44.167  26.419  34.722  1.00  0.00     0.031 A 
ATOM     96  C   UNL A   1      45.673  28.200  34.117  1.00  0.00     0.131 A 
ATOM     97  C   UNL A   1      45.249  25.736  35.300  1.00  0.00     0.055 A 
ATOM     98  C   UNL A   1      46.757  27.484  34.627  1.00  0.00     0.041 A 
ATOM     99  F   UNL A   1      45.922  29.408  33.586  1.00  0.00    -0.206 F 
ATOM    100  C   UNL A   1      46.546  26.252  35.237  1.00  0.00     0.022 A 
BRANCH  97 101
ATOM    101  S   UNL A   1      44.920  24.217  36.234  1.00  0.00     0.124 S 
ATOM    102  O   UNL A   1      43.477  24.070  36.077  1.00  0.00    -0.237 OA
ATOM    103  O   UNL A   1      45.741  23.235  35.534  1.00  0.00    -0.237 OA
ATOM    104  O   UNL A   1      45.366  24.544  37.588  1.00  0.00    -0.744 OA
ENDBRANCH  97 101
ENDBRANCH  71  94
ENDBRANCH  45  46
ENDBRANCH  37  40
ENDBRANCH  35  36
ENDBRANCH  34  35
ENDBRANCH  33  34
ENDBRANCH   1  33
TORSDOF 21
ENDMDL
MODEL 3
REMARK VINA RESULT:     -11.0      1.223      7.419
REMARK SMILES CCOc1ccc(C(=O)N2CCC(C(=O)NCCCCCCNC(=O)c3ccc(-c4c5nc(c(-c6cc(S(=O)(=O)[O-])ccc6F)c6ccc([nH]6)c(-c6cc(S(=O)(=O)[O-])ccc6F)c6nc(c(-c7cc(S(=O)(=O)[O-])ccc7F)c7ccc4[nH]7)C=C6)C=C5)cc3)(c3ccccc3)CC2)cc1OC
REMARK SMILES IDX 19 1 18 2 17 3 16 4 14 5 15 6 13 8 8 9 9 10 10 11 11 12
REMARK SMILES IDX 96 13 12 14 95 15 7 16 4 17 5 18 98 19 6 20 97 21 3 22 2 23
REMARK SMILES IDX 1 24 99 25 100 26 89 27 90 28 94 29 91 30 93 31 92 32 20 33
REMARK SMILES IDX 21 34 22 35 23 36 24 37 25 39 26 40 27 41 88 42 28 43 87 44
REMARK SMILES IDX 29 45 30 46 31 47 81 48 32 49 86 50 80 51 82 52 33 53 85 54
REMARK SMILES IDX 79 55 78 56 34 58 66 59 46 60 65 61 47 62 50 63 64 64 83 65
REMARK SMILES IDX 48 66 49 67 63 69 84 70 51 71 35 72 36 73 44 74 37 75 43 76
REMARK SMILES IDX 45 77 42 78 38 79 39 80 40 81 41 82 67 83 68 84 76 85 69 86
REMARK SMILES IDX 75 87 77 88 74 89 70 90 71 91 72 92 73 93 52 94 53 95 61 96
REMARK SMILES IDX 54 97 60 98 62 99 59 100 55 101 56 102 57 103 58 104
REMARK H PARENT 16 7 23 38 82 57 50 68
REMARK Flexibility Score: inf
ROOT
ATOM      1  C   UNL A   1      29.654  31.941  24.487  1.00  0.00     0.002 C 
ENDROOT
BRANCH   1   2
ATOM      2  C   UNL A   1      29.130  31.088  23.327  1.00  0.00     0.021 C 
BRANCH   2   3
ATOM      3  C   UNL A   1      29.670  29.662  23.317  1.00  0.00     0.116 C 
BRANCH   3   4
ATOM      4  N   UNL A   1      30.929  29.598  22.592  1.00  0.00    -0.355 N 
ATOM      5  C   UNL A   1      32.080  28.889  22.783  1.00  0.00     0.230 C 
ATOM      6  O   UNL A   1      32.991  29.228  22.027  1.00  0.00    -0.274 OA
ATOM      7  H   UNL A   1      30.957  30.187  21.803  1.00  0.00     0.163 HD
BRANCH   5   8
ATOM      8  C   UNL A   1      32.178  27.748  23.860  1.00  0.00     0.077 C 
ATOM      9  C   UNL A   1      31.176  23.524  23.380  1.00  0.00     0.253 C 
ATOM     10  O   UNL A   1      30.079  23.303  22.868  1.00  0.00    -0.269 OA
ATOM     11  N   UNL A   1      31.602  24.842  23.638  1.00  0.00    -0.339 N 
ATOM     12  C   UNL A   1      30.611  25.688  24.279  1.00  0.00     0.121 C 
ATOM     13  C   UNL A   1      32.995  25.284  23.644  1.00  0.00     0.121 C 
ATOM     14  C   UNL A   1      30.739  27.183  24.025  1.00  0.00     0.043 C 
ATOM     15  C   UNL A   1      33.206  26.738  23.264  1.00  0.00     0.043 C 
BRANCH   9  16
ATOM     16  C   UNL A   1      31.966  22.348  23.879  1.00  0.00     0.043 A 
ATOM     17  C   UNL A   1      33.244  20.038  24.904  1.00  0.00     0.161 A 
ATOM     18  C   UNL A   1      32.786  20.076  23.576  1.00  0.00     0.051 A 
ATOM     19  C   UNL A   1      33.095  21.163  25.708  1.00  0.00     0.161 A 
ATOM     20  C   UNL A   1      32.163  21.229  23.062  1.00  0.00     0.018 A 
ATOM     21  C   UNL A   1      32.390  22.255  25.202  1.00  0.00     0.064 A 
BRANCH  17  22
ATOM     22  O   UNL A   1      33.889  18.927  25.365  1.00  0.00    -0.490 OA
BRANCH  22  23
ATOM     23  C   UNL A   1      33.258  17.699  24.978  1.00  0.00     0.226 C 
ATOM     24  C   UNL A   1      34.339  16.697  24.601  1.00  0.00     0.049 C 
ENDBRANCH  22  23
ENDBRANCH  17  22
BRANCH  19  25
ATOM     25  O   UNL A   1      33.525  21.422  26.977  1.00  0.00    -0.493 OA
ATOM     26  C   UNL A   1      32.959  22.479  27.722  1.00  0.00     0.278 C 
ENDBRANCH  19  25
ENDBRANCH   9  16
BRANCH   8  27
ATOM     27  C   UNL A   1      32.689  28.176  25.287  1.00  0.00    -0.032 A 
ATOM     28  C   UNL A   1      31.898  28.168  26.449  1.00  0.00     0.005 A 
ATOM     29  C   UNL A   1      34.023  28.606  25.473  1.00  0.00     0.005 A 
ATOM     30  C   UNL A   1      32.396  28.565  27.699  1.00  0.00     0.000 A 
ATOM     31  C   UNL A   1      34.523  29.017  26.714  1.00  0.00     0.000 A 
ATOM     32  C   UNL A   1      33.707  28.998  27.832  1.00  0.00     0.000 A 
ENDBRANCH   8  27
ENDBRANCH   5   8
ENDBRANCH   3   4
ENDBRANCH   2   3
ENDBRANCH   1   2
BRANCH   1  33
ATOM     33  C   UNL A   1      30.722  31.261  25.351  1.00  0.00     0.002 C 
BRANCH  33  34
ATOM     34  C   UNL A   1      30.984  31.943  26.695  1.00  0.00     0.021 C 
BRANCH  34  35
ATOM     35  C   UNL A   1      32.413  32.440  26.878  1.00  0.00     0.116 C 
BRANCH  35  36
ATOM     36  N   UNL A   1      32.450  33.811  27.358  1.00  0.00    -0.352 N 
ATOM     37  C   UNL A   1      33.250  34.367  28.325  1.00  0.00     0.251 C 
ATOM     38  H   UNL A   1      31.813  34.426  26.928  1.00  0.00     0.163 HD
ATOM     39  O   UNL A   1      32.995  35.483  28.761  1.00  0.00    -0.269 OA
BRANCH  37  40
ATOM     40  C   UNL A   1      34.399  33.596  28.850  1.00  0.00     0.039 A 
ATOM     41  C   UNL A   1      35.682  34.130  28.726  1.00  0.00     0.014 A 
ATOM     42  C   UNL A   1      34.207  32.356  29.467  1.00  0.00     0.014 A 
ATOM     43  C   UNL A   1      36.768  33.444  29.272  1.00  0.00     0.010 A 
ATOM     44  C   UNL A   1      35.278  31.716  30.083  1.00  0.00     0.010 A 
ATOM     45  C   UNL A   1      36.573  32.249  29.984  1.00  0.00    -0.014 A 
BRANCH  45  46
ATOM     46  C   UNL A   1      37.713  31.545  30.626  1.00  0.00     0.031 A 
ATOM     47  C   UNL A   1      38.065  31.826  32.062  1.00  0.00     0.074 A 
ATOM     48  C   UNL A   1      38.458  30.685  29.903  1.00  0.00     0.049 A 
ATOM     49  N   UNL A   1      39.043  31.345  32.785  1.00  0.00    -0.248 NA
ATOM     50  C   UNL A   1      37.220  32.800  32.767  1.00  0.00     0.031 C 
ATOM     51  C   UNL A   1      38.237  30.359  28.492  1.00  0.00     0.029 A 
ATOM     52  N   UNL A   1      39.548  29.929  30.251  1.00  0.00    -0.354 N 
ATOM     53  C   UNL A   1      38.936  31.961  34.028  1.00  0.00     0.074 A 
ATOM     54  C   UNL A   1      37.843  32.905  33.930  1.00  0.00     0.031 C 
ATOM     55  C   UNL A   1      39.138  29.442  28.108  1.00  0.00     0.029 A 
ATOM     56  C   UNL A   1      40.033  29.152  29.223  1.00  0.00     0.049 A 
ATOM     57  H   UNL A   1      39.947  29.941  31.151  1.00  0.00     0.167 HD
ATOM     58  C   UNL A   1      39.662  31.740  35.152  1.00  0.00     0.034 A 
ATOM     59  C   UNL A   1      41.084  28.309  29.182  1.00  0.00     0.034 A 
ATOM     60  C   UNL A   1      40.752  30.797  35.226  1.00  0.00     0.049 A 
ATOM     61  C   UNL A   1      41.910  28.117  30.429  1.00  0.00     0.074 A 
ATOM     62  C   UNL A   1      41.528  30.460  36.322  1.00  0.00     0.029 A 
ATOM     63  N   UNL A   1      41.233  30.047  34.158  1.00  0.00    -0.354 N 
ATOM     64  N   UNL A   1      41.765  28.669  31.612  1.00  0.00    -0.248 NA
ATOM     65  C   UNL A   1      43.035  27.179  30.335  1.00  0.00     0.031 C 
ATOM     66  C   UNL A   1      42.525  29.573  35.899  1.00  0.00     0.029 A 
ATOM     67  C   UNL A   1      42.317  29.281  34.561  1.00  0.00     0.049 A 
ATOM     68  H   UNL A   1      40.857  30.057  33.248  1.00  0.00     0.167 HD
ATOM     69  C   UNL A   1      42.763  28.118  32.411  1.00  0.00     0.074 A 
ATOM     70  C   UNL A   1      43.488  27.180  31.579  1.00  0.00     0.031 C 
ATOM     71  C   UNL A   1      43.048  28.361  33.717  1.00  0.00     0.034 A 
BRANCH  58  72
ATOM     72  C   UNL A   1      39.315  32.561  36.373  1.00  0.00     0.023 A 
ATOM     73  C   UNL A   1      39.948  33.789  36.643  1.00  0.00     0.031 A 
ATOM     74  C   UNL A   1      38.372  32.094  37.306  1.00  0.00     0.131 A 
ATOM     75  C   UNL A   1      39.703  34.455  37.854  1.00  0.00     0.055 A 
ATOM     76  C   UNL A   1      38.061  32.811  38.464  1.00  0.00     0.041 A 
ATOM     77  F   UNL A   1      37.748  30.920  37.119  1.00  0.00    -0.206 F 
ATOM     78  C   UNL A   1      38.742  33.989  38.753  1.00  0.00     0.022 A 
BRANCH  75  79
ATOM     79  S   UNL A   1      40.784  35.837  38.313  1.00  0.00     0.124 S 
ATOM     80  O   UNL A   1      40.089  36.970  37.706  1.00  0.00    -0.237 OA
ATOM     81  O   UNL A   1      40.765  35.782  39.770  1.00  0.00    -0.237 OA
ATOM     82  O   UNL A   1      42.061  35.495  37.691  1.00  0.00    -0.744 OA
ENDBRANCH  75  79
ENDBRANCH  58  72
BRANCH  59  83
ATOM     83  C   UNL A   1      41.419  27.586  27.923  1.00  0.00     0.023 A 
ATOM     84  C   UNL A   1      41.249  26.195  27.820  1.00  0.00     0.031 A 
ATOM     85  C   UNL A   1      41.944  28.268  26.811  1.00  0.00     0.131 A 
ATOM     86  C   UNL A   1      41.640  25.527  26.650  1.00  0.00     0.055 A 
ATOM     87  C   UNL A   1      42.278  27.607  25.628  1.00  0.00     0.041 A 
ATOM     88  F   UNL A   1      42.125  29.599  26.853  1.00  0.00    -0.206 F 
ATOM     89  C   UNL A   1      42.138  26.226  25.547  1.00  0.00     0.022 A 
BRANCH  86  90
ATOM     90  S   UNL A   1      41.566  23.715  26.618  1.00  0.00     0.124 S 
ATOM     91  O   UNL A   1      40.134  23.480  26.486  1.00  0.00    -0.237 OA
ATOM     92  O   UNL A   1      42.380  23.399  25.449  1.00  0.00    -0.237 OA
ATOM     93  O   UNL A   1      42.147  23.328  27.902  1.00  0.00    -0.744 OA
ENDBRANCH  86  90
ENDBRANCH  59  83
BRANCH  71  94
ATOM     94  C   UNL A   1      44.172  27.562  34.335  1.00  0.00     0.023 A 
ATOM     95  C   UNL A   1      45.495  28.037  34.362  1.00  0.00     0.031 A 
ATOM     96  C   UNL A   1      43.917  26.293  34.887  1.00  0.00     0.131 A 
ATOM     97  C   UNL A   1      46.521  27.225  34.869  1.00  0.00     0.055 A 
ATOM     98  C   UNL A   1      44.930  25.520  35.457  1.00  0.00     0.041 A 
ATOM     99  F   UNL A   1      42.674  25.784  34.885  1.00  0.00    -0.206 F 
ATOM    100  C   UNL A   1      46.244  25.978  35.435  1.00  0.00     0.022 A 
BRANCH  97 101
ATOM    101  S   UNL A   1      48.240  27.771  34.676  1.00  0.00     0.124 S 
ATOM    102  O   UNL A   1      48.604  28.116  36.046  1.00  0.00    -0.237 OA
ATOM    103  O   UNL A   1      48.886  26.586  34.123  1.00  0.00    -0.237 OA
ATOM    104  O   UNL A   1      48.138  28.905  33.758  1.00  0.00    -0.744 OA
ENDBRANCH  97 101
ENDBRANCH  71  94
ENDBRANCH  45  46
ENDBRANCH  37  40
ENDBRANCH  35  36
ENDBRANCH  34  35
ENDBRANCH  33  34
ENDBRANCH   1  33
TORSDOF 21
ENDMDL
