MODEL 1
REMARK VINA RESULT:     -10.9      0.000      0.000
REMARK SMILES O=C(NCCCCCCNC(=O)[C@@H]1CC[C@H](CNC(=O)C2CCOCC2)O1)c1ccc(-c2c3nc(c(-c4cc(S(=O)(=O)[O-])ccc4F)c4ccc([nH]4)c(-c4cc(S(=O)(=O)[O-])ccc4F)c4nc(c(-c5cc(S(=O)(=O)[O-])ccc5F)c5ccc2[nH]5)C=C4)C=C3)cc1
REMARK SMILES IDX 6 1 5 2 4 3 3 4 1 5 2 6 28 8 29 9 90 10 30 11 89 12 31 13
REMARK SMILES IDX 32 14 33 15 83 16 34 17 88 18 82 19 84 20 35 21 87 22 81 23
REMARK SMILES IDX 80 24 36 26 68 27 48 28 67 29 49 30 52 31 66 32 85 33 50 34
REMARK SMILES IDX 51 35 65 37 86 38 53 39 37 40 38 41 46 42 39 43 45 44 47 45
REMARK SMILES IDX 44 46 40 47 41 48 42 49 43 50 69 51 70 52 78 53 71 54 77 55
REMARK SMILES IDX 79 56 76 57 72 58 73 59 74 60 75 61 54 62 55 63 63 64 56 65
REMARK SMILES IDX 62 66 64 67 61 68 57 69 58 70 59 71 60 72 7 73 8 74 9 75
REMARK SMILES IDX 10 76 11 77 12 79 13 80 14 81 27 82 15 83 16 84 17 85 18 86
REMARK SMILES IDX 19 87 20 89 21 90 22 91 26 92 23 93 25 94 24 95
REMARK H PARENT 3 7 84 25 52 36 10 78 18 88
REMARK Flexibility Score: inf
ROOT
ATOM      1  C   UNL A   1      35.057  32.511  27.988  1.00  0.00     0.002 C 
ENDROOT
BRANCH   1   2
ATOM      2  C   UNL A   1      33.768  33.330  28.045  1.00  0.00     0.021 C 
BRANCH   2   3
ATOM      3  C   UNL A   1      33.949  34.798  28.405  1.00  0.00     0.116 C 
BRANCH   3   4
ATOM      4  N   UNL A   1      33.110  35.219  29.515  1.00  0.00    -0.352 N 
ATOM      5  O   UNL A   1      32.395  35.279  31.657  1.00  0.00    -0.269 OA
ATOM      6  C   UNL A   1      33.272  34.960  30.856  1.00  0.00     0.251 C 
ATOM      7  H   UNL A   1      32.322  35.760  29.275  1.00  0.00     0.163 HD
BRANCH   6   8
ATOM      8  C   UNL A   1      34.497  34.274  31.324  1.00  0.00     0.039 A 
ATOM      9  C   UNL A   1      35.734  34.919  31.271  1.00  0.00     0.014 A 
ATOM     10  C   UNL A   1      34.410  32.966  31.814  1.00  0.00     0.014 A 
ATOM     11  C   UNL A   1      36.894  34.216  31.574  1.00  0.00     0.010 A 
ATOM     12  C   UNL A   1      35.572  32.288  32.200  1.00  0.00     0.010 A 
ATOM     13  C   UNL A   1      36.826  32.900  32.059  1.00  0.00    -0.014 A 
BRANCH  13  14
ATOM     14  C   UNL A   1      38.086  32.229  32.476  1.00  0.00     0.031 A 
ATOM     15  C   UNL A   1      38.727  32.519  33.805  1.00  0.00     0.074 A 
ATOM     16  C   UNL A   1      38.613  31.299  31.655  1.00  0.00     0.049 A 
ATOM     17  N   UNL A   1      39.789  31.972  34.342  1.00  0.00    -0.248 NA
ATOM     18  C   UNL A   1      38.105  33.559  34.636  1.00  0.00     0.031 C 
ATOM     19  C   UNL A   1      38.081  30.951  30.334  1.00  0.00     0.029 A 
ATOM     20  N   UNL A   1      39.682  30.456  31.811  1.00  0.00    -0.354 N 
ATOM     21  C   UNL A   1      39.969  32.602  35.569  1.00  0.00     0.074 A 
ATOM     22  C   UNL A   1      38.922  33.598  35.681  1.00  0.00     0.031 C 
ATOM     23  C   UNL A   1      38.788  29.931  29.829  1.00  0.00     0.029 A 
ATOM     24  C   UNL A   1      39.863  29.595  30.754  1.00  0.00     0.049 A 
ATOM     25  H   UNL A   1      40.266  30.466  32.605  1.00  0.00     0.167 HD
ATOM     26  C   UNL A   1      40.913  32.364  36.515  1.00  0.00     0.034 A 
ATOM     27  C   UNL A   1      40.797  28.649  30.543  1.00  0.00     0.034 A 
ATOM     28  C   UNL A   1      41.952  31.369  36.384  1.00  0.00     0.049 A 
ATOM     29  C   UNL A   1      41.836  28.415  31.605  1.00  0.00     0.074 A 
ATOM     30  C   UNL A   1      42.956  31.046  37.282  1.00  0.00     0.029 A 
ATOM     31  N   UNL A   1      42.126  30.538  35.284  1.00  0.00    -0.354 N 
ATOM     32  N   UNL A   1      41.982  29.018  32.762  1.00  0.00    -0.248 NA
ATOM     33  C   UNL A   1      42.830  27.371  31.335  1.00  0.00     0.031 C 
ATOM     34  C   UNL A   1      43.765  30.059  36.704  1.00  0.00     0.029 A 
ATOM     35  C   UNL A   1      43.230  29.718  35.473  1.00  0.00     0.049 A 
ATOM     36  H   UNL A   1      41.549  30.531  34.486  1.00  0.00     0.167 HD
ATOM     37  C   UNL A   1      43.087  28.422  33.359  1.00  0.00     0.074 A 
ATOM     38  C   UNL A   1      43.539  27.384  32.454  1.00  0.00     0.031 C 
ATOM     39  C   UNL A   1      43.683  28.710  34.544  1.00  0.00     0.034 A 
BRANCH  26  40
ATOM     40  C   UNL A   1      40.885  33.219  37.758  1.00  0.00     0.023 A 
ATOM     41  C   UNL A   1      40.061  32.903  38.853  1.00  0.00     0.031 A 
ATOM     42  C   UNL A   1      41.698  34.362  37.855  1.00  0.00     0.131 A 
ATOM     43  C   UNL A   1      40.030  33.748  39.975  1.00  0.00     0.055 A 
ATOM     44  C   UNL A   1      41.712  35.163  38.999  1.00  0.00     0.041 A 
ATOM     45  F   UNL A   1      42.492  34.723  36.834  1.00  0.00    -0.206 F 
ATOM     46  C   UNL A   1      40.867  34.863  40.065  1.00  0.00     0.022 A 
BRANCH  43  47
ATOM     47  S   UNL A   1      38.804  33.426  41.271  1.00  0.00     0.124 S 
ATOM     48  O   UNL A   1      38.182  34.740  41.423  1.00  0.00    -0.237 OA
ATOM     49  O   UNL A   1      37.970  32.392  40.670  1.00  0.00    -0.237 OA
ATOM     50  O   UNL A   1      39.612  32.993  42.409  1.00  0.00    -0.744 OA
ENDBRANCH  43  47
ENDBRANCH  26  40
BRANCH  27  51
ATOM     51  C   UNL A   1      40.815  27.881  29.266  1.00  0.00     0.023 A 
ATOM     52  C   UNL A   1      41.745  28.168  28.256  1.00  0.00     0.031 A 
ATOM     53  C   UNL A   1      39.871  26.866  29.025  1.00  0.00     0.131 A 
ATOM     54  C   UNL A   1      41.684  27.478  27.035  1.00  0.00     0.055 A 
ATOM     55  C   UNL A   1      39.850  26.144  27.832  1.00  0.00     0.041 A 
ATOM     56  F   UNL A   1      38.961  26.549  29.961  1.00  0.00    -0.206 F 
ATOM     57  C   UNL A   1      40.752  26.460  26.821  1.00  0.00     0.022 A 
BRANCH  54  58
ATOM     58  S   UNL A   1      42.783  27.998  25.689  1.00  0.00     0.124 S 
ATOM     59  O   UNL A   1      43.269  26.717  25.186  1.00  0.00    -0.237 OA
ATOM     60  O   UNL A   1      41.867  28.725  24.816  1.00  0.00    -0.237 OA
ATOM     61  O   UNL A   1      43.783  28.821  26.366  1.00  0.00    -0.744 OA
ENDBRANCH  54  58
ENDBRANCH  27  51
BRANCH  39  62
ATOM     62  C   UNL A   1      44.881  27.871  34.911  1.00  0.00     0.023 A 
ATOM     63  C   UNL A   1      44.734  26.647  35.588  1.00  0.00     0.031 A 
ATOM     64  C   UNL A   1      46.182  28.324  34.633  1.00  0.00     0.131 A 
ATOM     65  C   UNL A   1      45.869  25.954  36.033  1.00  0.00     0.055 A 
ATOM     66  C   UNL A   1      47.308  27.599  35.024  1.00  0.00     0.041 A 
ATOM     67  F   UNL A   1      46.378  29.486  33.991  1.00  0.00    -0.206 F 
ATOM     68  C   UNL A   1      47.157  26.415  35.743  1.00  0.00     0.022 A 
BRANCH  65  69
ATOM     69  S   UNL A   1      45.641  24.502  37.094  1.00  0.00     0.124 S 
ATOM     70  O   UNL A   1      44.542  24.926  37.956  1.00  0.00    -0.237 OA
ATOM     71  O   UNL A   1      45.325  23.455  36.127  1.00  0.00    -0.237 OA
ATOM     72  O   UNL A   1      46.933  24.358  37.762  1.00  0.00    -0.744 OA
ENDBRANCH  65  69
ENDBRANCH  39  62
ENDBRANCH  13  14
ENDBRANCH   6   8
ENDBRANCH   3   4
ENDBRANCH   2   3
ENDBRANCH   1   2
BRANCH   1  73
ATOM     73  C   UNL A   1      34.988  31.120  28.625  1.00  0.00     0.002 C 
BRANCH  73  74
ATOM     74  C   UNL A   1      35.337  29.946  27.701  1.00  0.00     0.021 C 
BRANCH  74  75
ATOM     75  C   UNL A   1      34.139  29.250  27.056  1.00  0.00     0.116 C 
BRANCH  75  76
ATOM     76  N   UNL A   1      34.023  29.585  25.647  1.00  0.00    -0.354 N 
ATOM     77  C   UNL A   1      33.330  28.923  24.671  1.00  0.00     0.249 C 
ATOM     78  H   UNL A   1      34.505  30.392  25.357  1.00  0.00     0.163 HD
ATOM     79  O   UNL A   1      33.356  29.372  23.523  1.00  0.00    -0.272 OA
BRANCH  77  80
ATOM     80  C   UNL A   1      32.569  27.645  25.051  1.00  0.00     0.207 C 
ATOM     81  C   UNL A   1      32.687  26.533  24.019  1.00  0.00     0.045 C 
ATOM     82  O   UNL A   1      31.164  27.936  25.190  1.00  0.00    -0.363 OA
ATOM     83  C   UNL A   1      31.345  25.848  24.122  1.00  0.00     0.037 C 
ATOM     84  C   UNL A   1      30.404  27.009  24.400  1.00  0.00     0.138 C 
BRANCH  84  85
ATOM     85  C   UNL A   1      29.907  27.714  23.123  1.00  0.00     0.147 C 
BRANCH  85  86
ATOM     86  N   UNL A   1      28.465  27.904  23.146  1.00  0.00    -0.353 N 
ATOM     87  C   UNL A   1      27.735  29.050  23.048  1.00  0.00     0.223 C 
ATOM     88  H   UNL A   1      27.936  27.081  23.246  1.00  0.00     0.163 HD
ATOM     89  O   UNL A   1      26.523  28.975  23.262  1.00  0.00    -0.275 OA
BRANCH  87  90
ATOM     90  C   UNL A   1      28.402  30.339  22.593  1.00  0.00     0.083 C 
ATOM     91  C   UNL A   1      28.091  31.497  23.548  1.00  0.00     0.042 C 
ATOM     92  C   UNL A   1      27.900  30.669  21.181  1.00  0.00     0.042 C 
ATOM     93  C   UNL A   1      28.592  32.812  22.966  1.00  0.00     0.161 C 
ATOM     94  C   UNL A   1      28.379  32.043  20.736  1.00  0.00     0.161 C 
ATOM     95  O   UNL A   1      28.004  33.040  21.684  1.00  0.00    -0.381 OA
ENDBRANCH  87  90
ENDBRANCH  85  86
ENDBRANCH  84  85
ENDBRANCH  77  80
ENDBRANCH  75  76
ENDBRANCH  74  75
ENDBRANCH  73  74
ENDBRANCH   1  73
TORSDOF 19
ENDMDL
MODEL 2
REMARK VINA RESULT:     -10.9      1.007      7.771
REMARK SMILES O=C(NCCCCCCNC(=O)[C@@H]1CC[C@H](CNC(=O)C2CCOCC2)O1)c1ccc(-c2c3nc(c(-c4cc(S(=O)(=O)[O-])ccc4F)c4ccc([nH]4)c(-c4cc(S(=O)(=O)[O-])ccc4F)c4nc(c(-c5cc(S(=O)(=O)[O-])ccc5F)c5ccc2[nH]5)C=C4)C=C3)cc1
REMARK SMILES IDX 6 1 5 2 4 3 3 4 1 5 2 6 28 8 29 9 90 10 30 11 89 12 31 13
REMARK SMILES IDX 32 14 33 15 83 16 34 17 88 18 82 19 84 20 35 21 87 22 81 23
REMARK SMILES IDX 80 24 36 26 68 27 48 28 67 29 49 30 52 31 66 32 85 33 50 34
REMARK SMILES IDX 51 35 65 37 86 38 53 39 37 40 38 41 46 42 39 43 45 44 47 45
REMARK SMILES IDX 44 46 40 47 41 48 42 49 43 50 69 51 70 52 78 53 71 54 77 55
REMARK SMILES IDX 79 56 76 57 72 58 73 59 74 60 75 61 54 62 55 63 63 64 56 65
REMARK SMILES IDX 62 66 64 67 61 68 57 69 58 70 59 71 60 72 7 73 8 74 9 75
REMARK SMILES IDX 10 76 11 77 12 79 13 80 14 81 27 82 15 83 16 84 17 85 18 86
REMARK SMILES IDX 19 87 20 89 21 90 22 91 26 92 23 93 25 94 24 95
REMARK H PARENT 3 7 84 25 52 36 10 78 18 88
REMARK Flexibility Score: inf
ROOT
ATOM      1  C   UNL A   1      35.639  32.930  28.055  1.00  0.00     0.002 C 
ENDROOT
BRANCH   1   2
ATOM      2  C   UNL A   1      34.816  34.215  27.982  1.00  0.00     0.021 C 
BRANCH   2   3
ATOM      3  C   UNL A   1      33.332  34.051  28.283  1.00  0.00     0.116 C 
BRANCH   3   4
ATOM      4  N   UNL A   1      32.816  35.080  29.171  1.00  0.00    -0.352 N 
ATOM      5  O   UNL A   1      32.529  36.161  31.133  1.00  0.00    -0.269 OA
ATOM      6  C   UNL A   1      33.158  35.333  30.479  1.00  0.00     0.251 C 
ATOM      7  H   UNL A   1      32.131  35.674  28.785  1.00  0.00     0.163 HD
BRANCH   6   8
ATOM      8  C   UNL A   1      34.274  34.583  31.099  1.00  0.00     0.039 A 
ATOM      9  C   UNL A   1      35.554  35.138  31.158  1.00  0.00     0.014 A 
ATOM     10  C   UNL A   1      34.040  33.306  31.621  1.00  0.00     0.014 A 
ATOM     11  C   UNL A   1      36.620  34.368  31.607  1.00  0.00     0.010 A 
ATOM     12  C   UNL A   1      35.101  32.565  32.153  1.00  0.00     0.010 A 
ATOM     13  C   UNL A   1      36.406  33.081  32.127  1.00  0.00    -0.014 A 
BRANCH  13  14
ATOM     14  C   UNL A   1      37.562  32.342  32.700  1.00  0.00     0.031 A 
ATOM     15  C   UNL A   1      38.280  31.278  31.916  1.00  0.00     0.074 A 
ATOM     16  C   UNL A   1      37.996  32.694  33.926  1.00  0.00     0.049 A 
ATOM     17  N   UNL A   1      39.342  30.589  32.249  1.00  0.00    -0.248 NA
ATOM     18  C   UNL A   1      37.735  30.938  30.595  1.00  0.00     0.031 C 
ATOM     19  C   UNL A   1      37.363  33.702  34.782  1.00  0.00     0.029 A 
ATOM     20  N   UNL A   1      39.078  32.277  34.656  1.00  0.00    -0.354 N 
ATOM     21  C   UNL A   1      39.592  29.728  31.185  1.00  0.00     0.074 A 
ATOM     22  C   UNL A   1      38.547  29.962  30.208  1.00  0.00     0.031 C 
ATOM     23  C   UNL A   1      38.099  33.866  35.889  1.00  0.00     0.029 A 
ATOM     24  C   UNL A   1      39.217  32.932  35.858  1.00  0.00     0.049 A 
ATOM     25  H   UNL A   1      39.698  31.575  34.349  1.00  0.00     0.167 HD
ATOM     26  C   UNL A   1      40.604  28.837  31.035  1.00  0.00     0.034 A 
ATOM     27  C   UNL A   1      40.133  32.790  36.835  1.00  0.00     0.034 A 
ATOM     28  C   UNL A   1      41.635  28.614  32.022  1.00  0.00     0.049 A 
ATOM     29  C   UNL A   1      41.236  31.785  36.644  1.00  0.00     0.074 A 
ATOM     30  C   UNL A   1      42.706  27.736  31.970  1.00  0.00     0.029 A 
ATOM     31  N   UNL A   1      41.725  29.271  33.243  1.00  0.00    -0.354 N 
ATOM     32  N   UNL A   1      41.458  30.987  35.625  1.00  0.00    -0.248 NA
ATOM     33  C   UNL A   1      42.214  31.668  37.731  1.00  0.00     0.031 C 
ATOM     34  C   UNL A   1      43.410  27.825  33.178  1.00  0.00     0.029 A 
ATOM     35  C   UNL A   1      42.820  28.805  33.959  1.00  0.00     0.049 A 
ATOM     36  H   UNL A   1      41.103  29.967  33.555  1.00  0.00     0.167 HD
ATOM     37  C   UNL A   1      42.605  30.272  35.950  1.00  0.00     0.074 A 
ATOM     38  C   UNL A   1      43.051  30.768  37.237  1.00  0.00     0.031 C 
ATOM     39  C   UNL A   1      43.231  29.289  35.255  1.00  0.00     0.034 A 
BRANCH  26  40
ATOM     40  C   UNL A   1      40.623  28.009  29.774  1.00  0.00     0.023 A 
ATOM     41  C   UNL A   1      41.573  28.230  28.760  1.00  0.00     0.031 A 
ATOM     42  C   UNL A   1      39.684  26.979  29.582  1.00  0.00     0.131 A 
ATOM     43  C   UNL A   1      41.529  27.469  27.580  1.00  0.00     0.055 A 
ATOM     44  C   UNL A   1      39.687  26.182  28.436  1.00  0.00     0.041 A 
ATOM     45  F   UNL A   1      38.743  26.734  30.508  1.00  0.00    -0.206 F 
ATOM     46  C   UNL A   1      40.608  26.431  27.421  1.00  0.00     0.022 A 
BRANCH  43  47
ATOM     47  S   UNL A   1      42.630  27.923  26.212  1.00  0.00     0.124 S 
ATOM     48  O   UNL A   1      43.911  27.391  26.673  1.00  0.00    -0.237 OA
ATOM     49  O   UNL A   1      42.026  27.235  25.077  1.00  0.00    -0.237 OA
ATOM     50  O   UNL A   1      42.547  29.381  26.174  1.00  0.00    -0.744 OA
ENDBRANCH  43  47
ENDBRANCH  26  40
BRANCH  27  51
ATOM     51  C   UNL A   1      40.026  33.588  38.089  1.00  0.00     0.023 A 
ATOM     52  C   UNL A   1      39.255  33.141  39.173  1.00  0.00     0.031 A 
ATOM     53  C   UNL A   1      40.670  34.832  38.205  1.00  0.00     0.131 A 
ATOM     54  C   UNL A   1      39.112  33.953  40.308  1.00  0.00     0.055 A 
ATOM     55  C   UNL A   1      40.571  35.611  39.358  1.00  0.00     0.041 A 
ATOM     56  F   UNL A   1      41.424  35.304  37.198  1.00  0.00    -0.206 F 
ATOM     57  C   UNL A   1      39.775  35.178  40.414  1.00  0.00     0.022 A 
BRANCH  54  58
ATOM     58  S   UNL A   1      37.966  33.428  41.612  1.00  0.00     0.124 S 
ATOM     59  O   UNL A   1      38.880  33.093  42.698  1.00  0.00    -0.237 OA
ATOM     60  O   UNL A   1      37.155  34.627  41.801  1.00  0.00    -0.237 OA
ATOM     61  O   UNL A   1      37.267  32.293  41.013  1.00  0.00    -0.744 OA
ENDBRANCH  54  58
ENDBRANCH  27  51
BRANCH  39  62
ATOM     62  C   UNL A   1      44.468  28.706  35.889  1.00  0.00     0.023 A 
ATOM     63  C   UNL A   1      44.388  27.635  36.797  1.00  0.00     0.031 A 
ATOM     64  C   UNL A   1      45.732  29.261  35.629  1.00  0.00     0.131 A 
ATOM     65  C   UNL A   1      45.539  27.201  37.470  1.00  0.00     0.055 A 
ATOM     66  C   UNL A   1      46.884  28.785  36.256  1.00  0.00     0.041 A 
ATOM     67  F   UNL A   1      45.865  30.287  34.773  1.00  0.00    -0.206 F 
ATOM     68  C   UNL A   1      46.790  27.761  37.195  1.00  0.00     0.022 A 
BRANCH  65  69
ATOM     69  S   UNL A   1      45.361  25.975  38.793  1.00  0.00     0.124 S 
ATOM     70  O   UNL A   1      44.546  26.694  39.767  1.00  0.00    -0.237 OA
ATOM     71  O   UNL A   1      44.705  24.867  38.106  1.00  0.00    -0.237 OA
ATOM     72  O   UNL A   1      46.739  25.716  39.209  1.00  0.00    -0.744 OA
ENDBRANCH  65  69
ENDBRANCH  39  62
ENDBRANCH  13  14
ENDBRANCH   6   8
ENDBRANCH   3   4
ENDBRANCH   2   3
ENDBRANCH   1   2
BRANCH   1  73
ATOM     73  C   UNL A   1      34.837  31.637  28.234  1.00  0.00     0.002 C 
BRANCH  73  74
ATOM     74  C   UNL A   1      35.382  30.408  27.496  1.00  0.00     0.021 C 
BRANCH  74  75
ATOM     75  C   UNL A   1      34.322  29.424  27.002  1.00  0.00     0.116 C 
BRANCH  75  76
ATOM     76  N   UNL A   1      33.159  30.115  26.472  1.00  0.00    -0.354 N 
ATOM     77  C   UNL A   1      32.199  29.636  25.624  1.00  0.00     0.249 C 
ATOM     78  H   UNL A   1      33.046  31.049  26.762  1.00  0.00     0.163 HD
ATOM     79  O   UNL A   1      31.282  30.387  25.288  1.00  0.00    -0.272 OA
BRANCH  77  80
ATOM     80  C   UNL A   1      32.322  28.191  25.120  1.00  0.00     0.207 C 
ATOM     81  C   UNL A   1      33.141  28.055  23.845  1.00  0.00     0.045 C 
ATOM     82  O   UNL A   1      31.013  27.660  24.834  1.00  0.00    -0.363 OA
ATOM     83  C   UNL A   1      32.463  26.902  23.143  1.00  0.00     0.037 C 
ATOM     84  C   UNL A   1      31.001  27.108  23.508  1.00  0.00     0.138 C 
BRANCH  84  85
ATOM     85  C   UNL A   1      30.265  28.074  22.560  1.00  0.00     0.147 C 
BRANCH  85  86
ATOM     86  N   UNL A   1      28.857  28.193  22.908  1.00  0.00    -0.353 N 
ATOM     87  C   UNL A   1      28.072  29.302  23.003  1.00  0.00     0.223 C 
ATOM     88  H   UNL A   1      28.402  27.342  23.104  1.00  0.00     0.163 HD
ATOM     89  O   UNL A   1      26.944  29.165  23.480  1.00  0.00    -0.275 OA
BRANCH  87  90
ATOM     90  C   UNL A   1      28.562  30.629  22.441  1.00  0.00     0.083 C 
ATOM     91  C   UNL A   1      28.182  31.797  23.356  1.00  0.00     0.042 C 
ATOM     92  C   UNL A   1      27.940  30.822  21.052  1.00  0.00     0.042 C 
ATOM     93  C   UNL A   1      28.496  33.124  22.678  1.00  0.00     0.161 C 
ATOM     94  C   UNL A   1      28.233  32.212  20.509  1.00  0.00     0.161 C 
ATOM     95  O   UNL A   1      27.809  33.214  21.430  1.00  0.00    -0.381 OA
ENDBRANCH  87  90
ENDBRANCH  85  86
ENDBRANCH  84  85
ENDBRANCH  77  80
ENDBRANCH  75  76
ENDBRANCH  74  75
ENDBRANCH  73  74
ENDBRANCH   1  73
TORSDOF 19
ENDMDL
MODEL 3
REMARK VINA RESULT:     -10.7      4.920      6.977
REMARK SMILES O=C(NCCCCCCNC(=O)[C@@H]1CC[C@H](CNC(=O)C2CCOCC2)O1)c1ccc(-c2c3nc(c(-c4cc(S(=O)(=O)[O-])ccc4F)c4ccc([nH]4)c(-c4cc(S(=O)(=O)[O-])ccc4F)c4nc(c(-c5cc(S(=O)(=O)[O-])ccc5F)c5ccc2[nH]5)C=C4)C=C3)cc1
REMARK SMILES IDX 6 1 5 2 4 3 3 4 1 5 2 6 28 8 29 9 90 10 30 11 89 12 31 13
REMARK SMILES IDX 32 14 33 15 83 16 34 17 88 18 82 19 84 20 35 21 87 22 81 23
REMARK SMILES IDX 80 24 36 26 68 27 48 28 67 29 49 30 52 31 66 32 85 33 50 34
REMARK SMILES IDX 51 35 65 37 86 38 53 39 37 40 38 41 46 42 39 43 45 44 47 45
REMARK SMILES IDX 44 46 40 47 41 48 42 49 43 50 69 51 70 52 78 53 71 54 77 55
REMARK SMILES IDX 79 56 76 57 72 58 73 59 74 60 75 61 54 62 55 63 63 64 56 65
REMARK SMILES IDX 62 66 64 67 61 68 57 69 58 70 59 71 60 72 7 73 8 74 9 75
REMARK SMILES IDX 10 76 11 77 12 79 13 80 14 81 27 82 15 83 16 84 17 85 18 86
REMARK SMILES IDX 19 87 20 89 21 90 22 91 26 92 23 93 25 94 24 95
REMARK H PARENT 3 7 84 25 52 36 10 78 18 88
REMARK Flexibility Score: inf
ROOT
ATOM      1  C   UNL A   1      33.416  27.136  25.235  1.00  0.00     0.002 C 
ENDROOT
BRANCH   1   2
ATOM      2  C   UNL A   1      33.479  28.139  26.385  1.00  0.00     0.021 C 
BRANCH   2   3
ATOM      3  C   UNL A   1      34.408  29.324  26.161  1.00  0.00     0.116 C 
BRANCH   3   4
ATOM      4  N   UNL A   1      33.961  30.533  26.835  1.00  0.00    -0.352 N 
ATOM      5  O   UNL A   1      33.933  32.102  28.459  1.00  0.00    -0.269 OA
ATOM      6  C   UNL A   1      34.513  31.156  27.930  1.00  0.00     0.251 C 
ATOM      7  H   UNL A   1      33.157  30.960  26.458  1.00  0.00     0.163 HD
BRANCH   6   8
ATOM      8  C   UNL A   1      35.797  30.665  28.479  1.00  0.00     0.039 A 
ATOM      9  C   UNL A   1      37.010  31.127  27.963  1.00  0.00     0.014 A 
ATOM     10  C   UNL A   1      35.790  29.726  29.515  1.00  0.00     0.014 A 
ATOM     11  C   UNL A   1      38.203  30.553  28.384  1.00  0.00     0.010 A 
ATOM     12  C   UNL A   1      36.998  29.211  29.998  1.00  0.00     0.010 A 
ATOM     13  C   UNL A   1      38.214  29.602  29.418  1.00  0.00    -0.014 A 
BRANCH  13  14
ATOM     14  C   UNL A   1      39.524  29.100  29.910  1.00  0.00     0.031 A 
ATOM     15  C   UNL A   1      40.174  29.675  31.138  1.00  0.00     0.074 A 
ATOM     16  C   UNL A   1      40.093  28.065  29.260  1.00  0.00     0.049 A 
ATOM     17  N   UNL A   1      41.282  29.305  31.731  1.00  0.00    -0.248 NA
ATOM     18  C   UNL A   1      39.503  30.813  31.780  1.00  0.00     0.031 C 
ATOM     19  C   UNL A   1      39.556  27.441  28.047  1.00  0.00     0.029 A 
ATOM     20  N   UNL A   1      41.218  27.334  29.535  1.00  0.00    -0.354 N 
ATOM     21  C   UNL A   1      41.446  30.165  32.812  1.00  0.00     0.074 A 
ATOM     22  C   UNL A   1      40.338  31.099  32.771  1.00  0.00     0.031 C 
ATOM     23  C   UNL A   1      40.318  26.389  27.718  1.00  0.00     0.029 A 
ATOM     24  C   UNL A   1      41.433  26.301  28.653  1.00  0.00     0.049 A 
ATOM     25  H   UNL A   1      41.818  27.529  30.293  1.00  0.00     0.167 HD
ATOM     26  C   UNL A   1      42.424  30.168  33.752  1.00  0.00     0.034 A 
ATOM     27  C   UNL A   1      42.422  25.389  28.591  1.00  0.00     0.034 A 
ATOM     28  C   UNL A   1      43.524  29.232  33.775  1.00  0.00     0.049 A 
ATOM     29  C   UNL A   1      43.498  25.424  29.641  1.00  0.00     0.074 A 
ATOM     30  C   UNL A   1      44.567  29.145  34.683  1.00  0.00     0.029 A 
ATOM     31  N   UNL A   1      43.728  28.219  32.846  1.00  0.00    -0.354 N 
ATOM     32  N   UNL A   1      43.629  26.243  30.660  1.00  0.00    -0.248 NA
ATOM     33  C   UNL A   1      44.551  24.410  29.538  1.00  0.00     0.031 C 
ATOM     34  C   UNL A   1      45.426  28.118  34.273  1.00  0.00     0.029 A 
ATOM     35  C   UNL A   1      44.888  27.518  33.147  1.00  0.00     0.049 A 
ATOM     36  H   UNL A   1      43.135  28.027  32.083  1.00  0.00     0.167 HD
ATOM     37  C   UNL A   1      44.784  25.840  31.320  1.00  0.00     0.074 A 
ATOM     38  C   UNL A   1      45.282  24.678  30.610  1.00  0.00     0.031 C 
ATOM     39  C   UNL A   1      45.386  26.382  32.409  1.00  0.00     0.034 A 
BRANCH  26  40
ATOM     40  C   UNL A   1      42.368  31.240  34.814  1.00  0.00     0.023 A 
ATOM     41  C   UNL A   1      42.934  32.511  34.610  1.00  0.00     0.031 A 
ATOM     42  C   UNL A   1      41.736  30.991  36.045  1.00  0.00     0.131 A 
ATOM     43  C   UNL A   1      42.902  33.466  35.639  1.00  0.00     0.055 A 
ATOM     44  C   UNL A   1      41.649  31.967  37.040  1.00  0.00     0.041 A 
ATOM     45  F   UNL A   1      41.194  29.790  36.303  1.00  0.00    -0.206 F 
ATOM     46  C   UNL A   1      42.243  33.211  36.843  1.00  0.00     0.022 A 
BRANCH  43  47
ATOM     47  S   UNL A   1      43.824  35.013  35.418  1.00  0.00     0.124 S 
ATOM     48  O   UNL A   1      44.445  35.177  36.731  1.00  0.00    -0.237 OA
ATOM     49  O   UNL A   1      44.728  34.689  34.321  1.00  0.00    -0.237 OA
ATOM     50  O   UNL A   1      42.784  35.990  35.102  1.00  0.00    -0.744 OA
ENDBRANCH  43  47
ENDBRANCH  26  40
BRANCH  27  51
ATOM     51  C   UNL A   1      42.462  24.396  27.481  1.00  0.00     0.023 A 
ATOM     52  C   UNL A   1      41.691  23.224  27.524  1.00  0.00     0.031 A 
ATOM     53  C   UNL A   1      43.304  24.592  26.372  1.00  0.00     0.131 A 
ATOM     54  C   UNL A   1      41.812  22.272  26.499  1.00  0.00     0.055 A 
ATOM     55  C   UNL A   1      43.378  23.670  25.328  1.00  0.00     0.041 A 
ATOM     56  F   UNL A   1      44.059  25.699  26.279  1.00  0.00    -0.206 F 
ATOM     57  C   UNL A   1      42.639  22.493  25.396  1.00  0.00     0.022 A 
BRANCH  54  58
ATOM     58  S   UNL A   1      40.940  20.692  26.676  1.00  0.00     0.124 S 
ATOM     59  O   UNL A   1      40.832  20.569  28.126  1.00  0.00    -0.237 OA
ATOM     60  O   UNL A   1      39.695  20.953  25.960  1.00  0.00    -0.237 OA
ATOM     61  O   UNL A   1      41.838  19.735  26.033  1.00  0.00    -0.744 OA
ENDBRANCH  54  58
ENDBRANCH  27  51
BRANCH  39  62
ATOM     62  C   UNL A   1      46.644  25.702  32.885  1.00  0.00     0.023 A 
ATOM     63  C   UNL A   1      47.882  25.935  32.259  1.00  0.00     0.031 A 
ATOM     64  C   UNL A   1      46.597  24.770  33.936  1.00  0.00     0.131 A 
ATOM     65  C   UNL A   1      49.008  25.190  32.637  1.00  0.00     0.055 A 
ATOM     66  C   UNL A   1      47.734  24.075  34.350  1.00  0.00     0.041 A 
ATOM     67  F   UNL A   1      45.441  24.508  34.566  1.00  0.00    -0.206 F 
ATOM     68  C   UNL A   1      48.945  24.271  33.689  1.00  0.00     0.022 A 
BRANCH  65  69
ATOM     69  S   UNL A   1      50.527  25.354  31.662  1.00  0.00     0.124 S 
ATOM     70  O   UNL A   1      51.381  26.127  32.558  1.00  0.00    -0.237 OA
ATOM     71  O   UNL A   1      50.915  23.963  31.453  1.00  0.00    -0.237 OA
ATOM     72  O   UNL A   1      50.088  26.062  30.460  1.00  0.00    -0.744 OA
ENDBRANCH  65  69
ENDBRANCH  39  62
ENDBRANCH  13  14
ENDBRANCH   6   8
ENDBRANCH   3   4
ENDBRANCH   2   3
ENDBRANCH   1   2
BRANCH   1  73
ATOM     73  C   UNL A   1      32.013  26.815  24.709  1.00  0.00     0.002 C 
BRANCH  73  74
ATOM     74  C   UNL A   1      30.902  26.765  25.765  1.00  0.00     0.021 C 
BRANCH  74  75
ATOM     75  C   UNL A   1      30.173  25.427  25.877  1.00  0.00     0.116 C 
BRANCH  75  76
ATOM     76  N   UNL A   1      30.564  24.515  24.816  1.00  0.00    -0.354 N 
ATOM     77  C   UNL A   1      31.427  23.456  24.881  1.00  0.00     0.249 C 
ATOM     78  H   UNL A   1      30.156  24.681  23.936  1.00  0.00     0.163 HD
ATOM     79  O   UNL A   1      31.629  22.798  23.859  1.00  0.00    -0.272 OA
BRANCH  77  80
ATOM     80  C   UNL A   1      32.112  23.151  26.221  1.00  0.00     0.207 C 
ATOM     81  C   UNL A   1      33.496  23.770  26.355  1.00  0.00     0.045 C 
ATOM     82  O   UNL A   1      32.277  21.727  26.372  1.00  0.00    -0.363 OA
ATOM     83  C   UNL A   1      34.230  22.750  27.192  1.00  0.00     0.037 C 
ATOM     84  C   UNL A   1      33.645  21.437  26.698  1.00  0.00     0.138 C 
BRANCH  84  85
ATOM     85  C   UNL A   1      34.359  20.878  25.453  1.00  0.00     0.147 C 
BRANCH  85  86
ATOM     86  N   UNL A   1      33.408  20.417  24.454  1.00  0.00    -0.353 N 
ATOM     87  C   UNL A   1      33.069  19.148  24.091  1.00  0.00     0.223 C 
ATOM     88  H   UNL A   1      32.936  21.130  23.966  1.00  0.00     0.163 HD
ATOM     89  O   UNL A   1      32.355  19.010  23.096  1.00  0.00    -0.275 OA
BRANCH  87  90
ATOM     90  C   UNL A   1      33.491  17.972  24.959  1.00  0.00     0.083 C 
ATOM     91  C   UNL A   1      34.737  17.281  24.396  1.00  0.00     0.042 C 
ATOM     92  C   UNL A   1      32.323  16.981  25.029  1.00  0.00     0.042 C 
ATOM     93  C   UNL A   1      35.017  15.992  25.157  1.00  0.00     0.161 C 
ATOM     94  C   UNL A   1      32.737  15.692  25.723  1.00  0.00     0.161 C 
ATOM     95  O   UNL A   1      33.884  15.125  25.093  1.00  0.00    -0.381 OA
ENDBRANCH  87  90
ENDBRANCH  85  86
ENDBRANCH  84  85
ENDBRANCH  77  80
ENDBRANCH  75  76
ENDBRANCH  74  75
ENDBRANCH  73  74
ENDBRANCH   1  73
TORSDOF 19
ENDMDL
