MODEL 1
REMARK VINA RESULT:     -11.9      0.000      0.000
REMARK SMILES Cc1cc([C@@H](C)NC(=O)N[C@H]2C=C[C@@H](C(=O)NCCCCCCNC(=O)c3ccc(-c4c5nc(c(-c6cc(S(=O)(=O)[O-])ccc6F)c6ccc([nH]6)c(-c6cc(S(=O)(=O)[O-])ccc6F)c6nc(c(-c7cc(S(=O)(=O)[O-])ccc7F)c7ccc4[nH]7)C=C6)C=C5)cc3)C2)c(C)s1
REMARK SMILES IDX 20 1 19 2 18 3 17 4 15 5 16 6 14 8 11 9 12 10 90 11 13 12
REMARK SMILES IDX 10 13 7 14 8 15 9 17 5 19 6 20 4 21 1 22 2 23 3 24 93 25
REMARK SMILES IDX 91 26 92 27 21 28 22 29 23 30 24 31 25 32 26 34 27 35 28 36
REMARK SMILES IDX 89 37 29 38 88 39 30 40 31 41 32 42 82 43 33 44 87 45 81 46
REMARK SMILES IDX 83 47 34 48 86 49 80 50 79 51 35 53 67 54 47 55 66 56 48 57
REMARK SMILES IDX 51 58 65 59 84 60 49 61 50 62 64 64 85 65 52 66 36 67 37 68
REMARK SMILES IDX 45 69 38 70 44 71 46 72 43 73 39 74 40 75 41 76 42 77 68 78
REMARK SMILES IDX 69 79 77 80 70 81 76 82 78 83 75 84 71 85 72 86 73 87 74 88
REMARK SMILES IDX 53 89 54 90 62 91 55 92 61 93 63 94 60 95 56 96 57 97 58 98
REMARK SMILES IDX 59 99
REMARK H PARENT 17 7 7 16 10 18 24 33 83 52 51 63
REMARK Flexibility Score: inf
ROOT
ATOM      1  C   UNL A   1      33.779  28.145  23.959  1.00  0.00     0.002 C 
ENDROOT
BRANCH   1   2
ATOM      2  C   UNL A   1      32.735  28.467  22.886  1.00  0.00     0.021 C 
BRANCH   2   3
ATOM      3  C   UNL A   1      31.840  27.292  22.507  1.00  0.00     0.116 C 
BRANCH   3   4
ATOM      4  N   UNL A   1      30.435  27.602  22.659  1.00  0.00    -0.356 N 
ATOM      5  C   UNL A   1      29.534  27.134  23.562  1.00  0.00     0.227 C 
ATOM      6  O   UNL A   1      28.378  27.567  23.495  1.00  0.00    -0.274 OA
ATOM      7  H   UNL A   1      30.077  28.250  22.009  1.00  0.00     0.163 HD
BRANCH   5   8
ATOM      8  C   UNL A   1      29.886  26.050  24.586  1.00  0.00     0.103 C 
ATOM      9  C   UNL A   1      31.758  24.421  24.747  1.00  0.00     0.107 C 
ATOM     10  C   UNL A   1      31.822  25.496  25.794  1.00  0.00    -0.006 C 
ATOM     11  C   UNL A   1      30.532  24.835  23.928  1.00  0.00     0.047 C 
ATOM     12  C   UNL A   1      30.829  26.389  25.691  1.00  0.00    -0.016 C 
BRANCH   9  13
ATOM     13  N   UNL A   1      32.994  24.436  23.994  1.00  0.00    -0.332 N 
ATOM     14  N   UNL A   1      33.974  22.276  24.130  1.00  0.00    -0.332 N 
ATOM     15  C   UNL A   1      33.951  23.545  23.719  1.00  0.00     0.315 C 
ATOM     16  H   UNL A   1      34.753  21.789  23.775  1.00  0.00     0.165 HD
ATOM     17  O   UNL A   1      34.888  23.927  23.013  1.00  0.00    -0.249 OA
ATOM     18  H   UNL A   1      33.172  25.314  23.585  1.00  0.00     0.165 HD
BRANCH  14  19
ATOM     19  C   UNL A   1      33.142  21.432  24.970  1.00  0.00     0.112 C 
ATOM     20  C   UNL A   1      33.635  21.413  26.412  1.00  0.00     0.036 C 
BRANCH  19  21
ATOM     21  C   UNL A   1      33.034  20.062  24.314  1.00  0.00    -0.012 A 
ATOM     22  C   UNL A   1      33.406  16.296  24.734  1.00  0.00     0.056 C 
ATOM     23  C   UNL A   1      33.184  17.699  24.284  1.00  0.00     0.002 A 
ATOM     24  C   UNL A   1      33.495  18.857  24.957  1.00  0.00     0.021 A 
ATOM     25  S   UNL A   1      32.484  18.044  22.778  1.00  0.00    -0.146 S 
ATOM     26  C   UNL A   1      32.498  19.741  23.068  1.00  0.00     0.007 A 
ATOM     27  C   UNL A   1      31.961  20.622  21.990  1.00  0.00     0.057 C 
ENDBRANCH  19  21
ENDBRANCH  14  19
ENDBRANCH   9  13
ENDBRANCH   5   8
ENDBRANCH   3   4
ENDBRANCH   2   3
ENDBRANCH   1   2
BRANCH   1  28
ATOM     28  C   UNL A   1      33.575  28.870  25.294  1.00  0.00     0.002 C 
BRANCH  28  29
ATOM     29  C   UNL A   1      32.370  29.812  25.344  1.00  0.00     0.021 C 
BRANCH  29  30
ATOM     30  C   UNL A   1      32.026  30.326  26.737  1.00  0.00     0.116 C 
BRANCH  30  31
ATOM     31  N   UNL A   1      31.999  31.779  26.781  1.00  0.00    -0.352 N 
ATOM     32  C   UNL A   1      32.825  32.642  27.454  1.00  0.00     0.251 C 
ATOM     33  H   UNL A   1      31.286  32.204  26.252  1.00  0.00     0.163 HD
ATOM     34  O   UNL A   1      32.506  33.825  27.567  1.00  0.00    -0.269 OA
BRANCH  32  35
ATOM     35  C   UNL A   1      34.079  32.144  28.058  1.00  0.00     0.039 A 
ATOM     36  C   UNL A   1      35.093  33.055  28.363  1.00  0.00     0.014 A 
ATOM     37  C   UNL A   1      34.258  30.781  28.318  1.00  0.00     0.014 A 
ATOM     38  C   UNL A   1      36.261  32.607  28.980  1.00  0.00     0.010 A 
ATOM     39  C   UNL A   1      35.390  30.349  29.005  1.00  0.00     0.010 A 
ATOM     40  C   UNL A   1      36.406  31.257  29.339  1.00  0.00    -0.014 A 
BRANCH  40  41
ATOM     41  C   UNL A   1      37.612  30.785  30.070  1.00  0.00     0.031 A 
ATOM     42  C   UNL A   1      38.563  29.818  29.418  1.00  0.00     0.074 A 
ATOM     43  C   UNL A   1      37.818  31.187  31.339  1.00  0.00     0.049 A 
ATOM     44  N   UNL A   1      39.641  29.260  29.909  1.00  0.00    -0.248 NA
ATOM     45  C   UNL A   1      38.244  29.401  28.045  1.00  0.00     0.031 C 
ATOM     46  C   UNL A   1      36.938  32.085  32.092  1.00  0.00     0.029 A 
ATOM     47  N   UNL A   1      38.823  30.892  32.225  1.00  0.00    -0.354 N 
ATOM     48  C   UNL A   1      40.121  28.418  28.910  1.00  0.00     0.074 A 
ATOM     49  C   UNL A   1      39.181  28.494  27.813  1.00  0.00     0.031 C 
ATOM     50  C   UNL A   1      37.455  32.286  33.313  1.00  0.00     0.029 A 
ATOM     51  C   UNL A   1      38.673  31.495  33.453  1.00  0.00     0.049 A 
ATOM     52  H   UNL A   1      39.581  30.305  32.004  1.00  0.00     0.167 HD
ATOM     53  C   UNL A   1      41.251  27.668  28.906  1.00  0.00     0.034 A 
ATOM     54  C   UNL A   1      39.419  31.407  34.572  1.00  0.00     0.034 A 
ATOM     55  C   UNL A   1      42.177  27.609  30.012  1.00  0.00     0.049 A 
ATOM     56  C   UNL A   1      40.658  30.549  34.552  1.00  0.00     0.074 A 
ATOM     57  C   UNL A   1      43.385  26.939  30.089  1.00  0.00     0.029 A 
ATOM     58  N   UNL A   1      41.990  28.230  31.242  1.00  0.00    -0.354 N 
ATOM     59  N   UNL A   1      41.138  29.814  33.575  1.00  0.00    -0.248 NA
ATOM     60  C   UNL A   1      41.461  30.517  35.779  1.00  0.00     0.031 C 
ATOM     61  C   UNL A   1      43.885  27.082  31.388  1.00  0.00     0.029 A 
ATOM     62  C   UNL A   1      43.039  27.919  32.098  1.00  0.00     0.049 A 
ATOM     63  H   UNL A   1      41.226  28.805  31.473  1.00  0.00     0.167 HD
ATOM     64  C   UNL A   1      42.316  29.255  34.063  1.00  0.00     0.074 A 
ATOM     65  C   UNL A   1      42.481  29.753  35.413  1.00  0.00     0.031 C 
ATOM     66  C   UNL A   1      43.183  28.407  33.451  1.00  0.00     0.034 A 
BRANCH  53  67
ATOM     67  C   UNL A   1      41.523  26.822  27.681  1.00  0.00     0.023 A 
ATOM     68  C   UNL A   1      41.161  25.465  27.619  1.00  0.00     0.031 A 
ATOM     69  C   UNL A   1      42.180  27.377  26.567  1.00  0.00     0.131 A 
ATOM     70  C   UNL A   1      41.528  24.690  26.507  1.00  0.00     0.055 A 
ATOM     71  C   UNL A   1      42.463  26.622  25.427  1.00  0.00     0.041 A 
ATOM     72  F   UNL A   1      42.571  28.660  26.573  1.00  0.00    -0.206 F 
ATOM     73  C   UNL A   1      42.153  25.265  25.399  1.00  0.00     0.022 A 
BRANCH  70  74
ATOM     74  S   UNL A   1      41.321  22.891  26.599  1.00  0.00     0.124 S 
ATOM     75  O   UNL A   1      41.696  22.620  27.986  1.00  0.00    -0.237 OA
ATOM     76  O   UNL A   1      39.911  22.718  26.273  1.00  0.00    -0.237 OA
ATOM     77  O   UNL A   1      42.261  22.386  25.599  1.00  0.00    -0.744 OA
ENDBRANCH  70  74
ENDBRANCH  53  67
BRANCH  54  78
ATOM     78  C   UNL A   1      39.006  32.130  35.811  1.00  0.00     0.023 A 
ATOM     79  C   UNL A   1      38.281  31.486  36.825  1.00  0.00     0.031 A 
ATOM     80  C   UNL A   1      39.308  33.493  35.981  1.00  0.00     0.131 A 
ATOM     81  C   UNL A   1      37.845  32.213  37.944  1.00  0.00     0.055 A 
ATOM     82  C   UNL A   1      38.922  34.199  37.122  1.00  0.00     0.041 A 
ATOM     83  F   UNL A   1      40.001  34.159  35.043  1.00  0.00    -0.206 F 
ATOM     84  C   UNL A   1      38.174  33.562  38.106  1.00  0.00     0.022 A 
BRANCH  81  85
ATOM     85  S   UNL A   1      36.762  31.395  39.147  1.00  0.00     0.124 S 
ATOM     86  O   UNL A   1      36.650  30.055  38.582  1.00  0.00    -0.237 OA
ATOM     87  O   UNL A   1      37.535  31.510  40.379  1.00  0.00    -0.237 OA
ATOM     88  O   UNL A   1      35.540  32.195  39.104  1.00  0.00    -0.744 OA
ENDBRANCH  81  85
ENDBRANCH  54  78
BRANCH  66  89
ATOM     89  C   UNL A   1      44.412  27.999  34.232  1.00  0.00     0.023 A 
ATOM     90  C   UNL A   1      44.459  26.801  34.966  1.00  0.00     0.031 A 
ATOM     91  C   UNL A   1      45.546  28.831  34.252  1.00  0.00     0.131 A 
ATOM     92  C   UNL A   1      45.591  26.501  35.740  1.00  0.00     0.055 A 
ATOM     93  C   UNL A   1      46.696  28.491  34.965  1.00  0.00     0.041 A 
ATOM     94  F   UNL A   1      45.555  29.991  33.574  1.00  0.00    -0.206 F 
ATOM     95  C   UNL A   1      46.717  27.327  35.728  1.00  0.00     0.022 A 
BRANCH  92  96
ATOM     96  S   UNL A   1      45.531  25.069  36.852  1.00  0.00     0.124 S 
ATOM     97  O   UNL A   1      44.238  24.480  36.517  1.00  0.00    -0.237 OA
ATOM     98  O   UNL A   1      46.705  24.305  36.442  1.00  0.00    -0.237 OA
ATOM     99  O   UNL A   1      45.613  25.665  38.184  1.00  0.00    -0.744 OA
ENDBRANCH  92  96
ENDBRANCH  66  89
ENDBRANCH  40  41
ENDBRANCH  32  35
ENDBRANCH  30  31
ENDBRANCH  29  30
ENDBRANCH  28  29
ENDBRANCH   1  28
TORSDOF 19
ENDMDL
MODEL 2
REMARK VINA RESULT:     -11.8      0.782      7.373
REMARK SMILES Cc1cc([C@@H](C)NC(=O)N[C@H]2C=C[C@@H](C(=O)NCCCCCCNC(=O)c3ccc(-c4c5nc(c(-c6cc(S(=O)(=O)[O-])ccc6F)c6ccc([nH]6)c(-c6cc(S(=O)(=O)[O-])ccc6F)c6nc(c(-c7cc(S(=O)(=O)[O-])ccc7F)c7ccc4[nH]7)C=C6)C=C5)cc3)C2)c(C)s1
REMARK SMILES IDX 20 1 19 2 18 3 17 4 15 5 16 6 14 8 11 9 12 10 90 11 13 12
REMARK SMILES IDX 10 13 7 14 8 15 9 17 5 19 6 20 4 21 1 22 2 23 3 24 93 25
REMARK SMILES IDX 91 26 92 27 21 28 22 29 23 30 24 31 25 32 26 34 27 35 28 36
REMARK SMILES IDX 89 37 29 38 88 39 30 40 31 41 32 42 82 43 33 44 87 45 81 46
REMARK SMILES IDX 83 47 34 48 86 49 80 50 79 51 35 53 67 54 47 55 66 56 48 57
REMARK SMILES IDX 51 58 65 59 84 60 49 61 50 62 64 64 85 65 52 66 36 67 37 68
REMARK SMILES IDX 45 69 38 70 44 71 46 72 43 73 39 74 40 75 41 76 42 77 68 78
REMARK SMILES IDX 69 79 77 80 70 81 76 82 78 83 75 84 71 85 72 86 73 87 74 88
REMARK SMILES IDX 53 89 54 90 62 91 55 92 61 93 63 94 60 95 56 96 57 97 58 98
REMARK SMILES IDX 59 99
REMARK H PARENT 17 7 7 16 10 18 24 33 83 52 51 63
REMARK Flexibility Score: inf
ROOT
ATOM      1  C   UNL A   1      33.782  28.063  23.913  1.00  0.00     0.002 C 
ENDROOT
BRANCH   1   2
ATOM      2  C   UNL A   1      32.703  28.458  22.900  1.00  0.00     0.021 C 
BRANCH   2   3
ATOM      3  C   UNL A   1      31.803  27.309  22.460  1.00  0.00     0.116 C 
BRANCH   3   4
ATOM      4  N   UNL A   1      30.399  27.624  22.612  1.00  0.00    -0.356 N 
ATOM      5  C   UNL A   1      29.496  27.155  23.514  1.00  0.00     0.227 C 
ATOM      6  O   UNL A   1      28.341  27.592  23.447  1.00  0.00    -0.274 OA
ATOM      7  H   UNL A   1      30.043  28.274  21.964  1.00  0.00     0.163 HD
BRANCH   5   8
ATOM      8  C   UNL A   1      29.843  26.067  24.535  1.00  0.00     0.103 C 
ATOM      9  C   UNL A   1      31.755  24.490  24.739  1.00  0.00     0.107 C 
ATOM     10  C   UNL A   1      31.752  25.551  25.801  1.00  0.00    -0.006 C 
ATOM     11  C   UNL A   1      30.547  24.881  23.883  1.00  0.00     0.047 C 
ATOM     12  C   UNL A   1      30.737  26.417  25.676  1.00  0.00    -0.016 C 
BRANCH   9  13
ATOM     13  N   UNL A   1      33.016  24.552  24.029  1.00  0.00    -0.332 N 
ATOM     14  N   UNL A   1      34.084  22.438  24.227  1.00  0.00    -0.332 N 
ATOM     15  C   UNL A   1      34.020  23.701  23.799  1.00  0.00     0.315 C 
ATOM     16  H   UNL A   1      34.895  21.982  23.905  1.00  0.00     0.165 HD
ATOM     17  O   UNL A   1      34.963  24.116  23.121  1.00  0.00    -0.249 OA
ATOM     18  H   UNL A   1      33.170  25.431  23.616  1.00  0.00     0.165 HD
BRANCH  14  19
ATOM     19  C   UNL A   1      33.260  21.568  25.046  1.00  0.00     0.112 C 
ATOM     20  C   UNL A   1      33.818  21.431  26.458  1.00  0.00     0.036 C 
BRANCH  19  21
ATOM     21  C   UNL A   1      33.070  20.251  24.306  1.00  0.00    -0.012 A 
ATOM     22  C   UNL A   1      33.395  16.460  24.422  1.00  0.00     0.056 C 
ATOM     23  C   UNL A   1      33.166  17.895  24.094  1.00  0.00     0.002 A 
ATOM     24  C   UNL A   1      33.556  18.995  24.820  1.00  0.00     0.021 A 
ATOM     25  S   UNL A   1      32.353  18.360  22.680  1.00  0.00    -0.146 S 
ATOM     26  C   UNL A   1      32.427  20.030  23.089  1.00  0.00     0.007 A 
ATOM     27  C   UNL A   1      31.820  20.996  22.125  1.00  0.00     0.057 C 
ENDBRANCH  19  21
ENDBRANCH  14  19
ENDBRANCH   9  13
ENDBRANCH   5   8
ENDBRANCH   3   4
ENDBRANCH   2   3
ENDBRANCH   1   2
BRANCH   1  28
ATOM     28  C   UNL A   1      33.758  28.858  25.223  1.00  0.00     0.002 C 
BRANCH  28  29
ATOM     29  C   UNL A   1      32.479  29.661  25.472  1.00  0.00     0.021 C 
BRANCH  29  30
ATOM     30  C   UNL A   1      32.346  30.217  26.885  1.00  0.00     0.116 C 
BRANCH  30  31
ATOM     31  N   UNL A   1      32.450  31.667  26.903  1.00  0.00    -0.352 N 
ATOM     32  C   UNL A   1      33.382  32.463  27.517  1.00  0.00     0.251 C 
ATOM     33  H   UNL A   1      31.750  32.146  26.403  1.00  0.00     0.163 HD
ATOM     34  O   UNL A   1      33.174  33.672  27.623  1.00  0.00    -0.269 OA
BRANCH  32  35
ATOM     35  C   UNL A   1      34.616  31.865  28.067  1.00  0.00     0.039 A 
ATOM     36  C   UNL A   1      35.757  32.662  28.192  1.00  0.00     0.014 A 
ATOM     37  C   UNL A   1      34.653  30.521  28.450  1.00  0.00     0.014 A 
ATOM     38  C   UNL A   1      36.915  32.125  28.757  1.00  0.00     0.010 A 
ATOM     39  C   UNL A   1      35.783  30.011  29.086  1.00  0.00     0.010 A 
ATOM     40  C   UNL A   1      36.928  30.806  29.240  1.00  0.00    -0.014 A 
BRANCH  40  41
ATOM     41  C   UNL A   1      38.131  30.252  29.916  1.00  0.00     0.031 A 
ATOM     42  C   UNL A   1      38.483  30.686  31.314  1.00  0.00     0.074 A 
ATOM     43  C   UNL A   1      38.933  29.399  29.249  1.00  0.00     0.049 A 
ATOM     44  N   UNL A   1      39.512  30.349  32.049  1.00  0.00    -0.248 NA
ATOM     45  C   UNL A   1      37.575  31.647  31.956  1.00  0.00     0.031 C 
ATOM     46  C   UNL A   1      38.718  28.944  27.872  1.00  0.00     0.029 A 
ATOM     47  N   UNL A   1      40.090  28.768  29.628  1.00  0.00    -0.354 N 
ATOM     48  C   UNL A   1      39.382  31.066  33.234  1.00  0.00     0.074 A 
ATOM     49  C   UNL A   1      38.209  31.901  33.091  1.00  0.00     0.031 C 
ATOM     50  C   UNL A   1      39.696  28.089  27.534  1.00  0.00     0.029 A 
ATOM     51  C   UNL A   1      40.635  27.972  28.645  1.00  0.00     0.049 A 
ATOM     52  H   UNL A   1      40.493  28.872  30.520  1.00  0.00     0.167 HD
ATOM     53  C   UNL A   1      40.160  31.017  34.345  1.00  0.00     0.034 A 
ATOM     54  C   UNL A   1      41.770  27.247  28.631  1.00  0.00     0.034 A 
ATOM     55  C   UNL A   1      41.325  30.173  34.468  1.00  0.00     0.049 A 
ATOM     56  C   UNL A   1      42.631  27.224  29.868  1.00  0.00     0.074 A 
ATOM     57  C   UNL A   1      42.144  29.991  35.568  1.00  0.00     0.029 A 
ATOM     58  N   UNL A   1      41.850  29.384  33.450  1.00  0.00    -0.354 N 
ATOM     59  N   UNL A   1      42.456  27.852  31.008  1.00  0.00    -0.248 NA
ATOM     60  C   UNL A   1      43.835  26.387  29.821  1.00  0.00     0.031 C 
ATOM     61  C   UNL A   1      43.208  29.164  35.192  1.00  0.00     0.029 A 
ATOM     62  C   UNL A   1      43.006  28.751  33.885  1.00  0.00     0.049 A 
ATOM     63  H   UNL A   1      41.459  29.289  32.552  1.00  0.00     0.167 HD
ATOM     64  C   UNL A   1      43.516  27.462  31.823  1.00  0.00     0.074 A 
ATOM     65  C   UNL A   1      44.311  26.531  31.049  1.00  0.00     0.031 C 
ATOM     66  C   UNL A   1      43.804  27.838  33.097  1.00  0.00     0.034 A 
BRANCH  53  67
ATOM     67  C   UNL A   1      39.794  31.927  35.496  1.00  0.00     0.023 A 
ATOM     68  C   UNL A   1      38.988  31.490  36.563  1.00  0.00     0.031 A 
ATOM     69  C   UNL A   1      40.237  33.262  35.514  1.00  0.00     0.131 A 
ATOM     70  C   UNL A   1      38.584  32.397  37.555  1.00  0.00     0.055 A 
ATOM     71  C   UNL A   1      39.904  34.135  36.552  1.00  0.00     0.041 A 
ATOM     72  F   UNL A   1      40.990  33.746  34.515  1.00  0.00    -0.206 F 
ATOM     73  C   UNL A   1      39.058  33.710  37.572  1.00  0.00     0.022 A 
BRANCH  70  74
ATOM     74  S   UNL A   1      37.304  31.880  38.732  1.00  0.00     0.124 S 
ATOM     75  O   UNL A   1      37.030  30.514  38.289  1.00  0.00    -0.237 OA
ATOM     76  O   UNL A   1      37.983  32.011  40.015  1.00  0.00    -0.237 OA
ATOM     77  O   UNL A   1      36.219  32.831  38.498  1.00  0.00    -0.744 OA
ENDBRANCH  70  74
ENDBRANCH  53  67
BRANCH  54  78
ATOM     78  C   UNL A   1      42.171  26.501  27.403  1.00  0.00     0.023 A 
ATOM     79  C   UNL A   1      41.955  25.120  27.284  1.00  0.00     0.031 A 
ATOM     80  C   UNL A   1      42.810  27.161  26.337  1.00  0.00     0.131 A 
ATOM     81  C   UNL A   1      42.411  24.435  26.146  1.00  0.00     0.055 A 
ATOM     82  C   UNL A   1      43.210  26.487  25.183  1.00  0.00     0.041 A 
ATOM     83  F   UNL A   1      43.040  28.483  26.397  1.00  0.00    -0.206 F 
ATOM     84  C   UNL A   1      43.023  25.112  25.088  1.00  0.00     0.022 A 
BRANCH  81  85
ATOM     85  S   UNL A   1      42.273  22.626  26.104  1.00  0.00     0.124 S 
ATOM     86  O   UNL A   1      42.955  22.248  27.337  1.00  0.00    -0.237 OA
ATOM     87  O   UNL A   1      40.828  22.433  26.084  1.00  0.00    -0.237 OA
ATOM     88  O   UNL A   1      42.966  22.262  24.870  1.00  0.00    -0.744 OA
ENDBRANCH  81  85
ENDBRANCH  54  78
BRANCH  66  89
ATOM     89  C   UNL A   1      45.016  27.206  33.742  1.00  0.00     0.023 A 
ATOM     90  C   UNL A   1      44.907  26.087  34.587  1.00  0.00     0.031 A 
ATOM     91  C   UNL A   1      46.297  27.742  33.519  1.00  0.00     0.131 A 
ATOM     92  C   UNL A   1      46.049  25.582  35.227  1.00  0.00     0.055 A 
ATOM     93  C   UNL A   1      47.438  27.190  34.101  1.00  0.00     0.041 A 
ATOM     94  F   UNL A   1      46.461  28.814  32.726  1.00  0.00    -0.206 F 
ATOM     95  C   UNL A   1      47.316  26.112  34.974  1.00  0.00     0.022 A 
BRANCH  92  96
ATOM     96  S   UNL A   1      45.843  24.290  36.484  1.00  0.00     0.124 S 
ATOM     97  O   UNL A   1      44.505  24.573  36.993  1.00  0.00    -0.237 OA
ATOM     98  O   UNL A   1      45.980  23.066  35.700  1.00  0.00    -0.237 OA
ATOM     99  O   UNL A   1      46.931  24.547  37.424  1.00  0.00    -0.744 OA
ENDBRANCH  92  96
ENDBRANCH  66  89
ENDBRANCH  40  41
ENDBRANCH  32  35
ENDBRANCH  30  31
ENDBRANCH  29  30
ENDBRANCH  28  29
ENDBRANCH   1  28
TORSDOF 19
ENDMDL
MODEL 3
REMARK VINA RESULT:     -11.8      2.195      7.686
REMARK SMILES Cc1cc([C@@H](C)NC(=O)N[C@H]2C=C[C@@H](C(=O)NCCCCCCNC(=O)c3ccc(-c4c5nc(c(-c6cc(S(=O)(=O)[O-])ccc6F)c6ccc([nH]6)c(-c6cc(S(=O)(=O)[O-])ccc6F)c6nc(c(-c7cc(S(=O)(=O)[O-])ccc7F)c7ccc4[nH]7)C=C6)C=C5)cc3)C2)c(C)s1
REMARK SMILES IDX 20 1 19 2 18 3 17 4 15 5 16 6 14 8 11 9 12 10 90 11 13 12
REMARK SMILES IDX 10 13 7 14 8 15 9 17 5 19 6 20 4 21 1 22 2 23 3 24 93 25
REMARK SMILES IDX 91 26 92 27 21 28 22 29 23 30 24 31 25 32 26 34 27 35 28 36
REMARK SMILES IDX 89 37 29 38 88 39 30 40 31 41 32 42 82 43 33 44 87 45 81 46
REMARK SMILES IDX 83 47 34 48 86 49 80 50 79 51 35 53 67 54 47 55 66 56 48 57
REMARK SMILES IDX 51 58 65 59 84 60 49 61 50 62 64 64 85 65 52 66 36 67 37 68
REMARK SMILES IDX 45 69 38 70 44 71 46 72 43 73 39 74 40 75 41 76 42 77 68 78
REMARK SMILES IDX 69 79 77 80 70 81 76 82 78 83 75 84 71 85 72 86 73 87 74 88
REMARK SMILES IDX 53 89 54 90 62 91 55 92 61 93 63 94 60 95 56 96 57 97 58 98
REMARK SMILES IDX 59 99
REMARK H PARENT 17 7 7 16 10 18 24 33 83 52 51 63
REMARK Flexibility Score: inf
ROOT
ATOM      1  C   UNL A   1      31.604  29.653  24.868  1.00  0.00     0.002 C 
ENDROOT
BRANCH   1   2
ATOM      2  C   UNL A   1      30.402  29.609  23.919  1.00  0.00     0.021 C 
BRANCH   2   3
ATOM      3  C   UNL A   1      30.664  28.882  22.605  1.00  0.00     0.116 C 
BRANCH   3   4
ATOM      4  N   UNL A   1      32.078  28.732  22.334  1.00  0.00    -0.356 N 
ATOM      5  C   UNL A   1      32.872  27.634  22.442  1.00  0.00     0.227 C 
ATOM      6  O   UNL A   1      34.063  27.757  22.135  1.00  0.00    -0.274 OA
ATOM      7  H   UNL A   1      32.534  29.549  22.026  1.00  0.00     0.163 HD
BRANCH   5   8
ATOM      8  C   UNL A   1      32.359  26.302  22.998  1.00  0.00     0.103 C 
ATOM      9  C   UNL A   1      33.420  24.072  23.290  1.00  0.00     0.107 C 
ATOM     10  C   UNL A   1      33.152  24.771  24.592  1.00  0.00    -0.006 C 
ATOM     11  C   UNL A   1      32.962  25.110  22.261  1.00  0.00     0.047 C 
ATOM     12  C   UNL A   1      32.604  25.984  24.434  1.00  0.00    -0.016 C 
BRANCH   9  13
ATOM     13  N   UNL A   1      34.833  23.762  23.215  1.00  0.00    -0.332 N 
ATOM     14  N   UNL A   1      35.216  21.747  24.414  1.00  0.00    -0.332 N 
ATOM     15  C   UNL A   1      35.618  22.788  23.683  1.00  0.00     0.315 C 
ATOM     16  H   UNL A   1      35.957  21.130  24.614  1.00  0.00     0.165 HD
ATOM     17  O   UNL A   1      36.818  22.852  23.404  1.00  0.00    -0.249 OA
ATOM     18  H   UNL A   1      35.335  24.429  22.694  1.00  0.00     0.165 HD
BRANCH  14  19
ATOM     19  C   UNL A   1      33.961  21.294  24.989  1.00  0.00     0.112 C 
ATOM     20  C   UNL A   1      34.052  21.164  26.505  1.00  0.00     0.036 C 
BRANCH  19  21
ATOM     21  C   UNL A   1      33.533  20.025  24.265  1.00  0.00    -0.012 A 
ATOM     22  C   UNL A   1      33.614  16.219  24.199  1.00  0.00     0.056 C 
ATOM     23  C   UNL A   1      33.422  17.678  23.968  1.00  0.00     0.002 A 
ATOM     24  C   UNL A   1      34.027  18.720  24.630  1.00  0.00     0.021 A 
ATOM     25  S   UNL A   1      32.370  18.253  22.768  1.00  0.00    -0.146 S 
ATOM     26  C   UNL A   1      32.641  19.896  23.203  1.00  0.00     0.007 A 
ATOM     27  C   UNL A   1      31.918  20.938  22.414  1.00  0.00     0.057 C 
ENDBRANCH  19  21
ENDBRANCH  14  19
ENDBRANCH   9  13
ENDBRANCH   5   8
ENDBRANCH   3   4
ENDBRANCH   2   3
ENDBRANCH   1   2
BRANCH   1  28
ATOM     28  C   UNL A   1      31.523  28.690  26.057  1.00  0.00     0.002 C 
BRANCH  28  29
ATOM     29  C   UNL A   1      32.477  29.004  27.212  1.00  0.00     0.021 C 
BRANCH  29  30
ATOM     30  C   UNL A   1      33.687  29.846  26.823  1.00  0.00     0.116 C 
BRANCH  30  31
ATOM     31  N   UNL A   1      33.634  31.170  27.421  1.00  0.00    -0.352 N 
ATOM     32  C   UNL A   1      34.448  31.726  28.372  1.00  0.00     0.251 C 
ATOM     33  H   UNL A   1      32.908  31.751  27.095  1.00  0.00     0.163 HD
ATOM     34  O   UNL A   1      34.108  32.769  28.930  1.00  0.00    -0.269 OA
BRANCH  32  35
ATOM     35  C   UNL A   1      35.715  31.060  28.740  1.00  0.00     0.039 A 
ATOM     36  C   UNL A   1      36.923  31.628  28.330  1.00  0.00     0.014 A 
ATOM     37  C   UNL A   1      35.713  29.874  29.482  1.00  0.00     0.014 A 
ATOM     38  C   UNL A   1      38.129  31.039  28.712  1.00  0.00     0.010 A 
ATOM     39  C   UNL A   1      36.916  29.333  29.929  1.00  0.00     0.010 A 
ATOM     40  C   UNL A   1      38.138  29.907  29.544  1.00  0.00    -0.014 A 
BRANCH  40  41
ATOM     41  C   UNL A   1      39.417  29.320  30.023  1.00  0.00     0.031 A 
ATOM     42  C   UNL A   1      40.144  29.934  31.189  1.00  0.00     0.074 A 
ATOM     43  C   UNL A   1      39.949  28.267  29.371  1.00  0.00     0.049 A 
ATOM     44  N   UNL A   1      41.290  29.593  31.722  1.00  0.00    -0.248 NA
ATOM     45  C   UNL A   1      39.513  31.103  31.819  1.00  0.00     0.031 C 
ATOM     46  C   UNL A   1      39.358  27.617  28.198  1.00  0.00     0.029 A 
ATOM     47  N   UNL A   1      41.103  27.560  29.594  1.00  0.00    -0.354 N 
ATOM     48  C   UNL A   1      41.523  30.512  32.740  1.00  0.00     0.074 A 
ATOM     49  C   UNL A   1      40.429  31.459  32.707  1.00  0.00     0.031 C 
ATOM     50  C   UNL A   1      40.141  26.594  27.821  1.00  0.00     0.029 A 
ATOM     51  C   UNL A   1      41.313  26.544  28.689  1.00  0.00     0.049 A 
ATOM     52  H   UNL A   1      41.724  27.760  30.331  1.00  0.00     0.167 HD
ATOM     53  C   UNL A   1      42.545  30.549  33.631  1.00  0.00     0.034 A 
ATOM     54  C   UNL A   1      42.340  25.682  28.560  1.00  0.00     0.034 A 
ATOM     55  C   UNL A   1      43.625  29.590  33.648  1.00  0.00     0.049 A 
ATOM     56  C   UNL A   1      43.477  25.755  29.547  1.00  0.00     0.074 A 
ATOM     57  C   UNL A   1      44.673  29.490  34.547  1.00  0.00     0.029 A 
ATOM     58  N   UNL A   1      43.808  28.577  32.714  1.00  0.00    -0.354 N 
ATOM     59  N   UNL A   1      43.648  26.585  30.550  1.00  0.00    -0.248 NA
ATOM     60  C   UNL A   1      44.553  24.769  29.391  1.00  0.00     0.031 C 
ATOM     61  C   UNL A   1      45.533  28.477  34.108  1.00  0.00     0.029 A 
ATOM     62  C   UNL A   1      44.976  27.879  32.989  1.00  0.00     0.049 A 
ATOM     63  H   UNL A   1      43.198  28.384  31.966  1.00  0.00     0.167 HD
ATOM     64  C   UNL A   1      44.839  26.202  31.161  1.00  0.00     0.074 A 
ATOM     65  C   UNL A   1      45.331  25.055  30.426  1.00  0.00     0.031 C 
ATOM     66  C   UNL A   1      45.467  26.747  32.235  1.00  0.00     0.034 A 
BRANCH  53  67
ATOM     67  C   UNL A   1      42.560  31.682  34.632  1.00  0.00     0.023 A 
ATOM     68  C   UNL A   1      41.796  31.642  35.812  1.00  0.00     0.031 A 
ATOM     69  C   UNL A   1      43.331  32.834  34.390  1.00  0.00     0.131 A 
ATOM     70  C   UNL A   1      41.755  32.759  36.661  1.00  0.00     0.055 A 
ATOM     71  C   UNL A   1      43.355  33.906  35.284  1.00  0.00     0.041 A 
ATOM     72  F   UNL A   1      44.064  32.943  33.273  1.00  0.00    -0.206 F 
ATOM     73  C   UNL A   1      42.550  33.881  36.419  1.00  0.00     0.022 A 
BRANCH  70  74
ATOM     74  S   UNL A   1      40.528  32.788  37.996  1.00  0.00     0.124 S 
ATOM     75  O   UNL A   1      39.474  31.935  37.449  1.00  0.00    -0.237 OA
ATOM     76  O   UNL A   1      41.273  32.240  39.123  1.00  0.00    -0.237 OA
ATOM     77  O   UNL A   1      40.176  34.203  38.108  1.00  0.00    -0.744 OA
ENDBRANCH  70  74
ENDBRANCH  53  67
BRANCH  54  78
ATOM     78  C   UNL A   1      42.355  24.691  27.443  1.00  0.00     0.023 A 
ATOM     79  C   UNL A   1      41.689  23.461  27.551  1.00  0.00     0.031 A 
ATOM     80  C   UNL A   1      43.068  24.953  26.259  1.00  0.00     0.131 A 
ATOM     81  C   UNL A   1      41.784  22.521  26.512  1.00  0.00     0.055 A 
ATOM     82  C   UNL A   1      43.112  24.038  25.206  1.00  0.00     0.041 A 
ATOM     83  F   UNL A   1      43.722  26.115  26.102  1.00  0.00    -0.206 F 
ATOM     84  C   UNL A   1      42.478  22.808  25.334  1.00  0.00     0.022 A 
BRANCH  81  85
ATOM     85  S   UNL A   1      41.059  20.876  26.758  1.00  0.00     0.124 S 
ATOM     86  O   UNL A   1      39.884  20.937  25.895  1.00  0.00    -0.237 OA
ATOM     87  O   UNL A   1      42.137  20.000  26.313  1.00  0.00    -0.237 OA
ATOM     88  O   UNL A   1      40.780  20.838  28.191  1.00  0.00    -0.744 OA
ENDBRANCH  81  85
ENDBRANCH  54  78
BRANCH  66  89
ATOM     89  C   UNL A   1      46.741  26.077  32.699  1.00  0.00     0.023 A 
ATOM     90  C   UNL A   1      46.726  24.994  33.596  1.00  0.00     0.031 A 
ATOM     91  C   UNL A   1      47.989  26.542  32.247  1.00  0.00     0.131 A 
ATOM     92  C   UNL A   1      47.935  24.455  34.060  1.00  0.00     0.055 A 
ATOM     93  C   UNL A   1      49.187  25.954  32.656  1.00  0.00     0.041 A 
ATOM     94  F   UNL A   1      48.066  27.578  31.395  1.00  0.00    -0.206 F 
ATOM     95  C   UNL A   1      49.165  24.913  33.581  1.00  0.00     0.022 A 
BRANCH  92  96
ATOM     96  S   UNL A   1      47.885  23.217  35.385  1.00  0.00     0.124 S 
ATOM     97  O   UNL A   1      48.969  23.661  36.255  1.00  0.00    -0.237 OA
ATOM     98  O   UNL A   1      46.535  23.382  35.915  1.00  0.00    -0.237 OA
ATOM     99  O   UNL A   1      48.127  21.956  34.687  1.00  0.00    -0.744 OA
ENDBRANCH  92  96
ENDBRANCH  66  89
ENDBRANCH  40  41
ENDBRANCH  32  35
ENDBRANCH  30  31
ENDBRANCH  29  30
ENDBRANCH  28  29
ENDBRANCH   1  28
TORSDOF 19
ENDMDL
