MODEL 1
REMARK VINA RESULT:     -10.2      0.000      0.000
REMARK SMILES C=CC[N@@H+](CC(=O)NCCCCCCNC(=O)c1ccc(-c2c3nc(c(-c4cc(S(=O)(=O)[O-])ccc4F)c4ccc([nH]4)c(-c4cc(S(=O)(=O)[O-])ccc4F)c4nc(c(-c5cc(S(=O)(=O)[O-])ccc5F)c5ccc2[nH]5)C=C4)C=C3)cc1)CC(=O)Nc1cc(C)on1
REMARK SMILES IDX 11 1 10 2 9 3 8 4 6 5 7 6 5 8 4 9 3 11 2 12 1 13 81 14 82 15
REMARK SMILES IDX 83 16 84 17 85 19 86 20 90 21 87 22 89 23 88 24 12 25 13 26
REMARK SMILES IDX 14 27 15 28 16 29 17 31 18 32 19 33 80 34 20 35 79 36 21 37
REMARK SMILES IDX 22 38 23 39 73 40 24 41 78 42 72 43 74 44 25 45 77 46 71 47
REMARK SMILES IDX 70 48 26 50 58 51 38 52 57 53 39 54 42 55 56 56 75 57 40 58
REMARK SMILES IDX 41 59 55 61 76 62 43 63 27 64 28 65 36 66 29 67 35 68 37 69
REMARK SMILES IDX 34 70 30 71 31 72 32 73 33 74 59 75 60 76 68 77 61 78 67 79
REMARK SMILES IDX 69 80 66 81 62 82 63 83 64 84 65 85 44 86 45 87 53 88 46 89
REMARK SMILES IDX 52 90 54 91 51 92 47 93 48 94 49 95 50 96
REMARK H PARENT 8 7 4 10 84 18 15 30 74 49 42 60
REMARK Flexibility Score: inf
ROOT
ATOM      1  C   UNL A   1      31.592  29.298  26.801  1.00  0.00     0.002 C 
ENDROOT
BRANCH   1   2
ATOM      2  C   UNL A   1      31.706  28.007  27.617  1.00  0.00     0.021 C 
BRANCH   2   3
ATOM      3  C   UNL A   1      32.221  26.785  26.850  1.00  0.00     0.116 C 
BRANCH   3   4
ATOM      4  N   UNL A   1      31.105  26.007  26.393  1.00  0.00    -0.351 N 
ATOM      5  C   UNL A   1      31.072  25.133  25.356  1.00  0.00     0.275 C 
ATOM      6  O   UNL A   1      29.987  25.094  24.773  1.00  0.00    -0.269 OA
ATOM      7  H   UNL A   1      30.263  26.123  26.890  1.00  0.00     0.163 HD
BRANCH   5   8
ATOM      8  C   UNL A   1      32.256  24.175  25.062  1.00  0.00     0.364 C 
BRANCH   8   9
ATOM      9  N   UNL A   1      33.355  24.642  24.183  1.00  0.00    -0.316 N 
ATOM     10  H   UNL A   1      33.261  24.069  23.344  1.00  0.00     0.349 HD
BRANCH   9  11
ATOM     11  C   UNL A   1      34.655  24.341  24.741  1.00  0.00     0.291 C 
BRANCH  11  12
ATOM     12  C   UNL A   1      35.368  23.094  24.329  1.00  0.00     0.025 C 
ATOM     13  C   UNL A   1      36.253  23.108  23.320  1.00  0.00     0.010 C 
ENDBRANCH  11  12
ENDBRANCH   9  11
BRANCH   9  14
ATOM     14  C   UNL A   1      33.213  25.974  23.549  1.00  0.00     0.364 C 
BRANCH  14  15
ATOM     15  C   UNL A   1      32.843  25.961  22.059  1.00  0.00     0.280 C 
ATOM     16  O   UNL A   1      33.476  25.265  21.257  1.00  0.00    -0.268 OA
ATOM     17  N   UNL A   1      31.889  26.827  21.571  1.00  0.00    -0.303 N 
ATOM     18  H   UNL A   1      31.684  26.784  20.609  1.00  0.00     0.171 HD
BRANCH  17  19
ATOM     19  C   UNL A   1      31.200  27.750  22.331  1.00  0.00     0.176 A 
ATOM     20  C   UNL A   1      29.845  27.608  22.726  1.00  0.00     0.095 A 
ATOM     21  N   UNL A   1      31.669  28.952  22.678  1.00  0.00    -0.062 NA
ATOM     22  C   UNL A   1      29.462  28.895  23.013  1.00  0.00     0.135 A 
ATOM     23  O   UNL A   1      30.569  29.677  23.096  1.00  0.00    -0.360 OA
ATOM     24  C   UNL A   1      28.161  29.584  23.069  1.00  0.00     0.091 C 
ENDBRANCH  17  19
ENDBRANCH  14  15
ENDBRANCH   9  14
ENDBRANCH   8   9
ENDBRANCH   5   8
ENDBRANCH   3   4
ENDBRANCH   2   3
ENDBRANCH   1   2
BRANCH   1  25
ATOM     25  C   UNL A   1      32.669  30.337  27.080  1.00  0.00     0.002 C 
BRANCH  25  26
ATOM     26  C   UNL A   1      32.155  31.772  27.140  1.00  0.00     0.021 C 
BRANCH  26  27
ATOM     27  C   UNL A   1      33.249  32.825  27.085  1.00  0.00     0.116 C 
BRANCH  27  28
ATOM     28  N   UNL A   1      32.831  34.060  27.718  1.00  0.00    -0.352 N 
ATOM     29  C   UNL A   1      33.256  34.562  28.924  1.00  0.00     0.251 C 
ATOM     30  H   UNL A   1      32.168  34.599  27.228  1.00  0.00     0.163 HD
ATOM     31  O   UNL A   1      32.654  35.470  29.472  1.00  0.00    -0.269 OA
BRANCH  29  32
ATOM     32  C   UNL A   1      34.446  33.941  29.541  1.00  0.00     0.039 A 
ATOM     33  C   UNL A   1      35.712  34.435  29.230  1.00  0.00     0.014 A 
ATOM     34  C   UNL A   1      34.285  32.927  30.492  1.00  0.00     0.014 A 
ATOM     35  C   UNL A   1      36.824  33.931  29.905  1.00  0.00     0.010 A 
ATOM     36  C   UNL A   1      35.381  32.496  31.226  1.00  0.00     0.010 A 
ATOM     37  C   UNL A   1      36.665  32.977  30.924  1.00  0.00    -0.014 A 
BRANCH  37  38
ATOM     38  C   UNL A   1      37.831  32.408  31.646  1.00  0.00     0.031 A 
ATOM     39  C   UNL A   1      38.621  31.301  31.001  1.00  0.00     0.074 A 
ATOM     40  C   UNL A   1      38.141  32.837  32.885  1.00  0.00     0.049 A 
ATOM     41  N   UNL A   1      39.593  30.580  31.494  1.00  0.00    -0.248 NA
ATOM     42  C   UNL A   1      38.234  30.932  29.630  1.00  0.00     0.031 C 
ATOM     43  C   UNL A   1      37.435  33.889  33.620  1.00  0.00     0.029 A 
ATOM     44  N   UNL A   1      39.125  32.433  33.752  1.00  0.00    -0.354 N 
ATOM     45  C   UNL A   1      39.920  29.662  30.501  1.00  0.00     0.074 A 
ATOM     46  C   UNL A   1      38.992  29.871  29.411  1.00  0.00     0.031 C 
ATOM     47  C   UNL A   1      38.025  34.063  34.814  1.00  0.00     0.029 A 
ATOM     48  C   UNL A   1      39.113  33.100  34.956  1.00  0.00     0.049 A 
ATOM     49  H   UNL A   1      39.780  31.729  33.534  1.00  0.00     0.167 HD
ATOM     50  C   UNL A   1      40.920  28.747  30.489  1.00  0.00     0.034 A 
ATOM     51  C   UNL A   1      39.881  32.939  36.053  1.00  0.00     0.034 A 
ATOM     52  C   UNL A   1      41.845  28.567  31.578  1.00  0.00     0.049 A 
ATOM     53  C   UNL A   1      40.962  31.885  36.033  1.00  0.00     0.074 A 
ATOM     54  C   UNL A   1      42.922  27.703  31.660  1.00  0.00     0.029 A 
ATOM     55  N   UNL A   1      41.801  29.261  32.782  1.00  0.00    -0.354 N 
ATOM     56  N   UNL A   1      41.281  31.044  35.076  1.00  0.00    -0.248 NA
ATOM     57  C   UNL A   1      41.794  31.765  37.238  1.00  0.00     0.031 C 
ATOM     58  C   UNL A   1      43.480  27.818  32.937  1.00  0.00     0.029 A 
ATOM     59  C   UNL A   1      42.812  28.822  33.621  1.00  0.00     0.049 A 
ATOM     60  H   UNL A   1      41.147  29.962  33.005  1.00  0.00     0.167 HD
ATOM     61  C   UNL A   1      42.378  30.328  35.547  1.00  0.00     0.074 A 
ATOM     62  C   UNL A   1      42.667  30.838  36.872  1.00  0.00     0.031 C 
ATOM     63  C   UNL A   1      43.089  29.345  34.939  1.00  0.00     0.034 A 
BRANCH  50  64
ATOM     64  C   UNL A   1      41.038  27.861  29.270  1.00  0.00     0.023 A 
ATOM     65  C   UNL A   1      42.034  28.065  28.300  1.00  0.00     0.031 A 
ATOM     66  C   UNL A   1      40.118  26.819  29.056  1.00  0.00     0.131 A 
ATOM     67  C   UNL A   1      42.037  27.300  27.125  1.00  0.00     0.055 A 
ATOM     68  C   UNL A   1      40.183  26.000  27.927  1.00  0.00     0.041 A 
ATOM     69  F   UNL A   1      39.128  26.589  29.933  1.00  0.00    -0.206 F 
ATOM     70  C   UNL A   1      41.136  26.249  26.945  1.00  0.00     0.022 A 
BRANCH  67  71
ATOM     71  S   UNL A   1      43.130  27.803  25.768  1.00  0.00     0.124 S 
ATOM     72  O   UNL A   1      43.896  28.880  26.391  1.00  0.00    -0.237 OA
ATOM     73  O   UNL A   1      43.867  26.577  25.484  1.00  0.00    -0.237 OA
ATOM     74  O   UNL A   1      42.204  28.232  24.722  1.00  0.00    -0.744 OA
ENDBRANCH  67  71
ENDBRANCH  50  64
BRANCH  51  75
ATOM     75  C   UNL A   1      39.656  33.778  37.266  1.00  0.00     0.023 A 
ATOM     76  C   UNL A   1      38.962  33.272  38.377  1.00  0.00     0.031 A 
ATOM     77  C   UNL A   1      40.085  35.117  37.313  1.00  0.00     0.131 A 
ATOM     78  C   UNL A   1      38.671  34.112  39.464  1.00  0.00     0.055 A 
ATOM     79  C   UNL A   1      39.846  35.931  38.423  1.00  0.00     0.041 A 
ATOM     80  F   UNL A   1      40.754  35.654  36.281  1.00  0.00    -0.206 F 
ATOM     81  C   UNL A   1      39.121  35.433  39.501  1.00  0.00     0.022 A 
BRANCH  78  82
ATOM     82  S   UNL A   1      37.606  33.478  40.788  1.00  0.00     0.124 S 
ATOM     83  O   UNL A   1      36.520  32.869  40.027  1.00  0.00    -0.237 OA
ATOM     84  O   UNL A   1      38.499  32.558  41.482  1.00  0.00    -0.237 OA
ATOM     85  O   UNL A   1      37.246  34.680  41.537  1.00  0.00    -0.744 OA
ENDBRANCH  78  82
ENDBRANCH  51  75
BRANCH  63  86
ATOM     86  C   UNL A   1      44.294  28.805  35.670  1.00  0.00     0.023 A 
ATOM     87  C   UNL A   1      44.194  27.772  36.618  1.00  0.00     0.031 A 
ATOM     88  C   UNL A   1      45.570  29.329  35.395  1.00  0.00     0.131 A 
ATOM     89  C   UNL A   1      45.342  27.332  37.292  1.00  0.00     0.055 A 
ATOM     90  C   UNL A   1      46.718  28.841  36.021  1.00  0.00     0.041 A 
ATOM     91  F   UNL A   1      45.725  30.319  34.500  1.00  0.00    -0.206 F 
ATOM     92  C   UNL A   1      46.605  27.844  36.985  1.00  0.00     0.022 A 
BRANCH  89  93
ATOM     93  S   UNL A   1      45.156  26.135  38.642  1.00  0.00     0.124 S 
ATOM     94  O   UNL A   1      46.432  26.262  39.338  1.00  0.00    -0.237 OA
ATOM     95  O   UNL A   1      43.988  26.645  39.354  1.00  0.00    -0.237 OA
ATOM     96  O   UNL A   1      44.952  24.863  37.950  1.00  0.00    -0.744 OA
ENDBRANCH  89  93
ENDBRANCH  63  86
ENDBRANCH  37  38
ENDBRANCH  29  32
ENDBRANCH  27  28
ENDBRANCH  26  27
ENDBRANCH  25  26
ENDBRANCH   1  25
TORSDOF 22
ENDMDL
MODEL 2
REMARK VINA RESULT:      -9.6      2.040      8.338
REMARK SMILES C=CC[N@@H+](CC(=O)NCCCCCCNC(=O)c1ccc(-c2c3nc(c(-c4cc(S(=O)(=O)[O-])ccc4F)c4ccc([nH]4)c(-c4cc(S(=O)(=O)[O-])ccc4F)c4nc(c(-c5cc(S(=O)(=O)[O-])ccc5F)c5ccc2[nH]5)C=C4)C=C3)cc1)CC(=O)Nc1cc(C)on1
REMARK SMILES IDX 11 1 10 2 9 3 8 4 6 5 7 6 5 8 4 9 3 11 2 12 1 13 81 14 82 15
REMARK SMILES IDX 83 16 84 17 85 19 86 20 90 21 87 22 89 23 88 24 12 25 13 26
REMARK SMILES IDX 14 27 15 28 16 29 17 31 18 32 19 33 80 34 20 35 79 36 21 37
REMARK SMILES IDX 22 38 23 39 73 40 24 41 78 42 72 43 74 44 25 45 77 46 71 47
REMARK SMILES IDX 70 48 26 50 58 51 38 52 57 53 39 54 42 55 56 56 75 57 40 58
REMARK SMILES IDX 41 59 55 61 76 62 43 63 27 64 28 65 36 66 29 67 35 68 37 69
REMARK SMILES IDX 34 70 30 71 31 72 32 73 33 74 59 75 60 76 68 77 61 78 67 79
REMARK SMILES IDX 69 80 66 81 62 82 63 83 64 84 65 85 44 86 45 87 53 88 46 89
REMARK SMILES IDX 52 90 54 91 51 92 47 93 48 94 49 95 50 96
REMARK H PARENT 8 7 4 10 84 18 15 30 74 49 42 60
REMARK Flexibility Score: inf
ROOT
ATOM      1  C   UNL A   1      34.510  30.381  27.030  1.00  0.00     0.002 C 
ENDROOT
BRANCH   1   2
ATOM      2  C   UNL A   1      33.911  28.974  27.111  1.00  0.00     0.021 C 
BRANCH   2   3
ATOM      3  C   UNL A   1      33.145  28.510  25.869  1.00  0.00     0.116 C 
BRANCH   3   4
ATOM      4  N   UNL A   1      33.750  29.081  24.699  1.00  0.00    -0.351 N 
ATOM      5  C   UNL A   1      33.495  28.777  23.402  1.00  0.00     0.275 C 
ATOM      6  O   UNL A   1      34.480  28.868  22.666  1.00  0.00    -0.269 OA
ATOM      7  H   UNL A   1      34.432  29.773  24.856  1.00  0.00     0.163 HD
BRANCH   5   8
ATOM      8  C   UNL A   1      32.053  28.500  22.900  1.00  0.00     0.364 C 
BRANCH   8   9
ATOM      9  N   UNL A   1      31.653  27.103  22.603  1.00  0.00    -0.316 N 
ATOM     10  H   UNL A   1      31.564  27.083  21.587  1.00  0.00     0.349 HD
BRANCH   9  11
ATOM     11  C   UNL A   1      30.345  26.794  23.136  1.00  0.00     0.291 C 
BRANCH  11  12
ATOM     12  C   UNL A   1      30.203  25.746  24.192  1.00  0.00     0.025 C 
ATOM     13  C   UNL A   1      30.258  26.069  25.494  1.00  0.00     0.010 C 
ENDBRANCH  11  12
ENDBRANCH   9  11
BRANCH   9  14
ATOM     14  C   UNL A   1      32.680  26.045  22.749  1.00  0.00     0.364 C 
BRANCH  14  15
ATOM     15  C   UNL A   1      32.929  25.187  21.501  1.00  0.00     0.280 C 
ATOM     16  O   UNL A   1      32.962  25.703  20.377  1.00  0.00    -0.268 OA
ATOM     17  N   UNL A   1      32.983  23.814  21.598  1.00  0.00    -0.303 N 
ATOM     18  H   UNL A   1      33.143  23.305  20.772  1.00  0.00     0.171 HD
BRANCH  17  19
ATOM     19  C   UNL A   1      32.827  23.101  22.769  1.00  0.00     0.176 A 
ATOM     20  C   UNL A   1      33.898  22.708  23.613  1.00  0.00     0.095 A 
ATOM     21  N   UNL A   1      31.675  22.572  23.191  1.00  0.00    -0.062 NA
ATOM     22  C   UNL A   1      33.366  21.669  24.336  1.00  0.00     0.135 A 
ATOM     23  O   UNL A   1      32.018  21.660  24.171  1.00  0.00    -0.360 OA
ATOM     24  C   UNL A   1      33.949  20.528  25.063  1.00  0.00     0.091 C 
ENDBRANCH  17  19
ENDBRANCH  14  15
ENDBRANCH   9  14
ENDBRANCH   8   9
ENDBRANCH   5   8
ENDBRANCH   3   4
ENDBRANCH   2   3
ENDBRANCH   1   2
BRANCH   1  25
ATOM     25  C   UNL A   1      34.111  31.320  28.160  1.00  0.00     0.002 C 
BRANCH  25  26
ATOM     26  C   UNL A   1      33.159  32.436  27.741  1.00  0.00     0.021 C 
BRANCH  26  27
ATOM     27  C   UNL A   1      33.783  33.821  27.754  1.00  0.00     0.116 C 
BRANCH  27  28
ATOM     28  N   UNL A   1      33.250  34.634  28.828  1.00  0.00    -0.352 N 
ATOM     29  C   UNL A   1      33.569  34.563  30.163  1.00  0.00     0.251 C 
ATOM     30  H   UNL A   1      32.585  35.314  28.573  1.00  0.00     0.163 HD
ATOM     31  O   UNL A   1      32.878  35.116  31.003  1.00  0.00    -0.269 OA
BRANCH  29  32
ATOM     32  C   UNL A   1      34.757  33.770  30.540  1.00  0.00     0.039 A 
ATOM     33  C   UNL A   1      36.019  34.190  30.121  1.00  0.00     0.014 A 
ATOM     34  C   UNL A   1      34.613  32.661  31.380  1.00  0.00     0.014 A 
ATOM     35  C   UNL A   1      37.149  33.512  30.578  1.00  0.00     0.010 A 
ATOM     36  C   UNL A   1      35.742  32.049  31.907  1.00  0.00     0.010 A 
ATOM     37  C   UNL A   1      37.020  32.453  31.493  1.00  0.00    -0.014 A 
BRANCH  37  38
ATOM     38  C   UNL A   1      38.203  31.700  31.982  1.00  0.00     0.031 A 
ATOM     39  C   UNL A   1      38.800  32.064  33.315  1.00  0.00     0.074 A 
ATOM     40  C   UNL A   1      38.768  30.746  31.217  1.00  0.00     0.049 A 
ATOM     41  N   UNL A   1      39.895  31.627  33.881  1.00  0.00    -0.248 NA
ATOM     42  C   UNL A   1      38.087  33.086  34.097  1.00  0.00     0.031 C 
ATOM     43  C   UNL A   1      38.291  30.322  29.899  1.00  0.00     0.029 A 
ATOM     44  N   UNL A   1      39.877  29.966  31.433  1.00  0.00    -0.354 N 
ATOM     45  C   UNL A   1      40.009  32.335  35.073  1.00  0.00     0.074 A 
ATOM     46  C   UNL A   1      38.915  33.280  35.110  1.00  0.00     0.031 C 
ATOM     47  C   UNL A   1      39.086  29.344  29.437  1.00  0.00     0.029 A 
ATOM     48  C   UNL A   1      40.162  29.107  30.395  1.00  0.00     0.049 A 
ATOM     49  H   UNL A   1      40.419  30.016  32.254  1.00  0.00     0.167 HD
ATOM     50  C   UNL A   1      40.928  32.191  36.059  1.00  0.00     0.034 A 
ATOM     51  C   UNL A   1      41.184  28.242  30.232  1.00  0.00     0.034 A 
ATOM     52  C   UNL A   1      42.001  31.230  36.011  1.00  0.00     0.049 A 
ATOM     53  C   UNL A   1      42.219  28.128  31.324  1.00  0.00     0.074 A 
ATOM     54  C   UNL A   1      42.964  30.966  36.968  1.00  0.00     0.029 A 
ATOM     55  N   UNL A   1      42.258  30.378  34.943  1.00  0.00    -0.354 N 
ATOM     56  N   UNL A   1      42.299  28.781  32.461  1.00  0.00    -0.248 NA
ATOM     57  C   UNL A   1      43.297  27.152  31.117  1.00  0.00     0.031 C 
ATOM     58  C   UNL A   1      43.846  30.012  36.450  1.00  0.00     0.029 A 
ATOM     59  C   UNL A   1      43.381  29.611  35.207  1.00  0.00     0.049 A 
ATOM     60  H   UNL A   1      41.721  30.328  34.120  1.00  0.00     0.167 HD
ATOM     61  C   UNL A   1      43.409  28.262  33.122  1.00  0.00     0.074 A 
ATOM     62  C   UNL A   1      43.965  27.241  32.258  1.00  0.00     0.031 C 
ATOM     63  C   UNL A   1      43.919  28.592  34.336  1.00  0.00     0.034 A 
BRANCH  50  64
ATOM     64  C   UNL A   1      40.820  33.113  37.251  1.00  0.00     0.023 A 
ATOM     65  C   UNL A   1      40.184  32.714  38.440  1.00  0.00     0.031 A 
ATOM     66  C   UNL A   1      41.327  34.423  37.187  1.00  0.00     0.131 A 
ATOM     67  C   UNL A   1      39.997  33.637  39.479  1.00  0.00     0.055 A 
ATOM     68  C   UNL A   1      41.219  35.308  38.261  1.00  0.00     0.041 A 
ATOM     69  F   UNL A   1      41.923  34.872  36.071  1.00  0.00    -0.206 F 
ATOM     70  C   UNL A   1      40.536  34.923  39.410  1.00  0.00     0.022 A 
BRANCH  67  71
ATOM     71  S   UNL A   1      38.901  33.184  40.851  1.00  0.00     0.124 S 
ATOM     72  O   UNL A   1      38.546  31.810  40.502  1.00  0.00    -0.237 OA
ATOM     73  O   UNL A   1      39.767  33.343  42.014  1.00  0.00    -0.237 OA
ATOM     74  O   UNL A   1      37.807  34.147  40.750  1.00  0.00    -0.744 OA
ENDBRANCH  67  71
ENDBRANCH  50  64
BRANCH  51  75
ATOM     75  C   UNL A   1      41.293  27.426  28.988  1.00  0.00     0.023 A 
ATOM     76  C   UNL A   1      42.271  27.709  28.020  1.00  0.00     0.031 A 
ATOM     77  C   UNL A   1      40.389  26.381  28.722  1.00  0.00     0.131 A 
ATOM     78  C   UNL A   1      42.288  26.995  26.812  1.00  0.00     0.055 A 
ATOM     79  C   UNL A   1      40.450  25.633  27.545  1.00  0.00     0.041 A 
ATOM     80  F   UNL A   1      39.436  26.064  29.612  1.00  0.00    -0.206 F 
ATOM     81  C   UNL A   1      41.395  25.949  26.574  1.00  0.00     0.022 A 
BRANCH  78  82
ATOM     82  S   UNL A   1      43.437  27.523  25.510  1.00  0.00     0.124 S 
ATOM     83  O   UNL A   1      44.098  28.658  26.142  1.00  0.00    -0.237 OA
ATOM     84  O   UNL A   1      44.250  26.328  25.322  1.00  0.00    -0.237 OA
ATOM     85  O   UNL A   1      42.553  27.856  24.394  1.00  0.00    -0.744 OA
ENDBRANCH  78  82
ENDBRANCH  51  75
BRANCH  63  86
ATOM     86  C   UNL A   1      45.097  27.792  34.835  1.00  0.00     0.023 A 
ATOM     87  C   UNL A   1      46.425  28.193  34.609  1.00  0.00     0.031 A 
ATOM     88  C   UNL A   1      44.879  26.610  35.566  1.00  0.00     0.131 A 
ATOM     89  C   UNL A   1      47.482  27.393  35.067  1.00  0.00     0.055 A 
ATOM     90  C   UNL A   1      45.934  25.853  36.076  1.00  0.00     0.041 A 
ATOM     91  F   UNL A   1      43.631  26.177  35.810  1.00  0.00    -0.206 F 
ATOM     92  C   UNL A   1      47.246  26.238  35.817  1.00  0.00     0.022 A 
BRANCH  89  93
ATOM     93  S   UNL A   1      49.178  27.835  34.598  1.00  0.00     0.124 S 
ATOM     94  O   UNL A   1      49.925  26.653  35.013  1.00  0.00    -0.237 OA
ATOM     95  O   UNL A   1      49.060  28.041  33.157  1.00  0.00    -0.237 OA
ATOM     96  O   UNL A   1      49.446  29.043  35.376  1.00  0.00    -0.744 OA
ENDBRANCH  89  93
ENDBRANCH  63  86
ENDBRANCH  37  38
ENDBRANCH  29  32
ENDBRANCH  27  28
ENDBRANCH  26  27
ENDBRANCH  25  26
ENDBRANCH   1  25
TORSDOF 22
ENDMDL
MODEL 3
REMARK VINA RESULT:      -9.6      1.830      3.259
REMARK SMILES C=CC[N@@H+](CC(=O)NCCCCCCNC(=O)c1ccc(-c2c3nc(c(-c4cc(S(=O)(=O)[O-])ccc4F)c4ccc([nH]4)c(-c4cc(S(=O)(=O)[O-])ccc4F)c4nc(c(-c5cc(S(=O)(=O)[O-])ccc5F)c5ccc2[nH]5)C=C4)C=C3)cc1)CC(=O)Nc1cc(C)on1
REMARK SMILES IDX 11 1 10 2 9 3 8 4 6 5 7 6 5 8 4 9 3 11 2 12 1 13 81 14 82 15
REMARK SMILES IDX 83 16 84 17 85 19 86 20 90 21 87 22 89 23 88 24 12 25 13 26
REMARK SMILES IDX 14 27 15 28 16 29 17 31 18 32 19 33 80 34 20 35 79 36 21 37
REMARK SMILES IDX 22 38 23 39 73 40 24 41 78 42 72 43 74 44 25 45 77 46 71 47
REMARK SMILES IDX 70 48 26 50 58 51 38 52 57 53 39 54 42 55 56 56 75 57 40 58
REMARK SMILES IDX 41 59 55 61 76 62 43 63 27 64 28 65 36 66 29 67 35 68 37 69
REMARK SMILES IDX 34 70 30 71 31 72 32 73 33 74 59 75 60 76 68 77 61 78 67 79
REMARK SMILES IDX 69 80 66 81 62 82 63 83 64 84 65 85 44 86 45 87 53 88 46 89
REMARK SMILES IDX 52 90 54 91 51 92 47 93 48 94 49 95 50 96
REMARK H PARENT 8 7 4 10 84 18 15 30 74 49 42 60
REMARK Flexibility Score: inf
ROOT
ATOM      1  C   UNL A   1      31.790  29.083  26.532  1.00  0.00     0.002 C 
ENDROOT
BRANCH   1   2
ATOM      2  C   UNL A   1      31.613  27.773  27.306  1.00  0.00     0.021 C 
BRANCH   2   3
ATOM      3  C   UNL A   1      31.457  26.515  26.448  1.00  0.00     0.116 C 
BRANCH   3   4
ATOM      4  N   UNL A   1      31.089  26.895  25.113  1.00  0.00    -0.351 N 
ATOM      5  C   UNL A   1      31.223  26.165  23.977  1.00  0.00     0.275 C 
ATOM      6  O   UNL A   1      31.457  26.844  22.975  1.00  0.00    -0.269 OA
ATOM      7  H   UNL A   1      30.694  27.790  25.010  1.00  0.00     0.163 HD
BRANCH   5   8
ATOM      8  C   UNL A   1      30.943  24.640  23.952  1.00  0.00     0.364 C 
BRANCH   8   9
ATOM      9  N   UNL A   1      32.050  23.702  24.260  1.00  0.00    -0.316 N 
ATOM     10  H   UNL A   1      32.038  23.042  23.482  1.00  0.00     0.349 HD
BRANCH   9  11
ATOM     11  C   UNL A   1      31.786  22.932  25.455  1.00  0.00     0.291 C 
BRANCH  11  12
ATOM     12  C   UNL A   1      31.777  21.439  25.388  1.00  0.00     0.025 C 
ATOM     13  C   UNL A   1      32.254  20.796  24.310  1.00  0.00     0.010 C 
ENDBRANCH  11  12
ENDBRANCH   9  11
BRANCH   9  14
ATOM     14  C   UNL A   1      33.438  24.197  24.099  1.00  0.00     0.364 C 
BRANCH  14  15
ATOM     15  C   UNL A   1      34.165  23.727  22.832  1.00  0.00     0.280 C 
ATOM     16  O   UNL A   1      33.656  23.886  21.715  1.00  0.00    -0.268 OA
ATOM     17  N   UNL A   1      35.331  22.999  22.928  1.00  0.00    -0.303 N 
ATOM     18  H   UNL A   1      35.763  22.717  22.089  1.00  0.00     0.171 HD
BRANCH  17  19
ATOM     19  C   UNL A   1      35.937  22.635  24.112  1.00  0.00     0.176 A 
ATOM     20  C   UNL A   1      37.025  23.332  24.699  1.00  0.00     0.095 A 
ATOM     21  N   UNL A   1      35.675  21.513  24.788  1.00  0.00    -0.062 NA
ATOM     22  C   UNL A   1      37.585  22.398  25.536  1.00  0.00     0.135 A 
ATOM     23  O   UNL A   1      36.722  21.358  25.677  1.00  0.00    -0.360 OA
ATOM     24  C   UNL A   1      38.923  22.230  26.129  1.00  0.00     0.091 C 
ENDBRANCH  17  19
ENDBRANCH  14  15
ENDBRANCH   9  14
ENDBRANCH   8   9
ENDBRANCH   5   8
ENDBRANCH   3   4
ENDBRANCH   2   3
ENDBRANCH   1   2
BRANCH   1  25
ATOM     25  C   UNL A   1      32.548  30.175  27.273  1.00  0.00     0.002 C 
BRANCH  25  26
ATOM     26  C   UNL A   1      32.147  31.594  26.879  1.00  0.00     0.021 C 
BRANCH  26  27
ATOM     27  C   UNL A   1      33.281  32.602  26.955  1.00  0.00     0.116 C 
BRANCH  27  28
ATOM     28  N   UNL A   1      32.864  33.823  27.613  1.00  0.00    -0.352 N 
ATOM     29  C   UNL A   1      33.296  34.305  28.825  1.00  0.00     0.251 C 
ATOM     30  H   UNL A   1      32.196  34.369  27.138  1.00  0.00     0.163 HD
ATOM     31  O   UNL A   1      32.696  35.201  29.394  1.00  0.00    -0.269 OA
BRANCH  29  32
ATOM     32  C   UNL A   1      34.493  33.677  29.422  1.00  0.00     0.039 A 
ATOM     33  C   UNL A   1      35.751  34.214  29.153  1.00  0.00     0.014 A 
ATOM     34  C   UNL A   1      34.344  32.609  30.313  1.00  0.00     0.014 A 
ATOM     35  C   UNL A   1      36.867  33.697  29.812  1.00  0.00     0.010 A 
ATOM     36  C   UNL A   1      35.442  32.162  31.036  1.00  0.00     0.010 A 
ATOM     37  C   UNL A   1      36.718  32.686  30.776  1.00  0.00    -0.014 A 
BRANCH  37  38
ATOM     38  C   UNL A   1      37.888  32.103  31.480  1.00  0.00     0.031 A 
ATOM     39  C   UNL A   1      38.674  31.009  30.809  1.00  0.00     0.074 A 
ATOM     40  C   UNL A   1      38.205  32.507  32.725  1.00  0.00     0.049 A 
ATOM     41  N   UNL A   1      39.650  30.279  31.281  1.00  0.00    -0.248 NA
ATOM     42  C   UNL A   1      38.280  30.667  29.433  1.00  0.00     0.031 C 
ATOM     43  C   UNL A   1      37.504  33.545  33.485  1.00  0.00     0.029 A 
ATOM     44  N   UNL A   1      39.195  32.086  33.578  1.00  0.00    -0.354 N 
ATOM     45  C   UNL A   1      39.971  29.381  30.268  1.00  0.00     0.074 A 
ATOM     46  C   UNL A   1      39.037  29.611  29.189  1.00  0.00     0.031 C 
ATOM     47  C   UNL A   1      38.100  33.695  34.679  1.00  0.00     0.029 A 
ATOM     48  C   UNL A   1      39.189  32.729  34.795  1.00  0.00     0.049 A 
ATOM     49  H   UNL A   1      39.848  31.387  33.342  1.00  0.00     0.167 HD
ATOM     50  C   UNL A   1      40.972  28.466  30.232  1.00  0.00     0.034 A 
ATOM     51  C   UNL A   1      39.964  32.547  35.884  1.00  0.00     0.034 A 
ATOM     52  C   UNL A   1      41.903  28.265  31.313  1.00  0.00     0.049 A 
ATOM     53  C   UNL A   1      41.045  31.494  35.838  1.00  0.00     0.074 A 
ATOM     54  C   UNL A   1      42.980  27.400  31.371  1.00  0.00     0.029 A 
ATOM     55  N   UNL A   1      41.866  28.935  32.530  1.00  0.00    -0.354 N 
ATOM     56  N   UNL A   1      41.359  30.673  34.862  1.00  0.00    -0.248 NA
ATOM     57  C   UNL A   1      41.884  31.351  37.034  1.00  0.00     0.031 C 
ATOM     58  C   UNL A   1      43.546  27.490  32.647  1.00  0.00     0.029 A 
ATOM     59  C   UNL A   1      42.881  28.480  33.355  1.00  0.00     0.049 A 
ATOM     60  H   UNL A   1      41.213  29.631  32.771  1.00  0.00     0.167 HD
ATOM     61  C   UNL A   1      42.459  29.948  35.313  1.00  0.00     0.074 A 
ATOM     62  C   UNL A   1      42.755  30.431  36.645  1.00  0.00     0.031 C 
ATOM     63  C   UNL A   1      43.166  28.977  34.681  1.00  0.00     0.034 A 
BRANCH  50  64
ATOM     64  C   UNL A   1      41.082  27.605  28.996  1.00  0.00     0.023 A 
ATOM     65  C   UNL A   1      42.097  27.803  28.044  1.00  0.00     0.031 A 
ATOM     66  C   UNL A   1      40.138  26.593  28.747  1.00  0.00     0.131 A 
ATOM     67  C   UNL A   1      42.095  27.064  26.852  1.00  0.00     0.055 A 
ATOM     68  C   UNL A   1      40.197  25.797  27.600  1.00  0.00     0.041 A 
ATOM     69  F   UNL A   1      39.130  26.370  29.605  1.00  0.00    -0.206 F 
ATOM     70  C   UNL A   1      41.169  26.042  26.636  1.00  0.00     0.022 A 
BRANCH  67  71
ATOM     71  S   UNL A   1      43.220  27.568  25.521  1.00  0.00     0.124 S 
ATOM     72  O   UNL A   1      42.280  28.037  24.505  1.00  0.00    -0.237 OA
ATOM     73  O   UNL A   1      44.030  28.595  26.163  1.00  0.00    -0.237 OA
ATOM     74  O   UNL A   1      43.927  26.334  25.183  1.00  0.00    -0.744 OA
ENDBRANCH  67  71
ENDBRANCH  50  64
BRANCH  51  75
ATOM     75  C   UNL A   1      39.745  33.362  37.115  1.00  0.00     0.023 A 
ATOM     76  C   UNL A   1      39.098  32.819  38.237  1.00  0.00     0.031 A 
ATOM     77  C   UNL A   1      40.134  34.713  37.170  1.00  0.00     0.131 A 
ATOM     78  C   UNL A   1      38.811  33.635  39.342  1.00  0.00     0.055 A 
ATOM     79  C   UNL A   1      39.901  35.503  38.298  1.00  0.00     0.041 A 
ATOM     80  F   UNL A   1      40.758  35.284  36.128  1.00  0.00    -0.206 F 
ATOM     81  C   UNL A   1      39.221  34.968  39.387  1.00  0.00     0.022 A 
BRANCH  78  82
ATOM     82  S   UNL A   1      37.801  32.949  40.685  1.00  0.00     0.124 S 
ATOM     83  O   UNL A   1      38.278  31.572  40.740  1.00  0.00    -0.237 OA
ATOM     84  O   UNL A   1      38.170  33.804  41.807  1.00  0.00    -0.237 OA
ATOM     85  O   UNL A   1      36.433  33.118  40.199  1.00  0.00    -0.744 OA
ENDBRANCH  78  82
ENDBRANCH  51  75
BRANCH  63  86
ATOM     86  C   UNL A   1      44.375  28.423  35.394  1.00  0.00     0.023 A 
ATOM     87  C   UNL A   1      45.654  28.987  35.250  1.00  0.00     0.031 A 
ATOM     88  C   UNL A   1      44.234  27.314  36.248  1.00  0.00     0.131 A 
ATOM     89  C   UNL A   1      46.749  28.411  35.910  1.00  0.00     0.055 A 
ATOM     90  C   UNL A   1      45.315  26.786  36.955  1.00  0.00     0.041 A 
ATOM     91  F   UNL A   1      43.036  26.732  36.422  1.00  0.00    -0.206 F 
ATOM     92  C   UNL A   1      46.584  27.328  36.778  1.00  0.00     0.022 A 
BRANCH  89  93
ATOM     93  S   UNL A   1      48.412  29.043  35.558  1.00  0.00     0.124 S 
ATOM     94  O   UNL A   1      49.221  28.335  36.545  1.00  0.00    -0.237 OA
ATOM     95  O   UNL A   1      48.610  28.643  34.168  1.00  0.00    -0.237 OA
ATOM     96  O   UNL A   1      48.287  30.483  35.776  1.00  0.00    -0.744 OA
ENDBRANCH  89  93
ENDBRANCH  63  86
ENDBRANCH  37  38
ENDBRANCH  29  32
ENDBRANCH  27  28
ENDBRANCH  26  27
ENDBRANCH  25  26
ENDBRANCH   1  25
TORSDOF 22
ENDMDL
