MODEL 1
REMARK VINA RESULT:      -9.0      0.000      0.000
REMARK SMILES CC[NH2+]C[C@@H](C)C(=O)N1CCO[C@@H](CC(=O)NCCCCCCNC(=O)c2ccc(-c3c4nc(c(-c5cc(S(=O)(=O)[O-])ccc5F)c5ccc([nH]5)c(-c5cc(S(=O)(=O)[O-])ccc5F)c5nc(c(-c6cc(S(=O)(=O)[O-])ccc6F)c6ccc3[nH]6)C=C5)C=C4)cc2)C1
REMARK SMILES IDX 19 1 18 2 17 3 15 4 16 5 14 7 13 8 9 9 10 10 90 11 11 12
REMARK SMILES IDX 12 13 7 14 8 15 5 16 6 17 4 18 3 19 2 22 1 23 20 24 21 25
REMARK SMILES IDX 22 26 23 27 24 28 25 29 26 31 27 32 28 33 89 34 29 35 88 36
REMARK SMILES IDX 30 37 31 38 32 39 82 40 33 41 87 42 81 43 83 44 34 45 86 46
REMARK SMILES IDX 80 47 79 48 35 50 67 51 47 52 66 53 48 54 51 55 65 56 84 57
REMARK SMILES IDX 49 58 50 59 64 61 85 62 52 63 36 64 37 65 45 66 38 67 44 68
REMARK SMILES IDX 46 69 43 70 39 71 40 72 41 73 42 74 68 75 69 76 77 77 70 78
REMARK SMILES IDX 76 79 78 80 75 81 71 82 72 83 73 84 74 85 53 86 54 87 62 88
REMARK SMILES IDX 55 89 61 90 63 91 60 92 56 93 57 94 58 95 59 96
REMARK H PARENT 17 6 3 20 3 21 24 30 83 49 51 60
REMARK Flexibility Score: inf
ROOT
ATOM      1  C   UNL A   1      36.604  21.786  24.753  1.00  0.00     0.021 C 
ENDROOT
BRANCH   1   2
ATOM      2  C   UNL A   1      35.157  22.198  25.048  1.00  0.00     0.116 C 
BRANCH   2   3
ATOM      3  N   UNL A   1      34.221  21.351  24.317  1.00  0.00    -0.356 N 
ATOM      4  C   UNL A   1      32.859  21.372  24.257  1.00  0.00     0.222 C 
ATOM      5  O   UNL A   1      32.288  20.452  23.667  1.00  0.00    -0.275 OA
ATOM      6  H   UNL A   1      34.644  20.645  23.778  1.00  0.00     0.163 HD
BRANCH   4   7
ATOM      7  C   UNL A   1      32.064  22.484  24.906  1.00  0.00     0.133 C 
BRANCH   7   8
ATOM      8  C   UNL A   1      32.027  23.755  24.056  1.00  0.00     0.147 C 
ATOM      9  N   UNL A   1      32.815  26.111  23.991  1.00  0.00    -0.337 N 
ATOM     10  C   UNL A   1      33.547  25.821  22.763  1.00  0.00     0.148 C 
ATOM     11  C   UNL A   1      32.628  24.938  24.821  1.00  0.00     0.152 C 
ATOM     12  C   UNL A   1      32.854  24.680  22.017  1.00  0.00     0.182 C 
ATOM     13  O   UNL A   1      32.774  23.503  22.842  1.00  0.00    -0.374 OA
BRANCH   9  14
ATOM     14  C   UNL A   1      32.937  27.316  24.665  1.00  0.00     0.231 C 
ATOM     15  O   UNL A   1      33.738  27.462  25.590  1.00  0.00    -0.274 OA
BRANCH  14  16
ATOM     16  C   UNL A   1      31.843  28.350  24.399  1.00  0.00     0.130 C 
ATOM     17  C   UNL A   1      31.758  29.321  25.582  1.00  0.00     0.024 C 
BRANCH  16  18
ATOM     18  C   UNL A   1      30.499  27.714  24.037  1.00  0.00     0.273 C 
BRANCH  18  19
ATOM     19  N   UNL A   1      30.008  27.977  22.680  1.00  0.00    -0.346 N 
ATOM     20  H   UNL A   1      30.465  27.329  22.039  1.00  0.00     0.346 HD
ATOM     21  H   UNL A   1      28.996  27.853  22.696  1.00  0.00     0.346 HD
BRANCH  19  22
ATOM     22  C   UNL A   1      30.268  29.340  22.222  1.00  0.00     0.257 C 
ATOM     23  C   UNL A   1      29.092  30.222  22.611  1.00  0.00     0.071 C 
ENDBRANCH  19  22
ENDBRANCH  18  19
ENDBRANCH  16  18
ENDBRANCH  14  16
ENDBRANCH   9  14
ENDBRANCH   7   8
ENDBRANCH   4   7
ENDBRANCH   2   3
ENDBRANCH   1   2
BRANCH   1  24
ATOM     24  C   UNL A   1      36.907  20.307  24.987  1.00  0.00     0.002 C 
BRANCH  24  25
ATOM     25  C   UNL A   1      38.394  19.948  24.993  1.00  0.00     0.002 C 
BRANCH  25  26
ATOM     26  C   UNL A   1      39.307  20.906  25.766  1.00  0.00     0.021 C 
BRANCH  26  27
ATOM     27  C   UNL A   1      40.248  20.247  26.773  1.00  0.00     0.116 C 
BRANCH  27  28
ATOM     28  N   UNL A   1      41.456  19.745  26.138  1.00  0.00    -0.352 N 
ATOM     29  C   UNL A   1      42.586  20.416  25.739  1.00  0.00     0.251 C 
ATOM     30  H   UNL A   1      41.464  18.774  25.967  1.00  0.00     0.163 HD
ATOM     31  O   UNL A   1      43.394  19.856  25.005  1.00  0.00    -0.269 OA
BRANCH  29  32
ATOM     32  C   UNL A   1      42.820  21.810  26.178  1.00  0.00     0.039 A 
ATOM     33  C   UNL A   1      42.774  22.834  25.228  1.00  0.00     0.014 A 
ATOM     34  C   UNL A   1      43.121  22.105  27.511  1.00  0.00     0.014 A 
ATOM     35  C   UNL A   1      42.977  24.160  25.625  1.00  0.00     0.010 A 
ATOM     36  C   UNL A   1      43.256  23.431  27.916  1.00  0.00     0.010 A 
ATOM     37  C   UNL A   1      43.192  24.473  26.977  1.00  0.00    -0.014 A 
BRANCH  37  38
ATOM     38  C   UNL A   1      43.376  25.879  27.423  1.00  0.00     0.031 A 
ATOM     39  C   UNL A   1      44.746  26.501  27.409  1.00  0.00     0.074 A 
ATOM     40  C   UNL A   1      42.324  26.574  27.899  1.00  0.00     0.049 A 
ATOM     41  N   UNL A   1      45.129  27.678  27.834  1.00  0.00    -0.248 NA
ATOM     42  C   UNL A   1      45.835  25.672  26.873  1.00  0.00     0.031 C 
ATOM     43  C   UNL A   1      40.954  26.066  28.001  1.00  0.00     0.029 A 
ATOM     44  N   UNL A   1      42.242  27.849  28.398  1.00  0.00    -0.354 N 
ATOM     45  C   UNL A   1      46.504  27.728  27.628  1.00  0.00     0.074 A 
ATOM     46  C   UNL A   1      46.893  26.435  27.104  1.00  0.00     0.031 C 
ATOM     47  C   UNL A   1      40.168  27.024  28.516  1.00  0.00     0.029 A 
ATOM     48  C   UNL A   1      40.981  28.198  28.820  1.00  0.00     0.049 A 
ATOM     49  H   UNL A   1      43.015  28.458  28.449  1.00  0.00     0.167 HD
ATOM     50  C   UNL A   1      47.359  28.762  27.834  1.00  0.00     0.034 A 
ATOM     51  C   UNL A   1      40.531  29.329  29.399  1.00  0.00     0.034 A 
ATOM     52  C   UNL A   1      46.952  30.045  28.357  1.00  0.00     0.049 A 
ATOM     53  C   UNL A   1      41.498  30.460  29.637  1.00  0.00     0.074 A 
ATOM     54  C   UNL A   1      47.722  31.176  28.568  1.00  0.00     0.029 A 
ATOM     55  N   UNL A   1      45.661  30.367  28.759  1.00  0.00    -0.354 N 
ATOM     56  N   UNL A   1      42.788  30.508  29.398  1.00  0.00    -0.248 NA
ATOM     57  C   UNL A   1      40.945  31.694  30.210  1.00  0.00     0.031 C 
ATOM     58  C   UNL A   1      46.914  32.156  29.154  1.00  0.00     0.029 A 
ATOM     59  C   UNL A   1      45.620  31.667  29.241  1.00  0.00     0.049 A 
ATOM     60  H   UNL A   1      44.888  29.760  28.710  1.00  0.00     0.167 HD
ATOM     61  C   UNL A   1      43.195  31.788  29.765  1.00  0.00     0.074 A 
ATOM     62  C   UNL A   1      42.010  32.481  30.229  1.00  0.00     0.031 C 
ATOM     63  C   UNL A   1      44.433  32.342  29.717  1.00  0.00     0.034 A 
BRANCH  50  64
ATOM     64  C   UNL A   1      48.818  28.524  27.518  1.00  0.00     0.023 A 
ATOM     65  C   UNL A   1      49.291  28.506  26.193  1.00  0.00     0.031 A 
ATOM     66  C   UNL A   1      49.741  28.260  28.546  1.00  0.00     0.131 A 
ATOM     67  C   UNL A   1      50.618  28.138  25.925  1.00  0.00     0.055 A 
ATOM     68  C   UNL A   1      51.084  27.984  28.277  1.00  0.00     0.041 A 
ATOM     69  F   UNL A   1      49.349  28.244  29.829  1.00  0.00    -0.206 F 
ATOM     70  C   UNL A   1      51.526  27.902  26.960  1.00  0.00     0.022 A 
BRANCH  67  71
ATOM     71  S   UNL A   1      51.094  27.806  24.207  1.00  0.00     0.124 S 
ATOM     72  O   UNL A   1      52.378  27.132  24.381  1.00  0.00    -0.237 OA
ATOM     73  O   UNL A   1      49.995  26.975  23.730  1.00  0.00    -0.237 OA
ATOM     74  O   UNL A   1      51.175  29.138  23.609  1.00  0.00    -0.744 OA
ENDBRANCH  67  71
ENDBRANCH  50  64
BRANCH  51  75
ATOM     75  C   UNL A   1      39.102  29.445  29.803  1.00  0.00     0.023 A 
ATOM     76  C   UNL A   1      38.179  30.148  29.012  1.00  0.00     0.031 A 
ATOM     77  C   UNL A   1      38.642  28.867  30.999  1.00  0.00     0.131 A 
ATOM     78  C   UNL A   1      36.851  30.288  29.445  1.00  0.00     0.055 A 
ATOM     79  C   UNL A   1      37.310  28.968  31.403  1.00  0.00     0.041 A 
ATOM     80  F   UNL A   1      39.483  28.177  31.787  1.00  0.00    -0.206 F 
ATOM     81  C   UNL A   1      36.407  29.690  30.628  1.00  0.00     0.022 A 
BRANCH  78  82
ATOM     82  S   UNL A   1      35.721  31.316  28.468  1.00  0.00     0.124 S 
ATOM     83  O   UNL A   1      34.837  31.848  29.498  1.00  0.00    -0.237 OA
ATOM     84  O   UNL A   1      36.637  32.270  27.852  1.00  0.00    -0.237 OA
ATOM     85  O   UNL A   1      35.106  30.363  27.547  1.00  0.00    -0.744 OA
ENDBRANCH  78  82
ENDBRANCH  51  75
BRANCH  63  86
ATOM     86  C   UNL A   1      44.555  33.787  30.137  1.00  0.00     0.023 A 
ATOM     87  C   UNL A   1      44.837  34.151  31.466  1.00  0.00     0.031 A 
ATOM     88  C   UNL A   1      44.374  34.814  29.195  1.00  0.00     0.131 A 
ATOM     89  C   UNL A   1      44.875  35.507  31.825  1.00  0.00     0.055 A 
ATOM     90  C   UNL A   1      44.471  36.160  29.546  1.00  0.00     0.041 A 
ATOM     91  F   UNL A   1      44.100  34.523  27.912  1.00  0.00    -0.206 F 
ATOM     92  C   UNL A   1      44.710  36.514  30.871  1.00  0.00     0.022 A 
BRANCH  89  93
ATOM     93  S   UNL A   1      45.054  35.941  33.578  1.00  0.00     0.124 S 
ATOM     94  O   UNL A   1      43.898  36.804  33.797  1.00  0.00    -0.237 OA
ATOM     95  O   UNL A   1      45.008  34.636  34.229  1.00  0.00    -0.237 OA
ATOM     96  O   UNL A   1      46.350  36.616  33.634  1.00  0.00    -0.744 OA
ENDBRANCH  89  93
ENDBRANCH  63  86
ENDBRANCH  37  38
ENDBRANCH  29  32
ENDBRANCH  27  28
ENDBRANCH  26  27
ENDBRANCH  25  26
ENDBRANCH  24  25
ENDBRANCH   1  24
TORSDOF 22
ENDMDL
MODEL 2
REMARK VINA RESULT:      -8.9      1.834      7.763
REMARK SMILES CC[NH2+]C[C@@H](C)C(=O)N1CCO[C@@H](CC(=O)NCCCCCCNC(=O)c2ccc(-c3c4nc(c(-c5cc(S(=O)(=O)[O-])ccc5F)c5ccc([nH]5)c(-c5cc(S(=O)(=O)[O-])ccc5F)c5nc(c(-c6cc(S(=O)(=O)[O-])ccc6F)c6ccc3[nH]6)C=C5)C=C4)cc2)C1
REMARK SMILES IDX 19 1 18 2 17 3 15 4 16 5 14 7 13 8 9 9 10 10 90 11 11 12
REMARK SMILES IDX 12 13 7 14 8 15 5 16 6 17 4 18 3 19 2 22 1 23 20 24 21 25
REMARK SMILES IDX 22 26 23 27 24 28 25 29 26 31 27 32 28 33 89 34 29 35 88 36
REMARK SMILES IDX 30 37 31 38 32 39 82 40 33 41 87 42 81 43 83 44 34 45 86 46
REMARK SMILES IDX 80 47 79 48 35 50 67 51 47 52 66 53 48 54 51 55 65 56 84 57
REMARK SMILES IDX 49 58 50 59 64 61 85 62 52 63 36 64 37 65 45 66 38 67 44 68
REMARK SMILES IDX 46 69 43 70 39 71 40 72 41 73 42 74 68 75 69 76 77 77 70 78
REMARK SMILES IDX 76 79 78 80 75 81 71 82 72 83 73 84 74 85 53 86 54 87 62 88
REMARK SMILES IDX 55 89 61 90 63 91 60 92 56 93 57 94 58 95 59 96
REMARK H PARENT 17 6 3 20 3 21 24 30 83 49 51 60
REMARK Flexibility Score: inf
ROOT
ATOM      1  C   UNL A   1      34.852  22.371  24.161  1.00  0.00     0.021 C 
ENDROOT
BRANCH   1   2
ATOM      2  C   UNL A   1      33.808  23.216  24.899  1.00  0.00     0.116 C 
BRANCH   2   3
ATOM      3  N   UNL A   1      32.543  22.498  25.003  1.00  0.00    -0.356 N 
ATOM      4  C   UNL A   1      31.475  22.687  25.829  1.00  0.00     0.222 C 
ATOM      5  O   UNL A   1      30.570  21.850  25.813  1.00  0.00    -0.275 OA
ATOM      6  H   UNL A   1      32.444  21.750  24.371  1.00  0.00     0.163 HD
BRANCH   4   7
ATOM      7  C   UNL A   1      31.403  23.883  26.754  1.00  0.00     0.133 C 
BRANCH   7   8
ATOM      8  C   UNL A   1      31.721  25.198  26.041  1.00  0.00     0.147 C 
ATOM      9  N   UNL A   1      30.693  27.006  24.680  1.00  0.00    -0.337 N 
ATOM     10  C   UNL A   1      31.051  27.972  25.712  1.00  0.00     0.148 C 
ATOM     11  C   UNL A   1      30.526  25.665  25.202  1.00  0.00     0.152 C 
ATOM     12  C   UNL A   1      32.290  27.478  26.461  1.00  0.00     0.182 C 
ATOM     13  O   UNL A   1      32.051  26.185  27.047  1.00  0.00    -0.374 OA
BRANCH   9  14
ATOM     14  C   UNL A   1      29.896  27.335  23.595  1.00  0.00     0.231 C 
ATOM     15  O   UNL A   1      28.710  27.006  23.539  1.00  0.00    -0.274 OA
BRANCH  14  16
ATOM     16  C   UNL A   1      30.625  27.867  22.361  1.00  0.00     0.130 C 
ATOM     17  C   UNL A   1      32.078  27.382  22.376  1.00  0.00     0.024 C 
BRANCH  16  18
ATOM     18  C   UNL A   1      30.492  29.383  22.200  1.00  0.00     0.273 C 
BRANCH  18  19
ATOM     19  N   UNL A   1      29.143  29.933  22.367  1.00  0.00    -0.346 N 
ATOM     20  H   UNL A   1      28.892  30.439  21.517  1.00  0.00     0.346 HD
ATOM     21  H   UNL A   1      28.517  29.148  22.546  1.00  0.00     0.346 HD
BRANCH  19  22
ATOM     22  C   UNL A   1      29.025  30.846  23.501  1.00  0.00     0.257 C 
ATOM     23  C   UNL A   1      27.660  31.515  23.454  1.00  0.00     0.071 C 
ENDBRANCH  19  22
ENDBRANCH  18  19
ENDBRANCH  16  18
ENDBRANCH  14  16
ENDBRANCH   9  14
ENDBRANCH   7   8
ENDBRANCH   4   7
ENDBRANCH   2   3
ENDBRANCH   1   2
BRANCH   1  24
ATOM     24  C   UNL A   1      34.822  20.881  24.499  1.00  0.00     0.002 C 
BRANCH  24  25
ATOM     25  C   UNL A   1      36.143  20.312  25.018  1.00  0.00     0.002 C 
BRANCH  25  26
ATOM     26  C   UNL A   1      37.405  21.079  24.607  1.00  0.00     0.021 C 
BRANCH  26  27
ATOM     27  C   UNL A   1      38.359  21.432  25.747  1.00  0.00     0.116 C 
BRANCH  27  28
ATOM     28  N   UNL A   1      39.376  20.410  25.938  1.00  0.00    -0.352 N 
ATOM     29  C   UNL A   1      40.707  20.540  26.251  1.00  0.00     0.251 C 
ATOM     30  H   UNL A   1      39.062  19.483  25.826  1.00  0.00     0.163 HD
ATOM     31  O   UNL A   1      41.453  19.573  26.133  1.00  0.00    -0.269 OA
BRANCH  29  32
ATOM     32  C   UNL A   1      41.242  21.841  26.713  1.00  0.00     0.039 A 
ATOM     33  C   UNL A   1      41.525  22.829  25.766  1.00  0.00     0.014 A 
ATOM     34  C   UNL A   1      41.501  22.074  28.067  1.00  0.00     0.014 A 
ATOM     35  C   UNL A   1      42.017  24.070  26.183  1.00  0.00     0.010 A 
ATOM     36  C   UNL A   1      41.926  23.333  28.486  1.00  0.00     0.010 A 
ATOM     37  C   UNL A   1      42.195  24.343  27.549  1.00  0.00    -0.014 A 
BRANCH  37  38
ATOM     38  C   UNL A   1      42.684  25.667  28.014  1.00  0.00     0.031 A 
ATOM     39  C   UNL A   1      41.717  26.667  28.589  1.00  0.00     0.074 A 
ATOM     40  C   UNL A   1      43.981  25.994  27.863  1.00  0.00     0.049 A 
ATOM     41  N   UNL A   1      41.927  27.901  28.973  1.00  0.00    -0.248 NA
ATOM     42  C   UNL A   1      40.320  26.226  28.719  1.00  0.00     0.031 C 
ATOM     43  C   UNL A   1      45.008  25.126  27.282  1.00  0.00     0.029 A 
ATOM     44  N   UNL A   1      44.659  27.147  28.171  1.00  0.00    -0.354 N 
ATOM     45  C   UNL A   1      40.688  28.388  29.378  1.00  0.00     0.074 A 
ATOM     46  C   UNL A   1      39.725  27.336  29.128  1.00  0.00     0.031 C 
ATOM     47  C   UNL A   1      46.184  25.771  27.289  1.00  0.00     0.029 A 
ATOM     48  C   UNL A   1      45.992  27.111  27.834  1.00  0.00     0.049 A 
ATOM     49  H   UNL A   1      44.231  27.927  28.594  1.00  0.00     0.167 HD
ATOM     50  C   UNL A   1      40.386  29.591  29.930  1.00  0.00     0.034 A 
ATOM     51  C   UNL A   1      46.948  28.055  27.939  1.00  0.00     0.034 A 
ATOM     52  C   UNL A   1      41.362  30.628  30.173  1.00  0.00     0.049 A 
ATOM     53  C   UNL A   1      46.591  29.392  28.537  1.00  0.00     0.074 A 
ATOM     54  C   UNL A   1      41.178  31.867  30.763  1.00  0.00     0.029 A 
ATOM     55  N   UNL A   1      42.706  30.550  29.832  1.00  0.00    -0.354 N 
ATOM     56  N   UNL A   1      45.424  29.824  28.956  1.00  0.00    -0.248 NA
ATOM     57  C   UNL A   1      47.683  30.362  28.690  1.00  0.00     0.031 C 
ATOM     58  C   UNL A   1      42.392  32.560  30.721  1.00  0.00     0.029 A 
ATOM     59  C   UNL A   1      43.356  31.727  30.175  1.00  0.00     0.049 A 
ATOM     60  H   UNL A   1      43.136  29.773  29.409  1.00  0.00     0.167 HD
ATOM     61  C   UNL A   1      45.649  31.107  29.448  1.00  0.00     0.074 A 
ATOM     62  C   UNL A   1      47.064  31.370  29.284  1.00  0.00     0.031 C 
ATOM     63  C   UNL A   1      44.767  31.984  29.991  1.00  0.00     0.034 A 
BRANCH  50  64
ATOM     64  C   UNL A   1      38.937  29.847  30.275  1.00  0.00     0.023 A 
ATOM     65  C   UNL A   1      38.105  30.614  29.439  1.00  0.00     0.031 A 
ATOM     66  C   UNL A   1      38.389  29.363  31.477  1.00  0.00     0.131 A 
ATOM     67  C   UNL A   1      36.810  30.956  29.857  1.00  0.00     0.055 A 
ATOM     68  C   UNL A   1      37.068  29.630  31.845  1.00  0.00     0.041 A 
ATOM     69  F   UNL A   1      39.136  28.640  32.326  1.00  0.00    -0.206 F 
ATOM     70  C   UNL A   1      36.276  30.447  31.044  1.00  0.00     0.022 A 
BRANCH  67  71
ATOM     71  S   UNL A   1      35.898  32.209  28.915  1.00  0.00     0.124 S 
ATOM     72  O   UNL A   1      35.781  31.567  27.608  1.00  0.00    -0.237 OA
ATOM     73  O   UNL A   1      34.662  32.339  29.677  1.00  0.00    -0.237 OA
ATOM     74  O   UNL A   1      36.780  33.374  28.951  1.00  0.00    -0.744 OA
ENDBRANCH  67  71
ENDBRANCH  50  64
BRANCH  51  75
ATOM     75  C   UNL A   1      48.331  27.776  27.459  1.00  0.00     0.023 A 
ATOM     76  C   UNL A   1      48.691  27.991  26.120  1.00  0.00     0.031 A 
ATOM     77  C   UNL A   1      49.310  27.272  28.334  1.00  0.00     0.131 A 
ATOM     78  C   UNL A   1      49.986  27.667  25.683  1.00  0.00     0.055 A 
ATOM     79  C   UNL A   1      50.610  26.997  27.907  1.00  0.00     0.041 A 
ATOM     80  F   UNL A   1      49.019  27.057  29.627  1.00  0.00    -0.206 F 
ATOM     81  C   UNL A   1      50.951  27.185  26.571  1.00  0.00     0.022 A 
BRANCH  78  82
ATOM     82  S   UNL A   1      50.374  27.828  23.919  1.00  0.00     0.124 S 
ATOM     83  O   UNL A   1      51.087  29.099  23.887  1.00  0.00    -0.237 OA
ATOM     84  O   UNL A   1      51.178  26.635  23.676  1.00  0.00    -0.237 OA
ATOM     85  O   UNL A   1      49.060  27.832  23.280  1.00  0.00    -0.744 OA
ENDBRANCH  78  82
ENDBRANCH  51  75
BRANCH  63  86
ATOM     86  C   UNL A   1      45.323  33.296  30.490  1.00  0.00     0.023 A 
ATOM     87  C   UNL A   1      45.486  34.404  29.640  1.00  0.00     0.031 A 
ATOM     88  C   UNL A   1      45.709  33.433  31.836  1.00  0.00     0.131 A 
ATOM     89  C   UNL A   1      46.070  35.581  30.131  1.00  0.00     0.055 A 
ATOM     90  C   UNL A   1      46.234  34.626  32.332  1.00  0.00     0.041 A 
ATOM     91  F   UNL A   1      45.578  32.406  32.691  1.00  0.00    -0.206 F 
ATOM     92  C   UNL A   1      46.429  35.705  31.476  1.00  0.00     0.022 A 
BRANCH  89  93
ATOM     93  S   UNL A   1      46.437  36.924  28.968  1.00  0.00     0.124 S 
ATOM     94  O   UNL A   1      45.955  38.095  29.692  1.00  0.00    -0.237 OA
ATOM     95  O   UNL A   1      47.885  36.819  28.816  1.00  0.00    -0.237 OA
ATOM     96  O   UNL A   1      45.663  36.570  27.779  1.00  0.00    -0.744 OA
ENDBRANCH  89  93
ENDBRANCH  63  86
ENDBRANCH  37  38
ENDBRANCH  29  32
ENDBRANCH  27  28
ENDBRANCH  26  27
ENDBRANCH  25  26
ENDBRANCH  24  25
ENDBRANCH   1  24
TORSDOF 22
ENDMDL
MODEL 3
REMARK VINA RESULT:      -8.9      4.228      9.632
REMARK SMILES CC[NH2+]C[C@@H](C)C(=O)N1CCO[C@@H](CC(=O)NCCCCCCNC(=O)c2ccc(-c3c4nc(c(-c5cc(S(=O)(=O)[O-])ccc5F)c5ccc([nH]5)c(-c5cc(S(=O)(=O)[O-])ccc5F)c5nc(c(-c6cc(S(=O)(=O)[O-])ccc6F)c6ccc3[nH]6)C=C5)C=C4)cc2)C1
REMARK SMILES IDX 19 1 18 2 17 3 15 4 16 5 14 7 13 8 9 9 10 10 90 11 11 12
REMARK SMILES IDX 12 13 7 14 8 15 5 16 6 17 4 18 3 19 2 22 1 23 20 24 21 25
REMARK SMILES IDX 22 26 23 27 24 28 25 29 26 31 27 32 28 33 89 34 29 35 88 36
REMARK SMILES IDX 30 37 31 38 32 39 82 40 33 41 87 42 81 43 83 44 34 45 86 46
REMARK SMILES IDX 80 47 79 48 35 50 67 51 47 52 66 53 48 54 51 55 65 56 84 57
REMARK SMILES IDX 49 58 50 59 64 61 85 62 52 63 36 64 37 65 45 66 38 67 44 68
REMARK SMILES IDX 46 69 43 70 39 71 40 72 41 73 42 74 68 75 69 76 77 77 70 78
REMARK SMILES IDX 76 79 78 80 75 81 71 82 72 83 73 84 74 85 53 86 54 87 62 88
REMARK SMILES IDX 55 89 61 90 63 91 60 92 56 93 57 94 58 95 59 96
REMARK H PARENT 17 6 3 20 3 21 24 30 83 49 51 60
REMARK Flexibility Score: inf
ROOT
ATOM      1  C   UNL A   1      35.157  31.047  28.843  1.00  0.00     0.021 C 
ENDROOT
BRANCH   1   2
ATOM      2  C   UNL A   1      34.640  30.432  27.536  1.00  0.00     0.116 C 
BRANCH   2   3
ATOM      3  N   UNL A   1      33.471  29.598  27.786  1.00  0.00    -0.356 N 
ATOM      4  C   UNL A   1      33.097  28.401  27.250  1.00  0.00     0.222 C 
ATOM      5  O   UNL A   1      31.981  27.960  27.531  1.00  0.00    -0.275 OA
ATOM      6  H   UNL A   1      32.845  29.960  28.455  1.00  0.00     0.163 HD
BRANCH   4   7
ATOM      7  C   UNL A   1      34.018  27.638  26.322  1.00  0.00     0.133 C 
BRANCH   7   8
ATOM      8  C   UNL A   1      33.266  26.657  25.422  1.00  0.00     0.147 C 
ATOM      9  N   UNL A   1      32.082  26.488  23.243  1.00  0.00    -0.337 N 
ATOM     10  C   UNL A   1      33.048  25.485  22.809  1.00  0.00     0.148 C 
ATOM     11  C   UNL A   1      32.622  27.390  24.240  1.00  0.00     0.152 C 
ATOM     12  C   UNL A   1      33.597  24.746  24.030  1.00  0.00     0.182 C 
ATOM     13  O   UNL A   1      34.211  25.667  24.951  1.00  0.00    -0.374 OA
BRANCH   9  14
ATOM     14  C   UNL A   1      31.133  27.028  22.390  1.00  0.00     0.231 C 
ATOM     15  O   UNL A   1      31.196  26.872  21.169  1.00  0.00    -0.274 OA
BRANCH  14  16
ATOM     16  C   UNL A   1      30.179  28.052  23.005  1.00  0.00     0.130 C 
ATOM     17  C   UNL A   1      28.881  27.356  23.425  1.00  0.00     0.024 C 
BRANCH  16  18
ATOM     18  C   UNL A   1      29.952  29.270  22.106  1.00  0.00     0.273 C 
BRANCH  18  19
ATOM     19  N   UNL A   1      29.779  30.554  22.793  1.00  0.00    -0.346 N 
ATOM     20  H   UNL A   1      29.762  30.383  23.799  1.00  0.00     0.346 HD
ATOM     21  H   UNL A   1      30.558  31.151  22.517  1.00  0.00     0.346 HD
BRANCH  19  22
ATOM     22  C   UNL A   1      28.550  31.250  22.421  1.00  0.00     0.257 C 
ATOM     23  C   UNL A   1      27.656  31.358  23.647  1.00  0.00     0.071 C 
ENDBRANCH  19  22
ENDBRANCH  18  19
ENDBRANCH  16  18
ENDBRANCH  14  16
ENDBRANCH   9  14
ENDBRANCH   7   8
ENDBRANCH   4   7
ENDBRANCH   2   3
ENDBRANCH   1   2
BRANCH   1  24
ATOM     24  C   UNL A   1      35.031  32.567  28.927  1.00  0.00     0.002 C 
BRANCH  24  25
ATOM     25  C   UNL A   1      34.721  33.111  30.322  1.00  0.00     0.002 C 
BRANCH  25  26
ATOM     26  C   UNL A   1      35.913  33.693  31.090  1.00  0.00     0.021 C 
BRANCH  26  27
ATOM     27  C   UNL A   1      36.134  33.122  32.490  1.00  0.00     0.116 C 
BRANCH  27  28
ATOM     28  N   UNL A   1      35.983  31.675  32.514  1.00  0.00    -0.352 N 
ATOM     29  C   UNL A   1      36.809  30.695  32.023  1.00  0.00     0.251 C 
ATOM     30  H   UNL A   1      35.161  31.349  32.950  1.00  0.00     0.163 HD
ATOM     31  O   UNL A   1      36.393  29.545  31.927  1.00  0.00    -0.269 OA
BRANCH  29  32
ATOM     32  C   UNL A   1      38.188  31.025  31.596  1.00  0.00     0.039 A 
ATOM     33  C   UNL A   1      38.500  30.990  30.234  1.00  0.00     0.014 A 
ATOM     34  C   UNL A   1      39.179  31.330  32.534  1.00  0.00     0.014 A 
ATOM     35  C   UNL A   1      39.793  31.314  29.809  1.00  0.00     0.010 A 
ATOM     36  C   UNL A   1      40.446  31.717  32.104  1.00  0.00     0.010 A 
ATOM     37  C   UNL A   1      40.770  31.707  30.738  1.00  0.00    -0.014 A 
BRANCH  37  38
ATOM     38  C   UNL A   1      42.139  32.088  30.303  1.00  0.00     0.031 A 
ATOM     39  C   UNL A   1      42.417  33.491  29.832  1.00  0.00     0.074 A 
ATOM     40  C   UNL A   1      43.115  31.161  30.272  1.00  0.00     0.049 A 
ATOM     41  N   UNL A   1      43.516  33.999  29.336  1.00  0.00    -0.248 NA
ATOM     42  C   UNL A   1      41.295  34.438  29.900  1.00  0.00     0.031 C 
ATOM     43  C   UNL A   1      42.959  29.759  30.666  1.00  0.00     0.029 A 
ATOM     44  N   UNL A   1      44.428  31.251  29.882  1.00  0.00    -0.354 N 
ATOM     45  C   UNL A   1      43.216  35.320  29.021  1.00  0.00     0.074 A 
ATOM     46  C   UNL A   1      41.812  35.510  29.322  1.00  0.00     0.031 C 
ATOM     47  C   UNL A   1      44.132  29.126  30.509  1.00  0.00     0.029 A 
ATOM     48  C   UNL A   1      45.112  30.062  29.967  1.00  0.00     0.049 A 
ATOM     49  H   UNL A   1      44.840  32.089  29.570  1.00  0.00     0.167 HD
ATOM     50  C   UNL A   1      44.039  36.291  28.549  1.00  0.00     0.034 A 
ATOM     51  C   UNL A   1      46.382  29.754  29.633  1.00  0.00     0.034 A 
ATOM     52  C   UNL A   1      45.438  36.082  28.257  1.00  0.00     0.049 A 
ATOM     53  C   UNL A   1      47.276  30.840  29.093  1.00  0.00     0.074 A 
ATOM     54  C   UNL A   1      46.375  37.000  27.815  1.00  0.00     0.029 A 
ATOM     55  N   UNL A   1      46.101  34.866  28.370  1.00  0.00    -0.354 N 
ATOM     56  N   UNL A   1      46.991  32.097  28.841  1.00  0.00    -0.248 NA
ATOM     57  C   UNL A   1      48.668  30.470  28.807  1.00  0.00     0.031 C 
ATOM     58  C   UNL A   1      47.584  36.328  27.601  1.00  0.00     0.029 A 
ATOM     59  C   UNL A   1      47.426  35.005  27.981  1.00  0.00     0.049 A 
ATOM     60  H   UNL A   1      45.690  34.027  28.680  1.00  0.00     0.167 HD
ATOM     61  C   UNL A   1      48.176  32.673  28.393  1.00  0.00     0.074 A 
ATOM     62  C   UNL A   1      49.180  31.629  28.422  1.00  0.00     0.031 C 
ATOM     63  C   UNL A   1      48.414  33.950  28.000  1.00  0.00     0.034 A 
BRANCH  50  64
ATOM     64  C   UNL A   1      43.428  37.650  28.298  1.00  0.00     0.023 A 
ATOM     65  C   UNL A   1      43.468  38.667  29.269  1.00  0.00     0.031 A 
ATOM     66  C   UNL A   1      42.752  37.921  27.094  1.00  0.00     0.131 A 
ATOM     67  C   UNL A   1      42.766  39.865  29.062  1.00  0.00     0.055 A 
ATOM     68  C   UNL A   1      42.133  39.151  26.857  1.00  0.00     0.041 A 
ATOM     69  F   UNL A   1      42.663  36.987  26.134  1.00  0.00    -0.206 F 
ATOM     70  C   UNL A   1      42.120  40.124  27.851  1.00  0.00     0.022 A 
BRANCH  67  71
ATOM     71  S   UNL A   1      42.567  41.003  30.460  1.00  0.00     0.124 S 
ATOM     72  O   UNL A   1      43.395  42.131  30.042  1.00  0.00    -0.237 OA
ATOM     73  O   UNL A   1      41.128  41.237  30.475  1.00  0.00    -0.237 OA
ATOM     74  O   UNL A   1      43.088  40.246  31.597  1.00  0.00    -0.744 OA
ENDBRANCH  67  71
ENDBRANCH  50  64
BRANCH  51  75
ATOM     75  C   UNL A   1      46.879  28.358  29.789  1.00  0.00     0.023 A 
ATOM     76  C   UNL A   1      46.737  27.418  28.756  1.00  0.00     0.031 A 
ATOM     77  C   UNL A   1      47.491  27.941  30.984  1.00  0.00     0.131 A 
ATOM     78  C   UNL A   1      47.166  26.096  28.951  1.00  0.00     0.055 A 
ATOM     79  C   UNL A   1      47.960  26.637  31.156  1.00  0.00     0.041 A 
ATOM     80  F   UNL A   1      47.659  28.804  31.999  1.00  0.00    -0.206 F 
ATOM     81  C   UNL A   1      47.789  25.703  30.139  1.00  0.00     0.022 A 
BRANCH  78  82
ATOM     82  S   UNL A   1      46.844  24.876  27.649  1.00  0.00     0.124 S 
ATOM     83  O   UNL A   1      48.167  24.298  27.448  1.00  0.00    -0.237 OA
ATOM     84  O   UNL A   1      45.854  24.011  28.283  1.00  0.00    -0.237 OA
ATOM     85  O   UNL A   1      46.340  25.686  26.542  1.00  0.00    -0.744 OA
ENDBRANCH  78  82
ENDBRANCH  51  75
BRANCH  63  86
ATOM     86  C   UNL A   1      49.832  34.296  27.613  1.00  0.00     0.023 A 
ATOM     87  C   UNL A   1      50.312  34.102  26.305  1.00  0.00     0.031 A 
ATOM     88  C   UNL A   1      50.719  34.815  28.572  1.00  0.00     0.131 A 
ATOM     89  C   UNL A   1      51.656  34.374  26.007  1.00  0.00     0.055 A 
ATOM     90  C   UNL A   1      52.038  35.139  28.255  1.00  0.00     0.041 A 
ATOM     91  F   UNL A   1      50.315  35.017  29.837  1.00  0.00    -0.206 F 
ATOM     92  C   UNL A   1      52.518  34.907  26.969  1.00  0.00     0.022 A 
BRANCH  89  93
ATOM     93  S   UNL A   1      52.291  33.939  24.364  1.00  0.00     0.124 S 
ATOM     94  O   UNL A   1      51.576  32.699  24.081  1.00  0.00    -0.237 OA
ATOM     95  O   UNL A   1      51.905  35.095  23.563  1.00  0.00    -0.237 OA
ATOM     96  O   UNL A   1      53.729  33.788  24.581  1.00  0.00    -0.744 OA
ENDBRANCH  89  93
ENDBRANCH  63  86
ENDBRANCH  37  38
ENDBRANCH  29  32
ENDBRANCH  27  28
ENDBRANCH  26  27
ENDBRANCH  25  26
ENDBRANCH  24  25
ENDBRANCH   1  24
TORSDOF 22
ENDMDL
