MODEL 1
REMARK VINA RESULT:     -12.6      0.000      0.000
REMARK SMILES CS(=O)(=O)Nc1ccc(-c2cc(Cl)cc3c2O[C@H](C(F)(F)F)C(C(=O)NCCCCCCNC(=O)c2ccc(-c4c5nc(c(-c6cc(S(=O)(=O)[O-])ccc6F)c6ccc([nH]6)c(-c6cc(S(=O)(=O)[O-])ccc6F)c6nc(c(-c7cc(S(=O)(=O)[O-])ccc7F)c7ccc4[nH]7)C=C6)C=C5)cc2)=C3)cc1
REMARK SMILES IDX 29 1 28 2 27 3 26 4 24 5 25 6 23 8 10 9 11 10 16 11 12 12
REMARK SMILES IDX 15 13 17 14 13 15 14 16 99 17 18 18 9 19 6 20 7 21 101 22
REMARK SMILES IDX 8 23 100 24 5 25 2 27 1 28 3 29 4 30 19 31 20 32 21 33 22 34
REMARK SMILES IDX 30 35 31 36 32 37 33 38 34 39 35 41 36 42 37 43 98 44 38 45
REMARK SMILES IDX 97 46 39 47 40 48 41 49 91 50 42 51 96 52 90 53 92 54 43 55
REMARK SMILES IDX 95 56 89 57 88 58 44 60 76 61 56 62 75 63 57 64 60 65 74 66
REMARK SMILES IDX 93 67 58 68 59 69 73 71 94 72 61 73 45 74 46 75 54 76 47 77
REMARK SMILES IDX 53 78 55 79 52 80 48 81 49 82 50 83 51 84 77 85 78 86 86 87
REMARK SMILES IDX 79 88 85 89 87 90 84 91 80 92 81 93 82 94 83 95 62 96 63 97
REMARK SMILES IDX 71 98 64 99 70 100 72 101 69 102 65 103 66 104 67 105 68 106
REMARK H PARENT 26 7 5 26 33 40 92 59 60 70
REMARK Flexibility Score: inf
ROOT
ATOM      1  C   UNL A   1      35.914  19.805  24.999  1.00  0.00     0.002 C 
ENDROOT
BRANCH   1   2
ATOM      2  C   UNL A   1      35.581  21.303  25.106  1.00  0.00     0.021 C 
BRANCH   2   3
ATOM      3  C   UNL A   1      35.119  21.759  26.499  1.00  0.00     0.116 C 
BRANCH   3   4
ATOM      4  N   UNL A   1      34.783  23.168  26.465  1.00  0.00    -0.352 N 
ATOM      5  C   UNL A   1      34.246  23.820  25.404  1.00  0.00     0.251 C 
ATOM      6  O   UNL A   1      34.735  24.876  25.019  1.00  0.00    -0.270 OA
ATOM      7  H   UNL A   1      34.958  23.695  27.277  1.00  0.00     0.163 HD
BRANCH   5   8
ATOM      8  C   UNL A   1      32.957  23.281  24.879  1.00  0.00     0.067 C 
ATOM      9  C   UNL A   1      31.004  26.786  24.238  1.00  0.00     0.026 A 
ATOM     10  C   UNL A   1      31.237  27.589  25.390  1.00  0.00     0.033 A 
ATOM     11  C   UNL A   1      31.338  25.427  24.359  1.00  0.00     0.135 A 
ATOM     12  C   UNL A   1      31.602  27.055  26.623  1.00  0.00     0.042 A 
ATOM     13  C   UNL A   1      31.583  24.887  25.648  1.00  0.00     0.019 A 
ATOM     14  O   UNL A   1      31.510  24.584  23.268  1.00  0.00    -0.475 OA
ATOM     15  Cl  UNL A   1      31.897  28.102  27.954  1.00  0.00    -0.084 Cl
ATOM     16  C   UNL A   1      31.700  25.688  26.780  1.00  0.00     0.032 A 
ATOM     17  C   UNL A   1      31.936  23.454  25.742  1.00  0.00     0.025 C 
ATOM     18  C   UNL A   1      32.651  23.626  23.429  1.00  0.00     0.314 C 
BRANCH   9  19
ATOM     19  C   UNL A   1      30.231  27.464  23.158  1.00  0.00    -0.014 A 
ATOM     20  C   UNL A   1      28.782  29.683  22.109  1.00  0.00     0.048 A 
ATOM     21  C   UNL A   1      30.148  29.537  21.858  1.00  0.00     0.027 A 
ATOM     22  C   UNL A   1      28.112  28.632  22.731  1.00  0.00     0.027 A 
ATOM     23  C   UNL A   1      30.857  28.427  22.343  1.00  0.00     0.011 A 
ATOM     24  C   UNL A   1      28.828  27.528  23.245  1.00  0.00     0.011 A 
BRANCH  20  25
ATOM     25  N   UNL A   1      28.234  30.979  21.882  1.00  0.00    -0.284 N 
ATOM     26  H   UNL A   1      27.961  31.179  20.957  1.00  0.00     0.180 HD
BRANCH  25  27
ATOM     27  S   UNL A   1      28.003  32.194  22.990  1.00  0.00     0.229 S 
ATOM     28  C   UNL A   1      29.457  32.123  24.023  1.00  0.00     0.183 C 
ATOM     29  O   UNL A   1      26.835  31.907  23.795  1.00  0.00    -0.207 OA
ATOM     30  O   UNL A   1      28.092  33.419  22.224  1.00  0.00    -0.207 OA
ENDBRANCH  25  27
ENDBRANCH  20  25
ENDBRANCH   9  19
BRANCH  18  31
ATOM     31  C   UNL A   1      32.409  22.303  22.669  1.00  0.00     0.429 C 
ATOM     32  F   UNL A   1      33.056  21.257  23.231  1.00  0.00    -0.167 F 
ATOM     33  F   UNL A   1      31.091  21.997  22.624  1.00  0.00    -0.167 F 
ATOM     34  F   UNL A   1      32.827  22.364  21.377  1.00  0.00    -0.167 F 
ENDBRANCH  18  31
ENDBRANCH   5   8
ENDBRANCH   3   4
ENDBRANCH   2   3
ENDBRANCH   1   2
BRANCH   1  35
ATOM     35  C   UNL A   1      37.408  19.480  24.942  1.00  0.00     0.002 C 
BRANCH  35  36
ATOM     36  C   UNL A   1      38.323  20.703  24.982  1.00  0.00     0.021 C 
BRANCH  36  37
ATOM     37  C   UNL A   1      39.295  20.729  26.156  1.00  0.00     0.116 C 
BRANCH  37  38
ATOM     38  N   UNL A   1      40.253  19.636  26.104  1.00  0.00    -0.352 N 
ATOM     39  C   UNL A   1      41.625  19.694  26.127  1.00  0.00     0.251 C 
ATOM     40  H   UNL A   1      39.867  18.733  26.045  1.00  0.00     0.163 HD
ATOM     41  O   UNL A   1      42.285  18.686  25.890  1.00  0.00    -0.269 OA
BRANCH  39  42
ATOM     42  C   UNL A   1      42.293  20.982  26.407  1.00  0.00     0.039 A 
ATOM     43  C   UNL A   1      42.572  21.845  25.345  1.00  0.00     0.014 A 
ATOM     44  C   UNL A   1      42.622  21.348  27.717  1.00  0.00     0.014 A 
ATOM     45  C   UNL A   1      43.121  23.102  25.604  1.00  0.00     0.010 A 
ATOM     46  C   UNL A   1      43.096  22.630  27.979  1.00  0.00     0.010 A 
ATOM     47  C   UNL A   1      43.351  23.521  26.925  1.00  0.00    -0.014 A 
BRANCH  47  48
ATOM     48  C   UNL A   1      43.861  24.886  27.221  1.00  0.00     0.031 A 
ATOM     49  C   UNL A   1      42.931  25.935  27.767  1.00  0.00     0.074 A 
ATOM     50  C   UNL A   1      45.145  25.194  26.948  1.00  0.00     0.049 A 
ATOM     51  N   UNL A   1      43.164  27.197  28.019  1.00  0.00    -0.248 NA
ATOM     52  C   UNL A   1      41.549  25.513  28.042  1.00  0.00     0.031 C 
ATOM     53  C   UNL A   1      46.132  24.271  26.382  1.00  0.00     0.029 A 
ATOM     54  N   UNL A   1      45.841  26.366  27.102  1.00  0.00    -0.354 N 
ATOM     55  C   UNL A   1      41.961  27.721  28.479  1.00  0.00     0.074 A 
ATOM     56  C   UNL A   1      40.984  26.655  28.402  1.00  0.00     0.031 C 
ATOM     57  C   UNL A   1      47.307  24.906  26.256  1.00  0.00     0.029 A 
ATOM     58  C   UNL A   1      47.151  26.294  26.683  1.00  0.00     0.049 A 
ATOM     59  H   UNL A   1      45.442  27.184  27.477  1.00  0.00     0.167 HD
ATOM     60  C   UNL A   1      41.701  28.966  28.949  1.00  0.00     0.034 A 
ATOM     61  C   UNL A   1      48.110  27.239  26.628  1.00  0.00     0.034 A 
ATOM     62  C   UNL A   1      42.687  30.018  29.020  1.00  0.00     0.049 A 
ATOM     63  C   UNL A   1      47.784  28.631  27.115  1.00  0.00     0.074 A 
ATOM     64  C   UNL A   1      42.541  31.304  29.508  1.00  0.00     0.029 A 
ATOM     65  N   UNL A   1      44.002  29.908  28.584  1.00  0.00    -0.354 N 
ATOM     66  N   UNL A   1      46.652  29.096  27.589  1.00  0.00    -0.248 NA
ATOM     67  C   UNL A   1      48.871  29.619  27.073  1.00  0.00     0.031 C 
ATOM     68  C   UNL A   1      43.741  31.992  29.301  1.00  0.00     0.029 A 
ATOM     69  C   UNL A   1      44.666  31.112  28.764  1.00  0.00     0.049 A 
ATOM     70  H   UNL A   1      44.404  29.093  28.203  1.00  0.00     0.167 HD
ATOM     71  C   UNL A   1      46.900  30.424  27.930  1.00  0.00     0.074 A 
ATOM     72  C   UNL A   1      48.294  30.675  27.626  1.00  0.00     0.031 C 
ATOM     73  C   UNL A   1      46.056  31.351  28.450  1.00  0.00     0.034 A 
BRANCH  60  74
ATOM     74  C   UNL A   1      40.291  29.259  29.405  1.00  0.00     0.023 A 
ATOM     75  C   UNL A   1      39.961  29.344  30.769  1.00  0.00     0.031 A 
ATOM     76  C   UNL A   1      39.258  29.440  28.468  1.00  0.00     0.131 A 
ATOM     77  C   UNL A   1      38.626  29.528  31.158  1.00  0.00     0.055 A 
ATOM     78  C   UNL A   1      37.945  29.710  28.861  1.00  0.00     0.041 A 
ATOM     79  F   UNL A   1      39.506  29.349  27.151  1.00  0.00    -0.206 F 
ATOM     80  C   UNL A   1      37.620  29.740  30.213  1.00  0.00     0.022 A 
BRANCH  77  81
ATOM     81  S   UNL A   1      38.203  29.344  32.912  1.00  0.00     0.124 S 
ATOM     82  O   UNL A   1      37.460  30.577  33.165  1.00  0.00    -0.237 OA
ATOM     83  O   UNL A   1      37.422  28.114  32.921  1.00  0.00    -0.237 OA
ATOM     84  O   UNL A   1      39.505  29.264  33.572  1.00  0.00    -0.744 OA
ENDBRANCH  77  81
ENDBRANCH  60  74
BRANCH  61  85
ATOM     85  C   UNL A   1      49.457  26.922  26.071  1.00  0.00     0.023 A 
ATOM     86  C   UNL A   1      49.822  27.326  24.775  1.00  0.00     0.031 A 
ATOM     87  C   UNL A   1      50.382  26.159  26.806  1.00  0.00     0.131 A 
ATOM     88  C   UNL A   1      51.052  26.915  24.235  1.00  0.00     0.055 A 
ATOM     89  C   UNL A   1      51.630  25.808  26.287  1.00  0.00     0.041 A 
ATOM     90  F   UNL A   1      50.087  25.747  28.049  1.00  0.00    -0.206 F 
ATOM     91  C   UNL A   1      51.964  26.172  24.987  1.00  0.00     0.022 A 
BRANCH  88  92
ATOM     92  S   UNL A   1      51.395  27.271  22.490  1.00  0.00     0.124 S 
ATOM     93  O   UNL A   1      50.126  26.920  21.861  1.00  0.00    -0.237 OA
ATOM     94  O   UNL A   1      51.718  28.694  22.530  1.00  0.00    -0.237 OA
ATOM     95  O   UNL A   1      52.515  26.387  22.176  1.00  0.00    -0.744 OA
ENDBRANCH  88  92
ENDBRANCH  61  85
BRANCH  73  96
ATOM     96  C   UNL A   1      46.634  32.709  28.767  1.00  0.00     0.023 A 
ATOM     97  C   UNL A   1      46.656  33.747  27.820  1.00  0.00     0.031 A 
ATOM     98  C   UNL A   1      47.181  32.963  30.038  1.00  0.00     0.131 A 
ATOM     99  C   UNL A   1      47.264  34.971  28.138  1.00  0.00     0.055 A 
ATOM    100  C   UNL A   1      47.725  34.204  30.371  1.00  0.00     0.041 A 
ATOM    101  F   UNL A   1      47.193  32.008  30.981  1.00  0.00    -0.206 F 
ATOM    102  C   UNL A   1      47.781  35.213  29.414  1.00  0.00     0.022 A 
BRANCH  99 103
ATOM    103  S   UNL A   1      47.463  36.212  26.829  1.00  0.00     0.124 S 
ATOM    104  O   UNL A   1      48.722  35.805  26.215  1.00  0.00    -0.237 OA
ATOM    105  O   UNL A   1      46.264  36.007  26.022  1.00  0.00    -0.237 OA
ATOM    106  O   UNL A   1      47.508  37.477  27.560  1.00  0.00    -0.744 OA
ENDBRANCH  99 103
ENDBRANCH  73  96
ENDBRANCH  47  48
ENDBRANCH  39  42
ENDBRANCH  37  38
ENDBRANCH  36  37
ENDBRANCH  35  36
ENDBRANCH   1  35
TORSDOF 20
ENDMDL
MODEL 2
REMARK VINA RESULT:     -12.6      2.503      7.776
REMARK SMILES CS(=O)(=O)Nc1ccc(-c2cc(Cl)cc3c2O[C@H](C(F)(F)F)C(C(=O)NCCCCCCNC(=O)c2ccc(-c4c5nc(c(-c6cc(S(=O)(=O)[O-])ccc6F)c6ccc([nH]6)c(-c6cc(S(=O)(=O)[O-])ccc6F)c6nc(c(-c7cc(S(=O)(=O)[O-])ccc7F)c7ccc4[nH]7)C=C6)C=C5)cc2)=C3)cc1
REMARK SMILES IDX 29 1 28 2 27 3 26 4 24 5 25 6 23 8 10 9 11 10 16 11 12 12
REMARK SMILES IDX 15 13 17 14 13 15 14 16 99 17 18 18 9 19 6 20 7 21 101 22
REMARK SMILES IDX 8 23 100 24 5 25 2 27 1 28 3 29 4 30 19 31 20 32 21 33 22 34
REMARK SMILES IDX 30 35 31 36 32 37 33 38 34 39 35 41 36 42 37 43 98 44 38 45
REMARK SMILES IDX 97 46 39 47 40 48 41 49 91 50 42 51 96 52 90 53 92 54 43 55
REMARK SMILES IDX 95 56 89 57 88 58 44 60 76 61 56 62 75 63 57 64 60 65 74 66
REMARK SMILES IDX 93 67 58 68 59 69 73 71 94 72 61 73 45 74 46 75 54 76 47 77
REMARK SMILES IDX 53 78 55 79 52 80 48 81 49 82 50 83 51 84 77 85 78 86 86 87
REMARK SMILES IDX 79 88 85 89 87 90 84 91 80 92 81 93 82 94 83 95 62 96 63 97
REMARK SMILES IDX 71 98 64 99 70 100 72 101 69 102 65 103 66 104 67 105 68 106
REMARK H PARENT 26 7 5 26 33 40 92 59 60 70
REMARK Flexibility Score: inf
ROOT
ATOM      1  C   UNL A   1      35.100  18.869  24.630  1.00  0.00     0.002 C 
ENDROOT
BRANCH   1   2
ATOM      2  C   UNL A   1      33.967  19.702  25.254  1.00  0.00     0.021 C 
BRANCH   2   3
ATOM      3  C   UNL A   1      32.626  19.621  24.510  1.00  0.00     0.116 C 
BRANCH   3   4
ATOM      4  N   UNL A   1      32.614  20.575  23.419  1.00  0.00    -0.352 N 
ATOM      5  C   UNL A   1      32.064  21.814  23.468  1.00  0.00     0.251 C 
ATOM      6  O   UNL A   1      31.309  22.187  22.578  1.00  0.00    -0.270 OA
ATOM      7  H   UNL A   1      33.039  20.303  22.575  1.00  0.00     0.163 HD
BRANCH   5   8
ATOM      8  C   UNL A   1      32.572  22.722  24.539  1.00  0.00     0.067 C 
ATOM      9  C   UNL A   1      31.179  26.258  23.099  1.00  0.00     0.026 A 
ATOM     10  C   UNL A   1      31.471  26.264  21.706  1.00  0.00     0.033 A 
ATOM     11  C   UNL A   1      31.825  25.266  23.858  1.00  0.00     0.135 A 
ATOM     12  C   UNL A   1      32.461  25.468  21.137  1.00  0.00     0.042 A 
ATOM     13  C   UNL A   1      32.914  24.559  23.286  1.00  0.00     0.019 A 
ATOM     14  O   UNL A   1      31.409  24.887  25.128  1.00  0.00    -0.475 OA
ATOM     15  Cl  UNL A   1      32.723  25.514  19.439  1.00  0.00    -0.084 Cl
ATOM     16  C   UNL A   1      33.245  24.666  21.940  1.00  0.00     0.032 A 
ATOM     17  C   UNL A   1      33.570  23.519  24.109  1.00  0.00     0.025 C 
ATOM     18  C   UNL A   1      31.498  23.411  25.368  1.00  0.00     0.314 C 
BRANCH   9  19
ATOM     19  C   UNL A   1      30.412  27.444  23.576  1.00  0.00    -0.014 A 
ATOM     20  C   UNL A   1      29.759  30.217  23.505  1.00  0.00     0.048 A 
ATOM     21  C   UNL A   1      29.019  29.289  22.770  1.00  0.00     0.027 A 
ATOM     22  C   UNL A   1      30.706  29.738  24.407  1.00  0.00     0.027 A 
ATOM     23  C   UNL A   1      29.315  27.919  22.830  1.00  0.00     0.011 A 
ATOM     24  C   UNL A   1      31.025  28.362  24.449  1.00  0.00     0.011 A 
BRANCH  20  25
ATOM     25  N   UNL A   1      29.617  31.583  23.122  1.00  0.00    -0.284 N 
ATOM     26  H   UNL A   1      30.449  32.108  23.067  1.00  0.00     0.180 HD
BRANCH  25  27
ATOM     27  S   UNL A   1      28.216  32.397  22.757  1.00  0.00     0.229 S 
ATOM     28  C   UNL A   1      27.954  32.055  21.024  1.00  0.00     0.183 C 
ATOM     29  O   UNL A   1      28.415  33.819  22.936  1.00  0.00    -0.207 OA
ATOM     30  O   UNL A   1      27.178  31.696  23.484  1.00  0.00    -0.207 OA
ENDBRANCH  25  27
ENDBRANCH  20  25
ENDBRANCH   9  19
BRANCH  18  31
ATOM     31  C   UNL A   1      31.764  23.079  26.854  1.00  0.00     0.429 C 
ATOM     32  F   UNL A   1      32.436  21.917  27.013  1.00  0.00    -0.167 F 
ATOM     33  F   UNL A   1      32.483  24.057  27.454  1.00  0.00    -0.167 F 
ATOM     34  F   UNL A   1      30.615  22.960  27.571  1.00  0.00    -0.167 F 
ENDBRANCH  18  31
ENDBRANCH   5   8
ENDBRANCH   3   4
ENDBRANCH   2   3
ENDBRANCH   1   2
BRANCH   1  35
ATOM     35  C   UNL A   1      36.501  19.465  24.789  1.00  0.00     0.002 C 
BRANCH  35  36
ATOM     36  C   UNL A   1      36.559  20.986  24.654  1.00  0.00     0.021 C 
BRANCH  36  37
ATOM     37  C   UNL A   1      37.721  21.643  25.390  1.00  0.00     0.116 C 
BRANCH  37  38
ATOM     38  N   UNL A   1      38.698  20.672  25.860  1.00  0.00    -0.352 N 
ATOM     39  C   UNL A   1      39.905  20.895  26.475  1.00  0.00     0.251 C 
ATOM     40  H   UNL A   1      38.461  19.728  25.717  1.00  0.00     0.163 HD
ATOM     41  O   UNL A   1      40.690  19.966  26.641  1.00  0.00    -0.269 OA
BRANCH  39  42
ATOM     42  C   UNL A   1      40.259  22.265  26.904  1.00  0.00     0.039 A 
ATOM     43  C   UNL A   1      41.174  22.432  27.945  1.00  0.00     0.014 A 
ATOM     44  C   UNL A   1      39.707  23.379  26.264  1.00  0.00     0.014 A 
ATOM     45  C   UNL A   1      41.585  23.718  28.300  1.00  0.00     0.010 A 
ATOM     46  C   UNL A   1      40.176  24.654  26.568  1.00  0.00     0.010 A 
ATOM     47  C   UNL A   1      41.120  24.837  27.590  1.00  0.00    -0.014 A 
BRANCH  47  48
ATOM     48  C   UNL A   1      41.610  26.205  27.905  1.00  0.00     0.031 A 
ATOM     49  C   UNL A   1      43.006  26.613  27.519  1.00  0.00     0.074 A 
ATOM     50  C   UNL A   1      40.817  27.059  28.583  1.00  0.00     0.049 A 
ATOM     51  N   UNL A   1      43.641  27.729  27.769  1.00  0.00    -0.248 NA
ATOM     52  C   UNL A   1      43.801  25.624  26.776  1.00  0.00     0.031 C 
ATOM     53  C   UNL A   1      39.458  26.764  29.044  1.00  0.00     0.029 A 
ATOM     54  N   UNL A   1      41.037  28.345  29.011  1.00  0.00    -0.354 N 
ATOM     55  C   UNL A   1      44.908  27.576  27.217  1.00  0.00     0.074 A 
ATOM     56  C   UNL A   1      44.973  26.233  26.683  1.00  0.00     0.031 C 
ATOM     57  C   UNL A   1      38.962  27.843  29.670  1.00  0.00     0.029 A 
ATOM     58  C   UNL A   1      39.979  28.889  29.703  1.00  0.00     0.049 A 
ATOM     59  H   UNL A   1      41.875  28.833  28.839  1.00  0.00     0.167 HD
ATOM     60  C   UNL A   1      45.914  28.483  27.137  1.00  0.00     0.034 A 
ATOM     61  C   UNL A   1      39.848  30.085  30.312  1.00  0.00     0.034 A 
ATOM     62  C   UNL A   1      45.833  29.820  27.674  1.00  0.00     0.049 A 
ATOM     63  C   UNL A   1      40.999  31.060  30.248  1.00  0.00     0.074 A 
ATOM     64  C   UNL A   1      46.779  30.829  27.620  1.00  0.00     0.029 A 
ATOM     65  N   UNL A   1      44.746  30.334  28.370  1.00  0.00    -0.354 N 
ATOM     66  N   UNL A   1      42.175  30.914  29.683  1.00  0.00    -0.248 NA
ATOM     67  C   UNL A   1      40.798  32.365  30.892  1.00  0.00     0.031 C 
ATOM     68  C   UNL A   1      46.295  31.924  28.344  1.00  0.00     0.029 A 
ATOM     69  C   UNL A   1      45.012  31.633  28.776  1.00  0.00     0.049 A 
ATOM     70  H   UNL A   1      43.909  29.847  28.549  1.00  0.00     0.167 HD
ATOM     71  C   UNL A   1      42.841  32.122  29.877  1.00  0.00     0.074 A 
ATOM     72  C   UNL A   1      41.928  32.988  30.593  1.00  0.00     0.031 C 
ATOM     73  C   UNL A   1      44.093  32.484  29.496  1.00  0.00     0.034 A 
BRANCH  60  74
ATOM     74  C   UNL A   1      47.192  28.047  26.459  1.00  0.00     0.023 A 
ATOM     75  C   UNL A   1      47.359  28.150  25.067  1.00  0.00     0.031 A 
ATOM     76  C   UNL A   1      48.252  27.505  27.209  1.00  0.00     0.131 A 
ATOM     77  C   UNL A   1      48.523  27.655  24.461  1.00  0.00     0.055 A 
ATOM     78  C   UNL A   1      49.443  27.092  26.608  1.00  0.00     0.041 A 
ATOM     79  F   UNL A   1      48.144  27.359  28.539  1.00  0.00    -0.206 F 
ATOM     80  C   UNL A   1      49.578  27.152  25.224  1.00  0.00     0.022 A 
BRANCH  77  81
ATOM     81  S   UNL A   1      48.576  27.545  22.651  1.00  0.00     0.124 S 
ATOM     82  O   UNL A   1      47.316  28.186  22.281  1.00  0.00    -0.237 OA
ATOM     83  O   UNL A   1      49.789  28.284  22.325  1.00  0.00    -0.237 OA
ATOM     84  O   UNL A   1      48.632  26.106  22.397  1.00  0.00    -0.744 OA
ENDBRANCH  77  81
ENDBRANCH  60  74
BRANCH  61  85
ATOM     85  C   UNL A   1      38.601  30.424  31.058  1.00  0.00     0.023 A 
ATOM     86  C   UNL A   1      37.551  31.124  30.440  1.00  0.00     0.031 A 
ATOM     87  C   UNL A   1      38.464  30.103  32.421  1.00  0.00     0.131 A 
ATOM     88  C   UNL A   1      36.440  31.530  31.197  1.00  0.00     0.055 A 
ATOM     89  C   UNL A   1      37.328  30.453  33.152  1.00  0.00     0.041 A 
ATOM     90  F   UNL A   1      39.436  29.434  33.062  1.00  0.00    -0.206 F 
ATOM     91  C   UNL A   1      36.315  31.186  32.544  1.00  0.00     0.022 A 
BRANCH  88  92
ATOM     92  S   UNL A   1      35.211  32.614  30.420  1.00  0.00     0.124 S 
ATOM     93  O   UNL A   1      35.996  33.815  30.162  1.00  0.00    -0.237 OA
ATOM     94  O   UNL A   1      34.822  31.838  29.247  1.00  0.00    -0.237 OA
ATOM     95  O   UNL A   1      34.180  32.748  31.446  1.00  0.00    -0.744 OA
ENDBRANCH  88  92
ENDBRANCH  61  85
BRANCH  73  96
ATOM     96  C   UNL A   1      44.525  33.897  29.807  1.00  0.00     0.023 A 
ATOM     97  C   UNL A   1      44.187  34.978  28.975  1.00  0.00     0.031 A 
ATOM     98  C   UNL A   1      45.298  34.163  30.953  1.00  0.00     0.131 A 
ATOM     99  C   UNL A   1      44.668  36.264  29.269  1.00  0.00     0.055 A 
ATOM    100  C   UNL A   1      45.717  35.453  31.276  1.00  0.00     0.041 A 
ATOM    101  F   UNL A   1      45.656  33.169  31.781  1.00  0.00    -0.206 F 
ATOM    102  C   UNL A   1      45.414  36.511  30.424  1.00  0.00     0.022 A 
BRANCH  99 103
ATOM    103  S   UNL A   1      44.390  37.593  28.066  1.00  0.00     0.124 S 
ATOM    104  O   UNL A   1      43.572  38.528  28.832  1.00  0.00    -0.237 OA
ATOM    105  O   UNL A   1      45.749  38.033  27.768  1.00  0.00    -0.237 OA
ATOM    106  O   UNL A   1      43.700  36.921  26.966  1.00  0.00    -0.744 OA
ENDBRANCH  99 103
ENDBRANCH  73  96
ENDBRANCH  47  48
ENDBRANCH  39  42
ENDBRANCH  37  38
ENDBRANCH  36  37
ENDBRANCH  35  36
ENDBRANCH   1  35
TORSDOF 20
ENDMDL
MODEL 3
REMARK VINA RESULT:     -11.9      3.405      5.602
REMARK SMILES CS(=O)(=O)Nc1ccc(-c2cc(Cl)cc3c2O[C@H](C(F)(F)F)C(C(=O)NCCCCCCNC(=O)c2ccc(-c4c5nc(c(-c6cc(S(=O)(=O)[O-])ccc6F)c6ccc([nH]6)c(-c6cc(S(=O)(=O)[O-])ccc6F)c6nc(c(-c7cc(S(=O)(=O)[O-])ccc7F)c7ccc4[nH]7)C=C6)C=C5)cc2)=C3)cc1
REMARK SMILES IDX 29 1 28 2 27 3 26 4 24 5 25 6 23 8 10 9 11 10 16 11 12 12
REMARK SMILES IDX 15 13 17 14 13 15 14 16 99 17 18 18 9 19 6 20 7 21 101 22
REMARK SMILES IDX 8 23 100 24 5 25 2 27 1 28 3 29 4 30 19 31 20 32 21 33 22 34
REMARK SMILES IDX 30 35 31 36 32 37 33 38 34 39 35 41 36 42 37 43 98 44 38 45
REMARK SMILES IDX 97 46 39 47 40 48 41 49 91 50 42 51 96 52 90 53 92 54 43 55
REMARK SMILES IDX 95 56 89 57 88 58 44 60 76 61 56 62 75 63 57 64 60 65 74 66
REMARK SMILES IDX 93 67 58 68 59 69 73 71 94 72 61 73 45 74 46 75 54 76 47 77
REMARK SMILES IDX 53 78 55 79 52 80 48 81 49 82 50 83 51 84 77 85 78 86 86 87
REMARK SMILES IDX 79 88 85 89 87 90 84 91 80 92 81 93 82 94 83 95 62 96 63 97
REMARK SMILES IDX 71 98 64 99 70 100 72 101 69 102 65 103 66 104 67 105 68 106
REMARK H PARENT 26 7 5 26 33 40 92 59 60 70
REMARK Flexibility Score: inf
ROOT
ATOM      1  C   UNL A   1      34.630  23.066  26.591  1.00  0.00     0.002 C 
ENDROOT
BRANCH   1   2
ATOM      2  C   UNL A   1      34.477  24.531  26.144  1.00  0.00     0.021 C 
BRANCH   2   3
ATOM      3  C   UNL A   1      33.046  25.082  26.232  1.00  0.00     0.116 C 
BRANCH   3   4
ATOM      4  N   UNL A   1      33.035  26.477  25.839  1.00  0.00    -0.352 N 
ATOM      5  C   UNL A   1      33.036  26.932  24.562  1.00  0.00     0.251 C 
ATOM      6  O   UNL A   1      33.831  27.799  24.219  1.00  0.00    -0.270 OA
ATOM      7  H   UNL A   1      33.025  27.149  26.558  1.00  0.00     0.163 HD
BRANCH   5   8
ATOM      8  C   UNL A   1      31.923  26.456  23.688  1.00  0.00     0.067 C 
ATOM      9  C   UNL A   1      32.873  22.508  23.531  1.00  0.00     0.026 A 
ATOM     10  C   UNL A   1      34.277  22.443  23.309  1.00  0.00     0.033 A 
ATOM     11  C   UNL A   1      32.275  23.764  23.332  1.00  0.00     0.135 A 
ATOM     12  C   UNL A   1      35.005  23.495  22.759  1.00  0.00     0.042 A 
ATOM     13  C   UNL A   1      33.005  24.775  22.655  1.00  0.00     0.019 A 
ATOM     14  O   UNL A   1      31.021  24.099  23.825  1.00  0.00    -0.475 OA
ATOM     15  Cl  UNL A   1      36.705  23.344  22.558  1.00  0.00    -0.084 Cl
ATOM     16  C   UNL A   1      34.357  24.643  22.353  1.00  0.00     0.032 A 
ATOM     17  C   UNL A   1      32.351  26.088  22.464  1.00  0.00     0.025 C 
ATOM     18  C   UNL A   1      30.942  25.500  24.350  1.00  0.00     0.314 C 
BRANCH   9  19
ATOM     19  C   UNL A   1      32.215  21.183  23.720  1.00  0.00    -0.014 A 
ATOM     20  C   UNL A   1      32.299  18.357  24.084  1.00  0.00     0.048 A 
ATOM     21  C   UNL A   1      32.221  19.218  25.181  1.00  0.00     0.027 A 
ATOM     22  C   UNL A   1      32.155  18.901  22.810  1.00  0.00     0.027 A 
ATOM     23  C   UNL A   1      32.144  20.608  25.004  1.00  0.00     0.011 A 
ATOM     24  C   UNL A   1      32.106  20.301  22.628  1.00  0.00     0.011 A 
BRANCH  20  25
ATOM     25  N   UNL A   1      32.716  17.022  24.360  1.00  0.00    -0.284 N 
ATOM     26  H   UNL A   1      32.033  16.424  24.743  1.00  0.00     0.180 HD
BRANCH  25  27
ATOM     27  S   UNL A   1      34.215  16.353  24.113  1.00  0.00     0.229 S 
ATOM     28  C   UNL A   1      35.351  17.627  24.637  1.00  0.00     0.183 C 
ATOM     29  O   UNL A   1      34.410  16.094  22.703  1.00  0.00    -0.207 OA
ATOM     30  O   UNL A   1      34.309  15.282  25.083  1.00  0.00    -0.207 OA
ENDBRANCH  25  27
ENDBRANCH  20  25
ENDBRANCH   9  19
BRANCH  18  31
ATOM     31  C   UNL A   1      29.525  26.098  24.197  1.00  0.00     0.429 C 
ATOM     32  F   UNL A   1      28.779  25.953  25.316  1.00  0.00    -0.167 F 
ATOM     33  F   UNL A   1      29.579  27.419  23.906  1.00  0.00    -0.167 F 
ATOM     34  F   UNL A   1      28.824  25.517  23.188  1.00  0.00    -0.167 F 
ENDBRANCH  18  31
ENDBRANCH   5   8
ENDBRANCH   3   4
ENDBRANCH   2   3
ENDBRANCH   1   2
BRANCH   1  35
ATOM     35  C   UNL A   1      36.068  22.544  26.604  1.00  0.00     0.002 C 
BRANCH  35  36
ATOM     36  C   UNL A   1      36.290  21.284  25.768  1.00  0.00     0.021 C 
BRANCH  36  37
ATOM     37  C   UNL A   1      37.608  21.257  25.002  1.00  0.00     0.116 C 
BRANCH  37  38
ATOM     38  N   UNL A   1      38.511  20.228  25.494  1.00  0.00    -0.352 N 
ATOM     39  C   UNL A   1      39.727  20.377  26.115  1.00  0.00     0.251 C 
ATOM     40  H   UNL A   1      38.211  19.300  25.364  1.00  0.00     0.163 HD
ATOM     41  O   UNL A   1      40.445  19.398  26.301  1.00  0.00    -0.269 OA
BRANCH  39  42
ATOM     42  C   UNL A   1      40.173  21.725  26.525  1.00  0.00     0.039 A 
ATOM     43  C   UNL A   1      41.025  21.851  27.624  1.00  0.00     0.014 A 
ATOM     44  C   UNL A   1      39.770  22.859  25.812  1.00  0.00     0.014 A 
ATOM     45  C   UNL A   1      41.525  23.108  27.968  1.00  0.00     0.010 A 
ATOM     46  C   UNL A   1      40.330  24.098  26.109  1.00  0.00     0.010 A 
ATOM     47  C   UNL A   1      41.213  24.236  27.191  1.00  0.00    -0.014 A 
BRANCH  47  48
ATOM     48  C   UNL A   1      41.801  25.567  27.497  1.00  0.00     0.031 A 
ATOM     49  C   UNL A   1      40.992  26.595  28.241  1.00  0.00     0.074 A 
ATOM     50  C   UNL A   1      43.041  25.866  27.061  1.00  0.00     0.049 A 
ATOM     51  N   UNL A   1      41.297  27.831  28.537  1.00  0.00    -0.248 NA
ATOM     52  C   UNL A   1      39.652  26.183  28.686  1.00  0.00     0.031 C 
ATOM     53  C   UNL A   1      43.908  24.965  26.298  1.00  0.00     0.029 A 
ATOM     54  N   UNL A   1      43.788  27.011  27.188  1.00  0.00    -0.354 N 
ATOM     55  C   UNL A   1      40.189  28.347  29.201  1.00  0.00     0.074 A 
ATOM     56  C   UNL A   1      39.180  27.309  29.199  1.00  0.00     0.031 C 
ATOM     57  C   UNL A   1      45.072  25.583  26.044  1.00  0.00     0.029 A 
ATOM     58  C   UNL A   1      45.020  26.941  26.579  1.00  0.00     0.049 A 
ATOM     59  H   UNL A   1      43.472  27.809  27.670  1.00  0.00     0.167 HD
ATOM     60  C   UNL A   1      40.038  29.562  29.785  1.00  0.00     0.034 A 
ATOM     61  C   UNL A   1      45.990  27.868  26.447  1.00  0.00     0.034 A 
ATOM     62  C   UNL A   1      41.055  30.585  29.780  1.00  0.00     0.049 A 
ATOM     63  C   UNL A   1      45.780  29.229  27.066  1.00  0.00     0.074 A 
ATOM     64  C   UNL A   1      41.020  31.838  30.367  1.00  0.00     0.029 A 
ATOM     65  N   UNL A   1      42.290  30.479  29.150  1.00  0.00    -0.354 N 
ATOM     66  N   UNL A   1      44.743  29.684  27.729  1.00  0.00    -0.248 NA
ATOM     67  C   UNL A   1      46.879  30.195  26.930  1.00  0.00     0.031 C 
ATOM     68  C   UNL A   1      42.198  32.514  30.032  1.00  0.00     0.029 A 
ATOM     69  C   UNL A   1      43.008  31.654  29.310  1.00  0.00     0.049 A 
ATOM     70  H   UNL A   1      42.607  29.684  28.662  1.00  0.00     0.167 HD
ATOM     71  C   UNL A   1      45.078  30.980  28.116  1.00  0.00     0.074 A 
ATOM     72  C   UNL A   1      46.420  31.222  27.629  1.00  0.00     0.031 C 
ATOM     73  C   UNL A   1      44.345  31.885  28.813  1.00  0.00     0.034 A 
BRANCH  60  74
ATOM     74  C   UNL A   1      38.718  29.851  30.459  1.00  0.00     0.023 A 
ATOM     75  C   UNL A   1      37.698  30.564  29.806  1.00  0.00     0.031 A 
ATOM     76  C   UNL A   1      38.477  29.423  31.777  1.00  0.00     0.131 A 
ATOM     77  C   UNL A   1      36.519  30.892  30.491  1.00  0.00     0.055 A 
ATOM     78  C   UNL A   1      37.266  29.678  32.425  1.00  0.00     0.041 A 
ATOM     79  F   UNL A   1      39.420  28.757  32.463  1.00  0.00    -0.206 F 
ATOM     80  C   UNL A   1      36.284  30.429  31.787  1.00  0.00     0.022 A 
BRANCH  77  81
ATOM     81  S   UNL A   1      35.360  32.052  29.715  1.00  0.00     0.124 S 
ATOM     82  O   UNL A   1      34.805  31.235  28.637  1.00  0.00    -0.237 OA
ATOM     83  O   UNL A   1      34.451  32.370  30.809  1.00  0.00    -0.237 OA
ATOM     84  O   UNL A   1      36.219  33.150  29.275  1.00  0.00    -0.744 OA
ENDBRANCH  77  81
ENDBRANCH  60  74
BRANCH  61  85
ATOM     85  C   UNL A   1      47.233  27.563  25.679  1.00  0.00     0.023 A 
ATOM     86  C   UNL A   1      47.326  27.838  24.305  1.00  0.00     0.031 A 
ATOM     87  C   UNL A   1      48.329  26.935  26.299  1.00  0.00     0.131 A 
ATOM     88  C   UNL A   1      48.463  27.436  23.585  1.00  0.00     0.055 A 
ATOM     89  C   UNL A   1      49.484  26.596  25.592  1.00  0.00     0.041 A 
ATOM     90  F   UNL A   1      48.296  26.650  27.610  1.00  0.00    -0.206 F 
ATOM     91  C   UNL A   1      49.548  26.830  24.223  1.00  0.00     0.022 A 
BRANCH  88  92
ATOM     92  S   UNL A   1      48.456  27.614  21.781  1.00  0.00     0.124 S 
ATOM     93  O   UNL A   1      47.138  28.192  21.546  1.00  0.00    -0.237 OA
ATOM     94  O   UNL A   1      49.594  28.500  21.560  1.00  0.00    -0.237 OA
ATOM     95  O   UNL A   1      48.632  26.244  21.304  1.00  0.00    -0.744 OA
ENDBRANCH  88  92
ENDBRANCH  61  85
BRANCH  73  96
ATOM     96  C   UNL A   1      45.004  33.206  29.130  1.00  0.00     0.023 A 
ATOM     97  C   UNL A   1      45.754  33.400  30.303  1.00  0.00     0.031 A 
ATOM     98  C   UNL A   1      44.871  34.292  28.246  1.00  0.00     0.131 A 
ATOM     99  C   UNL A   1      46.292  34.664  30.588  1.00  0.00     0.055 A 
ATOM    100  C   UNL A   1      45.465  35.528  28.502  1.00  0.00     0.041 A 
ATOM    101  F   UNL A   1      44.162  34.167  27.112  1.00  0.00    -0.206 F 
ATOM    102  C   UNL A   1      46.169  35.724  29.686  1.00  0.00     0.022 A 
BRANCH  99 103
ATOM    103  S   UNL A   1      47.072  34.935  32.204  1.00  0.00     0.124 S 
ATOM    104  O   UNL A   1      45.922  35.247  33.046  1.00  0.00    -0.237 OA
ATOM    105  O   UNL A   1      47.717  33.651  32.458  1.00  0.00    -0.237 OA
ATOM    106  O   UNL A   1      47.985  36.050  31.961  1.00  0.00    -0.744 OA
ENDBRANCH  99 103
ENDBRANCH  73  96
ENDBRANCH  47  48
ENDBRANCH  39  42
ENDBRANCH  37  38
ENDBRANCH  36  37
ENDBRANCH  35  36
ENDBRANCH   1  35
TORSDOF 20
ENDMDL
