MODEL 1
REMARK VINA RESULT:     -11.3      0.000      0.000
REMARK SMILES O=C(CSc1nc(O)cc(=O)[nH]1)Nc1cccc(C(=O)NCCCCCCNC(=O)c2ccc(-c3c4nc(c(-c5cc(S(=O)(=O)[O-])ccc5F)c5ccc([nH]5)c(-c5cc(S(=O)(=O)[O-])ccc5F)c5nc(c(-c6cc(S(=O)(=O)[O-])ccc6F)c6ccc3[nH]6)C=C5)C=C4)cc2)c1
REMARK SMILES IDX 23 1 22 2 21 3 19 4 20 5 18 7 14 8 15 9 94 10 16 11 17 12
REMARK SMILES IDX 13 13 1 14 2 15 3 17 4 18 5 19 6 20 12 21 7 22 10 23 9 25
REMARK SMILES IDX 11 26 8 27 24 29 25 30 26 31 27 32 28 33 29 34 30 36 31 37
REMARK SMILES IDX 32 38 93 39 33 40 92 41 34 42 35 43 36 44 86 45 37 46 91 47
REMARK SMILES IDX 85 48 87 49 38 50 90 51 84 52 83 53 39 55 71 56 51 57 70 58
REMARK SMILES IDX 52 59 55 60 69 61 88 62 53 63 54 64 68 66 89 67 56 68 40 69
REMARK SMILES IDX 41 70 49 71 42 72 48 73 50 74 47 75 43 76 44 77 45 78 46 79
REMARK SMILES IDX 72 80 73 81 81 82 74 83 80 84 82 85 79 86 75 87 76 88 77 89
REMARK SMILES IDX 78 90 57 91 58 92 66 93 59 94 65 95 67 96 64 97 60 98 61 99
REMARK SMILES IDX 62 100 63 101
REMARK H PARENT 21 6 13 16 12 24 8 28 28 35 87 54 55 65
REMARK Flexibility Score: inf
ROOT
ATOM      1  C   UNL A   1      33.643  25.731  23.562  1.00  0.00     0.021 C 
ENDROOT
BRANCH   1   2
ATOM      2  C   UNL A   1      33.885  27.183  23.168  1.00  0.00     0.116 C 
BRANCH   2   3
ATOM      3  N   UNL A   1      32.709  27.861  22.637  1.00  0.00    -0.352 N 
ATOM      4  C   UNL A   1      31.662  28.485  23.283  1.00  0.00     0.251 C 
ATOM      5  O   UNL A   1      30.741  28.958  22.619  1.00  0.00    -0.269 OA
ATOM      6  H   UNL A   1      32.652  27.876  21.654  1.00  0.00     0.163 HD
BRANCH   4   7
ATOM      7  C   UNL A   1      31.588  28.543  24.768  1.00  0.00     0.041 A 
ATOM      8  C   UNL A   1      32.160  29.643  26.851  1.00  0.00     0.041 A 
ATOM      9  C   UNL A   1      31.775  28.496  27.550  1.00  0.00     0.026 A 
ATOM     10  C   UNL A   1      31.953  29.689  25.475  1.00  0.00     0.040 A 
ATOM     11  C   UNL A   1      31.247  27.395  26.867  1.00  0.00     0.003 A 
ATOM     12  C   UNL A   1      31.181  27.407  25.473  1.00  0.00     0.014 A 
BRANCH   8  13
ATOM     13  N   UNL A   1      32.819  30.671  27.558  1.00  0.00    -0.325 N 
ATOM     14  O   UNL A   1      35.055  30.159  27.164  1.00  0.00    -0.274 OA
ATOM     15  C   UNL A   1      34.187  30.849  27.697  1.00  0.00     0.234 C 
ATOM     16  H   UNL A   1      32.243  31.334  28.002  1.00  0.00     0.169 HD
BRANCH  15  17
ATOM     17  C   UNL A   1      34.607  31.923  28.692  1.00  0.00     0.178 C 
BRANCH  17  18
ATOM     18  S   UNL A   1      34.157  33.621  28.245  1.00  0.00    -0.078 SA
BRANCH  18  19
ATOM     19  C   UNL A   1      33.881  34.295  29.819  1.00  0.00     0.172 A 
ATOM     20  N   UNL A   1      34.170  33.644  30.891  1.00  0.00    -0.189 NA
ATOM     21  N   UNL A   1      33.409  35.565  29.789  1.00  0.00    -0.301 N 
ATOM     22  C   UNL A   1      33.969  34.297  32.068  1.00  0.00     0.218 A 
ATOM     23  C   UNL A   1      33.233  36.279  30.936  1.00  0.00     0.255 A 
ATOM     24  H   UNL A   1      33.192  35.980  28.924  1.00  0.00     0.172 HD
ATOM     25  C   UNL A   1      33.534  35.553  32.179  1.00  0.00     0.139 A 
ATOM     26  O   UNL A   1      32.871  37.446  30.947  1.00  0.00    -0.269 OA
BRANCH  22  27
ATOM     27  O   UNL A   1      34.261  33.574  33.192  1.00  0.00    -0.493 OA
ATOM     28  H   UNL A   1      33.885  33.816  34.016  1.00  0.00     0.295 HD
ENDBRANCH  22  27
ENDBRANCH  18  19
ENDBRANCH  17  18
ENDBRANCH  15  17
ENDBRANCH   8  13
ENDBRANCH   4   7
ENDBRANCH   2   3
ENDBRANCH   1   2
BRANCH   1  29
ATOM     29  C   UNL A   1      34.151  25.314  24.941  1.00  0.00     0.002 C 
BRANCH  29  30
ATOM     30  C   UNL A   1      33.869  23.867  25.352  1.00  0.00     0.002 C 
BRANCH  30  31
ATOM     31  C   UNL A   1      34.842  23.247  26.359  1.00  0.00     0.021 C 
BRANCH  31  32
ATOM     32  C   UNL A   1      36.325  23.501  26.096  1.00  0.00     0.116 C 
BRANCH  32  33
ATOM     33  N   UNL A   1      37.112  22.283  26.132  1.00  0.00    -0.352 N 
ATOM     34  C   UNL A   1      38.466  22.107  26.275  1.00  0.00     0.251 C 
ATOM     35  H   UNL A   1      36.593  21.450  26.038  1.00  0.00     0.163 HD
ATOM     36  O   UNL A   1      38.945  20.991  26.087  1.00  0.00    -0.269 OA
BRANCH  34  37
ATOM     37  C   UNL A   1      39.349  23.243  26.627  1.00  0.00     0.039 A 
ATOM     38  C   UNL A   1      39.246  24.421  25.882  1.00  0.00     0.014 A 
ATOM     39  C   UNL A   1      40.299  23.150  27.649  1.00  0.00     0.014 A 
ATOM     40  C   UNL A   1      40.056  25.515  26.195  1.00  0.00     0.010 A 
ATOM     41  C   UNL A   1      41.053  24.269  28.011  1.00  0.00     0.010 A 
ATOM     42  C   UNL A   1      40.944  25.463  27.283  1.00  0.00    -0.014 A 
BRANCH  42  43
ATOM     43  C   UNL A   1      41.742  26.662  27.662  1.00  0.00     0.031 A 
ATOM     44  C   UNL A   1      43.179  26.798  27.236  1.00  0.00     0.074 A 
ATOM     45  C   UNL A   1      41.166  27.625  28.410  1.00  0.00     0.049 A 
ATOM     46  N   UNL A   1      44.017  27.780  27.455  1.00  0.00    -0.248 NA
ATOM     47  C   UNL A   1      43.758  25.674  26.487  1.00  0.00     0.031 C 
ATOM     48  C   UNL A   1      39.795  27.583  28.926  1.00  0.00     0.029 A 
ATOM     49  N   UNL A   1      41.651  28.827  28.861  1.00  0.00    -0.354 N 
ATOM     50  C   UNL A   1      45.220  27.395  26.873  1.00  0.00     0.074 A 
ATOM     51  C   UNL A   1      45.019  26.057  26.353  1.00  0.00     0.031 C 
ATOM     52  C   UNL A   1      39.535  28.725  29.581  1.00  0.00     0.029 A 
ATOM     53  C   UNL A   1      40.731  29.561  29.576  1.00  0.00     0.049 A 
ATOM     54  H   UNL A   1      42.569  29.136  28.689  1.00  0.00     0.167 HD
ATOM     55  C   UNL A   1      46.376  28.097  26.761  1.00  0.00     0.034 A 
ATOM     56  C   UNL A   1      40.837  30.769  30.165  1.00  0.00     0.034 A 
ATOM     57  C   UNL A   1      46.558  29.430  27.288  1.00  0.00     0.049 A 
ATOM     58  C   UNL A   1      42.138  31.520  30.044  1.00  0.00     0.074 A 
ATOM     59  C   UNL A   1      47.668  30.252  27.189  1.00  0.00     0.029 A 
ATOM     60  N   UNL A   1      45.612  30.135  28.022  1.00  0.00    -0.354 N 
ATOM     61  N   UNL A   1      43.247  31.166  29.436  1.00  0.00    -0.248 NA
ATOM     62  C   UNL A   1      42.194  32.844  30.675  1.00  0.00     0.031 C 
ATOM     63  C   UNL A   1      47.425  31.413  27.930  1.00  0.00     0.029 A 
ATOM     64  C   UNL A   1      46.127  31.363  28.415  1.00  0.00     0.049 A 
ATOM     65  H   UNL A   1      44.707  29.811  28.234  1.00  0.00     0.167 HD
ATOM     66  C   UNL A   1      44.123  32.237  29.589  1.00  0.00     0.074 A 
ATOM     67  C   UNL A   1      43.399  33.258  30.318  1.00  0.00     0.031 C 
ATOM     68  C   UNL A   1      45.408  32.366  29.166  1.00  0.00     0.034 A 
BRANCH  55  69
ATOM     69  C   UNL A   1      47.539  27.423  26.068  1.00  0.00     0.023 A 
ATOM     70  C   UNL A   1      48.458  26.621  26.771  1.00  0.00     0.031 A 
ATOM     71  C   UNL A   1      47.745  27.596  24.688  1.00  0.00     0.131 A 
ATOM     72  C   UNL A   1      49.576  26.090  26.109  1.00  0.00     0.055 A 
ATOM     73  C   UNL A   1      48.811  26.991  24.018  1.00  0.00     0.041 A 
ATOM     74  F   UNL A   1      46.918  28.367  23.964  1.00  0.00    -0.206 F 
ATOM     75  C   UNL A   1      49.743  26.245  24.732  1.00  0.00     0.022 A 
BRANCH  72  76
ATOM     76  S   UNL A   1      50.886  25.322  27.103  1.00  0.00     0.124 S 
ATOM     77  O   UNL A   1      51.395  26.467  27.853  1.00  0.00    -0.237 OA
ATOM     78  O   UNL A   1      50.153  24.325  27.875  1.00  0.00    -0.237 OA
ATOM     79  O   UNL A   1      51.805  24.785  26.100  1.00  0.00    -0.744 OA
ENDBRANCH  72  76
ENDBRANCH  55  69
BRANCH  56  80
ATOM     80  C   UNL A   1      39.689  31.345  30.925  1.00  0.00     0.023 A 
ATOM     81  C   UNL A   1      39.652  31.309  32.327  1.00  0.00     0.031 A 
ATOM     82  C   UNL A   1      38.585  31.901  30.253  1.00  0.00     0.131 A 
ATOM     83  C   UNL A   1      38.516  31.767  33.011  1.00  0.00     0.055 A 
ATOM     84  C   UNL A   1      37.483  32.414  30.939  1.00  0.00     0.041 A 
ATOM     85  F   UNL A   1      38.566  31.963  28.910  1.00  0.00    -0.206 F 
ATOM     86  C   UNL A   1      37.437  32.334  32.328  1.00  0.00     0.022 A 
BRANCH  83  87
ATOM     87  S   UNL A   1      38.421  31.519  34.805  1.00  0.00     0.124 S 
ATOM     88  O   UNL A   1      39.488  32.391  35.282  1.00  0.00    -0.237 OA
ATOM     89  O   UNL A   1      37.059  31.953  35.099  1.00  0.00    -0.237 OA
ATOM     90  O   UNL A   1      38.665  30.087  34.964  1.00  0.00    -0.744 OA
ENDBRANCH  83  87
ENDBRANCH  56  80
BRANCH  68  91
ATOM     91  C   UNL A   1      46.092  33.681  29.464  1.00  0.00     0.023 A 
ATOM     92  C   UNL A   1      45.980  34.785  28.598  1.00  0.00     0.031 A 
ATOM     93  C   UNL A   1      46.908  33.818  30.600  1.00  0.00     0.131 A 
ATOM     94  C   UNL A   1      46.743  35.939  28.832  1.00  0.00     0.055 A 
ATOM     95  C   UNL A   1      47.600  34.999  30.872  1.00  0.00     0.041 A 
ATOM     96  F   UNL A   1      47.058  32.801  31.464  1.00  0.00    -0.206 F 
ATOM     97  C   UNL A   1      47.538  36.061  29.974  1.00  0.00     0.022 A 
BRANCH  94  98
ATOM     98  S   UNL A   1      46.797  37.215  27.544  1.00  0.00     0.124 S 
ATOM     99  O   UNL A   1      46.413  38.412  28.287  1.00  0.00    -0.237 OA
ATOM    100  O   UNL A   1      48.187  37.156  27.105  1.00  0.00    -0.237 OA
ATOM    101  O   UNL A   1      45.816  36.754  26.562  1.00  0.00    -0.744 OA
ENDBRANCH  94  98
ENDBRANCH  68  91
ENDBRANCH  42  43
ENDBRANCH  34  37
ENDBRANCH  32  33
ENDBRANCH  31  32
ENDBRANCH  30  31
ENDBRANCH  29  30
ENDBRANCH   1  29
TORSDOF 21
ENDMDL
MODEL 2
REMARK VINA RESULT:     -11.1      5.112     11.098
REMARK SMILES O=C(CSc1nc(O)cc(=O)[nH]1)Nc1cccc(C(=O)NCCCCCCNC(=O)c2ccc(-c3c4nc(c(-c5cc(S(=O)(=O)[O-])ccc5F)c5ccc([nH]5)c(-c5cc(S(=O)(=O)[O-])ccc5F)c5nc(c(-c6cc(S(=O)(=O)[O-])ccc6F)c6ccc3[nH]6)C=C5)C=C4)cc2)c1
REMARK SMILES IDX 23 1 22 2 21 3 19 4 20 5 18 7 14 8 15 9 94 10 16 11 17 12
REMARK SMILES IDX 13 13 1 14 2 15 3 17 4 18 5 19 6 20 12 21 7 22 10 23 9 25
REMARK SMILES IDX 11 26 8 27 24 29 25 30 26 31 27 32 28 33 29 34 30 36 31 37
REMARK SMILES IDX 32 38 93 39 33 40 92 41 34 42 35 43 36 44 86 45 37 46 91 47
REMARK SMILES IDX 85 48 87 49 38 50 90 51 84 52 83 53 39 55 71 56 51 57 70 58
REMARK SMILES IDX 52 59 55 60 69 61 88 62 53 63 54 64 68 66 89 67 56 68 40 69
REMARK SMILES IDX 41 70 49 71 42 72 48 73 50 74 47 75 43 76 44 77 45 78 46 79
REMARK SMILES IDX 72 80 73 81 81 82 74 83 80 84 82 85 79 86 75 87 76 88 77 89
REMARK SMILES IDX 78 90 57 91 58 92 66 93 59 94 65 95 67 96 64 97 60 98 61 99
REMARK SMILES IDX 62 100 63 101
REMARK H PARENT 21 6 13 16 12 24 8 28 28 35 87 54 55 65
REMARK Flexibility Score: inf
ROOT
ATOM      1  C   UNL A   1      30.940  26.737  25.960  1.00  0.00     0.021 C 
ENDROOT
BRANCH   1   2
ATOM      2  C   UNL A   1      30.824  27.348  24.569  1.00  0.00     0.116 C 
BRANCH   2   3
ATOM      3  N   UNL A   1      32.047  27.978  24.089  1.00  0.00    -0.352 N 
ATOM      4  C   UNL A   1      33.017  27.517  23.222  1.00  0.00     0.251 C 
ATOM      5  O   UNL A   1      34.001  28.218  22.994  1.00  0.00    -0.269 OA
ATOM      6  H   UNL A   1      32.210  28.883  24.443  1.00  0.00     0.163 HD
BRANCH   4   7
ATOM      7  C   UNL A   1      32.930  26.166  22.606  1.00  0.00     0.041 A 
ATOM      8  C   UNL A   1      33.229  23.766  22.773  1.00  0.00     0.041 A 
ATOM      9  C   UNL A   1      33.121  23.666  21.383  1.00  0.00     0.026 A 
ATOM     10  C   UNL A   1      33.019  25.004  23.374  1.00  0.00     0.040 A 
ATOM     11  C   UNL A   1      32.864  24.804  20.611  1.00  0.00     0.003 A 
ATOM     12  C   UNL A   1      32.798  26.058  21.219  1.00  0.00     0.014 A 
BRANCH   8  13
ATOM     13  N   UNL A   1      33.631  22.625  23.499  1.00  0.00    -0.325 N 
ATOM     14  O   UNL A   1      35.321  23.490  24.847  1.00  0.00    -0.274 OA
ATOM     15  C   UNL A   1      34.643  22.545  24.443  1.00  0.00     0.234 C 
ATOM     16  H   UNL A   1      33.139  21.794  23.313  1.00  0.00     0.169 HD
BRANCH  15  17
ATOM     17  C   UNL A   1      34.993  21.137  24.907  1.00  0.00     0.178 C 
BRANCH  17  18
ATOM     18  S   UNL A   1      33.681  20.259  25.797  1.00  0.00    -0.078 SA
BRANCH  18  19
ATOM     19  C   UNL A   1      33.512  18.852  24.797  1.00  0.00     0.172 A 
ATOM     20  N   UNL A   1      32.804  18.872  23.721  1.00  0.00    -0.189 NA
ATOM     21  N   UNL A   1      34.239  17.792  25.225  1.00  0.00    -0.301 N 
ATOM     22  C   UNL A   1      32.795  17.729  22.983  1.00  0.00     0.218 A 
ATOM     23  C   UNL A   1      34.299  16.640  24.500  1.00  0.00     0.255 A 
ATOM     24  H   UNL A   1      34.733  17.856  26.073  1.00  0.00     0.172 HD
ATOM     25  C   UNL A   1      33.483  16.626  23.277  1.00  0.00     0.139 A 
ATOM     26  O   UNL A   1      34.994  15.686  24.819  1.00  0.00    -0.269 OA
BRANCH  22  27
ATOM     27  O   UNL A   1      32.017  17.769  21.858  1.00  0.00    -0.493 OA
ATOM     28  H   UNL A   1      31.359  18.430  21.766  1.00  0.00     0.295 HD
ENDBRANCH  22  27
ENDBRANCH  18  19
ENDBRANCH  17  18
ENDBRANCH  15  17
ENDBRANCH   8  13
ENDBRANCH   4   7
ENDBRANCH   2   3
ENDBRANCH   1   2
BRANCH   1  29
ATOM     29  C   UNL A   1      32.071  27.270  26.837  1.00  0.00     0.002 C 
BRANCH  29  30
ATOM     30  C   UNL A   1      31.767  28.548  27.625  1.00  0.00     0.002 C 
BRANCH  30  31
ATOM     31  C   UNL A   1      32.121  29.869  26.936  1.00  0.00     0.021 C 
BRANCH  31  32
ATOM     32  C   UNL A   1      33.551  30.364  27.140  1.00  0.00     0.116 C 
BRANCH  32  33
ATOM     33  N   UNL A   1      33.601  31.711  27.677  1.00  0.00    -0.352 N 
ATOM     34  C   UNL A   1      34.483  32.280  28.562  1.00  0.00     0.251 C 
ATOM     35  H   UNL A   1      32.890  32.312  27.357  1.00  0.00     0.163 HD
ATOM     36  O   UNL A   1      34.229  33.387  29.029  1.00  0.00    -0.269 OA
BRANCH  34  37
ATOM     37  C   UNL A   1      35.717  31.569  28.972  1.00  0.00     0.039 A 
ATOM     38  C   UNL A   1      36.945  32.043  28.504  1.00  0.00     0.014 A 
ATOM     39  C   UNL A   1      35.677  30.424  29.775  1.00  0.00     0.014 A 
ATOM     40  C   UNL A   1      38.128  31.403  28.880  1.00  0.00     0.010 A 
ATOM     41  C   UNL A   1      36.863  29.832  30.213  1.00  0.00     0.010 A 
ATOM     42  C   UNL A   1      38.103  30.312  29.765  1.00  0.00    -0.014 A 
BRANCH  42  43
ATOM     43  C   UNL A   1      39.374  29.689  30.229  1.00  0.00     0.031 A 
ATOM     44  C   UNL A   1      40.076  30.196  31.461  1.00  0.00     0.074 A 
ATOM     45  C   UNL A   1      39.902  28.670  29.523  1.00  0.00     0.049 A 
ATOM     46  N   UNL A   1      41.176  29.761  32.023  1.00  0.00    -0.248 NA
ATOM     47  C   UNL A   1      39.479  31.358  32.134  1.00  0.00     0.031 C 
ATOM     48  C   UNL A   1      39.340  28.123  28.285  1.00  0.00     0.029 A 
ATOM     49  N   UNL A   1      41.020  27.905  29.742  1.00  0.00    -0.354 N 
ATOM     50  C   UNL A   1      41.403  30.593  33.114  1.00  0.00     0.074 A 
ATOM     51  C   UNL A   1      40.363  31.602  33.090  1.00  0.00     0.031 C 
ATOM     52  C   UNL A   1      40.087  27.084  27.882  1.00  0.00     0.029 A 
ATOM     53  C   UNL A   1      41.209  26.918  28.800  1.00  0.00     0.049 A 
ATOM     54  H   UNL A   1      41.629  28.047  30.503  1.00  0.00     0.167 HD
ATOM     55  C   UNL A   1      42.373  30.511  34.060  1.00  0.00     0.034 A 
ATOM     56  C   UNL A   1      42.176  25.987  28.685  1.00  0.00     0.034 A 
ATOM     57  C   UNL A   1      43.403  29.499  34.066  1.00  0.00     0.049 A 
ATOM     58  C   UNL A   1      43.255  25.930  29.737  1.00  0.00     0.074 A 
ATOM     59  C   UNL A   1      44.404  29.293  35.001  1.00  0.00     0.029 A 
ATOM     60  N   UNL A   1      43.576  28.528  33.087  1.00  0.00    -0.354 N 
ATOM     61  N   UNL A   1      43.418  26.687  30.798  1.00  0.00    -0.248 NA
ATOM     62  C   UNL A   1      44.267  24.879  29.585  1.00  0.00     0.031 C 
ATOM     63  C   UNL A   1      45.226  28.256  34.547  1.00  0.00     0.029 A 
ATOM     64  C   UNL A   1      44.687  27.748  33.375  1.00  0.00     0.049 A 
ATOM     65  H   UNL A   1      42.994  28.410  32.302  1.00  0.00     0.167 HD
ATOM     66  C   UNL A   1      44.539  26.184  31.453  1.00  0.00     0.074 A 
ATOM     67  C   UNL A   1      44.986  25.042  30.684  1.00  0.00     0.031 C 
ATOM     68  C   UNL A   1      45.144  26.626  32.587  1.00  0.00     0.034 A 
BRANCH  55  69
ATOM     69  C   UNL A   1      42.379  31.563  35.147  1.00  0.00     0.023 A 
ATOM     70  C   UNL A   1      41.365  31.629  36.121  1.00  0.00     0.031 A 
ATOM     71  C   UNL A   1      43.403  32.525  35.204  1.00  0.00     0.131 A 
ATOM     72  C   UNL A   1      41.357  32.677  37.056  1.00  0.00     0.055 A 
ATOM     73  C   UNL A   1      43.437  33.512  36.192  1.00  0.00     0.041 A 
ATOM     74  F   UNL A   1      44.388  32.531  34.291  1.00  0.00    -0.206 F 
ATOM     75  C   UNL A   1      42.401  33.601  37.116  1.00  0.00     0.022 A 
BRANCH  72  76
ATOM     76  S   UNL A   1      39.884  32.900  38.093  1.00  0.00     0.124 S 
ATOM     77  O   UNL A   1      39.576  34.310  37.865  1.00  0.00    -0.237 OA
ATOM     78  O   UNL A   1      38.948  31.939  37.522  1.00  0.00    -0.237 OA
ATOM     79  O   UNL A   1      40.362  32.584  39.438  1.00  0.00    -0.744 OA
ENDBRANCH  72  76
ENDBRANCH  55  69
BRANCH  56  80
ATOM     80  C   UNL A   1      42.180  25.036  27.535  1.00  0.00     0.023 A 
ATOM     81  C   UNL A   1      41.415  23.859  27.561  1.00  0.00     0.031 A 
ATOM     82  C   UNL A   1      42.990  25.268  26.408  1.00  0.00     0.131 A 
ATOM     83  C   UNL A   1      41.516  22.934  26.510  1.00  0.00     0.055 A 
ATOM     84  C   UNL A   1      43.039  24.377  25.336  1.00  0.00     0.041 A 
ATOM     85  F   UNL A   1      43.742  26.379  26.329  1.00  0.00    -0.206 F 
ATOM     86  C   UNL A   1      42.310  23.192  25.390  1.00  0.00     0.022 A 
BRANCH  83  87
ATOM     87  S   UNL A   1      40.671  21.337  26.672  1.00  0.00     0.124 S 
ATOM     88  O   UNL A   1      41.465  20.491  25.789  1.00  0.00    -0.237 OA
ATOM     89  O   UNL A   1      40.798  21.072  28.101  1.00  0.00    -0.237 OA
ATOM     90  O   UNL A   1      39.314  21.623  26.211  1.00  0.00    -0.744 OA
ENDBRANCH  83  87
ENDBRANCH  56  80
BRANCH  68  91
ATOM     91  C   UNL A   1      46.341  25.837  33.070  1.00  0.00     0.023 A 
ATOM     92  C   UNL A   1      46.198  24.721  33.915  1.00  0.00     0.031 A 
ATOM     93  C   UNL A   1      47.644  26.237  32.725  1.00  0.00     0.131 A 
ATOM     94  C   UNL A   1      47.334  24.103  34.457  1.00  0.00     0.055 A 
ATOM     95  C   UNL A   1      48.770  25.566  33.202  1.00  0.00     0.041 A 
ATOM     96  F   UNL A   1      47.846  27.296  31.925  1.00  0.00    -0.206 F 
ATOM     97  C   UNL A   1      48.620  24.506  34.091  1.00  0.00     0.022 A 
BRANCH  94  98
ATOM     98  S   UNL A   1      47.106  22.865  35.762  1.00  0.00     0.124 S 
ATOM     99  O   UNL A   1      48.294  23.068  36.585  1.00  0.00    -0.237 OA
ATOM    100  O   UNL A   1      45.839  23.274  36.361  1.00  0.00    -0.237 OA
ATOM    101  O   UNL A   1      47.065  21.599  35.031  1.00  0.00    -0.744 OA
ENDBRANCH  94  98
ENDBRANCH  68  91
ENDBRANCH  42  43
ENDBRANCH  34  37
ENDBRANCH  32  33
ENDBRANCH  31  32
ENDBRANCH  30  31
ENDBRANCH  29  30
ENDBRANCH   1  29
TORSDOF 21
ENDMDL
MODEL 3
REMARK VINA RESULT:     -10.9      5.400      8.842
REMARK SMILES O=C(CSc1nc(O)cc(=O)[nH]1)Nc1cccc(C(=O)NCCCCCCNC(=O)c2ccc(-c3c4nc(c(-c5cc(S(=O)(=O)[O-])ccc5F)c5ccc([nH]5)c(-c5cc(S(=O)(=O)[O-])ccc5F)c5nc(c(-c6cc(S(=O)(=O)[O-])ccc6F)c6ccc3[nH]6)C=C5)C=C4)cc2)c1
REMARK SMILES IDX 23 1 22 2 21 3 19 4 20 5 18 7 14 8 15 9 94 10 16 11 17 12
REMARK SMILES IDX 13 13 1 14 2 15 3 17 4 18 5 19 6 20 12 21 7 22 10 23 9 25
REMARK SMILES IDX 11 26 8 27 24 29 25 30 26 31 27 32 28 33 29 34 30 36 31 37
REMARK SMILES IDX 32 38 93 39 33 40 92 41 34 42 35 43 36 44 86 45 37 46 91 47
REMARK SMILES IDX 85 48 87 49 38 50 90 51 84 52 83 53 39 55 71 56 51 57 70 58
REMARK SMILES IDX 52 59 55 60 69 61 88 62 53 63 54 64 68 66 89 67 56 68 40 69
REMARK SMILES IDX 41 70 49 71 42 72 48 73 50 74 47 75 43 76 44 77 45 78 46 79
REMARK SMILES IDX 72 80 73 81 81 82 74 83 80 84 82 85 79 86 75 87 76 88 77 89
REMARK SMILES IDX 78 90 57 91 58 92 66 93 59 94 65 95 67 96 64 97 60 98 61 99
REMARK SMILES IDX 62 100 63 101
REMARK H PARENT 21 6 13 16 12 24 8 28 28 35 87 54 55 65
REMARK Flexibility Score: inf
ROOT
ATOM      1  C   UNL A   1      30.768  29.219  22.106  1.00  0.00     0.021 C 
ENDROOT
BRANCH   1   2
ATOM      2  C   UNL A   1      29.946  29.076  23.381  1.00  0.00     0.116 C 
BRANCH   2   3
ATOM      3  N   UNL A   1      29.054  27.922  23.391  1.00  0.00    -0.352 N 
ATOM      4  C   UNL A   1      29.184  26.690  23.998  1.00  0.00     0.251 C 
ATOM      5  O   UNL A   1      28.311  25.841  23.828  1.00  0.00    -0.269 OA
ATOM      6  H   UNL A   1      28.222  28.042  22.878  1.00  0.00     0.163 HD
BRANCH   4   7
ATOM      7  C   UNL A   1      30.387  26.341  24.801  1.00  0.00     0.041 A 
ATOM      8  C   UNL A   1      32.154  24.776  25.354  1.00  0.00     0.041 A 
ATOM      9  C   UNL A   1      32.417  25.502  26.519  1.00  0.00     0.026 A 
ATOM     10  C   UNL A   1      31.215  25.273  24.454  1.00  0.00     0.040 A 
ATOM     11  C   UNL A   1      31.707  26.674  26.798  1.00  0.00     0.003 A 
ATOM     12  C   UNL A   1      30.671  27.078  25.954  1.00  0.00     0.014 A 
BRANCH   8  13
ATOM     13  N   UNL A   1      32.788  23.528  25.182  1.00  0.00    -0.325 N 
ATOM     14  O   UNL A   1      34.363  24.018  23.539  1.00  0.00    -0.274 OA
ATOM     15  C   UNL A   1      33.805  23.219  24.291  1.00  0.00     0.234 C 
ATOM     16  H   UNL A   1      32.474  22.796  25.759  1.00  0.00     0.169 HD
BRANCH  15  17
ATOM     17  C   UNL A   1      34.147  21.740  24.179  1.00  0.00     0.178 C 
BRANCH  17  18
ATOM     18  S   UNL A   1      33.463  20.679  25.480  1.00  0.00    -0.078 SA
BRANCH  18  19
ATOM     19  C   UNL A   1      33.349  19.173  24.628  1.00  0.00     0.172 A 
ATOM     20  N   UNL A   1      32.578  19.034  23.605  1.00  0.00    -0.189 NA
ATOM     21  N   UNL A   1      34.185  18.218  25.101  1.00  0.00    -0.301 N 
ATOM     22  C   UNL A   1      32.618  17.827  22.978  1.00  0.00     0.218 A 
ATOM     23  C   UNL A   1      34.296  17.008  24.483  1.00  0.00     0.255 A 
ATOM     24  H   UNL A   1      34.722  18.401  25.904  1.00  0.00     0.172 HD
ATOM     25  C   UNL A   1      33.411  16.813  23.325  1.00  0.00     0.139 A 
ATOM     26  O   UNL A   1      35.084  16.146  24.841  1.00  0.00    -0.269 OA
BRANCH  22  27
ATOM     27  O   UNL A   1      31.772  17.698  21.910  1.00  0.00    -0.493 OA
ATOM     28  H   UNL A   1      31.323  18.449  21.575  1.00  0.00     0.295 HD
ENDBRANCH  22  27
ENDBRANCH  18  19
ENDBRANCH  17  18
ENDBRANCH  15  17
ENDBRANCH   8  13
ENDBRANCH   4   7
ENDBRANCH   2   3
ENDBRANCH   1   2
BRANCH   1  29
ATOM     29  C   UNL A   1      31.644  28.025  21.733  1.00  0.00     0.002 C 
BRANCH  29  30
ATOM     30  C   UNL A   1      32.795  27.708  22.692  1.00  0.00     0.002 C 
BRANCH  30  31
ATOM     31  C   UNL A   1      33.566  28.909  23.246  1.00  0.00     0.021 C 
BRANCH  31  32
ATOM     32  C   UNL A   1      33.651  29.002  24.768  1.00  0.00     0.116 C 
BRANCH  32  33
ATOM     33  N   UNL A   1      32.863  30.097  25.302  1.00  0.00    -0.352 N 
ATOM     34  C   UNL A   1      32.981  30.776  26.489  1.00  0.00     0.251 C 
ATOM     35  H   UNL A   1      32.128  30.401  24.722  1.00  0.00     0.163 HD
ATOM     36  O   UNL A   1      32.086  31.548  26.827  1.00  0.00    -0.269 OA
BRANCH  34  37
ATOM     37  C   UNL A   1      34.154  30.572  27.371  1.00  0.00     0.039 A 
ATOM     38  C   UNL A   1      34.336  29.317  27.957  1.00  0.00     0.014 A 
ATOM     39  C   UNL A   1      35.050  31.607  27.658  1.00  0.00     0.014 A 
ATOM     40  C   UNL A   1      35.437  29.087  28.785  1.00  0.00     0.010 A 
ATOM     41  C   UNL A   1      36.192  31.355  28.422  1.00  0.00     0.010 A 
ATOM     42  C   UNL A   1      36.395  30.093  29.000  1.00  0.00    -0.014 A 
BRANCH  42  43
ATOM     43  C   UNL A   1      37.610  29.814  29.813  1.00  0.00     0.031 A 
ATOM     44  C   UNL A   1      38.727  28.966  29.265  1.00  0.00     0.074 A 
ATOM     45  C   UNL A   1      37.696  30.318  31.061  1.00  0.00     0.049 A 
ATOM     46  N   UNL A   1      39.866  28.639  29.823  1.00  0.00    -0.248 NA
ATOM     47  C   UNL A   1      38.528  28.390  27.929  1.00  0.00     0.031 C 
ATOM     48  C   UNL A   1      36.656  31.114  31.720  1.00  0.00     0.029 A 
ATOM     49  N   UNL A   1      38.699  30.249  31.995  1.00  0.00    -0.354 N 
ATOM     50  C   UNL A   1      40.520  27.821  28.907  1.00  0.00     0.074 A 
ATOM     51  C   UNL A   1      39.616  27.646  27.788  1.00  0.00     0.031 C 
ATOM     52  C   UNL A   1      37.095  31.496  32.929  1.00  0.00     0.029 A 
ATOM     53  C   UNL A   1      38.422  30.936  33.156  1.00  0.00     0.049 A 
ATOM     54  H   UNL A   1      39.538  29.755  31.848  1.00  0.00     0.167 HD
ATOM     55  C   UNL A   1      41.764  27.285  28.980  1.00  0.00     0.034 A 
ATOM     56  C   UNL A   1      39.153  31.096  34.277  1.00  0.00     0.034 A 
ATOM     57  C   UNL A   1      42.652  27.469  30.105  1.00  0.00     0.049 A 
ATOM     58  C   UNL A   1      40.524  30.472  34.342  1.00  0.00     0.074 A 
ATOM     59  C   UNL A   1      43.949  27.013  30.263  1.00  0.00     0.029 A 
ATOM     60  N   UNL A   1      42.332  28.154  31.271  1.00  0.00    -0.354 N 
ATOM     61  N   UNL A   1      41.151  29.753  33.440  1.00  0.00    -0.248 NA
ATOM     62  C   UNL A   1      41.292  30.701  35.572  1.00  0.00     0.031 C 
ATOM     63  C   UNL A   1      44.382  27.350  31.550  1.00  0.00     0.029 A 
ATOM     64  C   UNL A   1      43.392  28.100  32.166  1.00  0.00     0.049 A 
ATOM     65  H   UNL A   1      41.477  28.613  31.439  1.00  0.00     0.167 HD
ATOM     66  C   UNL A   1      42.400  29.466  33.985  1.00  0.00     0.074 A 
ATOM     67  C   UNL A   1      42.444  30.118  35.277  1.00  0.00     0.031 C 
ATOM     68  C   UNL A   1      43.418  28.730  33.466  1.00  0.00     0.034 A 
BRANCH  55  69
ATOM     69  C   UNL A   1      42.224  26.426  27.823  1.00  0.00     0.023 A 
ATOM     70  C   UNL A   1      42.039  25.031  27.815  1.00  0.00     0.031 A 
ATOM     71  C   UNL A   1      42.872  27.005  26.717  1.00  0.00     0.131 A 
ATOM     72  C   UNL A   1      42.563  24.258  26.767  1.00  0.00     0.055 A 
ATOM     73  C   UNL A   1      43.313  26.240  25.635  1.00  0.00     0.041 A 
ATOM     74  F   UNL A   1      43.100  28.327  26.673  1.00  0.00    -0.206 F 
ATOM     75  C   UNL A   1      43.173  24.856  25.663  1.00  0.00     0.022 A 
BRANCH  72  76
ATOM     76  S   UNL A   1      42.570  22.452  26.942  1.00  0.00     0.124 S 
ATOM     77  O   UNL A   1      43.914  22.117  26.477  1.00  0.00    -0.237 OA
ATOM     78  O   UNL A   1      42.323  22.272  28.368  1.00  0.00    -0.237 OA
ATOM     79  O   UNL A   1      41.488  22.019  26.060  1.00  0.00    -0.744 OA
ENDBRANCH  72  76
ENDBRANCH  55  69
BRANCH  56  80
ATOM     80  C   UNL A   1      38.609  31.870  35.432  1.00  0.00     0.023 A 
ATOM     81  C   UNL A   1      38.147  31.223  36.589  1.00  0.00     0.031 A 
ATOM     82  C   UNL A   1      38.500  33.271  35.374  1.00  0.00     0.131 A 
ATOM     83  C   UNL A   1      37.549  31.968  37.617  1.00  0.00     0.055 A 
ATOM     84  C   UNL A   1      37.963  34.015  36.425  1.00  0.00     0.041 A 
ATOM     85  F   UNL A   1      38.928  33.943  34.292  1.00  0.00    -0.206 F 
ATOM     86  C   UNL A   1      37.468  33.361  37.550  1.00  0.00     0.022 A 
BRANCH  83  87
ATOM     87  S   UNL A   1      36.784  31.082  39.002  1.00  0.00     0.124 S 
ATOM     88  O   UNL A   1      37.782  31.254  40.051  1.00  0.00    -0.237 OA
ATOM     89  O   UNL A   1      35.536  31.816  39.178  1.00  0.00    -0.237 OA
ATOM     90  O   UNL A   1      36.638  29.719  38.495  1.00  0.00    -0.744 OA
ENDBRANCH  83  87
ENDBRANCH  56  80
BRANCH  68  91
ATOM     91  C   UNL A   1      44.676  28.628  34.299  1.00  0.00     0.023 A 
ATOM     92  C   UNL A   1      44.879  27.569  35.202  1.00  0.00     0.031 A 
ATOM     93  C   UNL A   1      45.661  29.629  34.226  1.00  0.00     0.131 A 
ATOM     94  C   UNL A   1      45.990  27.584  36.059  1.00  0.00     0.055 A 
ATOM     95  C   UNL A   1      46.805  29.594  35.024  1.00  0.00     0.041 A 
ATOM     96  F   UNL A   1      45.524  30.666  33.385  1.00  0.00    -0.206 F 
ATOM     97  C   UNL A   1      46.964  28.579  35.963  1.00  0.00     0.022 A 
BRANCH  94  98
ATOM     98  S   UNL A   1      46.062  26.366  37.402  1.00  0.00     0.124 S 
ATOM     99  O   UNL A   1      45.844  25.113  36.688  1.00  0.00    -0.237 OA
ATOM    100  O   UNL A   1      47.405  26.571  37.936  1.00  0.00    -0.237 OA
ATOM    101  O   UNL A   1      44.974  26.771  38.291  1.00  0.00    -0.744 OA
ENDBRANCH  94  98
ENDBRANCH  68  91
ENDBRANCH  42  43
ENDBRANCH  34  37
ENDBRANCH  32  33
ENDBRANCH  31  32
ENDBRANCH  30  31
ENDBRANCH  29  30
ENDBRANCH   1  29
TORSDOF 21
ENDMDL
