MODEL 1
REMARK VINA RESULT:     -11.0      0.000      0.000
REMARK SMILES C[NH2+][C@@]1(C(=O)NCCCCCCNC(=O)c2ccc(-c3c4nc(c(-c5cc(S(=O)(=O)[O-])ccc5F)c5ccc([nH]5)c(-c5cc(S(=O)(=O)[O-])ccc5F)c5nc(c(-c6cc(S(=O)(=O)[O-])ccc6F)c6ccc3[nH]6)C=C5)C=C4)cc2)CCC[C@H]([N@H+](C)C2CC[NH+](C)CC2)C1
REMARK SMILES IDX 10 1 9 2 8 3 7 4 6 5 4 6 5 7 3 9 79 10 92 11 80 12 82 13
REMARK SMILES IDX 81 14 2 15 1 16 83 19 84 20 85 22 86 23 91 24 87 25 90 26
REMARK SMILES IDX 88 27 89 28 11 30 12 31 13 32 14 33 15 35 16 36 17 37 78 38
REMARK SMILES IDX 18 39 77 40 19 41 20 42 21 43 71 44 22 45 76 46 70 47 72 48
REMARK SMILES IDX 23 49 75 50 69 51 68 52 24 54 56 55 36 56 55 57 37 58 40 59
REMARK SMILES IDX 54 60 73 61 38 62 39 63 53 65 74 66 41 67 25 68 26 69 34 70
REMARK SMILES IDX 27 71 33 72 35 73 32 74 28 75 29 76 30 77 31 78 57 79 58 80
REMARK SMILES IDX 66 81 59 82 65 83 67 84 64 85 60 86 61 87 62 88 63 89 42 90
REMARK SMILES IDX 43 91 51 92 44 93 50 94 52 95 49 96 45 97 46 98 47 99 48 100
REMARK H PARENT 6 8 2 17 2 18 83 21 88 29 13 34 72 53 40 64
REMARK Flexibility Score: inf
ROOT
ATOM      1  C   UNL A   1      31.833  30.067  26.967  1.00  0.00     0.002 C 
ENDROOT
BRANCH   1   2
ATOM      2  C   UNL A   1      33.106  29.199  27.150  1.00  0.00     0.002 C 
BRANCH   2   3
ATOM      3  C   UNL A   1      33.297  27.671  26.909  1.00  0.00     0.021 C 
BRANCH   3   4
ATOM      4  C   UNL A   1      33.759  27.014  25.588  1.00  0.00     0.116 C 
BRANCH   4   5
ATOM      5  N   UNL A   1      33.920  27.740  24.342  1.00  0.00    -0.351 N 
ATOM      6  C   UNL A   1      32.978  28.427  23.601  1.00  0.00     0.281 C 
ATOM      7  O   UNL A   1      33.477  29.332  22.901  1.00  0.00    -0.268 OA
ATOM      8  H   UNL A   1      34.831  27.742  23.971  1.00  0.00     0.163 HD
BRANCH   6   9
ATOM      9  C   UNL A   1      31.392  28.080  23.346  1.00  0.00     0.181 C 
ATOM     10  C   UNL A   1      30.663  27.693  24.693  1.00  0.00     0.079 C 
ATOM     11  C   UNL A   1      30.994  27.112  22.224  1.00  0.00     0.144 C 
ATOM     12  C   UNL A   1      29.946  26.343  24.853  1.00  0.00     0.013 C 
ATOM     13  C   UNL A   1      30.936  25.602  22.614  1.00  0.00     0.190 C 
ATOM     14  C   UNL A   1      29.838  25.443  23.645  1.00  0.00     0.065 C 
BRANCH   9  15
ATOM     15  N   UNL A   1      30.778  29.456  23.165  1.00  0.00    -0.336 N 
ATOM     16  C   UNL A   1      30.070  29.796  21.960  1.00  0.00     0.331 C 
ATOM     17  H   UNL A   1      30.121  29.585  23.935  1.00  0.00     0.346 HD
ATOM     18  H   UNL A   1      31.597  30.064  23.125  1.00  0.00     0.346 HD
ENDBRANCH   9  15
BRANCH  13  19
ATOM     19  N   UNL A   1      32.291  25.041  22.782  1.00  0.00    -0.332 N 
ATOM     20  C   UNL A   1      33.015  25.432  21.525  1.00  0.00     0.333 C 
ATOM     21  H   UNL A   1      32.545  25.422  23.693  1.00  0.00     0.348 HD
BRANCH  19  22
ATOM     22  C   UNL A   1      32.633  23.611  23.096  1.00  0.00     0.195 C 
ATOM     23  C   UNL A   1      32.421  22.901  24.442  1.00  0.00     0.126 C 
ATOM     24  C   UNL A   1      34.139  23.344  22.810  1.00  0.00     0.126 C 
ATOM     25  C   UNL A   1      33.435  23.260  25.535  1.00  0.00     0.268 C 
ATOM     26  C   UNL A   1      35.127  23.674  23.932  1.00  0.00     0.268 C 
ATOM     27  N   UNL A   1      34.809  22.936  25.147  1.00  0.00    -0.337 N 
ATOM     28  C   UNL A   1      35.742  23.319  26.212  1.00  0.00     0.332 C 
ATOM     29  H   UNL A   1      34.894  21.931  24.989  1.00  0.00     0.347 HD
ENDBRANCH  19  22
ENDBRANCH  13  19
ENDBRANCH   6   9
ENDBRANCH   4   5
ENDBRANCH   3   4
ENDBRANCH   2   3
ENDBRANCH   1   2
BRANCH   1  30
ATOM     30  C   UNL A   1      31.823  31.590  26.742  1.00  0.00     0.021 C 
BRANCH  30  31
ATOM     31  C   UNL A   1      33.061  32.441  26.972  1.00  0.00     0.116 C 
BRANCH  31  32
ATOM     32  N   UNL A   1      32.769  33.748  27.524  1.00  0.00    -0.352 N 
ATOM     33  C   UNL A   1      33.217  34.414  28.642  1.00  0.00     0.251 C 
ATOM     34  H   UNL A   1      32.119  34.263  26.993  1.00  0.00     0.163 HD
ATOM     35  O   UNL A   1      32.633  35.458  28.942  1.00  0.00    -0.269 OA
BRANCH  33  36
ATOM     36  C   UNL A   1      34.350  33.955  29.504  1.00  0.00     0.039 A 
ATOM     37  C   UNL A   1      35.655  34.321  29.126  1.00  0.00     0.014 A 
ATOM     38  C   UNL A   1      34.199  33.082  30.583  1.00  0.00     0.014 A 
ATOM     39  C   UNL A   1      36.775  33.829  29.815  1.00  0.00     0.010 A 
ATOM     40  C   UNL A   1      35.312  32.659  31.325  1.00  0.00     0.010 A 
ATOM     41  C   UNL A   1      36.616  32.995  30.929  1.00  0.00    -0.014 A 
BRANCH  41  42
ATOM     42  C   UNL A   1      37.787  32.379  31.625  1.00  0.00     0.031 A 
ATOM     43  C   UNL A   1      38.557  31.267  30.950  1.00  0.00     0.074 A 
ATOM     44  C   UNL A   1      38.133  32.768  32.869  1.00  0.00     0.049 A 
ATOM     45  N   UNL A   1      39.519  30.512  31.417  1.00  0.00    -0.248 NA
ATOM     46  C   UNL A   1      38.158  30.940  29.573  1.00  0.00     0.031 C 
ATOM     47  C   UNL A   1      37.460  33.809  33.647  1.00  0.00     0.029 A 
ATOM     48  N   UNL A   1      39.128  32.323  33.707  1.00  0.00    -0.354 N 
ATOM     49  C   UNL A   1      39.810  29.596  30.407  1.00  0.00     0.074 A 
ATOM     50  C   UNL A   1      38.883  29.860  29.327  1.00  0.00     0.031 C 
ATOM     51  C   UNL A   1      38.069  33.933  34.838  1.00  0.00     0.029 A 
ATOM     52  C   UNL A   1      39.149  32.956  34.930  1.00  0.00     0.049 A 
ATOM     53  H   UNL A   1      39.768  31.618  33.455  1.00  0.00     0.167 HD
ATOM     54  C   UNL A   1      40.774  28.640  30.371  1.00  0.00     0.034 A 
ATOM     55  C   UNL A   1      39.940  32.763  36.005  1.00  0.00     0.034 A 
ATOM     56  C   UNL A   1      41.721  28.420  31.438  1.00  0.00     0.049 A 
ATOM     57  C   UNL A   1      41.019  31.710  35.939  1.00  0.00     0.074 A 
ATOM     58  C   UNL A   1      42.778  27.528  31.486  1.00  0.00     0.029 A 
ATOM     59  N   UNL A   1      41.729  29.107  32.646  1.00  0.00    -0.354 N 
ATOM     60  N   UNL A   1      41.300  30.875  34.965  1.00  0.00    -0.248 NA
ATOM     61  C   UNL A   1      41.896  31.584  37.112  1.00  0.00     0.031 C 
ATOM     62  C   UNL A   1      43.388  27.634  32.741  1.00  0.00     0.029 A 
ATOM     63  C   UNL A   1      42.757  28.642  33.452  1.00  0.00     0.049 A 
ATOM     64  H   UNL A   1      41.096  29.818  32.894  1.00  0.00     0.167 HD
ATOM     65  C   UNL A   1      42.404  30.145  35.397  1.00  0.00     0.074 A 
ATOM     66  C   UNL A   1      42.746  30.648  36.712  1.00  0.00     0.031 C 
ATOM     67  C   UNL A   1      43.078  29.150  34.765  1.00  0.00     0.034 A 
BRANCH  54  68
ATOM     68  C   UNL A   1      40.828  27.747  29.151  1.00  0.00     0.023 A 
ATOM     69  C   UNL A   1      41.779  27.936  28.133  1.00  0.00     0.031 A 
ATOM     70  C   UNL A   1      39.888  26.712  28.984  1.00  0.00     0.131 A 
ATOM     71  C   UNL A   1      41.713  27.170  26.958  1.00  0.00     0.055 A 
ATOM     72  C   UNL A   1      39.885  25.894  27.852  1.00  0.00     0.041 A 
ATOM     73  F   UNL A   1      38.944  26.488  29.912  1.00  0.00    -0.206 F 
ATOM     74  C   UNL A   1      40.790  26.132  26.821  1.00  0.00     0.022 A 
BRANCH  71  75
ATOM     75  S   UNL A   1      42.750  27.656  25.551  1.00  0.00     0.124 S 
ATOM     76  O   UNL A   1      42.770  26.426  24.763  1.00  0.00    -0.237 OA
ATOM     77  O   UNL A   1      42.008  28.771  24.981  1.00  0.00    -0.237 OA
ATOM     78  O   UNL A   1      44.028  28.008  26.173  1.00  0.00    -0.744 OA
ENDBRANCH  71  75
ENDBRANCH  54  68
BRANCH  55  79
ATOM     79  C   UNL A   1      39.744  33.575  37.242  1.00  0.00     0.023 A 
ATOM     80  C   UNL A   1      40.515  34.724  37.484  1.00  0.00     0.031 A 
ATOM     81  C   UNL A   1      38.800  33.198  38.214  1.00  0.00     0.131 A 
ATOM     82  C   UNL A   1      40.355  35.435  38.684  1.00  0.00     0.055 A 
ATOM     83  C   UNL A   1      38.612  33.935  39.385  1.00  0.00     0.041 A 
ATOM     84  F   UNL A   1      38.034  32.111  38.031  1.00  0.00    -0.206 F 
ATOM     85  C   UNL A   1      39.400  35.056  39.631  1.00  0.00     0.022 A 
BRANCH  82  86
ATOM     86  S   UNL A   1      41.467  36.828  39.024  1.00  0.00     0.124 S 
ATOM     87  O   UNL A   1      42.237  36.326  40.155  1.00  0.00    -0.237 OA
ATOM     88  O   UNL A   1      42.188  36.953  37.761  1.00  0.00    -0.237 OA
ATOM     89  O   UNL A   1      40.552  37.927  39.329  1.00  0.00    -0.744 OA
ENDBRANCH  82  86
ENDBRANCH  55  79
BRANCH  67  90
ATOM     90  C   UNL A   1      44.277  28.576  35.477  1.00  0.00     0.023 A 
ATOM     91  C   UNL A   1      44.149  27.553  36.432  1.00  0.00     0.031 A 
ATOM     92  C   UNL A   1      45.564  29.067  35.199  1.00  0.00     0.131 A 
ATOM     93  C   UNL A   1      45.283  27.090  37.116  1.00  0.00     0.055 A 
ATOM     94  C   UNL A   1      46.697  28.564  35.842  1.00  0.00     0.041 A 
ATOM     95  F   UNL A   1      45.743  30.043  34.295  1.00  0.00    -0.206 F 
ATOM     96  C   UNL A   1      46.559  27.578  36.815  1.00  0.00     0.022 A 
BRANCH  93  97
ATOM     97  S   UNL A   1      45.061  25.901  38.466  1.00  0.00     0.124 S 
ATOM     98  O   UNL A   1      46.429  25.725  38.945  1.00  0.00    -0.237 OA
ATOM     99  O   UNL A   1      44.157  26.612  39.364  1.00  0.00    -0.237 OA
ATOM    100  O   UNL A   1      44.482  24.733  37.804  1.00  0.00    -0.744 OA
ENDBRANCH  93  97
ENDBRANCH  67  90
ENDBRANCH  41  42
ENDBRANCH  33  36
ENDBRANCH  31  32
ENDBRANCH  30  31
ENDBRANCH   1  30
TORSDOF 19
ENDMDL
MODEL 2
REMARK VINA RESULT:     -11.0      2.134      3.475
REMARK SMILES C[NH2+][C@@]1(C(=O)NCCCCCCNC(=O)c2ccc(-c3c4nc(c(-c5cc(S(=O)(=O)[O-])ccc5F)c5ccc([nH]5)c(-c5cc(S(=O)(=O)[O-])ccc5F)c5nc(c(-c6cc(S(=O)(=O)[O-])ccc6F)c6ccc3[nH]6)C=C5)C=C4)cc2)CCC[C@H]([N@H+](C)C2CC[NH+](C)CC2)C1
REMARK SMILES IDX 10 1 9 2 8 3 7 4 6 5 4 6 5 7 3 9 79 10 92 11 80 12 82 13
REMARK SMILES IDX 81 14 2 15 1 16 83 19 84 20 85 22 86 23 91 24 87 25 90 26
REMARK SMILES IDX 88 27 89 28 11 30 12 31 13 32 14 33 15 35 16 36 17 37 78 38
REMARK SMILES IDX 18 39 77 40 19 41 20 42 21 43 71 44 22 45 76 46 70 47 72 48
REMARK SMILES IDX 23 49 75 50 69 51 68 52 24 54 56 55 36 56 55 57 37 58 40 59
REMARK SMILES IDX 54 60 73 61 38 62 39 63 53 65 74 66 41 67 25 68 26 69 34 70
REMARK SMILES IDX 27 71 33 72 35 73 32 74 28 75 29 76 30 77 31 78 57 79 58 80
REMARK SMILES IDX 66 81 59 82 65 83 67 84 64 85 60 86 61 87 62 88 63 89 42 90
REMARK SMILES IDX 43 91 51 92 44 93 50 94 52 95 49 96 45 97 46 98 47 99 48 100
REMARK H PARENT 6 8 2 17 2 18 83 21 88 29 13 34 72 53 40 64
REMARK Flexibility Score: inf
ROOT
ATOM      1  C   UNL A   1      31.690  30.297  26.337  1.00  0.00     0.002 C 
ENDROOT
BRANCH   1   2
ATOM      2  C   UNL A   1      31.751  29.055  27.266  1.00  0.00     0.002 C 
BRANCH   2   3
ATOM      3  C   UNL A   1      32.435  27.677  27.021  1.00  0.00     0.021 C 
BRANCH   3   4
ATOM      4  C   UNL A   1      32.012  26.631  25.964  1.00  0.00     0.116 C 
BRANCH   4   5
ATOM      5  N   UNL A   1      31.131  25.514  26.246  1.00  0.00    -0.351 N 
ATOM      6  C   UNL A   1      31.446  24.228  26.644  1.00  0.00     0.281 C 
ATOM      7  O   UNL A   1      30.523  23.676  27.278  1.00  0.00    -0.268 OA
ATOM      8  H   UNL A   1      30.170  25.698  26.139  1.00  0.00     0.163 HD
BRANCH   6   9
ATOM      9  C   UNL A   1      32.720  23.283  26.213  1.00  0.00     0.181 C 
ATOM     10  C   UNL A   1      34.095  24.011  26.486  1.00  0.00     0.079 C 
ATOM     11  C   UNL A   1      32.735  22.607  24.836  1.00  0.00     0.144 C 
ATOM     12  C   UNL A   1      35.113  24.242  25.358  1.00  0.00     0.013 C 
ATOM     13  C   UNL A   1      33.364  23.437  23.674  1.00  0.00     0.190 C 
ATOM     14  C   UNL A   1      34.829  23.638  24.003  1.00  0.00     0.065 C 
BRANCH   9  15
ATOM     15  N   UNL A   1      32.785  22.280  27.349  1.00  0.00    -0.336 N 
ATOM     16  C   UNL A   1      33.956  21.471  27.553  1.00  0.00     0.331 C 
ATOM     17  H   UNL A   1      32.642  22.807  28.211  1.00  0.00     0.346 HD
ATOM     18  H   UNL A   1      32.079  21.593  27.084  1.00  0.00     0.346 HD
ENDBRANCH   9  15
BRANCH  13  19
ATOM     19  N   UNL A   1      32.471  24.535  23.257  1.00  0.00    -0.332 N 
ATOM     20  C   UNL A   1      31.144  23.870  23.029  1.00  0.00     0.333 C 
ATOM     21  H   UNL A   1      32.617  25.201  24.016  1.00  0.00     0.348 HD
BRANCH  19  22
ATOM     22  C   UNL A   1      32.710  25.505  22.133  1.00  0.00     0.195 C 
ATOM     23  C   UNL A   1      33.545  26.792  22.207  1.00  0.00     0.126 C 
ATOM     24  C   UNL A   1      31.354  26.017  21.568  1.00  0.00     0.126 C 
ATOM     25  C   UNL A   1      32.868  27.969  22.920  1.00  0.00     0.268 C 
ATOM     26  C   UNL A   1      30.717  27.218  22.274  1.00  0.00     0.268 C 
ATOM     27  N   UNL A   1      31.615  28.365  22.273  1.00  0.00    -0.337 N 
ATOM     28  C   UNL A   1      30.994  29.475  23.003  1.00  0.00     0.332 C 
ATOM     29  H   UNL A   1      31.804  28.671  21.318  1.00  0.00     0.347 HD
ENDBRANCH  19  22
ENDBRANCH  13  19
ENDBRANCH   6   9
ENDBRANCH   4   5
ENDBRANCH   3   4
ENDBRANCH   2   3
ENDBRANCH   1   2
BRANCH   1  30
ATOM     30  C   UNL A   1      31.647  31.760  26.814  1.00  0.00     0.021 C 
BRANCH  30  31
ATOM     31  C   UNL A   1      32.912  32.526  27.163  1.00  0.00     0.116 C 
BRANCH  31  32
ATOM     32  N   UNL A   1      32.662  33.876  27.625  1.00  0.00    -0.352 N 
ATOM     33  C   UNL A   1      33.154  34.613  28.678  1.00  0.00     0.251 C 
ATOM     34  H   UNL A   1      32.007  34.364  27.075  1.00  0.00     0.163 HD
ATOM     35  O   UNL A   1      32.598  35.688  28.915  1.00  0.00    -0.269 OA
BRANCH  33  36
ATOM     36  C   UNL A   1      34.302  34.194  29.540  1.00  0.00     0.039 A 
ATOM     37  C   UNL A   1      35.603  34.388  29.044  1.00  0.00     0.014 A 
ATOM     38  C   UNL A   1      34.154  33.510  30.748  1.00  0.00     0.014 A 
ATOM     39  C   UNL A   1      36.725  33.913  29.741  1.00  0.00     0.010 A 
ATOM     40  C   UNL A   1      35.278  33.111  31.488  1.00  0.00     0.010 A 
ATOM     41  C   UNL A   1      36.575  33.272  30.978  1.00  0.00    -0.014 A 
BRANCH  41  42
ATOM     42  C   UNL A   1      37.738  32.671  31.699  1.00  0.00     0.031 A 
ATOM     43  C   UNL A   1      38.502  31.531  31.065  1.00  0.00     0.074 A 
ATOM     44  C   UNL A   1      38.082  33.099  32.931  1.00  0.00     0.049 A 
ATOM     45  N   UNL A   1      39.456  30.784  31.562  1.00  0.00    -0.248 NA
ATOM     46  C   UNL A   1      38.106  31.159  29.699  1.00  0.00     0.031 C 
ATOM     47  C   UNL A   1      37.415  34.172  33.669  1.00  0.00     0.029 A 
ATOM     48  N   UNL A   1      39.071  32.676  33.788  1.00  0.00    -0.354 N 
ATOM     49  C   UNL A   1      39.744  29.832  30.585  1.00  0.00     0.074 A 
ATOM     50  C   UNL A   1      38.823  30.066  29.494  1.00  0.00     0.031 C 
ATOM     51  C   UNL A   1      38.020  34.333  34.858  1.00  0.00     0.029 A 
ATOM     52  C   UNL A   1      39.092  33.350  34.988  1.00  0.00     0.049 A 
ATOM     53  H   UNL A   1      39.706  31.957  33.562  1.00  0.00     0.167 HD
ATOM     54  C   UNL A   1      40.700  28.868  30.587  1.00  0.00     0.034 A 
ATOM     55  C   UNL A   1      39.878  33.188  36.073  1.00  0.00     0.034 A 
ATOM     56  C   UNL A   1      41.641  28.677  31.664  1.00  0.00     0.049 A 
ATOM     57  C   UNL A   1      40.949  32.125  36.047  1.00  0.00     0.074 A 
ATOM     58  C   UNL A   1      42.691  27.779  31.747  1.00  0.00     0.029 A 
ATOM     59  N   UNL A   1      41.650  29.404  32.848  1.00  0.00    -0.354 N 
ATOM     60  N   UNL A   1      41.227  31.255  35.103  1.00  0.00    -0.248 NA
ATOM     61  C   UNL A   1      41.820  32.033  37.226  1.00  0.00     0.031 C 
ATOM     62  C   UNL A   1      43.297  27.923  33.000  1.00  0.00     0.029 A 
ATOM     63  C   UNL A   1      42.672  28.960  33.674  1.00  0.00     0.049 A 
ATOM     64  H   UNL A   1      41.022  30.129  33.069  1.00  0.00     0.167 HD
ATOM     65  C   UNL A   1      42.323  30.531  35.565  1.00  0.00     0.074 A 
ATOM     66  C   UNL A   1      42.664  31.077  36.863  1.00  0.00     0.031 C 
ATOM     67  C   UNL A   1      42.991  29.510  34.970  1.00  0.00     0.034 A 
BRANCH  54  68
ATOM     68  C   UNL A   1      40.751  27.932  29.398  1.00  0.00     0.023 A 
ATOM     69  C   UNL A   1      41.671  28.114  28.349  1.00  0.00     0.031 A 
ATOM     70  C   UNL A   1      39.841  26.864  29.292  1.00  0.00     0.131 A 
ATOM     71  C   UNL A   1      41.599  27.303  27.205  1.00  0.00     0.055 A 
ATOM     72  C   UNL A   1      39.835  26.006  28.190  1.00  0.00     0.041 A 
ATOM     73  F   UNL A   1      38.927  26.646  30.252  1.00  0.00    -0.206 F 
ATOM     74  C   UNL A   1      40.706  26.234  27.129  1.00  0.00     0.022 A 
BRANCH  71  75
ATOM     75  S   UNL A   1      42.585  27.769  25.755  1.00  0.00     0.124 S 
ATOM     76  O   UNL A   1      42.059  29.098  25.457  1.00  0.00    -0.237 OA
ATOM     77  O   UNL A   1      43.947  27.719  26.269  1.00  0.00    -0.237 OA
ATOM     78  O   UNL A   1      42.251  26.740  24.769  1.00  0.00    -0.744 OA
ENDBRANCH  71  75
ENDBRANCH  54  68
BRANCH  55  79
ATOM     79  C   UNL A   1      39.684  34.044  37.280  1.00  0.00     0.023 A 
ATOM     80  C   UNL A   1      39.022  33.552  38.417  1.00  0.00     0.031 A 
ATOM     81  C   UNL A   1      40.134  35.375  37.304  1.00  0.00     0.131 A 
ATOM     82  C   UNL A   1      38.797  34.396  39.517  1.00  0.00     0.055 A 
ATOM     83  C   UNL A   1      39.950  36.197  38.418  1.00  0.00     0.041 A 
ATOM     84  F   UNL A   1      40.777  35.894  36.245  1.00  0.00    -0.206 F 
ATOM     85  C   UNL A   1      39.267  35.712  39.529  1.00  0.00     0.022 A 
BRANCH  82  86
ATOM     86  S   UNL A   1      37.814  33.770  40.907  1.00  0.00     0.124 S 
ATOM     87  O   UNL A   1      37.409  35.005  41.567  1.00  0.00    -0.237 OA
ATOM     88  O   UNL A   1      36.758  33.031  40.222  1.00  0.00    -0.237 OA
ATOM     89  O   UNL A   1      38.765  32.947  41.652  1.00  0.00    -0.744 OA
ENDBRANCH  82  86
ENDBRANCH  55  79
BRANCH  67  90
ATOM     90  C   UNL A   1      44.183  28.951  35.705  1.00  0.00     0.023 A 
ATOM     91  C   UNL A   1      45.481  29.444  35.491  1.00  0.00     0.031 A 
ATOM     92  C   UNL A   1      44.015  27.903  36.627  1.00  0.00     0.131 A 
ATOM     93  C   UNL A   1      46.570  28.853  36.150  1.00  0.00     0.055 A 
ATOM     94  C   UNL A   1      45.095  27.356  37.322  1.00  0.00     0.041 A 
ATOM     95  F   UNL A   1      42.796  27.395  36.870  1.00  0.00    -0.206 F 
ATOM     96  C   UNL A   1      46.383  27.823  37.077  1.00  0.00     0.022 A 
BRANCH  93  97
ATOM     97  S   UNL A   1      48.246  29.393  35.717  1.00  0.00     0.124 S 
ATOM     98  O   UNL A   1      48.858  29.566  37.031  1.00  0.00    -0.237 OA
ATOM     99  O   UNL A   1      48.741  28.270  34.926  1.00  0.00    -0.237 OA
ATOM    100  O   UNL A   1      48.027  30.628  34.967  1.00  0.00    -0.744 OA
ENDBRANCH  93  97
ENDBRANCH  67  90
ENDBRANCH  41  42
ENDBRANCH  33  36
ENDBRANCH  31  32
ENDBRANCH  30  31
ENDBRANCH   1  30
TORSDOF 19
ENDMDL
MODEL 3
REMARK VINA RESULT:     -10.9      1.765      2.359
REMARK SMILES C[NH2+][C@@]1(C(=O)NCCCCCCNC(=O)c2ccc(-c3c4nc(c(-c5cc(S(=O)(=O)[O-])ccc5F)c5ccc([nH]5)c(-c5cc(S(=O)(=O)[O-])ccc5F)c5nc(c(-c6cc(S(=O)(=O)[O-])ccc6F)c6ccc3[nH]6)C=C5)C=C4)cc2)CCC[C@H]([N@H+](C)C2CC[NH+](C)CC2)C1
REMARK SMILES IDX 10 1 9 2 8 3 7 4 6 5 4 6 5 7 3 9 79 10 92 11 80 12 82 13
REMARK SMILES IDX 81 14 2 15 1 16 83 19 84 20 85 22 86 23 91 24 87 25 90 26
REMARK SMILES IDX 88 27 89 28 11 30 12 31 13 32 14 33 15 35 16 36 17 37 78 38
REMARK SMILES IDX 18 39 77 40 19 41 20 42 21 43 71 44 22 45 76 46 70 47 72 48
REMARK SMILES IDX 23 49 75 50 69 51 68 52 24 54 56 55 36 56 55 57 37 58 40 59
REMARK SMILES IDX 54 60 73 61 38 62 39 63 53 65 74 66 41 67 25 68 26 69 34 70
REMARK SMILES IDX 27 71 33 72 35 73 32 74 28 75 29 76 30 77 31 78 57 79 58 80
REMARK SMILES IDX 66 81 59 82 65 83 67 84 64 85 60 86 61 87 62 88 63 89 42 90
REMARK SMILES IDX 43 91 51 92 44 93 50 94 52 95 49 96 45 97 46 98 47 99 48 100
REMARK H PARENT 6 8 2 17 2 18 83 21 88 29 13 34 72 53 40 64
REMARK Flexibility Score: inf
ROOT
ATOM      1  C   UNL A   1      34.268  30.321  27.534  1.00  0.00     0.002 C 
ENDROOT
BRANCH   1   2
ATOM      2  C   UNL A   1      33.480  29.336  26.630  1.00  0.00     0.002 C 
BRANCH   2   3
ATOM      3  C   UNL A   1      33.915  27.943  26.083  1.00  0.00     0.021 C 
BRANCH   3   4
ATOM      4  C   UNL A   1      33.694  27.427  24.642  1.00  0.00     0.116 C 
BRANCH   4   5
ATOM      5  N   UNL A   1      34.028  26.083  24.209  1.00  0.00    -0.351 N 
ATOM      6  C   UNL A   1      33.197  25.078  23.753  1.00  0.00     0.281 C 
ATOM      7  O   UNL A   1      33.781  24.266  23.006  1.00  0.00    -0.268 OA
ATOM      8  H   UNL A   1      34.984  25.854  24.247  1.00  0.00     0.163 HD
BRANCH   6   9
ATOM      9  C   UNL A   1      31.671  24.688  24.224  1.00  0.00     0.181 C 
ATOM     10  C   UNL A   1      31.459  24.957  25.766  1.00  0.00     0.079 C 
ATOM     11  C   UNL A   1      31.076  23.329  23.830  1.00  0.00     0.144 C 
ATOM     12  C   UNL A   1      31.014  23.836  26.718  1.00  0.00     0.013 C 
ATOM     13  C   UNL A   1      31.345  22.153  24.820  1.00  0.00     0.190 C 
ATOM     14  C   UNL A   1      30.655  22.494  26.125  1.00  0.00     0.065 C 
BRANCH   9  15
ATOM     15  N   UNL A   1      30.855  25.851  23.694  1.00  0.00    -0.336 N 
ATOM     16  C   UNL A   1      29.903  26.529  24.534  1.00  0.00     0.331 C 
ATOM     17  H   UNL A   1      31.522  26.557  23.382  1.00  0.00     0.346 HD
ATOM     18  H   UNL A   1      30.261  25.408  22.992  1.00  0.00     0.346 HD
ENDBRANCH   9  15
BRANCH  13  19
ATOM     19  N   UNL A   1      32.746  21.697  24.741  1.00  0.00    -0.332 N 
ATOM     20  C   UNL A   1      32.711  20.550  23.770  1.00  0.00     0.333 C 
ATOM     21  H   UNL A   1      33.221  22.572  24.524  1.00  0.00     0.348 HD
BRANCH  19  22
ATOM     22  C   UNL A   1      33.626  21.308  25.896  1.00  0.00     0.195 C 
ATOM     23  C   UNL A   1      34.161  22.249  26.986  1.00  0.00     0.126 C 
ATOM     24  C   UNL A   1      34.923  20.623  25.377  1.00  0.00     0.126 C 
ATOM     25  C   UNL A   1      35.326  23.149  26.556  1.00  0.00     0.268 C 
ATOM     26  C   UNL A   1      36.085  21.543  24.991  1.00  0.00     0.268 C 
ATOM     27  N   UNL A   1      36.490  22.378  26.113  1.00  0.00    -0.337 N 
ATOM     28  C   UNL A   1      37.566  23.281  25.690  1.00  0.00     0.332 C 
ATOM     29  H   UNL A   1      36.834  21.803  26.883  1.00  0.00     0.347 HD
ENDBRANCH  19  22
ENDBRANCH  13  19
ENDBRANCH   6   9
ENDBRANCH   4   5
ENDBRANCH   3   4
ENDBRANCH   2   3
ENDBRANCH   1   2
BRANCH   1  30
ATOM     30  C   UNL A   1      34.099  31.851  27.535  1.00  0.00     0.021 C 
BRANCH  30  31
ATOM     31  C   UNL A   1      32.729  32.506  27.579  1.00  0.00     0.116 C 
BRANCH  31  32
ATOM     32  N   UNL A   1      32.779  33.940  27.777  1.00  0.00    -0.352 N 
ATOM     33  C   UNL A   1      33.486  34.742  28.644  1.00  0.00     0.251 C 
ATOM     34  H   UNL A   1      32.189  34.441  27.169  1.00  0.00     0.163 HD
ATOM     35  O   UNL A   1      33.168  35.933  28.688  1.00  0.00    -0.269 OA
BRANCH  33  36
ATOM     36  C   UNL A   1      34.596  34.264  29.526  1.00  0.00     0.039 A 
ATOM     37  C   UNL A   1      35.916  34.536  29.126  1.00  0.00     0.014 A 
ATOM     38  C   UNL A   1      34.401  33.459  30.648  1.00  0.00     0.014 A 
ATOM     39  C   UNL A   1      37.012  34.018  29.836  1.00  0.00     0.010 A 
ATOM     40  C   UNL A   1      35.494  33.013  31.408  1.00  0.00     0.010 A 
ATOM     41  C   UNL A   1      36.812  33.253  30.992  1.00  0.00    -0.014 A 
BRANCH  41  42
ATOM     42  C   UNL A   1      37.950  32.609  31.716  1.00  0.00     0.031 A 
ATOM     43  C   UNL A   1      38.724  31.494  31.049  1.00  0.00     0.074 A 
ATOM     44  C   UNL A   1      38.262  32.974  32.976  1.00  0.00     0.049 A 
ATOM     45  N   UNL A   1      39.659  30.717  31.535  1.00  0.00    -0.248 NA
ATOM     46  C   UNL A   1      38.364  31.193  29.656  1.00  0.00     0.031 C 
ATOM     47  C   UNL A   1      37.581  34.016  33.747  1.00  0.00     0.029 A 
ATOM     48  N   UNL A   1      39.223  32.502  33.838  1.00  0.00    -0.354 N 
ATOM     49  C   UNL A   1      39.967  29.811  30.522  1.00  0.00     0.074 A 
ATOM     50  C   UNL A   1      39.080  30.104  29.418  1.00  0.00     0.031 C 
ATOM     51  C   UNL A   1      38.154  34.113  34.958  1.00  0.00     0.029 A 
ATOM     52  C   UNL A   1      39.215  33.117  35.071  1.00  0.00     0.049 A 
ATOM     53  H   UNL A   1      39.859  31.790  33.596  1.00  0.00     0.167 HD
ATOM     54  C   UNL A   1      40.917  28.840  30.503  1.00  0.00     0.034 A 
ATOM     55  C   UNL A   1      39.968  32.896  36.167  1.00  0.00     0.034 A 
ATOM     56  C   UNL A   1      41.826  28.590  31.596  1.00  0.00     0.049 A 
ATOM     57  C   UNL A   1      41.032  31.828  36.120  1.00  0.00     0.074 A 
ATOM     58  C   UNL A   1      42.867  27.680  31.664  1.00  0.00     0.029 A 
ATOM     59  N   UNL A   1      41.806  29.259  32.814  1.00  0.00    -0.354 N 
ATOM     60  N   UNL A   1      41.331  31.002  35.143  1.00  0.00    -0.248 NA
ATOM     61  C   UNL A   1      41.869  31.671  37.318  1.00  0.00     0.031 C 
ATOM     62  C   UNL A   1      43.438  27.759  32.940  1.00  0.00     0.029 A 
ATOM     63  C   UNL A   1      42.801  28.767  33.645  1.00  0.00     0.049 A 
ATOM     64  H   UNL A   1      41.177  29.978  33.052  1.00  0.00     0.167 HD
ATOM     65  C   UNL A   1      42.409  30.248  35.600  1.00  0.00     0.074 A 
ATOM     66  C   UNL A   1      42.717  30.727  36.932  1.00  0.00     0.031 C 
ATOM     67  C   UNL A   1      43.087  29.251  34.975  1.00  0.00     0.034 A 
BRANCH  54  68
ATOM     68  C   UNL A   1      40.995  27.963  29.272  1.00  0.00     0.023 A 
ATOM     69  C   UNL A   1      42.021  28.108  28.321  1.00  0.00     0.031 A 
ATOM     70  C   UNL A   1      40.007  26.991  29.026  1.00  0.00     0.131 A 
ATOM     71  C   UNL A   1      41.985  27.364  27.131  1.00  0.00     0.055 A 
ATOM     72  C   UNL A   1      40.028  26.191  27.881  1.00  0.00     0.041 A 
ATOM     73  F   UNL A   1      38.993  26.813  29.887  1.00  0.00    -0.206 F 
ATOM     74  C   UNL A   1      41.011  26.388  26.915  1.00  0.00     0.022 A 
BRANCH  71  75
ATOM     75  S   UNL A   1      43.140  27.805  25.803  1.00  0.00     0.124 S 
ATOM     76  O   UNL A   1      43.685  29.068  26.295  1.00  0.00    -0.237 OA
ATOM     77  O   UNL A   1      44.055  26.673  25.791  1.00  0.00    -0.237 OA
ATOM     78  O   UNL A   1      42.278  27.925  24.626  1.00  0.00    -0.744 OA
ENDBRANCH  71  75
ENDBRANCH  54  68
BRANCH  55  79
ATOM     79  C   UNL A   1      39.746  33.694  37.409  1.00  0.00     0.023 A 
ATOM     80  C   UNL A   1      38.983  33.182  38.472  1.00  0.00     0.031 A 
ATOM     81  C   UNL A   1      40.271  34.992  37.540  1.00  0.00     0.131 A 
ATOM     82  C   UNL A   1      38.736  33.977  39.603  1.00  0.00     0.055 A 
ATOM     83  C   UNL A   1      40.062  35.760  38.687  1.00  0.00     0.041 A 
ATOM     84  F   UNL A   1      41.010  35.527  36.556  1.00  0.00    -0.206 F 
ATOM     85  C   UNL A   1      39.280  35.258  39.723  1.00  0.00     0.022 A 
BRANCH  82  86
ATOM     86  S   UNL A   1      37.629  33.337  40.890  1.00  0.00     0.124 S 
ATOM     87  O   UNL A   1      38.368  32.174  41.369  1.00  0.00    -0.237 OA
ATOM     88  O   UNL A   1      37.548  34.469  41.808  1.00  0.00    -0.237 OA
ATOM     89  O   UNL A   1      36.398  33.038  40.162  1.00  0.00    -0.744 OA
ENDBRANCH  82  86
ENDBRANCH  55  79
BRANCH  67  90
ATOM     90  C   UNL A   1      44.253  28.648  35.716  1.00  0.00     0.023 A 
ATOM     91  C   UNL A   1      44.083  27.592  36.628  1.00  0.00     0.031 A 
ATOM     92  C   UNL A   1      45.553  29.144  35.511  1.00  0.00     0.131 A 
ATOM     93  C   UNL A   1      45.187  27.101  37.342  1.00  0.00     0.055 A 
ATOM     94  C   UNL A   1      46.656  28.614  36.183  1.00  0.00     0.041 A 
ATOM     95  F   UNL A   1      45.771  30.151  34.650  1.00  0.00    -0.206 F 
ATOM     96  C   UNL A   1      46.474  27.595  37.113  1.00  0.00     0.022 A 
BRANCH  93  97
ATOM     97  S   UNL A   1      44.905  25.865  38.638  1.00  0.00     0.124 S 
ATOM     98  O   UNL A   1      44.152  26.629  39.628  1.00  0.00    -0.237 OA
ATOM     99  O   UNL A   1      44.159  24.831  37.927  1.00  0.00    -0.237 OA
ATOM    100  O   UNL A   1      46.255  25.482  39.047  1.00  0.00    -0.744 OA
ENDBRANCH  93  97
ENDBRANCH  67  90
ENDBRANCH  41  42
ENDBRANCH  33  36
ENDBRANCH  31  32
ENDBRANCH  30  31
ENDBRANCH   1  30
TORSDOF 19
ENDMDL
