MODEL 1
REMARK VINA RESULT:     -12.7      0.000      0.000
REMARK SMILES CC1(C)S[C@@H](c2cccc3c2sc2ccccc23)[NH2+][C@@H]1C(=O)NCCCCCCNC(=O)c1ccc(-c2c3nc(c(-c4cc(S(=O)(=O)[O-])ccc4F)c4ccc([nH]4)c(-c4cc(S(=O)(=O)[O-])ccc4F)c4nc(c(-c5cc(S(=O)(=O)[O-])ccc5F)c5ccc2[nH]5)C=C4)C=C3)cc1
REMARK SMILES IDX 27 1 26 2 25 3 24 4 23 5 21 6 22 7 20 9 1 10 2 11 3 12 4 13
REMARK SMILES IDX 5 14 19 15 6 18 7 19 11 20 8 21 10 22 12 23 9 24 18 25 13 26
REMARK SMILES IDX 17 27 14 28 16 29 15 30 28 31 29 32 30 33 31 34 32 36 33 37
REMARK SMILES IDX 34 38 95 39 35 40 94 41 36 42 37 43 38 44 88 45 39 46 93 47
REMARK SMILES IDX 87 48 89 49 40 50 92 51 86 52 85 53 41 55 73 56 53 57 72 58
REMARK SMILES IDX 54 59 57 60 71 61 90 62 55 63 56 64 70 66 91 67 58 68 42 69
REMARK SMILES IDX 43 70 51 71 44 72 50 73 52 74 49 75 45 76 46 77 47 78 48 79
REMARK SMILES IDX 74 80 75 81 83 82 76 83 82 84 84 85 81 86 77 87 78 88 79 89
REMARK SMILES IDX 80 90 59 91 60 92 68 93 61 94 67 95 69 96 66 97 62 98 63 99
REMARK SMILES IDX 64 100 65 101
REMARK H PARENT 23 8 19 16 19 17 30 35 89 54 57 65
REMARK Flexibility Score: inf
ROOT
ATOM      1  C   UNL A   1      36.909  19.994  25.041  1.00  0.00     0.002 C 
ENDROOT
BRANCH   1   2
ATOM      2  C   UNL A   1      36.660  21.503  25.101  1.00  0.00     0.002 C 
BRANCH   2   3
ATOM      3  C   UNL A   1      36.958  22.281  23.816  1.00  0.00     0.021 C 
BRANCH   3   4
ATOM      4  C   UNL A   1      36.118  23.534  23.586  1.00  0.00     0.116 C 
BRANCH   4   5
ATOM      5  N   UNL A   1      34.828  23.227  23.000  1.00  0.00    -0.351 N 
ATOM      6  C   UNL A   1      33.564  23.393  23.484  1.00  0.00     0.279 C 
ATOM      7  O   UNL A   1      32.661  22.989  22.747  1.00  0.00    -0.268 OA
ATOM      8  H   UNL A   1      34.872  22.831  22.099  1.00  0.00     0.163 HD
BRANCH   6   9
ATOM      9  C   UNL A   1      33.301  23.925  24.923  1.00  0.00     0.289 C 
ATOM     10  C   UNL A   1      32.041  23.635  27.124  1.00  0.00     0.030 C 
ATOM     11  C   UNL A   1      31.952  23.518  25.588  1.00  0.00     0.077 C 
ATOM     12  C   UNL A   1      31.396  22.131  25.259  1.00  0.00     0.030 C 
ATOM     13  S   UNL A   1      30.783  24.809  25.012  1.00  0.00    -0.081 SA
ATOM     14  C   UNL A   1      32.100  25.925  24.441  1.00  0.00     0.276 C 
ATOM     15  N   UNL A   1      33.365  25.414  24.979  1.00  0.00    -0.320 N 
ATOM     16  H   UNL A   1      33.484  25.722  25.944  1.00  0.00     0.348 HD
ATOM     17  H   UNL A   1      34.156  25.763  24.437  1.00  0.00     0.348 HD
BRANCH  14  18
ATOM     18  C   UNL A   1      31.885  27.377  24.836  1.00  0.00     0.038 A 
ATOM     19  C   UNL A   1      32.663  27.959  25.866  1.00  0.00     0.012 A 
ATOM     20  C   UNL A   1      30.952  28.236  24.182  1.00  0.00     0.046 A 
ATOM     21  C   UNL A   1      32.519  29.284  26.243  1.00  0.00     0.001 A 
ATOM     22  C   UNL A   1      30.777  29.574  24.555  1.00  0.00     0.001 A 
ATOM     23  S   UNL A   1      29.907  27.845  22.863  1.00  0.00    -0.135 S 
ATOM     24  C   UNL A   1      31.583  30.086  25.602  1.00  0.00     0.010 A 
ATOM     25  C   UNL A   1      29.750  30.242  23.774  1.00  0.00     0.000 A 
ATOM     26  C   UNL A   1      29.204  29.404  22.806  1.00  0.00     0.036 A 
ATOM     27  C   UNL A   1      29.255  31.571  23.853  1.00  0.00     0.010 A 
ATOM     28  C   UNL A   1      28.201  29.848  21.920  1.00  0.00     0.019 A 
ATOM     29  C   UNL A   1      28.254  32.016  22.985  1.00  0.00     0.001 A 
ATOM     30  C   UNL A   1      27.736  31.161  22.024  1.00  0.00     0.002 A 
ENDBRANCH  14  18
ENDBRANCH   6   9
ENDBRANCH   4   5
ENDBRANCH   3   4
ENDBRANCH   2   3
ENDBRANCH   1   2
BRANCH   1  31
ATOM     31  C   UNL A   1      38.365  19.571  24.838  1.00  0.00     0.021 C 
BRANCH  31  32
ATOM     32  C   UNL A   1      39.359  20.123  25.855  1.00  0.00     0.116 C 
BRANCH  32  33
ATOM     33  N   UNL A   1      40.443  19.200  26.137  1.00  0.00    -0.352 N 
ATOM     34  C   UNL A   1      41.765  19.461  26.388  1.00  0.00     0.251 C 
ATOM     35  H   UNL A   1      40.193  18.247  26.150  1.00  0.00     0.163 HD
ATOM     36  O   UNL A   1      42.562  18.521  26.450  1.00  0.00    -0.269 OA
BRANCH  34  37
ATOM     37  C   UNL A   1      42.244  20.852  26.556  1.00  0.00     0.039 A 
ATOM     38  C   UNL A   1      42.485  21.323  27.849  1.00  0.00     0.014 A 
ATOM     39  C   UNL A   1      42.421  21.705  25.462  1.00  0.00     0.014 A 
ATOM     40  C   UNL A   1      42.933  22.632  28.043  1.00  0.00     0.010 A 
ATOM     41  C   UNL A   1      42.939  22.987  25.650  1.00  0.00     0.010 A 
ATOM     42  C   UNL A   1      43.181  23.471  26.945  1.00  0.00    -0.014 A 
BRANCH  42  43
ATOM     43  C   UNL A   1      43.650  24.867  27.148  1.00  0.00     0.031 A 
ATOM     44  C   UNL A   1      42.713  25.906  27.708  1.00  0.00     0.074 A 
ATOM     45  C   UNL A   1      44.910  25.205  26.812  1.00  0.00     0.049 A 
ATOM     46  N   UNL A   1      42.931  27.173  27.955  1.00  0.00    -0.248 NA
ATOM     47  C   UNL A   1      41.339  25.467  27.999  1.00  0.00     0.031 C 
ATOM     48  C   UNL A   1      45.897  24.300  26.217  1.00  0.00     0.029 A 
ATOM     49  N   UNL A   1      45.581  26.397  26.924  1.00  0.00    -0.354 N 
ATOM     50  C   UNL A   1      41.722  27.682  28.422  1.00  0.00     0.074 A 
ATOM     51  C   UNL A   1      40.760  26.603  28.354  1.00  0.00     0.031 C 
ATOM     52  C   UNL A   1      47.054  24.960  26.049  1.00  0.00     0.029 A 
ATOM     53  C   UNL A   1      46.885  26.341  26.489  1.00  0.00     0.049 A 
ATOM     54  H   UNL A   1      45.168  27.215  27.283  1.00  0.00     0.167 HD
ATOM     55  C   UNL A   1      41.447  28.926  28.891  1.00  0.00     0.034 A 
ATOM     56  C   UNL A   1      47.836  27.295  26.448  1.00  0.00     0.034 A 
ATOM     57  C   UNL A   1      42.423  29.987  28.965  1.00  0.00     0.049 A 
ATOM     58  C   UNL A   1      47.507  28.671  26.973  1.00  0.00     0.074 A 
ATOM     59  C   UNL A   1      42.270  31.268  29.468  1.00  0.00     0.029 A 
ATOM     60  N   UNL A   1      43.735  29.895  28.517  1.00  0.00    -0.354 N 
ATOM     61  N   UNL A   1      46.376  29.120  27.467  1.00  0.00    -0.248 NA
ATOM     62  C   UNL A   1      48.590  29.659  26.952  1.00  0.00     0.031 C 
ATOM     63  C   UNL A   1      43.465  31.967  29.265  1.00  0.00     0.029 A 
ATOM     64  C   UNL A   1      44.392  31.102  28.705  1.00  0.00     0.049 A 
ATOM     65  H   UNL A   1      44.140  29.089  28.122  1.00  0.00     0.167 HD
ATOM     66  C   UNL A   1      46.622  30.439  27.838  1.00  0.00     0.074 A 
ATOM     67  C   UNL A   1      48.016  30.699  27.538  1.00  0.00     0.031 C 
ATOM     68  C   UNL A   1      45.776  31.354  28.379  1.00  0.00     0.034 A 
BRANCH  55  69
ATOM     69  C   UNL A   1      40.028  29.201  29.335  1.00  0.00     0.023 A 
ATOM     70  C   UNL A   1      39.665  29.200  30.694  1.00  0.00     0.031 A 
ATOM     71  C   UNL A   1      39.016  29.434  28.388  1.00  0.00     0.131 A 
ATOM     72  C   UNL A   1      38.318  29.342  31.061  1.00  0.00     0.055 A 
ATOM     73  C   UNL A   1      37.690  29.661  28.764  1.00  0.00     0.041 A 
ATOM     74  F   UNL A   1      39.293  29.428  27.074  1.00  0.00    -0.206 F 
ATOM     75  C   UNL A   1      37.332  29.599  30.108  1.00  0.00     0.022 A 
BRANCH  72  76
ATOM     76  S   UNL A   1      37.855  29.032  32.788  1.00  0.00     0.124 S 
ATOM     77  O   UNL A   1      36.608  29.787  32.898  1.00  0.00    -0.237 OA
ATOM     78  O   UNL A   1      37.728  27.579  32.826  1.00  0.00    -0.237 OA
ATOM     79  O   UNL A   1      38.976  29.581  33.547  1.00  0.00    -0.744 OA
ENDBRANCH  72  76
ENDBRANCH  55  69
BRANCH  56  80
ATOM     80  C   UNL A   1      49.189  26.994  25.899  1.00  0.00     0.023 A 
ATOM     81  C   UNL A   1      49.543  27.373  24.593  1.00  0.00     0.031 A 
ATOM     82  C   UNL A   1      50.133  26.277  26.655  1.00  0.00     0.131 A 
ATOM     83  C   UNL A   1      50.786  26.991  24.067  1.00  0.00     0.055 A 
ATOM     84  C   UNL A   1      51.390  25.947  26.146  1.00  0.00     0.041 A 
ATOM     85  F   UNL A   1      49.848  25.896  27.911  1.00  0.00    -0.206 F 
ATOM     86  C   UNL A   1      51.717  26.292  24.838  1.00  0.00     0.022 A 
BRANCH  83  87
ATOM     87  S   UNL A   1      51.138  27.348  22.323  1.00  0.00     0.124 S 
ATOM     88  O   UNL A   1      51.199  28.805  22.324  1.00  0.00    -0.237 OA
ATOM     89  O   UNL A   1      52.405  26.653  22.122  1.00  0.00    -0.237 OA
ATOM     90  O   UNL A   1      49.994  26.770  21.620  1.00  0.00    -0.744 OA
ENDBRANCH  83  87
ENDBRANCH  56  80
BRANCH  68  91
ATOM     91  C   UNL A   1      46.359  32.709  28.704  1.00  0.00     0.023 A 
ATOM     92  C   UNL A   1      46.307  33.773  27.786  1.00  0.00     0.031 A 
ATOM     93  C   UNL A   1      47.010  32.928  29.931  1.00  0.00     0.131 A 
ATOM     94  C   UNL A   1      46.960  34.980  28.075  1.00  0.00     0.055 A 
ATOM     95  C   UNL A   1      47.598  34.155  30.242  1.00  0.00     0.041 A 
ATOM     96  F   UNL A   1      47.092  31.949  30.846  1.00  0.00    -0.206 F 
ATOM     97  C   UNL A   1      47.591  35.183  29.305  1.00  0.00     0.022 A 
BRANCH  94  98
ATOM     98  S   UNL A   1      47.081  36.237  26.773  1.00  0.00     0.124 S 
ATOM     99  O   UNL A   1      45.768  36.870  26.839  1.00  0.00    -0.237 OA
ATOM    100  O   UNL A   1      48.204  37.050  27.228  1.00  0.00    -0.237 OA
ATOM    101  O   UNL A   1      47.332  35.454  25.564  1.00  0.00    -0.744 OA
ENDBRANCH  94  98
ENDBRANCH  68  91
ENDBRANCH  42  43
ENDBRANCH  34  37
ENDBRANCH  32  33
ENDBRANCH  31  32
ENDBRANCH   1  31
TORSDOF 17
ENDMDL
MODEL 2
REMARK VINA RESULT:     -12.6      1.727      2.221
REMARK SMILES CC1(C)S[C@@H](c2cccc3c2sc2ccccc23)[NH2+][C@@H]1C(=O)NCCCCCCNC(=O)c1ccc(-c2c3nc(c(-c4cc(S(=O)(=O)[O-])ccc4F)c4ccc([nH]4)c(-c4cc(S(=O)(=O)[O-])ccc4F)c4nc(c(-c5cc(S(=O)(=O)[O-])ccc5F)c5ccc2[nH]5)C=C4)C=C3)cc1
REMARK SMILES IDX 27 1 26 2 25 3 24 4 23 5 21 6 22 7 20 9 1 10 2 11 3 12 4 13
REMARK SMILES IDX 5 14 19 15 6 18 7 19 11 20 8 21 10 22 12 23 9 24 18 25 13 26
REMARK SMILES IDX 17 27 14 28 16 29 15 30 28 31 29 32 30 33 31 34 32 36 33 37
REMARK SMILES IDX 34 38 95 39 35 40 94 41 36 42 37 43 38 44 88 45 39 46 93 47
REMARK SMILES IDX 87 48 89 49 40 50 92 51 86 52 85 53 41 55 73 56 53 57 72 58
REMARK SMILES IDX 54 59 57 60 71 61 90 62 55 63 56 64 70 66 91 67 58 68 42 69
REMARK SMILES IDX 43 70 51 71 44 72 50 73 52 74 49 75 45 76 46 77 47 78 48 79
REMARK SMILES IDX 74 80 75 81 83 82 76 83 82 84 84 85 81 86 77 87 78 88 79 89
REMARK SMILES IDX 80 90 59 91 60 92 68 93 61 94 67 95 69 96 66 97 62 98 63 99
REMARK SMILES IDX 64 100 65 101
REMARK H PARENT 23 8 19 16 19 17 30 35 89 54 57 65
REMARK Flexibility Score: inf
ROOT
ATOM      1  C   UNL A   1      36.580  19.122  24.926  1.00  0.00     0.002 C 
ENDROOT
BRANCH   1   2
ATOM      2  C   UNL A   1      35.318  19.984  25.003  1.00  0.00     0.002 C 
BRANCH   2   3
ATOM      3  C   UNL A   1      33.993  19.249  24.779  1.00  0.00     0.021 C 
BRANCH   3   4
ATOM      4  C   UNL A   1      32.977  19.964  23.891  1.00  0.00     0.116 C 
BRANCH   4   5
ATOM      5  N   UNL A   1      32.083  20.811  24.655  1.00  0.00    -0.351 N 
ATOM      6  C   UNL A   1      32.184  22.122  25.016  1.00  0.00     0.279 C 
ATOM      7  O   UNL A   1      31.260  22.549  25.712  1.00  0.00    -0.268 OA
ATOM      8  H   UNL A   1      31.263  20.363  24.968  1.00  0.00     0.163 HD
BRANCH   6   9
ATOM      9  C   UNL A   1      33.450  22.967  24.685  1.00  0.00     0.289 C 
ATOM     10  C   UNL A   1      35.671  23.920  25.503  1.00  0.00     0.030 C 
ATOM     11  C   UNL A   1      34.214  23.589  25.890  1.00  0.00     0.077 C 
ATOM     12  C   UNL A   1      34.250  22.785  27.192  1.00  0.00     0.030 C 
ATOM     13  S   UNL A   1      33.352  25.184  26.170  1.00  0.00    -0.081 SA
ATOM     14  C   UNL A   1      32.501  25.149  24.563  1.00  0.00     0.276 C 
ATOM     15  N   UNL A   1      33.130  24.095  23.761  1.00  0.00    -0.320 N 
ATOM     16  H   UNL A   1      33.986  24.446  23.332  1.00  0.00     0.348 HD
ATOM     17  H   UNL A   1      32.507  23.786  23.016  1.00  0.00     0.348 HD
BRANCH  14  18
ATOM     18  C   UNL A   1      32.524  26.480  23.830  1.00  0.00     0.038 A 
ATOM     19  C   UNL A   1      33.751  27.031  23.389  1.00  0.00     0.012 A 
ATOM     20  C   UNL A   1      31.344  27.214  23.503  1.00  0.00     0.046 A 
ATOM     21  C   UNL A   1      33.819  28.228  22.696  1.00  0.00     0.001 A 
ATOM     22  C   UNL A   1      31.387  28.433  22.817  1.00  0.00     0.001 A 
ATOM     23  S   UNL A   1      29.708  26.783  23.846  1.00  0.00    -0.135 S 
ATOM     24  C   UNL A   1      32.652  28.931  22.416  1.00  0.00     0.010 A 
ATOM     25  C   UNL A   1      30.069  29.014  22.626  1.00  0.00     0.000 A 
ATOM     26  C   UNL A   1      29.063  28.199  23.137  1.00  0.00     0.036 A 
ATOM     27  C   UNL A   1      29.684  30.236  22.014  1.00  0.00     0.010 A 
ATOM     28  C   UNL A   1      27.702  28.557  23.047  1.00  0.00     0.019 A 
ATOM     29  C   UNL A   1      28.338  30.602  21.929  1.00  0.00     0.001 A 
ATOM     30  C   UNL A   1      27.356  29.765  22.438  1.00  0.00     0.002 A 
ENDBRANCH  14  18
ENDBRANCH   6   9
ENDBRANCH   4   5
ENDBRANCH   3   4
ENDBRANCH   2   3
ENDBRANCH   1   2
BRANCH   1  31
ATOM     31  C   UNL A   1      37.877  19.873  24.621  1.00  0.00     0.021 C 
BRANCH  31  32
ATOM     32  C   UNL A   1      38.741  20.212  25.831  1.00  0.00     0.116 C 
BRANCH  32  33
ATOM     33  N   UNL A   1      39.858  19.299  25.996  1.00  0.00    -0.352 N 
ATOM     34  C   UNL A   1      41.179  19.575  26.236  1.00  0.00     0.251 C 
ATOM     35  H   UNL A   1      39.635  18.342  25.923  1.00  0.00     0.163 HD
ATOM     36  O   UNL A   1      42.003  18.657  26.187  1.00  0.00    -0.269 OA
BRANCH  34  37
ATOM     37  C   UNL A   1      41.625  20.957  26.524  1.00  0.00     0.039 A 
ATOM     38  C   UNL A   1      41.530  21.914  25.510  1.00  0.00     0.014 A 
ATOM     39  C   UNL A   1      42.169  21.309  27.763  1.00  0.00     0.014 A 
ATOM     40  C   UNL A   1      41.948  23.225  25.748  1.00  0.00     0.010 A 
ATOM     41  C   UNL A   1      42.516  22.635  28.024  1.00  0.00     0.010 A 
ATOM     42  C   UNL A   1      42.428  23.603  27.012  1.00  0.00    -0.014 A 
BRANCH  42  43
ATOM     43  C   UNL A   1      42.881  24.997  27.266  1.00  0.00     0.031 A 
ATOM     44  C   UNL A   1      41.963  25.978  27.947  1.00  0.00     0.074 A 
ATOM     45  C   UNL A   1      44.108  25.384  26.867  1.00  0.00     0.049 A 
ATOM     46  N   UNL A   1      42.171  27.234  28.254  1.00  0.00    -0.248 NA
ATOM     47  C   UNL A   1      40.621  25.489  28.302  1.00  0.00     0.031 C 
ATOM     48  C   UNL A   1      45.071  24.539  26.156  1.00  0.00     0.029 A 
ATOM     49  N   UNL A   1      44.761  26.584  27.005  1.00  0.00    -0.354 N 
ATOM     50  C   UNL A   1      40.987  27.685  28.830  1.00  0.00     0.074 A 
ATOM     51  C   UNL A   1      40.045  26.589  28.762  1.00  0.00     0.031 C 
ATOM     52  C   UNL A   1      46.200  25.235  25.951  1.00  0.00     0.029 A 
ATOM     53  C   UNL A   1      46.033  26.585  26.482  1.00  0.00     0.049 A 
ATOM     54  H   UNL A   1      44.356  27.369  27.438  1.00  0.00     0.167 HD
ATOM     55  C   UNL A   1      40.719  28.893  29.388  1.00  0.00     0.034 A 
ATOM     56  C   UNL A   1      46.959  27.563  26.435  1.00  0.00     0.034 A 
ATOM     57  C   UNL A   1      41.675  29.972  29.461  1.00  0.00     0.049 A 
ATOM     58  C   UNL A   1      46.639  28.897  27.060  1.00  0.00     0.074 A 
ATOM     59  C   UNL A   1      41.530  31.217  30.047  1.00  0.00     0.029 A 
ATOM     60  N   UNL A   1      42.955  29.937  28.921  1.00  0.00    -0.354 N 
ATOM     61  N   UNL A   1      45.534  29.289  27.654  1.00  0.00    -0.248 NA
ATOM     62  C   UNL A   1      47.698  29.911  27.027  1.00  0.00     0.031 C 
ATOM     63  C   UNL A   1      42.695  31.956  29.807  1.00  0.00     0.029 A 
ATOM     64  C   UNL A   1      43.599  31.148  29.137  1.00  0.00     0.049 A 
ATOM     65  H   UNL A   1      43.349  29.166  28.453  1.00  0.00     0.167 HD
ATOM     66  C   UNL A   1      45.778  30.590  28.086  1.00  0.00     0.074 A 
ATOM     67  C   UNL A   1      47.143  30.901  27.710  1.00  0.00     0.031 C 
ATOM     68  C   UNL A   1      44.953  31.452  28.735  1.00  0.00     0.034 A 
BRANCH  55  69
ATOM     69  C   UNL A   1      39.328  29.108  29.941  1.00  0.00     0.023 A 
ATOM     70  C   UNL A   1      38.349  29.823  29.226  1.00  0.00     0.031 A 
ATOM     71  C   UNL A   1      38.983  28.622  31.214  1.00  0.00     0.131 A 
ATOM     72  C   UNL A   1      37.110  30.104  29.821  1.00  0.00     0.055 A 
ATOM     73  C   UNL A   1      37.716  28.830  31.766  1.00  0.00     0.041 A 
ATOM     74  F   UNL A   1      39.877  27.949  31.957  1.00  0.00    -0.206 F 
ATOM     75  C   UNL A   1      36.777  29.590  31.075  1.00  0.00     0.022 A 
BRANCH  72  76
ATOM     76  S   UNL A   1      36.000  31.277  28.995  1.00  0.00     0.124 S 
ATOM     77  O   UNL A   1      36.945  32.274  28.495  1.00  0.00    -0.237 OA
ATOM     78  O   UNL A   1      35.354  30.446  27.986  1.00  0.00    -0.237 OA
ATOM     79  O   UNL A   1      35.130  31.742  30.073  1.00  0.00    -0.744 OA
ENDBRANCH  72  76
ENDBRANCH  55  69
BRANCH  56  80
ATOM     80  C   UNL A   1      48.278  27.326  25.780  1.00  0.00     0.023 A 
ATOM     81  C   UNL A   1      48.447  27.521  24.399  1.00  0.00     0.031 A 
ATOM     82  C   UNL A   1      49.378  26.854  26.518  1.00  0.00     0.131 A 
ATOM     83  C   UNL A   1      49.671  27.198  23.791  1.00  0.00     0.055 A 
ATOM     84  C   UNL A   1      50.609  26.586  25.918  1.00  0.00     0.041 A 
ATOM     85  F   UNL A   1      49.272  26.656  27.842  1.00  0.00    -0.206 F 
ATOM     86  C   UNL A   1      50.756  26.744  24.543  1.00  0.00     0.022 A 
BRANCH  83  87
ATOM     87  S   UNL A   1      49.797  27.299  21.985  1.00  0.00     0.124 S 
ATOM     88  O   UNL A   1      51.152  26.812  21.754  1.00  0.00    -0.237 OA
ATOM     89  O   UNL A   1      48.716  26.418  21.556  1.00  0.00    -0.237 OA
ATOM     90  O   UNL A   1      49.588  28.719  21.708  1.00  0.00    -0.744 OA
ENDBRANCH  83  87
ENDBRANCH  56  80
BRANCH  68  91
ATOM     91  C   UNL A   1      45.528  32.800  29.100  1.00  0.00     0.023 A 
ATOM     92  C   UNL A   1      45.518  33.875  28.194  1.00  0.00     0.031 A 
ATOM     93  C   UNL A   1      46.130  33.000  30.355  1.00  0.00     0.131 A 
ATOM     94  C   UNL A   1      46.165  35.075  28.525  1.00  0.00     0.055 A 
ATOM     95  C   UNL A   1      46.711  34.219  30.705  1.00  0.00     0.041 A 
ATOM     96  F   UNL A   1      46.170  32.009  31.260  1.00  0.00    -0.206 F 
ATOM     97  C   UNL A   1      46.747  35.260  29.782  1.00  0.00     0.022 A 
BRANCH  94  98
ATOM     98  S   UNL A   1      46.345  36.347  27.245  1.00  0.00     0.124 S 
ATOM     99  O   UNL A   1      47.424  37.170  27.783  1.00  0.00    -0.237 OA
ATOM    100  O   UNL A   1      46.675  35.555  26.063  1.00  0.00    -0.237 OA
ATOM    101  O   UNL A   1      45.032  36.990  27.213  1.00  0.00    -0.744 OA
ENDBRANCH  94  98
ENDBRANCH  68  91
ENDBRANCH  42  43
ENDBRANCH  34  37
ENDBRANCH  32  33
ENDBRANCH  31  32
ENDBRANCH   1  31
TORSDOF 17
ENDMDL
MODEL 3
REMARK VINA RESULT:     -12.6      5.635     12.033
REMARK SMILES CC1(C)S[C@@H](c2cccc3c2sc2ccccc23)[NH2+][C@@H]1C(=O)NCCCCCCNC(=O)c1ccc(-c2c3nc(c(-c4cc(S(=O)(=O)[O-])ccc4F)c4ccc([nH]4)c(-c4cc(S(=O)(=O)[O-])ccc4F)c4nc(c(-c5cc(S(=O)(=O)[O-])ccc5F)c5ccc2[nH]5)C=C4)C=C3)cc1
REMARK SMILES IDX 27 1 26 2 25 3 24 4 23 5 21 6 22 7 20 9 1 10 2 11 3 12 4 13
REMARK SMILES IDX 5 14 19 15 6 18 7 19 11 20 8 21 10 22 12 23 9 24 18 25 13 26
REMARK SMILES IDX 17 27 14 28 16 29 15 30 28 31 29 32 30 33 31 34 32 36 33 37
REMARK SMILES IDX 34 38 95 39 35 40 94 41 36 42 37 43 38 44 88 45 39 46 93 47
REMARK SMILES IDX 87 48 89 49 40 50 92 51 86 52 85 53 41 55 73 56 53 57 72 58
REMARK SMILES IDX 54 59 57 60 71 61 90 62 55 63 56 64 70 66 91 67 58 68 42 69
REMARK SMILES IDX 43 70 51 71 44 72 50 73 52 74 49 75 45 76 46 77 47 78 48 79
REMARK SMILES IDX 74 80 75 81 83 82 76 83 82 84 84 85 81 86 77 87 78 88 79 89
REMARK SMILES IDX 80 90 59 91 60 92 68 93 61 94 67 95 69 96 66 97 62 98 63 99
REMARK SMILES IDX 64 100 65 101
REMARK H PARENT 23 8 19 16 19 17 30 35 89 54 57 65
REMARK Flexibility Score: inf
ROOT
ATOM      1  C   UNL A   1      34.401  30.877  27.919  1.00  0.00     0.002 C 
ENDROOT
BRANCH   1   2
ATOM      2  C   UNL A   1      33.871  29.658  27.161  1.00  0.00     0.002 C 
BRANCH   2   3
ATOM      3  C   UNL A   1      32.441  29.229  27.502  1.00  0.00     0.021 C 
BRANCH   3   4
ATOM      4  C   UNL A   1      31.658  28.562  26.374  1.00  0.00     0.116 C 
BRANCH   4   5
ATOM      5  N   UNL A   1      31.278  27.202  26.702  1.00  0.00    -0.351 N 
ATOM      6  C   UNL A   1      31.781  26.007  26.280  1.00  0.00     0.279 C 
ATOM      7  O   UNL A   1      31.205  25.009  26.720  1.00  0.00    -0.268 OA
ATOM      8  H   UNL A   1      30.530  27.129  27.338  1.00  0.00     0.163 HD
BRANCH   6   9
ATOM      9  C   UNL A   1      32.909  25.924  25.209  1.00  0.00     0.289 C 
ATOM     10  C   UNL A   1      33.555  26.134  22.749  1.00  0.00     0.030 C 
ATOM     11  C   UNL A   1      32.465  25.671  23.739  1.00  0.00     0.077 C 
ATOM     12  C   UNL A   1      31.138  26.287  23.288  1.00  0.00     0.030 C 
ATOM     13  S   UNL A   1      32.371  23.843  23.627  1.00  0.00    -0.081 SA
ATOM     14  C   UNL A   1      33.302  23.575  25.165  1.00  0.00     0.276 C 
ATOM     15  N   UNL A   1      33.902  24.860  25.539  1.00  0.00    -0.320 N 
ATOM     16  H   UNL A   1      34.762  25.011  25.011  1.00  0.00     0.348 HD
ATOM     17  H   UNL A   1      34.133  24.877  26.531  1.00  0.00     0.348 HD
BRANCH  14  18
ATOM     18  C   UNL A   1      34.360  22.489  25.059  1.00  0.00     0.038 A 
ATOM     19  C   UNL A   1      35.734  22.822  25.135  1.00  0.00     0.012 A 
ATOM     20  C   UNL A   1      34.048  21.103  24.930  1.00  0.00     0.046 A 
ATOM     21  C   UNL A   1      36.732  21.865  25.067  1.00  0.00     0.001 A 
ATOM     22  C   UNL A   1      35.039  20.118  24.844  1.00  0.00     0.001 A 
ATOM     23  S   UNL A   1      32.482  20.377  24.869  1.00  0.00    -0.135 S 
ATOM     24  C   UNL A   1      36.395  20.525  24.916  1.00  0.00     0.010 A 
ATOM     25  C   UNL A   1      34.488  18.783  24.684  1.00  0.00     0.000 A 
ATOM     26  C   UNL A   1      33.096  18.791  24.693  1.00  0.00     0.036 A 
ATOM     27  C   UNL A   1      35.141  17.531  24.533  1.00  0.00     0.010 A 
ATOM     28  C   UNL A   1      32.347  17.602  24.569  1.00  0.00     0.019 A 
ATOM     29  C   UNL A   1      34.406  16.350  24.400  1.00  0.00     0.001 A 
ATOM     30  C   UNL A   1      33.020  16.387  24.423  1.00  0.00     0.002 A 
ENDBRANCH  14  18
ENDBRANCH   6   9
ENDBRANCH   4   5
ENDBRANCH   3   4
ENDBRANCH   2   3
ENDBRANCH   1   2
BRANCH   1  31
ATOM     31  C   UNL A   1      34.095  32.235  27.286  1.00  0.00     0.021 C 
BRANCH  31  32
ATOM     32  C   UNL A   1      32.740  32.837  27.644  1.00  0.00     0.116 C 
BRANCH  32  33
ATOM     33  N   UNL A   1      32.808  34.267  27.887  1.00  0.00    -0.352 N 
ATOM     34  C   UNL A   1      33.598  34.963  28.763  1.00  0.00     0.251 C 
ATOM     35  H   UNL A   1      32.196  34.816  27.344  1.00  0.00     0.163 HD
ATOM     36  O   UNL A   1      33.392  36.169  28.930  1.00  0.00    -0.269 OA
BRANCH  34  37
ATOM     37  C   UNL A   1      34.670  34.282  29.523  1.00  0.00     0.039 A 
ATOM     38  C   UNL A   1      35.990  34.418  29.084  1.00  0.00     0.014 A 
ATOM     39  C   UNL A   1      34.388  33.483  30.635  1.00  0.00     0.014 A 
ATOM     40  C   UNL A   1      37.024  33.783  29.776  1.00  0.00     0.010 A 
ATOM     41  C   UNL A   1      35.427  32.911  31.369  1.00  0.00     0.010 A 
ATOM     42  C   UNL A   1      36.756  33.038  30.935  1.00  0.00    -0.014 A 
BRANCH  42  43
ATOM     43  C   UNL A   1      37.854  32.355  31.669  1.00  0.00     0.031 A 
ATOM     44  C   UNL A   1      38.620  31.236  31.013  1.00  0.00     0.074 A 
ATOM     45  C   UNL A   1      38.148  32.728  32.930  1.00  0.00     0.049 A 
ATOM     46  N   UNL A   1      39.606  30.516  31.487  1.00  0.00    -0.248 NA
ATOM     47  C   UNL A   1      38.200  30.856  29.656  1.00  0.00     0.031 C 
ATOM     48  C   UNL A   1      37.447  33.766  33.689  1.00  0.00     0.029 A 
ATOM     49  N   UNL A   1      39.115  32.282  33.796  1.00  0.00    -0.354 N 
ATOM     50  C   UNL A   1      39.917  29.596  30.490  1.00  0.00     0.074 A 
ATOM     51  C   UNL A   1      38.967  29.804  29.419  1.00  0.00     0.031 C 
ATOM     52  C   UNL A   1      38.028  33.900  34.892  1.00  0.00     0.029 A 
ATOM     53  C   UNL A   1      39.118  32.936  35.007  1.00  0.00     0.049 A 
ATOM     54  H   UNL A   1      39.747  31.562  33.572  1.00  0.00     0.167 HD
ATOM     55  C   UNL A   1      40.919  28.681  30.460  1.00  0.00     0.034 A 
ATOM     56  C   UNL A   1      39.909  32.776  36.086  1.00  0.00     0.034 A 
ATOM     57  C   UNL A   1      41.867  28.496  31.533  1.00  0.00     0.049 A 
ATOM     58  C   UNL A   1      41.015  31.752  36.030  1.00  0.00     0.074 A 
ATOM     59  C   UNL A   1      42.951  27.637  31.589  1.00  0.00     0.029 A 
ATOM     60  N   UNL A   1      41.841  29.177  32.744  1.00  0.00    -0.354 N 
ATOM     61  N   UNL A   1      41.334  30.930  35.056  1.00  0.00    -0.248 NA
ATOM     62  C   UNL A   1      41.879  31.651  37.211  1.00  0.00     0.031 C 
ATOM     63  C   UNL A   1      43.539  27.752  32.854  1.00  0.00     0.029 A 
ATOM     64  C   UNL A   1      42.871  28.737  33.563  1.00  0.00     0.049 A 
ATOM     65  H   UNL A   1      41.186  29.871  32.986  1.00  0.00     0.167 HD
ATOM     66  C   UNL A   1      42.453  30.232  35.502  1.00  0.00     0.074 A 
ATOM     67  C   UNL A   1      42.767  30.752  36.817  1.00  0.00     0.031 C 
ATOM     68  C   UNL A   1      43.159  29.250  34.883  1.00  0.00     0.034 A 
BRANCH  55  69
ATOM     69  C   UNL A   1      41.018  27.801  29.234  1.00  0.00     0.023 A 
ATOM     70  C   UNL A   1      42.005  28.009  28.252  1.00  0.00     0.031 A 
ATOM     71  C   UNL A   1      40.094  26.763  29.024  1.00  0.00     0.131 A 
ATOM     72  C   UNL A   1      41.992  27.249  27.072  1.00  0.00     0.055 A 
ATOM     73  C   UNL A   1      40.140  25.953  27.887  1.00  0.00     0.041 A 
ATOM     74  F   UNL A   1      39.116  26.526  29.913  1.00  0.00    -0.206 F 
ATOM     75  C   UNL A   1      41.083  26.205  26.894  1.00  0.00     0.022 A 
BRANCH  72  76
ATOM     76  S   UNL A   1      43.082  27.748  25.711  1.00  0.00     0.124 S 
ATOM     77  O   UNL A   1      43.906  28.770  26.353  1.00  0.00    -0.237 OA
ATOM     78  O   UNL A   1      43.758  26.501  25.373  1.00  0.00    -0.237 OA
ATOM     79  O   UNL A   1      42.157  28.251  24.698  1.00  0.00    -0.744 OA
ENDBRANCH  72  76
ENDBRANCH  55  69
BRANCH  56  80
ATOM     80  C   UNL A   1      39.695  33.600  37.310  1.00  0.00     0.023 A 
ATOM     81  C   UNL A   1      38.916  33.125  38.377  1.00  0.00     0.031 A 
ATOM     82  C   UNL A   1      40.230  34.897  37.411  1.00  0.00     0.131 A 
ATOM     83  C   UNL A   1      38.650  33.958  39.475  1.00  0.00     0.055 A 
ATOM     84  C   UNL A   1      40.007  35.702  38.529  1.00  0.00     0.041 A 
ATOM     85  F   UNL A   1      40.987  35.398  36.421  1.00  0.00    -0.206 F 
ATOM     86  C   UNL A   1      39.201  35.239  39.564  1.00  0.00     0.022 A 
BRANCH  83  87
ATOM     87  S   UNL A   1      37.500  33.375  40.751  1.00  0.00     0.124 S 
ATOM     88  O   UNL A   1      37.198  34.610  41.466  1.00  0.00    -0.237 OA
ATOM     89  O   UNL A   1      36.417  32.816  39.949  1.00  0.00    -0.237 OA
ATOM     90  O   UNL A   1      38.288  32.397  41.498  1.00  0.00    -0.744 OA
ENDBRANCH  83  87
ENDBRANCH  56  80
BRANCH  68  91
ATOM     91  C   UNL A   1      44.358  28.705  35.622  1.00  0.00     0.023 A 
ATOM     92  C   UNL A   1      44.231  27.685  36.582  1.00  0.00     0.031 A 
ATOM     93  C   UNL A   1      45.638  29.240  35.395  1.00  0.00     0.131 A 
ATOM     94  C   UNL A   1      45.348  27.286  37.332  1.00  0.00     0.055 A 
ATOM     95  C   UNL A   1      46.758  28.790  36.094  1.00  0.00     0.041 A 
ATOM     96  F   UNL A   1      45.819  30.217  34.491  1.00  0.00    -0.206 F 
ATOM     97  C   UNL A   1      46.614  27.821  37.082  1.00  0.00     0.022 A 
BRANCH  94  98
ATOM     98  S   UNL A   1      45.099  26.149  38.722  1.00  0.00     0.124 S 
ATOM     99  O   UNL A   1      44.506  24.989  38.065  1.00  0.00    -0.237 OA
ATOM    100  O   UNL A   1      46.457  25.971  39.226  1.00  0.00    -0.237 OA
ATOM    101  O   UNL A   1      44.200  26.885  39.611  1.00  0.00    -0.744 OA
ENDBRANCH  94  98
ENDBRANCH  68  91
ENDBRANCH  42  43
ENDBRANCH  34  37
ENDBRANCH  32  33
ENDBRANCH  31  32
ENDBRANCH   1  31
TORSDOF 17
ENDMDL
