MODEL 1
REMARK VINA RESULT:     -11.5      0.000      0.000
REMARK SMILES Cc1cc(S(=O)(=O)Nc2ccc(F)cc2C(=O)NCCCCCCNC(=O)c2ccc(-c3c4nc(c(-c5cc(S(=O)(=O)[O-])ccc5F)c5ccc([nH]5)c(-c5cc(S(=O)(=O)[O-])ccc5F)c5nc(c(-c6cc(S(=O)(=O)[O-])ccc6F)c6ccc3[nH]6)C=C5)C=C4)cc2)c(C)s1
REMARK SMILES IDX 21 1 20 2 19 3 18 4 16 5 17 6 15 8 9 9 10 10 11 11 14 12
REMARK SMILES IDX 12 13 13 14 8 15 5 17 6 18 7 19 4 20 1 21 2 22 3 23 93 24
REMARK SMILES IDX 91 25 92 26 22 27 23 28 24 29 25 30 26 31 27 33 28 34 29 35
REMARK SMILES IDX 90 36 30 37 89 38 31 39 32 40 33 41 83 42 34 43 88 44 82 45
REMARK SMILES IDX 84 46 35 47 87 48 81 49 80 50 36 52 68 53 48 54 67 55 49 56
REMARK SMILES IDX 52 57 66 58 85 59 50 60 51 61 65 63 86 64 53 65 37 66 38 67
REMARK SMILES IDX 46 68 39 69 45 70 47 71 44 72 40 73 41 74 42 75 43 76 69 77
REMARK SMILES IDX 70 78 78 79 71 80 77 81 79 82 76 83 72 84 73 85 74 86 75 87
REMARK SMILES IDX 54 88 55 89 63 90 56 91 62 92 64 93 61 94 57 95 58 96 59 97
REMARK SMILES IDX 60 98
REMARK H PARENT 18 7 8 16 25 32 84 51 52 62
REMARK Flexibility Score: inf
ROOT
ATOM      1  C   UNL A   1      31.862  28.576  26.163  1.00  0.00     0.002 C 
ENDROOT
BRANCH   1   2
ATOM      2  C   UNL A   1      33.202  28.010  25.680  1.00  0.00     0.021 C 
BRANCH   2   3
ATOM      3  C   UNL A   1      33.771  28.559  24.377  1.00  0.00     0.116 C 
BRANCH   3   4
ATOM      4  N   UNL A   1      33.965  27.591  23.330  1.00  0.00    -0.352 N 
ATOM      5  C   UNL A   1      33.065  26.808  22.657  1.00  0.00     0.253 C 
ATOM      6  O   UNL A   1      33.552  26.049  21.809  1.00  0.00    -0.269 OA
ATOM      7  H   UNL A   1      34.901  27.472  23.051  1.00  0.00     0.163 HD
BRANCH   5   8
ATOM      8  C   UNL A   1      31.570  26.758  22.842  1.00  0.00     0.066 A 
ATOM      9  C   UNL A   1      30.757  25.726  23.365  1.00  0.00     0.062 A 
ATOM     10  C   UNL A   1      29.442  26.012  23.789  1.00  0.00     0.030 A 
ATOM     11  C   UNL A   1      28.862  27.252  23.528  1.00  0.00     0.041 A 
ATOM     12  C   UNL A   1      30.945  27.997  22.571  1.00  0.00     0.055 A 
ATOM     13  C   UNL A   1      29.611  28.224  22.889  1.00  0.00     0.124 A 
ATOM     14  F   UNL A   1      29.053  29.406  22.600  1.00  0.00    -0.207 F 
BRANCH   9  15
ATOM     15  N   UNL A   1      31.236  24.408  23.590  1.00  0.00    -0.279 N 
ATOM     16  H   UNL A   1      31.241  23.773  22.837  1.00  0.00     0.180 HD
BRANCH  15  17
ATOM     17  S   UNL A   1      31.803  23.883  25.104  1.00  0.00     0.263 S 
ATOM     18  O   UNL A   1      30.985  22.728  25.416  1.00  0.00    -0.201 OA
ATOM     19  O   UNL A   1      31.803  25.049  25.961  1.00  0.00    -0.201 OA
BRANCH  17  20
ATOM     20  C   UNL A   1      33.427  23.264  25.248  1.00  0.00     0.101 A 
ATOM     21  C   UNL A   1      37.103  23.814  25.912  1.00  0.00     0.056 C 
ATOM     22  C   UNL A   1      35.734  23.314  25.601  1.00  0.00     0.003 A 
ATOM     23  C   UNL A   1      34.516  23.860  25.954  1.00  0.00     0.037 A 
ATOM     24  S   UNL A   1      35.533  21.892  24.687  1.00  0.00    -0.145 S 
ATOM     25  C   UNL A   1      33.830  22.090  24.624  1.00  0.00     0.022 A 
ATOM     26  C   UNL A   1      33.031  21.050  23.903  1.00  0.00     0.058 C 
ENDBRANCH  17  20
ENDBRANCH  15  17
ENDBRANCH   9  15
ENDBRANCH   5   8
ENDBRANCH   3   4
ENDBRANCH   2   3
ENDBRANCH   1   2
BRANCH   1  27
ATOM     27  C   UNL A   1      31.868  29.721  27.180  1.00  0.00     0.002 C 
BRANCH  27  28
ATOM     28  C   UNL A   1      31.882  31.161  26.661  1.00  0.00     0.021 C 
BRANCH  28  29
ATOM     29  C   UNL A   1      33.038  32.055  27.097  1.00  0.00     0.116 C 
BRANCH  29  30
ATOM     30  N   UNL A   1      32.621  33.383  27.508  1.00  0.00    -0.352 N 
ATOM     31  C   UNL A   1      33.174  34.230  28.441  1.00  0.00     0.251 C 
ATOM     32  H   UNL A   1      31.822  33.732  27.049  1.00  0.00     0.163 HD
ATOM     33  O   UNL A   1      32.613  35.291  28.704  1.00  0.00    -0.269 OA
BRANCH  31  34
ATOM     34  C   UNL A   1      34.415  33.855  29.161  1.00  0.00     0.039 A 
ATOM     35  C   UNL A   1      34.314  33.024  30.283  1.00  0.00     0.014 A 
ATOM     36  C   UNL A   1      35.668  34.315  28.749  1.00  0.00     0.014 A 
ATOM     37  C   UNL A   1      35.471  32.589  30.938  1.00  0.00     0.010 A 
ATOM     38  C   UNL A   1      36.823  33.840  29.372  1.00  0.00     0.010 A 
ATOM     39  C   UNL A   1      36.738  32.958  30.461  1.00  0.00    -0.014 A 
BRANCH  39  40
ATOM     40  C   UNL A   1      37.990  32.434  31.071  1.00  0.00     0.031 A 
ATOM     41  C   UNL A   1      38.685  31.249  30.460  1.00  0.00     0.074 A 
ATOM     42  C   UNL A   1      38.465  32.979  32.210  1.00  0.00     0.049 A 
ATOM     43  N   UNL A   1      39.649  30.514  30.950  1.00  0.00    -0.248 NA
ATOM     44  C   UNL A   1      38.221  30.829  29.129  1.00  0.00     0.031 C 
ATOM     45  C   UNL A   1      37.901  34.144  32.895  1.00  0.00     0.029 A 
ATOM     46  N   UNL A   1      39.528  32.613  33.002  1.00  0.00    -0.354 N 
ATOM     47  C   UNL A   1      39.899  29.533  29.997  1.00  0.00     0.074 A 
ATOM     48  C   UNL A   1      38.967  29.754  28.911  1.00  0.00     0.031 C 
ATOM     49  C   UNL A   1      38.631  34.405  33.993  1.00  0.00     0.029 A 
ATOM     50  C   UNL A   1      39.676  33.394  34.125  1.00  0.00     0.049 A 
ATOM     51  H   UNL A   1      40.126  31.863  32.786  1.00  0.00     0.167 HD
ATOM     52  C   UNL A   1      40.825  28.544  30.024  1.00  0.00     0.034 A 
ATOM     53  C   UNL A   1      40.534  33.291  35.160  1.00  0.00     0.034 A 
ATOM     54  C   UNL A   1      41.761  28.336  31.099  1.00  0.00     0.049 A 
ATOM     55  C   UNL A   1      41.519  32.151  35.186  1.00  0.00     0.074 A 
ATOM     56  C   UNL A   1      42.722  27.347  31.227  1.00  0.00     0.029 A 
ATOM     57  N   UNL A   1      41.868  29.140  32.224  1.00  0.00    -0.354 N 
ATOM     58  N   UNL A   1      41.687  31.185  34.315  1.00  0.00    -0.248 NA
ATOM     59  C   UNL A   1      42.424  32.084  36.343  1.00  0.00     0.031 C 
ATOM     60  C   UNL A   1      43.386  27.533  32.444  1.00  0.00     0.029 A 
ATOM     61  C   UNL A   1      42.876  28.669  33.050  1.00  0.00     0.049 A 
ATOM     62  H   UNL A   1      41.309  29.930  32.409  1.00  0.00     0.167 HD
ATOM     63  C   UNL A   1      42.732  30.408  34.809  1.00  0.00     0.074 A 
ATOM     64  C   UNL A   1      43.162  31.024  36.047  1.00  0.00     0.031 C 
ATOM     65  C   UNL A   1      43.288  29.288  34.285  1.00  0.00     0.034 A 
BRANCH  52  66
ATOM     66  C   UNL A   1      40.856  27.590  28.860  1.00  0.00     0.023 A 
ATOM     67  C   UNL A   1      41.803  27.721  27.832  1.00  0.00     0.031 A 
ATOM     68  C   UNL A   1      39.942  26.524  28.793  1.00  0.00     0.131 A 
ATOM     69  C   UNL A   1      41.795  26.818  26.760  1.00  0.00     0.055 A 
ATOM     70  C   UNL A   1      39.976  25.594  27.752  1.00  0.00     0.041 A 
ATOM     71  F   UNL A   1      39.006  26.365  29.741  1.00  0.00    -0.206 F 
ATOM     72  C   UNL A   1      40.904  25.742  26.725  1.00  0.00     0.022 A 
BRANCH  69  73
ATOM     73  S   UNL A   1      42.936  27.091  25.378  1.00  0.00     0.124 S 
ATOM     74  O   UNL A   1      44.179  27.395  26.081  1.00  0.00    -0.237 OA
ATOM     75  O   UNL A   1      42.898  25.816  24.671  1.00  0.00    -0.237 OA
ATOM     76  O   UNL A   1      42.340  28.217  24.661  1.00  0.00    -0.744 OA
ENDBRANCH  69  73
ENDBRANCH  52  66
BRANCH  53  77
ATOM     77  C   UNL A   1      40.489  34.266  36.284  1.00  0.00     0.023 A 
ATOM     78  C   UNL A   1      39.925  33.909  37.518  1.00  0.00     0.031 A 
ATOM     79  C   UNL A   1      40.957  35.582  36.124  1.00  0.00     0.131 A 
ATOM     80  C   UNL A   1      39.803  34.870  38.534  1.00  0.00     0.055 A 
ATOM     81  C   UNL A   1      40.874  36.521  37.152  1.00  0.00     0.041 A 
ATOM     82  F   UNL A   1      41.507  35.970  34.963  1.00  0.00    -0.206 F 
ATOM     83  C   UNL A   1      40.283  36.171  38.363  1.00  0.00     0.022 A 
BRANCH  80  84
ATOM     84  S   UNL A   1      38.944  34.411  40.064  1.00  0.00     0.124 S 
ATOM     85  O   UNL A   1      39.986  33.686  40.783  1.00  0.00    -0.237 OA
ATOM     86  O   UNL A   1      38.575  35.712  40.609  1.00  0.00    -0.237 OA
ATOM     87  O   UNL A   1      37.826  33.596  39.593  1.00  0.00    -0.744 OA
ENDBRANCH  80  84
ENDBRANCH  53  77
BRANCH  65  88
ATOM     88  C   UNL A   1      44.449  28.687  35.030  1.00  0.00     0.023 A 
ATOM     89  C   UNL A   1      44.266  27.673  35.985  1.00  0.00     0.031 A 
ATOM     90  C   UNL A   1      45.757  29.138  34.779  1.00  0.00     0.131 A 
ATOM     91  C   UNL A   1      45.370  27.173  36.689  1.00  0.00     0.055 A 
ATOM     92  C   UNL A   1      46.857  28.605  35.448  1.00  0.00     0.041 A 
ATOM     93  F   UNL A   1      45.982  30.105  33.874  1.00  0.00    -0.206 F 
ATOM     94  C   UNL A   1      46.666  27.622  36.417  1.00  0.00     0.022 A 
BRANCH  91  95
ATOM     95  S   UNL A   1      45.087  25.962  38.010  1.00  0.00     0.124 S 
ATOM     96  O   UNL A   1      46.204  25.043  37.821  1.00  0.00    -0.237 OA
ATOM     97  O   UNL A   1      45.138  26.789  39.211  1.00  0.00    -0.237 OA
ATOM     98  O   UNL A   1      43.770  25.411  37.694  1.00  0.00    -0.744 OA
ENDBRANCH  91  95
ENDBRANCH  65  88
ENDBRANCH  39  40
ENDBRANCH  31  34
ENDBRANCH  29  30
ENDBRANCH  28  29
ENDBRANCH  27  28
ENDBRANCH   1  27
TORSDOF 19
ENDMDL
MODEL 2
REMARK VINA RESULT:     -11.4      2.602      4.197
REMARK SMILES Cc1cc(S(=O)(=O)Nc2ccc(F)cc2C(=O)NCCCCCCNC(=O)c2ccc(-c3c4nc(c(-c5cc(S(=O)(=O)[O-])ccc5F)c5ccc([nH]5)c(-c5cc(S(=O)(=O)[O-])ccc5F)c5nc(c(-c6cc(S(=O)(=O)[O-])ccc6F)c6ccc3[nH]6)C=C5)C=C4)cc2)c(C)s1
REMARK SMILES IDX 21 1 20 2 19 3 18 4 16 5 17 6 15 8 9 9 10 10 11 11 14 12
REMARK SMILES IDX 12 13 13 14 8 15 5 17 6 18 7 19 4 20 1 21 2 22 3 23 93 24
REMARK SMILES IDX 91 25 92 26 22 27 23 28 24 29 25 30 26 31 27 33 28 34 29 35
REMARK SMILES IDX 90 36 30 37 89 38 31 39 32 40 33 41 83 42 34 43 88 44 82 45
REMARK SMILES IDX 84 46 35 47 87 48 81 49 80 50 36 52 68 53 48 54 67 55 49 56
REMARK SMILES IDX 52 57 66 58 85 59 50 60 51 61 65 63 86 64 53 65 37 66 38 67
REMARK SMILES IDX 46 68 39 69 45 70 47 71 44 72 40 73 41 74 42 75 43 76 69 77
REMARK SMILES IDX 70 78 78 79 71 80 77 81 79 82 76 83 72 84 73 85 74 86 75 87
REMARK SMILES IDX 54 88 55 89 63 90 56 91 62 92 64 93 61 94 57 95 58 96 59 97
REMARK SMILES IDX 60 98
REMARK H PARENT 18 7 8 16 25 32 84 51 52 62
REMARK Flexibility Score: inf
ROOT
ATOM      1  C   UNL A   1      32.673  26.922  22.768  1.00  0.00     0.002 C 
ENDROOT
BRANCH   1   2
ATOM      2  C   UNL A   1      33.698  25.829  22.448  1.00  0.00     0.021 C 
BRANCH   2   3
ATOM      3  C   UNL A   1      33.506  24.467  23.104  1.00  0.00     0.116 C 
BRANCH   3   4
ATOM      4  N   UNL A   1      32.924  24.490  24.420  1.00  0.00    -0.352 N 
ATOM      5  C   UNL A   1      33.388  24.004  25.613  1.00  0.00     0.253 C 
ATOM      6  O   UNL A   1      32.635  24.165  26.581  1.00  0.00    -0.269 OA
ATOM      7  H   UNL A   1      32.044  24.930  24.470  1.00  0.00     0.163 HD
BRANCH   5   8
ATOM      8  C   UNL A   1      34.692  23.291  25.870  1.00  0.00     0.066 A 
ATOM      9  C   UNL A   1      34.942  21.917  26.093  1.00  0.00     0.062 A 
ATOM     10  C   UNL A   1      36.250  21.408  25.950  1.00  0.00     0.030 A 
ATOM     11  C   UNL A   1      37.335  22.266  25.776  1.00  0.00     0.041 A 
ATOM     12  C   UNL A   1      35.815  24.135  25.717  1.00  0.00     0.055 A 
ATOM     13  C   UNL A   1      37.109  23.628  25.696  1.00  0.00     0.124 A 
ATOM     14  F   UNL A   1      38.146  24.464  25.566  1.00  0.00    -0.207 F 
BRANCH   9  15
ATOM     15  N   UNL A   1      33.909  20.980  26.359  1.00  0.00    -0.279 N 
ATOM     16  H   UNL A   1      33.642  20.824  27.294  1.00  0.00     0.180 HD
BRANCH  15  17
ATOM     17  S   UNL A   1      33.114  20.117  25.128  1.00  0.00     0.263 S 
ATOM     18  O   UNL A   1      33.669  20.645  23.899  1.00  0.00    -0.201 OA
ATOM     19  O   UNL A   1      31.699  20.222  25.412  1.00  0.00    -0.201 OA
BRANCH  17  20
ATOM     20  C   UNL A   1      33.378  18.400  24.973  1.00  0.00     0.101 A 
ATOM     21  C   UNL A   1      32.285  14.840  25.598  1.00  0.00     0.056 C 
ATOM     22  C   UNL A   1      32.956  16.118  25.227  1.00  0.00     0.003 A 
ATOM     23  C   UNL A   1      32.395  17.367  25.051  1.00  0.00     0.037 A 
ATOM     24  S   UNL A   1      34.639  16.154  24.972  1.00  0.00    -0.145 S 
ATOM     25  C   UNL A   1      34.645  17.859  24.784  1.00  0.00     0.022 A 
ATOM     26  C   UNL A   1      35.953  18.528  24.500  1.00  0.00     0.058 C 
ENDBRANCH  17  20
ENDBRANCH  15  17
ENDBRANCH   9  15
ENDBRANCH   5   8
ENDBRANCH   3   4
ENDBRANCH   2   3
ENDBRANCH   1   2
BRANCH   1  27
ATOM     27  C   UNL A   1      33.175  28.298  23.215  1.00  0.00     0.002 C 
BRANCH  27  28
ATOM     28  C   UNL A   1      32.327  29.101  24.204  1.00  0.00     0.021 C 
BRANCH  28  29
ATOM     29  C   UNL A   1      32.959  29.462  25.543  1.00  0.00     0.116 C 
BRANCH  29  30
ATOM     30  N   UNL A   1      32.483  30.720  26.090  1.00  0.00    -0.352 N 
ATOM     31  C   UNL A   1      33.048  31.536  27.043  1.00  0.00     0.251 C 
ATOM     32  H   UNL A   1      31.626  31.039  25.722  1.00  0.00     0.163 HD
ATOM     33  O   UNL A   1      32.436  32.528  27.431  1.00  0.00    -0.269 OA
BRANCH  31  34
ATOM     34  C   UNL A   1      34.367  31.206  27.635  1.00  0.00     0.039 A 
ATOM     35  C   UNL A   1      35.316  32.226  27.765  1.00  0.00     0.014 A 
ATOM     36  C   UNL A   1      34.679  29.910  28.053  1.00  0.00     0.014 A 
ATOM     37  C   UNL A   1      36.541  31.966  28.390  1.00  0.00     0.010 A 
ATOM     38  C   UNL A   1      35.880  29.664  28.721  1.00  0.00     0.010 A 
ATOM     39  C   UNL A   1      36.816  30.693  28.913  1.00  0.00    -0.014 A 
BRANCH  39  40
ATOM     40  C   UNL A   1      38.065  30.407  29.669  1.00  0.00     0.031 A 
ATOM     41  C   UNL A   1      39.097  29.479  29.091  1.00  0.00     0.074 A 
ATOM     42  C   UNL A   1      38.241  30.925  30.902  1.00  0.00     0.049 A 
ATOM     43  N   UNL A   1      40.136  28.935  29.671  1.00  0.00    -0.248 NA
ATOM     44  C   UNL A   1      38.927  29.103  27.679  1.00  0.00     0.031 C 
ATOM     45  C   UNL A   1      37.329  31.856  31.571  1.00  0.00     0.029 A 
ATOM     46  N   UNL A   1      39.246  30.732  31.819  1.00  0.00    -0.354 N 
ATOM     47  C   UNL A   1      40.737  28.140  28.702  1.00  0.00     0.074 A 
ATOM     48  C   UNL A   1      39.930  28.253  27.504  1.00  0.00     0.031 C 
ATOM     49  C   UNL A   1      37.825  32.162  32.782  1.00  0.00     0.029 A 
ATOM     50  C   UNL A   1      39.053  31.407  33.003  1.00  0.00     0.049 A 
ATOM     51  H   UNL A   1      40.030  30.163  31.646  1.00  0.00     0.167 HD
ATOM     52  C   UNL A   1      41.860  27.388  28.802  1.00  0.00     0.034 A 
ATOM     53  C   UNL A   1      39.767  31.396  34.146  1.00  0.00     0.034 A 
ATOM     54  C   UNL A   1      42.668  27.289  29.990  1.00  0.00     0.049 A 
ATOM     55  C   UNL A   1      40.984  30.511  34.245  1.00  0.00     0.074 A 
ATOM     56  C   UNL A   1      43.812  26.535  30.196  1.00  0.00     0.029 A 
ATOM     57  N   UNL A   1      42.430  27.977  31.171  1.00  0.00    -0.354 N 
ATOM     58  N   UNL A   1      41.491  29.703  33.345  1.00  0.00    -0.248 NA
ATOM     59  C   UNL A   1      41.717  30.533  35.519  1.00  0.00     0.031 C 
ATOM     60  C   UNL A   1      44.246  26.742  31.509  1.00  0.00     0.029 A 
ATOM     61  C   UNL A   1      43.403  27.664  32.107  1.00  0.00     0.049 A 
ATOM     62  H   UNL A   1      41.680  28.597  31.323  1.00  0.00     0.167 HD
ATOM     63  C   UNL A   1      42.617  29.137  33.938  1.00  0.00     0.074 A 
ATOM     64  C   UNL A   1      42.719  29.704  35.267  1.00  0.00     0.031 C 
ATOM     65  C   UNL A   1      43.488  28.231  33.430  1.00  0.00     0.034 A 
BRANCH  52  66
ATOM     66  C   UNL A   1      42.271  26.590  27.594  1.00  0.00     0.023 A 
ATOM     67  C   UNL A   1      41.985  25.220  27.490  1.00  0.00     0.031 A 
ATOM     68  C   UNL A   1      42.935  27.216  26.524  1.00  0.00     0.131 A 
ATOM     69  C   UNL A   1      42.391  24.509  26.352  1.00  0.00     0.055 A 
ATOM     70  C   UNL A   1      43.287  26.515  25.369  1.00  0.00     0.041 A 
ATOM     71  F   UNL A   1      43.246  28.520  26.582  1.00  0.00    -0.206 F 
ATOM     72  C   UNL A   1      43.019  25.151  25.282  1.00  0.00     0.022 A 
BRANCH  69  73
ATOM     73  S   UNL A   1      42.134  22.715  26.304  1.00  0.00     0.124 S 
ATOM     74  O   UNL A   1      42.784  22.360  25.046  1.00  0.00    -0.237 OA
ATOM     75  O   UNL A   1      42.803  22.261  27.518  1.00  0.00    -0.237 OA
ATOM     76  O   UNL A   1      40.679  22.579  26.309  1.00  0.00    -0.744 OA
ENDBRANCH  69  73
ENDBRANCH  52  66
BRANCH  53  77
ATOM     77  C   UNL A   1      39.343  32.214  35.315  1.00  0.00     0.023 A 
ATOM     78  C   UNL A   1      39.760  33.548  35.444  1.00  0.00     0.031 A 
ATOM     79  C   UNL A   1      38.563  31.661  36.346  1.00  0.00     0.131 A 
ATOM     80  C   UNL A   1      39.431  34.273  36.600  1.00  0.00     0.055 A 
ATOM     81  C   UNL A   1      38.201  32.400  37.472  1.00  0.00     0.041 A 
ATOM     82  F   UNL A   1      38.137  30.391  36.266  1.00  0.00    -0.206 F 
ATOM     83  C   UNL A   1      38.646  33.713  37.609  1.00  0.00     0.022 A 
BRANCH  80  84
ATOM     84  S   UNL A   1      40.104  35.947  36.794  1.00  0.00     0.124 S 
ATOM     85  O   UNL A   1      39.724  36.568  35.530  1.00  0.00    -0.237 OA
ATOM     86  O   UNL A   1      39.401  36.422  37.980  1.00  0.00    -0.237 OA
ATOM     87  O   UNL A   1      41.536  35.718  36.972  1.00  0.00    -0.744 OA
ENDBRANCH  80  84
ENDBRANCH  53  77
BRANCH  65  88
ATOM     88  C   UNL A   1      44.651  27.837  34.300  1.00  0.00     0.023 A 
ATOM     89  C   UNL A   1      44.581  26.730  35.164  1.00  0.00     0.031 A 
ATOM     90  C   UNL A   1      45.843  28.580  34.263  1.00  0.00     0.131 A 
ATOM     91  C   UNL A   1      45.671  26.424  35.991  1.00  0.00     0.055 A 
ATOM     92  C   UNL A   1      46.941  28.243  35.054  1.00  0.00     0.041 A 
ATOM     93  F   UNL A   1      45.958  29.645  33.453  1.00  0.00    -0.206 F 
ATOM     94  C   UNL A   1      46.855  27.165  35.932  1.00  0.00     0.022 A 
BRANCH  91  95
ATOM     95  S   UNL A   1      45.503  25.074  37.191  1.00  0.00     0.124 S 
ATOM     96  O   UNL A   1      46.352  25.535  38.285  1.00  0.00    -0.237 OA
ATOM     97  O   UNL A   1      44.069  25.066  37.457  1.00  0.00    -0.237 OA
ATOM     98  O   UNL A   1      46.004  23.907  36.467  1.00  0.00    -0.744 OA
ENDBRANCH  91  95
ENDBRANCH  65  88
ENDBRANCH  39  40
ENDBRANCH  31  34
ENDBRANCH  29  30
ENDBRANCH  28  29
ENDBRANCH  27  28
ENDBRANCH   1  27
TORSDOF 19
ENDMDL
MODEL 3
REMARK VINA RESULT:     -11.3      1.068      7.652
REMARK SMILES Cc1cc(S(=O)(=O)Nc2ccc(F)cc2C(=O)NCCCCCCNC(=O)c2ccc(-c3c4nc(c(-c5cc(S(=O)(=O)[O-])ccc5F)c5ccc([nH]5)c(-c5cc(S(=O)(=O)[O-])ccc5F)c5nc(c(-c6cc(S(=O)(=O)[O-])ccc6F)c6ccc3[nH]6)C=C5)C=C4)cc2)c(C)s1
REMARK SMILES IDX 21 1 20 2 19 3 18 4 16 5 17 6 15 8 9 9 10 10 11 11 14 12
REMARK SMILES IDX 12 13 13 14 8 15 5 17 6 18 7 19 4 20 1 21 2 22 3 23 93 24
REMARK SMILES IDX 91 25 92 26 22 27 23 28 24 29 25 30 26 31 27 33 28 34 29 35
REMARK SMILES IDX 90 36 30 37 89 38 31 39 32 40 33 41 83 42 34 43 88 44 82 45
REMARK SMILES IDX 84 46 35 47 87 48 81 49 80 50 36 52 68 53 48 54 67 55 49 56
REMARK SMILES IDX 52 57 66 58 85 59 50 60 51 61 65 63 86 64 53 65 37 66 38 67
REMARK SMILES IDX 46 68 39 69 45 70 47 71 44 72 40 73 41 74 42 75 43 76 69 77
REMARK SMILES IDX 70 78 78 79 71 80 77 81 79 82 76 83 72 84 73 85 74 86 75 87
REMARK SMILES IDX 54 88 55 89 63 90 56 91 62 92 64 93 61 94 57 95 58 96 59 97
REMARK SMILES IDX 60 98
REMARK H PARENT 18 7 8 16 25 32 84 51 52 62
REMARK Flexibility Score: inf
ROOT
ATOM      1  C   UNL A   1      32.505  29.691  27.078  1.00  0.00     0.002 C 
ENDROOT
BRANCH   1   2
ATOM      2  C   UNL A   1      32.317  28.198  26.786  1.00  0.00     0.021 C 
BRANCH   2   3
ATOM      3  C   UNL A   1      33.468  27.459  26.116  1.00  0.00     0.116 C 
BRANCH   3   4
ATOM      4  N   UNL A   1      33.965  28.057  24.905  1.00  0.00    -0.352 N 
ATOM      5  C   UNL A   1      33.341  28.322  23.715  1.00  0.00     0.253 C 
ATOM      6  O   UNL A   1      34.054  28.833  22.844  1.00  0.00    -0.269 OA
ATOM      7  H   UNL A   1      34.914  28.317  24.937  1.00  0.00     0.163 HD
BRANCH   5   8
ATOM      8  C   UNL A   1      31.902  28.052  23.352  1.00  0.00     0.066 A 
ATOM      9  C   UNL A   1      31.238  26.821  23.144  1.00  0.00     0.062 A 
ATOM     10  C   UNL A   1      29.828  26.769  23.174  1.00  0.00     0.030 A 
ATOM     11  C   UNL A   1      29.071  27.938  23.216  1.00  0.00     0.041 A 
ATOM     12  C   UNL A   1      31.106  29.220  23.371  1.00  0.00     0.055 A 
ATOM     13  C   UNL A   1      29.720  29.158  23.280  1.00  0.00     0.124 A 
ATOM     14  F   UNL A   1      29.005  30.289  23.285  1.00  0.00    -0.207 F 
BRANCH   9  15
ATOM     15  N   UNL A   1      31.929  25.588  23.007  1.00  0.00    -0.279 N 
ATOM     16  H   UNL A   1      32.645  25.521  22.336  1.00  0.00     0.180 HD
BRANCH  15  17
ATOM     17  S   UNL A   1      31.567  24.223  23.955  1.00  0.00     0.263 S 
ATOM     18  O   UNL A   1      30.459  23.590  23.270  1.00  0.00    -0.201 OA
ATOM     19  O   UNL A   1      31.428  24.702  25.313  1.00  0.00    -0.201 OA
BRANCH  17  20
ATOM     20  C   UNL A   1      32.735  22.935  24.088  1.00  0.00     0.101 A 
ATOM     21  C   UNL A   1      33.555  19.296  24.676  1.00  0.00     0.056 C 
ATOM     22  C   UNL A   1      33.527  20.765  24.425  1.00  0.00     0.003 A 
ATOM     23  C   UNL A   1      32.495  21.536  23.930  1.00  0.00     0.037 A 
ATOM     24  S   UNL A   1      34.898  21.714  24.769  1.00  0.00    -0.145 S 
ATOM     25  C   UNL A   1      34.066  23.171  24.412  1.00  0.00     0.022 A 
ATOM     26  C   UNL A   1      34.822  24.456  24.530  1.00  0.00     0.058 C 
ENDBRANCH  17  20
ENDBRANCH  15  17
ENDBRANCH   9  15
ENDBRANCH   5   8
ENDBRANCH   3   4
ENDBRANCH   2   3
ENDBRANCH   1   2
BRANCH   1  27
ATOM     27  C   UNL A   1      31.641  30.706  26.325  1.00  0.00     0.002 C 
BRANCH  27  28
ATOM     28  C   UNL A   1      31.520  32.125  26.886  1.00  0.00     0.021 C 
BRANCH  28  29
ATOM     29  C   UNL A   1      32.808  32.841  27.273  1.00  0.00     0.116 C 
BRANCH  29  30
ATOM     30  N   UNL A   1      32.601  34.207  27.721  1.00  0.00    -0.352 N 
ATOM     31  C   UNL A   1      33.224  34.907  28.728  1.00  0.00     0.251 C 
ATOM     32  H   UNL A   1      31.910  34.708  27.230  1.00  0.00     0.163 HD
ATOM     33  O   UNL A   1      32.840  36.040  29.005  1.00  0.00    -0.269 OA
BRANCH  31  34
ATOM     34  C   UNL A   1      34.326  34.292  29.507  1.00  0.00     0.039 A 
ATOM     35  C   UNL A   1      34.005  33.540  30.644  1.00  0.00     0.014 A 
ATOM     36  C   UNL A   1      35.663  34.452  29.137  1.00  0.00     0.014 A 
ATOM     37  C   UNL A   1      35.013  32.882  31.356  1.00  0.00     0.010 A 
ATOM     38  C   UNL A   1      36.663  33.754  29.818  1.00  0.00     0.010 A 
ATOM     39  C   UNL A   1      36.347  32.948  30.923  1.00  0.00    -0.014 A 
BRANCH  39  40
ATOM     40  C   UNL A   1      37.430  32.182  31.597  1.00  0.00     0.031 A 
ATOM     41  C   UNL A   1      37.871  32.566  32.982  1.00  0.00     0.074 A 
ATOM     42  C   UNL A   1      38.062  31.188  30.941  1.00  0.00     0.049 A 
ATOM     43  N   UNL A   1      38.925  32.177  33.651  1.00  0.00    -0.248 NA
ATOM     44  C   UNL A   1      37.021  33.528  33.701  1.00  0.00     0.031 C 
ATOM     45  C   UNL A   1      37.720  30.700  29.604  1.00  0.00     0.029 A 
ATOM     46  N   UNL A   1      39.137  30.415  31.309  1.00  0.00    -0.354 N 
ATOM     47  C   UNL A   1      38.877  32.855  34.863  1.00  0.00     0.074 A 
ATOM     48  C   UNL A   1      37.702  33.701  34.826  1.00  0.00     0.031 C 
ATOM     49  C   UNL A   1      38.557  29.703  29.272  1.00  0.00     0.029 A 
ATOM     50  C   UNL A   1      39.533  29.520  30.341  1.00  0.00     0.049 A 
ATOM     51  H   UNL A   1      39.583  30.495  32.182  1.00  0.00     0.167 HD
ATOM     52  C   UNL A   1      39.732  32.776  35.912  1.00  0.00     0.034 A 
ATOM     53  C   UNL A   1      40.579  28.670  30.306  1.00  0.00     0.034 A 
ATOM     54  C   UNL A   1      40.892  31.923  35.952  1.00  0.00     0.049 A 
ATOM     55  C   UNL A   1      41.541  28.640  31.466  1.00  0.00     0.074 A 
ATOM     56  C   UNL A   1      41.831  31.789  36.961  1.00  0.00     0.029 A 
ATOM     57  N   UNL A   1      41.264  31.042  34.946  1.00  0.00    -0.354 N 
ATOM     58  N   UNL A   1      41.525  29.348  32.570  1.00  0.00    -0.248 NA
ATOM     59  C   UNL A   1      42.668  27.701  31.368  1.00  0.00     0.031 C 
ATOM     60  C   UNL A   1      42.788  30.855  36.552  1.00  0.00     0.029 A 
ATOM     61  C   UNL A   1      42.418  30.366  35.310  1.00  0.00     0.049 A 
ATOM     62  H   UNL A   1      40.780  30.917  34.097  1.00  0.00     0.167 HD
ATOM     63  C   UNL A   1      42.627  28.923  33.307  1.00  0.00     0.074 A 
ATOM     64  C   UNL A   1      43.279  27.891  32.528  1.00  0.00     0.031 C 
ATOM     65  C   UNL A   1      43.060  29.346  34.520  1.00  0.00     0.034 A 
BRANCH  52  66
ATOM     66  C   UNL A   1      39.456  33.656  37.101  1.00  0.00     0.023 A 
ATOM     67  C   UNL A   1      38.792  33.165  38.237  1.00  0.00     0.031 A 
ATOM     68  C   UNL A   1      39.885  34.995  37.106  1.00  0.00     0.131 A 
ATOM     69  C   UNL A   1      38.546  34.018  39.321  1.00  0.00     0.055 A 
ATOM     70  C   UNL A   1      39.687  35.824  38.212  1.00  0.00     0.041 A 
ATOM     71  F   UNL A   1      40.509  35.516  36.039  1.00  0.00    -0.206 F 
ATOM     72  C   UNL A   1      39.010  35.337  39.327  1.00  0.00     0.022 A 
BRANCH  69  73
ATOM     73  S   UNL A   1      37.565  33.400  40.715  1.00  0.00     0.124 S 
ATOM     74  O   UNL A   1      37.277  34.634  41.440  1.00  0.00    -0.237 OA
ATOM     75  O   UNL A   1      36.428  32.768  40.054  1.00  0.00    -0.237 OA
ATOM     76  O   UNL A   1      38.478  32.482  41.394  1.00  0.00    -0.744 OA
ENDBRANCH  69  73
ENDBRANCH  52  66
BRANCH  53  77
ATOM     77  C   UNL A   1      40.809  27.798  29.122  1.00  0.00     0.023 A 
ATOM     78  C   UNL A   1      41.806  28.110  28.185  1.00  0.00     0.031 A 
ATOM     79  C   UNL A   1      40.001  26.673  28.880  1.00  0.00     0.131 A 
ATOM     80  C   UNL A   1      41.943  27.331  27.026  1.00  0.00     0.055 A 
ATOM     81  C   UNL A   1      40.171  25.876  27.747  1.00  0.00     0.041 A 
ATOM     82  F   UNL A   1      39.036  26.332  29.747  1.00  0.00    -0.206 F 
ATOM     83  C   UNL A   1      41.140  26.210  26.805  1.00  0.00     0.022 A 
BRANCH  80  84
ATOM     84  S   UNL A   1      43.149  27.847  25.772  1.00  0.00     0.124 S 
ATOM     85  O   UNL A   1      42.307  27.988  24.590  1.00  0.00    -0.237 OA
ATOM     86  O   UNL A   1      43.671  29.084  26.341  1.00  0.00    -0.237 OA
ATOM     87  O   UNL A   1      44.096  26.733  25.736  1.00  0.00    -0.744 OA
ENDBRANCH  80  84
ENDBRANCH  53  77
BRANCH  65  88
ATOM     88  C   UNL A   1      44.270  28.658  35.093  1.00  0.00     0.023 A 
ATOM     89  C   UNL A   1      44.156  27.483  35.855  1.00  0.00     0.031 A 
ATOM     90  C   UNL A   1      45.553  29.188  34.872  1.00  0.00     0.131 A 
ATOM     91  C   UNL A   1      45.304  26.899  36.409  1.00  0.00     0.055 A 
ATOM     92  C   UNL A   1      46.696  28.577  35.386  1.00  0.00     0.041 A 
ATOM     93  F   UNL A   1      45.713  30.309  34.149  1.00  0.00    -0.206 F 
ATOM     94  C   UNL A   1      46.574  27.431  36.167  1.00  0.00     0.022 A 
BRANCH  91  95
ATOM     95  S   UNL A   1      45.113  25.462  37.498  1.00  0.00     0.124 S 
ATOM     96  O   UNL A   1      45.793  25.908  38.709  1.00  0.00    -0.237 OA
ATOM     97  O   UNL A   1      43.663  25.330  37.594  1.00  0.00    -0.237 OA
ATOM     98  O   UNL A   1      45.784  24.387  36.770  1.00  0.00    -0.744 OA
ENDBRANCH  91  95
ENDBRANCH  65  88
ENDBRANCH  39  40
ENDBRANCH  31  34
ENDBRANCH  29  30
ENDBRANCH  28  29
ENDBRANCH  27  28
ENDBRANCH   1  27
TORSDOF 19
ENDMDL
