MODEL 1
REMARK VINA RESULT:     -12.1      0.000      0.000
REMARK SMILES CO[C@H]1C[C@@H](C(=O)NCCCCCCNC(=O)c2ccc(-c3c4nc(c(-c5cc(S(=O)(=O)[O-])ccc5F)c5ccc([nH]5)c(-c5cc(S(=O)(=O)[O-])ccc5F)c5nc(c(-c6cc(S(=O)(=O)[O-])ccc6F)c6ccc3[nH]6)C=C5)C=C4)cc2)N(C(=O)Nc2cc(C)cc(F)c2)C1
REMARK SMILES IDX 12 1 11 2 10 3 9 4 8 5 6 6 7 7 5 9 3 10 4 11 93 12 81 13
REMARK SMILES IDX 2 14 1 15 82 16 83 17 84 18 85 20 86 21 92 22 87 23 90 24
REMARK SMILES IDX 88 25 89 26 91 27 13 28 14 29 15 30 16 31 17 33 18 34 19 35
REMARK SMILES IDX 80 36 20 37 79 38 21 39 22 40 23 41 73 42 24 43 78 44 72 45
REMARK SMILES IDX 74 46 25 47 77 48 71 49 70 50 26 52 58 53 38 54 57 55 39 56
REMARK SMILES IDX 42 57 56 58 75 59 40 60 41 61 55 63 76 64 43 65 27 66 28 67
REMARK SMILES IDX 36 68 29 69 35 70 37 71 34 72 30 73 31 74 32 75 33 76 59 77
REMARK SMILES IDX 60 78 68 79 61 80 67 81 69 82 66 83 62 84 63 85 64 86 65 87
REMARK SMILES IDX 44 88 45 89 53 90 46 91 52 92 54 93 51 94 47 95 48 96 49 97
REMARK SMILES IDX 50 98
REMARK H PARENT 8 8 84 19 15 32 74 51 42 62
REMARK Flexibility Score: inf
ROOT
ATOM      1  C   UNL A   1      32.009  30.408  26.187  1.00  0.00     0.002 C 
ENDROOT
BRANCH   1   2
ATOM      2  C   UNL A   1      32.589  29.468  27.239  1.00  0.00     0.002 C 
BRANCH   2   3
ATOM      3  C   UNL A   1      31.646  28.384  27.780  1.00  0.00     0.021 C 
BRANCH   3   4
ATOM      4  C   UNL A   1      31.972  26.932  27.418  1.00  0.00     0.116 C 
BRANCH   4   5
ATOM      5  N   UNL A   1      30.994  26.249  26.594  1.00  0.00    -0.354 N 
ATOM      6  C   UNL A   1      30.779  26.201  25.251  1.00  0.00     0.242 C 
ATOM      7  O   UNL A   1      29.944  25.373  24.860  1.00  0.00    -0.273 OA
ATOM      8  H   UNL A   1      30.355  25.708  27.113  1.00  0.00     0.163 HD
BRANCH   6   9
ATOM      9  C   UNL A   1      31.573  27.017  24.197  1.00  0.00     0.179 C 
ATOM     10  C   UNL A   1      30.756  28.410  22.366  1.00  0.00     0.140 C 
ATOM     11  C   UNL A   1      30.629  28.191  23.864  1.00  0.00     0.069 C 
ATOM     12  C   UNL A   1      31.203  27.054  21.829  1.00  0.00     0.154 C 
ATOM     13  N   UNL A   1      32.001  26.453  22.908  1.00  0.00    -0.310 N 
BRANCH  10  14
ATOM     14  O   UNL A   1      29.618  28.963  21.714  1.00  0.00    -0.380 OA
ATOM     15  C   UNL A   1      29.288  30.312  22.011  1.00  0.00     0.195 C 
ENDBRANCH  10  14
BRANCH  13  16
ATOM     16  C   UNL A   1      33.155  25.815  22.540  1.00  0.00     0.322 C 
ATOM     17  O   UNL A   1      33.875  26.302  21.656  1.00  0.00    -0.248 OA
ATOM     18  N   UNL A   1      33.684  24.717  23.124  1.00  0.00    -0.308 N 
ATOM     19  H   UNL A   1      34.660  24.694  22.994  1.00  0.00     0.171 HD
BRANCH  18  20
ATOM     20  C   UNL A   1      33.261  23.600  23.860  1.00  0.00     0.046 A 
ATOM     21  C   UNL A   1      33.332  23.638  25.260  1.00  0.00     0.029 A 
ATOM     22  C   UNL A   1      32.912  22.400  23.286  1.00  0.00     0.065 A 
ATOM     23  C   UNL A   1      32.939  22.532  26.042  1.00  0.00    -0.046 A 
ATOM     24  C   UNL A   1      32.468  21.319  24.035  1.00  0.00     0.125 A 
ATOM     25  C   UNL A   1      33.128  22.520  27.529  1.00  0.00     0.044 C 
ATOM     26  C   UNL A   1      32.459  21.381  25.413  1.00  0.00     0.042 A 
ATOM     27  F   UNL A   1      32.108  20.189  23.415  1.00  0.00    -0.207 F 
ENDBRANCH  18  20
ENDBRANCH  13  16
ENDBRANCH   6   9
ENDBRANCH   4   5
ENDBRANCH   3   4
ENDBRANCH   2   3
ENDBRANCH   1   2
BRANCH   1  28
ATOM     28  C   UNL A   1      31.707  31.822  26.674  1.00  0.00     0.021 C 
BRANCH  28  29
ATOM     29  C   UNL A   1      32.888  32.535  27.325  1.00  0.00     0.116 C 
BRANCH  29  30
ATOM     30  N   UNL A   1      32.596  33.933  27.604  1.00  0.00    -0.352 N 
ATOM     31  C   UNL A   1      33.115  34.738  28.589  1.00  0.00     0.251 C 
ATOM     32  H   UNL A   1      31.940  34.359  27.009  1.00  0.00     0.163 HD
ATOM     33  O   UNL A   1      32.604  35.833  28.823  1.00  0.00    -0.269 OA
BRANCH  31  34
ATOM     34  C   UNL A   1      34.270  34.268  29.384  1.00  0.00     0.039 A 
ATOM     35  C   UNL A   1      34.043  33.559  30.566  1.00  0.00     0.014 A 
ATOM     36  C   UNL A   1      35.578  34.509  28.949  1.00  0.00     0.014 A 
ATOM     37  C   UNL A   1      35.127  33.031  31.274  1.00  0.00     0.010 A 
ATOM     38  C   UNL A   1      36.649  33.918  29.615  1.00  0.00     0.010 A 
ATOM     39  C   UNL A   1      36.436  33.173  30.785  1.00  0.00    -0.014 A 
BRANCH  39  40
ATOM     40  C   UNL A   1      37.594  32.555  31.484  1.00  0.00     0.031 A 
ATOM     41  C   UNL A   1      38.327  31.401  30.852  1.00  0.00     0.074 A 
ATOM     42  C   UNL A   1      37.945  32.986  32.712  1.00  0.00     0.049 A 
ATOM     43  N   UNL A   1      39.304  30.677  31.333  1.00  0.00    -0.248 NA
ATOM     44  C   UNL A   1      37.879  30.994  29.512  1.00  0.00     0.031 C 
ATOM     45  C   UNL A   1      37.289  34.071  33.446  1.00  0.00     0.029 A 
ATOM     46  N   UNL A   1      38.932  32.560  33.566  1.00  0.00    -0.354 N 
ATOM     47  C   UNL A   1      39.581  29.719  30.362  1.00  0.00     0.074 A 
ATOM     48  C   UNL A   1      38.624  29.920  29.294  1.00  0.00     0.031 C 
ATOM     49  C   UNL A   1      37.907  34.240  34.626  1.00  0.00     0.029 A 
ATOM     50  C   UNL A   1      38.968  33.247  34.758  1.00  0.00     0.049 A 
ATOM     51  H   UNL A   1      39.557  31.832  33.346  1.00  0.00     0.167 HD
ATOM     52  C   UNL A   1      40.556  28.777  30.351  1.00  0.00     0.034 A 
ATOM     53  C   UNL A   1      39.756  33.087  35.841  1.00  0.00     0.034 A 
ATOM     54  C   UNL A   1      41.508  28.596  31.420  1.00  0.00     0.049 A 
ATOM     55  C   UNL A   1      40.813  32.010  35.821  1.00  0.00     0.074 A 
ATOM     56  C   UNL A   1      42.570  27.709  31.488  1.00  0.00     0.029 A 
ATOM     57  N   UNL A   1      41.511  29.307  32.613  1.00  0.00    -0.354 N 
ATOM     58  N   UNL A   1      41.094  31.145  34.872  1.00  0.00    -0.248 NA
ATOM     59  C   UNL A   1      41.663  31.892  37.012  1.00  0.00     0.031 C 
ATOM     60  C   UNL A   1      43.167  27.835  32.747  1.00  0.00     0.029 A 
ATOM     61  C   UNL A   1      42.532  28.856  33.436  1.00  0.00     0.049 A 
ATOM     62  H   UNL A   1      40.879  30.027  32.842  1.00  0.00     0.167 HD
ATOM     63  C   UNL A   1      42.175  30.405  35.343  1.00  0.00     0.074 A 
ATOM     64  C   UNL A   1      42.503  30.933  36.650  1.00  0.00     0.031 C 
ATOM     65  C   UNL A   1      42.842  29.384  34.744  1.00  0.00     0.034 A 
BRANCH  52  66
ATOM     66  C   UNL A   1      40.618  27.854  29.156  1.00  0.00     0.023 A 
ATOM     67  C   UNL A   1      41.558  28.040  28.127  1.00  0.00     0.031 A 
ATOM     68  C   UNL A   1      39.709  26.789  29.028  1.00  0.00     0.131 A 
ATOM     69  C   UNL A   1      41.518  27.228  26.983  1.00  0.00     0.055 A 
ATOM     70  C   UNL A   1      39.730  25.931  27.927  1.00  0.00     0.041 A 
ATOM     71  F   UNL A   1      38.774  26.572  29.966  1.00  0.00    -0.206 F 
ATOM     72  C   UNL A   1      40.627  26.158  26.888  1.00  0.00     0.022 A 
BRANCH  69  73
ATOM     73  S   UNL A   1      42.546  27.685  25.560  1.00  0.00     0.124 S 
ATOM     74  O   UNL A   1      43.844  27.904  26.194  1.00  0.00    -0.237 OA
ATOM     75  O   UNL A   1      42.442  26.509  24.705  1.00  0.00    -0.237 OA
ATOM     76  O   UNL A   1      41.901  28.891  25.045  1.00  0.00    -0.744 OA
ENDBRANCH  69  73
ENDBRANCH  52  66
BRANCH  53  77
ATOM     77  C   UNL A   1      39.578  33.952  37.043  1.00  0.00     0.023 A 
ATOM     78  C   UNL A   1      38.958  33.462  38.203  1.00  0.00     0.031 A 
ATOM     79  C   UNL A   1      39.985  35.299  37.032  1.00  0.00     0.131 A 
ATOM     80  C   UNL A   1      38.718  34.321  39.286  1.00  0.00     0.055 A 
ATOM     81  C   UNL A   1      39.794  36.136  38.133  1.00  0.00     0.041 A 
ATOM     82  F   UNL A   1      40.586  35.819  35.950  1.00  0.00    -0.206 F 
ATOM     83  C   UNL A   1      39.144  35.652  39.264  1.00  0.00     0.022 A 
BRANCH  80  84
ATOM     84  S   UNL A   1      37.759  33.699  40.694  1.00  0.00     0.124 S 
ATOM     85  O   UNL A   1      38.698  32.763  41.301  1.00  0.00    -0.237 OA
ATOM     86  O   UNL A   1      37.496  34.923  41.444  1.00  0.00    -0.237 OA
ATOM     87  O   UNL A   1      36.588  33.092  40.066  1.00  0.00    -0.744 OA
ENDBRANCH  80  84
ENDBRANCH  53  77
BRANCH  65  88
ATOM     88  C   UNL A   1      44.023  28.807  35.486  1.00  0.00     0.023 A 
ATOM     89  C   UNL A   1      43.883  27.740  36.390  1.00  0.00     0.031 A 
ATOM     90  C   UNL A   1      45.309  29.342  35.288  1.00  0.00     0.131 A 
ATOM     91  C   UNL A   1      45.000  27.277  37.103  1.00  0.00     0.055 A 
ATOM     92  C   UNL A   1      46.426  28.836  35.954  1.00  0.00     0.041 A 
ATOM     93  F   UNL A   1      45.501  30.364  34.439  1.00  0.00    -0.206 F 
ATOM     94  C   UNL A   1      46.273  27.806  36.878  1.00  0.00     0.022 A 
BRANCH  91  95
ATOM     95  S   UNL A   1      44.752  26.031  38.398  1.00  0.00     0.124 S 
ATOM     96  O   UNL A   1      46.124  25.646  38.714  1.00  0.00    -0.237 OA
ATOM     97  O   UNL A   1      44.048  26.787  39.429  1.00  0.00    -0.237 OA
ATOM     98  O   UNL A   1      43.956  24.999  37.734  1.00  0.00    -0.744 OA
ENDBRANCH  91  95
ENDBRANCH  65  88
ENDBRANCH  39  40
ENDBRANCH  31  34
ENDBRANCH  29  30
ENDBRANCH  28  29
ENDBRANCH   1  28
TORSDOF 19
ENDMDL
MODEL 2
REMARK VINA RESULT:     -11.9      5.394      8.824
REMARK SMILES CO[C@H]1C[C@@H](C(=O)NCCCCCCNC(=O)c2ccc(-c3c4nc(c(-c5cc(S(=O)(=O)[O-])ccc5F)c5ccc([nH]5)c(-c5cc(S(=O)(=O)[O-])ccc5F)c5nc(c(-c6cc(S(=O)(=O)[O-])ccc6F)c6ccc3[nH]6)C=C5)C=C4)cc2)N(C(=O)Nc2cc(C)cc(F)c2)C1
REMARK SMILES IDX 12 1 11 2 10 3 9 4 8 5 6 6 7 7 5 9 3 10 4 11 93 12 81 13
REMARK SMILES IDX 2 14 1 15 82 16 83 17 84 18 85 20 86 21 92 22 87 23 90 24
REMARK SMILES IDX 88 25 89 26 91 27 13 28 14 29 15 30 16 31 17 33 18 34 19 35
REMARK SMILES IDX 80 36 20 37 79 38 21 39 22 40 23 41 73 42 24 43 78 44 72 45
REMARK SMILES IDX 74 46 25 47 77 48 71 49 70 50 26 52 58 53 38 54 57 55 39 56
REMARK SMILES IDX 42 57 56 58 75 59 40 60 41 61 55 63 76 64 43 65 27 66 28 67
REMARK SMILES IDX 36 68 29 69 35 70 37 71 34 72 30 73 31 74 32 75 33 76 59 77
REMARK SMILES IDX 60 78 68 79 61 80 67 81 69 82 66 83 62 84 63 85 64 86 65 87
REMARK SMILES IDX 44 88 45 89 53 90 46 91 52 92 54 93 51 94 47 95 48 96 49 97
REMARK SMILES IDX 50 98
REMARK H PARENT 8 8 84 19 15 32 74 51 42 62
REMARK Flexibility Score: inf
ROOT
ATOM      1  C   UNL A   1      35.669  22.971  26.115  1.00  0.00     0.002 C 
ENDROOT
BRANCH   1   2
ATOM      2  C   UNL A   1      34.175  23.024  26.420  1.00  0.00     0.002 C 
BRANCH   2   3
ATOM      3  C   UNL A   1      33.396  24.200  25.814  1.00  0.00     0.021 C 
BRANCH   3   4
ATOM      4  C   UNL A   1      34.216  25.375  25.271  1.00  0.00     0.116 C 
BRANCH   4   5
ATOM      5  N   UNL A   1      34.136  25.597  23.840  1.00  0.00    -0.354 N 
ATOM      6  C   UNL A   1      33.161  26.087  23.027  1.00  0.00     0.242 C 
ATOM      7  O   UNL A   1      33.486  26.303  21.852  1.00  0.00    -0.273 OA
ATOM      8  H   UNL A   1      34.957  25.342  23.359  1.00  0.00     0.163 HD
BRANCH   6   9
ATOM      9  C   UNL A   1      31.737  26.487  23.495  1.00  0.00     0.179 C 
ATOM     10  C   UNL A   1      30.300  28.307  22.731  1.00  0.00     0.140 C 
ATOM     11  C   UNL A   1      31.109  27.120  22.236  1.00  0.00     0.069 C 
ATOM     12  C   UNL A   1      30.970  28.691  24.047  1.00  0.00     0.154 C 
ATOM     13  N   UNL A   1      31.495  27.431  24.596  1.00  0.00    -0.310 N 
BRANCH  10  14
ATOM     14  O   UNL A   1      30.136  29.382  21.811  1.00  0.00    -0.380 OA
ATOM     15  C   UNL A   1      28.869  30.023  21.779  1.00  0.00     0.195 C 
ENDBRANCH  10  14
BRANCH  13  16
ATOM     16  C   UNL A   1      31.329  27.229  25.940  1.00  0.00     0.322 C 
ATOM     17  O   UNL A   1      30.424  26.485  26.346  1.00  0.00    -0.248 OA
ATOM     18  N   UNL A   1      32.137  27.685  26.924  1.00  0.00    -0.308 N 
ATOM     19  H   UNL A   1      32.082  27.099  27.713  1.00  0.00     0.171 HD
BRANCH  18  20
ATOM     20  C   UNL A   1      33.030  28.740  27.158  1.00  0.00     0.046 A 
ATOM     21  C   UNL A   1      32.532  30.046  27.263  1.00  0.00     0.029 A 
ATOM     22  C   UNL A   1      34.398  28.594  27.146  1.00  0.00     0.065 A 
ATOM     23  C   UNL A   1      33.394  31.143  27.476  1.00  0.00    -0.046 A 
ATOM     24  C   UNL A   1      35.260  29.649  27.409  1.00  0.00     0.125 A 
ATOM     25  C   UNL A   1      32.882  32.551  27.465  1.00  0.00     0.044 C 
ATOM     26  C   UNL A   1      34.768  30.924  27.595  1.00  0.00     0.042 A 
ATOM     27  F   UNL A   1      36.582  29.436  27.419  1.00  0.00    -0.207 F 
ENDBRANCH  18  20
ENDBRANCH  13  16
ENDBRANCH   6   9
ENDBRANCH   4   5
ENDBRANCH   3   4
ENDBRANCH   2   3
ENDBRANCH   1   2
BRANCH   1  28
ATOM     28  C   UNL A   1      36.196  21.606  25.686  1.00  0.00     0.021 C 
BRANCH  28  29
ATOM     29  C   UNL A   1      37.587  21.629  25.061  1.00  0.00     0.116 C 
BRANCH  29  30
ATOM     30  N   UNL A   1      38.466  20.627  25.644  1.00  0.00    -0.352 N 
ATOM     31  C   UNL A   1      39.648  20.811  26.319  1.00  0.00     0.251 C 
ATOM     32  H   UNL A   1      38.175  19.693  25.542  1.00  0.00     0.163 HD
ATOM     33  O   UNL A   1      40.376  19.848  26.559  1.00  0.00    -0.269 OA
BRANCH  31  34
ATOM     34  C   UNL A   1      40.053  22.174  26.727  1.00  0.00     0.039 A 
ATOM     35  C   UNL A   1      41.052  22.329  27.691  1.00  0.00     0.014 A 
ATOM     36  C   UNL A   1      39.462  23.297  26.140  1.00  0.00     0.014 A 
ATOM     37  C   UNL A   1      41.506  23.611  28.014  1.00  0.00     0.010 A 
ATOM     38  C   UNL A   1      39.969  24.566  26.408  1.00  0.00     0.010 A 
ATOM     39  C   UNL A   1      40.996  24.738  27.348  1.00  0.00    -0.014 A 
BRANCH  39  40
ATOM     40  C   UNL A   1      41.520  26.102  27.624  1.00  0.00     0.031 A 
ATOM     41  C   UNL A   1      42.898  26.489  27.158  1.00  0.00     0.074 A 
ATOM     42  C   UNL A   1      40.784  26.970  28.349  1.00  0.00     0.049 A 
ATOM     43  N   UNL A   1      43.564  27.595  27.368  1.00  0.00    -0.248 NA
ATOM     44  C   UNL A   1      43.632  25.484  26.375  1.00  0.00     0.031 C 
ATOM     45  C   UNL A   1      39.450  26.700  28.888  1.00  0.00     0.029 A 
ATOM     46  N   UNL A   1      41.056  28.250  28.764  1.00  0.00    -0.354 N 
ATOM     47  C   UNL A   1      44.801  27.416  26.755  1.00  0.00     0.074 A 
ATOM     48  C   UNL A   1      44.810  26.070  26.222  1.00  0.00     0.031 C 
ATOM     49  C   UNL A   1      39.011  27.789  29.542  1.00  0.00     0.029 A 
ATOM     50  C   UNL A   1      40.048  28.815  29.513  1.00  0.00     0.049 A 
ATOM     51  H   UNL A   1      41.893  28.720  28.548  1.00  0.00     0.167 HD
ATOM     52  C   UNL A   1      45.823  28.298  26.629  1.00  0.00     0.034 A 
ATOM     53  C   UNL A   1      39.973  30.017  30.119  1.00  0.00     0.034 A 
ATOM     54  C   UNL A   1      45.792  29.640  27.158  1.00  0.00     0.049 A 
ATOM     55  C   UNL A   1      41.135  30.971  29.994  1.00  0.00     0.074 A 
ATOM     56  C   UNL A   1      46.749  30.635  27.040  1.00  0.00     0.029 A 
ATOM     57  N   UNL A   1      44.757  30.176  27.914  1.00  0.00    -0.354 N 
ATOM     58  N   UNL A   1      42.278  30.804  29.367  1.00  0.00    -0.248 NA
ATOM     59  C   UNL A   1      40.995  32.277  30.649  1.00  0.00     0.031 C 
ATOM     60  C   UNL A   1      46.325  31.743  27.782  1.00  0.00     0.029 A 
ATOM     61  C   UNL A   1      45.067  31.473  28.297  1.00  0.00     0.049 A 
ATOM     62  H   UNL A   1      43.924  29.704  28.144  1.00  0.00     0.167 HD
ATOM     63  C   UNL A   1      42.976  31.998  29.528  1.00  0.00     0.074 A 
ATOM     64  C   UNL A   1      42.122  32.879  30.296  1.00  0.00     0.031 C 
ATOM     65  C   UNL A   1      44.210  32.338  29.074  1.00  0.00     0.034 A 
BRANCH  52  66
ATOM     66  C   UNL A   1      47.066  27.825  25.913  1.00  0.00     0.023 A 
ATOM     67  C   UNL A   1      47.266  28.066  24.541  1.00  0.00     0.031 A 
ATOM     68  C   UNL A   1      48.054  27.100  26.602  1.00  0.00     0.131 A 
ATOM     69  C   UNL A   1      48.382  27.520  23.889  1.00  0.00     0.055 A 
ATOM     70  C   UNL A   1      49.205  26.633  25.964  1.00  0.00     0.041 A 
ATOM     71  F   UNL A   1      47.911  26.820  27.907  1.00  0.00    -0.206 F 
ATOM     72  C   UNL A   1      49.367  26.828  24.596  1.00  0.00     0.022 A 
BRANCH  69  73
ATOM     73  S   UNL A   1      48.451  27.602  22.078  1.00  0.00     0.124 S 
ATOM     74  O   UNL A   1      49.596  28.483  21.866  1.00  0.00    -0.237 OA
ATOM     75  O   UNL A   1      48.642  26.205  21.707  1.00  0.00    -0.237 OA
ATOM     76  O   UNL A   1      47.157  28.173  21.712  1.00  0.00    -0.744 OA
ENDBRANCH  69  73
ENDBRANCH  52  66
BRANCH  53  77
ATOM     77  C   UNL A   1      38.765  30.392  30.911  1.00  0.00     0.023 A 
ATOM     78  C   UNL A   1      37.852  31.343  30.431  1.00  0.00     0.031 A 
ATOM     79  C   UNL A   1      38.531  29.837  32.182  1.00  0.00     0.131 A 
ATOM     80  C   UNL A   1      36.774  31.748  31.235  1.00  0.00     0.055 A 
ATOM     81  C   UNL A   1      37.428  30.202  32.955  1.00  0.00     0.041 A 
ATOM     82  F   UNL A   1      39.372  28.920  32.688  1.00  0.00    -0.206 F 
ATOM     83  C   UNL A   1      36.549  31.174  32.488  1.00  0.00     0.022 A 
BRANCH  80  84
ATOM     84  S   UNL A   1      35.719  33.104  30.655  1.00  0.00     0.124 S 
ATOM     85  O   UNL A   1      34.392  32.506  30.745  1.00  0.00    -0.237 OA
ATOM     86  O   UNL A   1      36.017  34.154  31.623  1.00  0.00    -0.237 OA
ATOM     87  O   UNL A   1      36.201  33.354  29.299  1.00  0.00    -0.744 OA
ENDBRANCH  80  84
ENDBRANCH  53  77
BRANCH  65  88
ATOM     88  C   UNL A   1      44.684  33.742  29.362  1.00  0.00     0.023 A 
ATOM     89  C   UNL A   1      44.438  34.805  28.475  1.00  0.00     0.031 A 
ATOM     90  C   UNL A   1      45.400  34.016  30.541  1.00  0.00     0.131 A 
ATOM     91  C   UNL A   1      44.952  36.081  28.755  1.00  0.00     0.055 A 
ATOM     92  C   UNL A   1      45.854  35.300  30.844  1.00  0.00     0.041 A 
ATOM     93  F   UNL A   1      45.666  33.038  31.423  1.00  0.00    -0.206 F 
ATOM     94  C   UNL A   1      45.643  36.339  29.942  1.00  0.00     0.022 A 
BRANCH  91  95
ATOM     95  S   UNL A   1      44.782  37.383  27.504  1.00  0.00     0.124 S 
ATOM     96  O   UNL A   1      45.923  37.116  26.633  1.00  0.00    -0.237 OA
ATOM     97  O   UNL A   1      43.467  37.102  26.936  1.00  0.00    -0.237 OA
ATOM     98  O   UNL A   1      44.871  38.619  28.280  1.00  0.00    -0.744 OA
ENDBRANCH  91  95
ENDBRANCH  65  88
ENDBRANCH  39  40
ENDBRANCH  31  34
ENDBRANCH  29  30
ENDBRANCH  28  29
ENDBRANCH   1  28
TORSDOF 19
ENDMDL
MODEL 3
REMARK VINA RESULT:     -11.8      5.516      8.799
REMARK SMILES CO[C@H]1C[C@@H](C(=O)NCCCCCCNC(=O)c2ccc(-c3c4nc(c(-c5cc(S(=O)(=O)[O-])ccc5F)c5ccc([nH]5)c(-c5cc(S(=O)(=O)[O-])ccc5F)c5nc(c(-c6cc(S(=O)(=O)[O-])ccc6F)c6ccc3[nH]6)C=C5)C=C4)cc2)N(C(=O)Nc2cc(C)cc(F)c2)C1
REMARK SMILES IDX 12 1 11 2 10 3 9 4 8 5 6 6 7 7 5 9 3 10 4 11 93 12 81 13
REMARK SMILES IDX 2 14 1 15 82 16 83 17 84 18 85 20 86 21 92 22 87 23 90 24
REMARK SMILES IDX 88 25 89 26 91 27 13 28 14 29 15 30 16 31 17 33 18 34 19 35
REMARK SMILES IDX 80 36 20 37 79 38 21 39 22 40 23 41 73 42 24 43 78 44 72 45
REMARK SMILES IDX 74 46 25 47 77 48 71 49 70 50 26 52 58 53 38 54 57 55 39 56
REMARK SMILES IDX 42 57 56 58 75 59 40 60 41 61 55 63 76 64 43 65 27 66 28 67
REMARK SMILES IDX 36 68 29 69 35 70 37 71 34 72 30 73 31 74 32 75 33 76 59 77
REMARK SMILES IDX 60 78 68 79 61 80 67 81 69 82 66 83 62 84 63 85 64 86 65 87
REMARK SMILES IDX 44 88 45 89 53 90 46 91 52 92 54 93 51 94 47 95 48 96 49 97
REMARK SMILES IDX 50 98
REMARK H PARENT 8 8 84 19 15 32 74 51 42 62
REMARK Flexibility Score: inf
ROOT
ATOM      1  C   UNL A   1      35.438  22.729  26.413  1.00  0.00     0.002 C 
ENDROOT
BRANCH   1   2
ATOM      2  C   UNL A   1      34.312  22.469  27.409  1.00  0.00     0.002 C 
BRANCH   2   3
ATOM      3  C   UNL A   1      32.971  23.156  27.118  1.00  0.00     0.021 C 
BRANCH   3   4
ATOM      4  C   UNL A   1      32.960  24.231  26.027  1.00  0.00     0.116 C 
BRANCH   4   5
ATOM      5  N   UNL A   1      31.731  24.989  25.894  1.00  0.00    -0.354 N 
ATOM      6  C   UNL A   1      30.881  25.210  24.854  1.00  0.00     0.242 C 
ATOM      7  O   UNL A   1      29.815  25.779  25.130  1.00  0.00    -0.273 OA
ATOM      8  H   UNL A   1      31.454  25.434  26.728  1.00  0.00     0.163 HD
BRANCH   6   9
ATOM      9  C   UNL A   1      31.106  24.705  23.405  1.00  0.00     0.179 C 
ATOM     10  C   UNL A   1      32.044  22.593  22.618  1.00  0.00     0.140 C 
ATOM     11  C   UNL A   1      30.979  23.173  23.532  1.00  0.00     0.069 C 
ATOM     12  C   UNL A   1      33.094  23.696  22.525  1.00  0.00     0.154 C 
ATOM     13  N   UNL A   1      32.347  24.956  22.656  1.00  0.00    -0.310 N 
BRANCH  10  14
ATOM     14  O   UNL A   1      32.554  21.314  22.980  1.00  0.00    -0.380 OA
ATOM     15  C   UNL A   1      32.301  20.863  24.303  1.00  0.00     0.195 C 
ENDBRANCH  10  14
BRANCH  13  16
ATOM     16  C   UNL A   1      32.706  25.975  21.816  1.00  0.00     0.322 C 
ATOM     17  O   UNL A   1      33.303  25.724  20.759  1.00  0.00    -0.248 OA
ATOM     18  N   UNL A   1      32.380  27.280  21.957  1.00  0.00    -0.308 N 
ATOM     19  H   UNL A   1      32.367  27.728  21.080  1.00  0.00     0.171 HD
BRANCH  18  20
ATOM     20  C   UNL A   1      32.056  28.187  22.976  1.00  0.00     0.046 A 
ATOM     21  C   UNL A   1      32.934  28.342  24.058  1.00  0.00     0.029 A 
ATOM     22  C   UNL A   1      30.847  28.838  23.057  1.00  0.00     0.065 A 
ATOM     23  C   UNL A   1      32.640  29.226  25.118  1.00  0.00    -0.046 A 
ATOM     24  C   UNL A   1      30.561  29.754  24.060  1.00  0.00     0.125 A 
ATOM     25  C   UNL A   1      33.512  29.303  26.334  1.00  0.00     0.044 C 
ATOM     26  C   UNL A   1      31.459  29.970  25.084  1.00  0.00     0.042 A 
ATOM     27  F   UNL A   1      29.379  30.382  24.064  1.00  0.00    -0.207 F 
ENDBRANCH  18  20
ENDBRANCH  13  16
ENDBRANCH   6   9
ENDBRANCH   4   5
ENDBRANCH   3   4
ENDBRANCH   2   3
ENDBRANCH   1   2
BRANCH   1  28
ATOM     28  C   UNL A   1      35.894  21.510  25.617  1.00  0.00     0.021 C 
BRANCH  28  29
ATOM     29  C   UNL A   1      37.294  21.626  25.023  1.00  0.00     0.116 C 
BRANCH  29  30
ATOM     30  N   UNL A   1      38.192  20.603  25.536  1.00  0.00    -0.352 N 
ATOM     31  C   UNL A   1      39.407  20.761  26.158  1.00  0.00     0.251 C 
ATOM     32  H   UNL A   1      37.890  19.674  25.422  1.00  0.00     0.163 HD
ATOM     33  O   UNL A   1      40.138  19.787  26.336  1.00  0.00    -0.269 OA
BRANCH  31  34
ATOM     34  C   UNL A   1      39.841  22.109  26.584  1.00  0.00     0.039 A 
ATOM     35  C   UNL A   1      40.884  22.232  27.505  1.00  0.00     0.014 A 
ATOM     36  C   UNL A   1      39.232  23.251  26.054  1.00  0.00     0.014 A 
ATOM     37  C   UNL A   1      41.362  23.501  27.841  1.00  0.00     0.010 A 
ATOM     38  C   UNL A   1      39.762  24.510  26.333  1.00  0.00     0.010 A 
ATOM     39  C   UNL A   1      40.831  24.649  27.230  1.00  0.00    -0.014 A 
BRANCH  39  40
ATOM     40  C   UNL A   1      41.378  26.002  27.518  1.00  0.00     0.031 A 
ATOM     41  C   UNL A   1      42.753  26.378  27.034  1.00  0.00     0.074 A 
ATOM     42  C   UNL A   1      40.667  26.867  28.269  1.00  0.00     0.049 A 
ATOM     43  N   UNL A   1      43.437  27.472  27.249  1.00  0.00    -0.248 NA
ATOM     44  C   UNL A   1      43.460  25.376  26.222  1.00  0.00     0.031 C 
ATOM     45  C   UNL A   1      39.338  26.606  28.828  1.00  0.00     0.029 A 
ATOM     46  N   UNL A   1      40.962  28.136  28.700  1.00  0.00    -0.354 N 
ATOM     47  C   UNL A   1      44.661  27.286  26.612  1.00  0.00     0.074 A 
ATOM     48  C   UNL A   1      44.643  25.948  26.058  1.00  0.00     0.031 C 
ATOM     49  C   UNL A   1      38.926  27.690  29.506  1.00  0.00     0.029 A 
ATOM     50  C   UNL A   1      39.976  28.703  29.475  1.00  0.00     0.049 A 
ATOM     51  H   UNL A   1      41.802  28.599  28.476  1.00  0.00     0.167 HD
ATOM     52  C   UNL A   1      45.692  28.157  26.482  1.00  0.00     0.034 A 
ATOM     53  C   UNL A   1      39.928  29.896  30.101  1.00  0.00     0.034 A 
ATOM     54  C   UNL A   1      45.689  29.490  27.033  1.00  0.00     0.049 A 
ATOM     55  C   UNL A   1      41.100  30.836  29.971  1.00  0.00     0.074 A 
ATOM     56  C   UNL A   1      46.657  30.474  26.914  1.00  0.00     0.029 A 
ATOM     57  N   UNL A   1      44.674  30.028  27.815  1.00  0.00    -0.354 N 
ATOM     58  N   UNL A   1      42.229  30.664  29.322  1.00  0.00    -0.248 NA
ATOM     59  C   UNL A   1      40.988  32.134  30.649  1.00  0.00     0.031 C 
ATOM     60  C   UNL A   1      46.260  31.575  27.681  1.00  0.00     0.029 A 
ATOM     61  C   UNL A   1      45.008  31.314  28.214  1.00  0.00     0.049 A 
ATOM     62  H   UNL A   1      43.839  29.563  28.052  1.00  0.00     0.167 HD
ATOM     63  C   UNL A   1      42.946  31.846  29.488  1.00  0.00     0.074 A 
ATOM     64  C   UNL A   1      42.117  32.726  30.286  1.00  0.00     0.031 C 
ATOM     65  C   UNL A   1      44.176  32.178  29.019  1.00  0.00     0.034 A 
BRANCH  52  66
ATOM     66  C   UNL A   1      46.916  27.679  25.737  1.00  0.00     0.023 A 
ATOM     67  C   UNL A   1      47.146  28.025  24.393  1.00  0.00     0.031 A 
ATOM     68  C   UNL A   1      47.855  26.844  26.369  1.00  0.00     0.131 A 
ATOM     69  C   UNL A   1      48.239  27.477  23.705  1.00  0.00     0.055 A 
ATOM     70  C   UNL A   1      48.987  26.370  25.701  1.00  0.00     0.041 A 
ATOM     71  F   UNL A   1      47.681  26.461  27.643  1.00  0.00    -0.206 F 
ATOM     72  C   UNL A   1      49.175  26.673  24.356  1.00  0.00     0.022 A 
BRANCH  69  73
ATOM     73  S   UNL A   1      48.334  27.710  21.908  1.00  0.00     0.124 S 
ATOM     74  O   UNL A   1      48.573  26.345  21.446  1.00  0.00    -0.237 OA
ATOM     75  O   UNL A   1      47.026  28.272  21.593  1.00  0.00    -0.237 OA
ATOM     76  O   UNL A   1      49.462  28.624  21.740  1.00  0.00    -0.744 OA
ENDBRANCH  69  73
ENDBRANCH  52  66
BRANCH  53  77
ATOM     77  C   UNL A   1      38.739  30.274  30.920  1.00  0.00     0.023 A 
ATOM     78  C   UNL A   1      37.671  30.991  30.358  1.00  0.00     0.031 A 
ATOM     79  C   UNL A   1      38.674  29.963  32.290  1.00  0.00     0.131 A 
ATOM     80  C   UNL A   1      36.608  31.416  31.170  1.00  0.00     0.055 A 
ATOM     81  C   UNL A   1      37.588  30.339  33.083  1.00  0.00     0.041 A 
ATOM     82  F   UNL A   1      39.667  29.276  32.879  1.00  0.00    -0.206 F 
ATOM     83  C   UNL A   1      36.553  31.083  32.525  1.00  0.00     0.022 A 
BRANCH  80  84
ATOM     84  S   UNL A   1      35.336  32.488  30.447  1.00  0.00     0.124 S 
ATOM     85  O   UNL A   1      36.095  33.703  30.173  1.00  0.00    -0.237 OA
ATOM     86  O   UNL A   1      34.917  31.716  29.282  1.00  0.00    -0.237 OA
ATOM     87  O   UNL A   1      34.341  32.600  31.510  1.00  0.00    -0.744 OA
ENDBRANCH  80  84
ENDBRANCH  53  77
BRANCH  65  88
ATOM     88  C   UNL A   1      44.674  33.570  29.320  1.00  0.00     0.023 A 
ATOM     89  C   UNL A   1      44.267  34.684  28.565  1.00  0.00     0.031 A 
ATOM     90  C   UNL A   1      45.576  33.782  30.379  1.00  0.00     0.131 A 
ATOM     91  C   UNL A   1      44.805  35.950  28.843  1.00  0.00     0.055 A 
ATOM     92  C   UNL A   1      46.058  35.054  30.690  1.00  0.00     0.041 A 
ATOM     93  F   UNL A   1      46.000  32.755  31.132  1.00  0.00    -0.206 F 
ATOM     94  C   UNL A   1      45.683  36.145  29.912  1.00  0.00     0.022 A 
BRANCH  91  95
ATOM     95  S   UNL A   1      44.408  37.329  27.732  1.00  0.00     0.124 S 
ATOM     96  O   UNL A   1      43.584  36.675  26.720  1.00  0.00    -0.237 OA
ATOM     97  O   UNL A   1      43.712  38.255  28.620  1.00  0.00    -0.237 OA
ATOM     98  O   UNL A   1      45.718  37.783  27.267  1.00  0.00    -0.744 OA
ENDBRANCH  91  95
ENDBRANCH  65  88
ENDBRANCH  39  40
ENDBRANCH  31  34
ENDBRANCH  29  30
ENDBRANCH  28  29
ENDBRANCH   1  28
TORSDOF 19
ENDMDL
