MODEL 1
REMARK VINA RESULT:     -11.8      0.000      0.000
REMARK SMILES C[C@H](NC(=O)c1ccncc1/C=C/C(=O)NCCCCCCNC(=O)c1ccc(-c2c3nc(c(-c4cc(S(=O)(=O)[O-])ccc4F)c4ccc([nH]4)c(-c4cc(S(=O)(=O)[O-])ccc4F)c4nc(c(-c5cc(S(=O)(=O)[O-])ccc5F)c5ccc2[nH]5)C=C4)C=C3)cc1)c1ccco1
REMARK SMILES IDX 19 1 18 2 17 3 16 4 14 5 15 6 13 8 12 9 11 10 6 11 7 12 8 13
REMARK SMILES IDX 10 14 9 15 4 16 3 17 5 19 2 20 1 21 89 22 90 23 93 24 91 25
REMARK SMILES IDX 92 26 20 27 21 28 22 29 23 30 24 31 25 33 26 34 27 35 88 36
REMARK SMILES IDX 28 37 87 38 29 39 30 40 31 41 81 42 32 43 86 44 80 45 82 46
REMARK SMILES IDX 33 47 85 48 79 49 78 50 34 52 66 53 46 54 65 55 47 56 50 57
REMARK SMILES IDX 64 58 83 59 48 60 49 61 63 63 84 64 51 65 35 66 36 67 44 68
REMARK SMILES IDX 37 69 43 70 45 71 42 72 38 73 39 74 40 75 41 76 67 77 68 78
REMARK SMILES IDX 76 79 69 80 75 81 77 82 74 83 70 84 71 85 72 86 73 87 52 88
REMARK SMILES IDX 53 89 61 90 54 91 60 92 62 93 59 94 55 95 56 96 57 97 58 98
REMARK H PARENT 16 7 3 18 23 32 82 51 50 62
REMARK Flexibility Score: inf
ROOT
ATOM      1  C   UNL A   1      32.836  29.734  27.140  1.00  0.00     0.002 C 
ENDROOT
BRANCH   1   2
ATOM      2  C   UNL A   1      33.812  28.900  26.300  1.00  0.00     0.021 C 
BRANCH   2   3
ATOM      3  C   UNL A   1      33.112  27.989  25.292  1.00  0.00     0.116 C 
BRANCH   3   4
ATOM      4  N   UNL A   1      32.058  27.237  25.953  1.00  0.00    -0.353 N 
ATOM      5  C   UNL A   1      31.988  25.925  26.288  1.00  0.00     0.244 C 
ATOM      6  O   UNL A   1      31.002  25.497  26.885  1.00  0.00    -0.270 OA
ATOM      7  H   UNL A   1      31.266  27.767  26.197  1.00  0.00     0.163 HD
BRANCH   5   8
ATOM      8  C   UNL A   1      33.130  25.014  26.045  1.00  0.00     0.072 C 
ATOM      9  C   UNL A   1      33.910  24.997  24.952  1.00  0.00     0.016 C 
BRANCH   9  10
ATOM     10  C   UNL A   1      35.051  24.076  24.817  1.00  0.00     0.006 A 
ATOM     11  C   UNL A   1      35.102  23.029  23.883  1.00  0.00     0.050 A 
ATOM     12  C   UNL A   1      36.244  22.229  23.773  1.00  0.00     0.034 A 
ATOM     13  C   UNL A   1      37.276  22.439  24.666  1.00  0.00     0.112 A 
ATOM     14  C   UNL A   1      36.149  24.179  25.669  1.00  0.00     0.119 A 
ATOM     15  N   UNL A   1      37.247  23.384  25.624  1.00  0.00    -0.264 NA
BRANCH  11  16
ATOM     16  C   UNL A   1      33.977  22.752  22.961  1.00  0.00     0.252 C 
ATOM     17  N   UNL A   1      32.968  21.912  23.360  1.00  0.00    -0.342 N 
ATOM     18  H   UNL A   1      32.300  21.698  22.670  1.00  0.00     0.164 HD
ATOM     19  O   UNL A   1      33.952  23.288  21.857  1.00  0.00    -0.269 OA
BRANCH  17  20
ATOM     20  C   UNL A   1      32.745  21.289  24.660  1.00  0.00     0.145 C 
ATOM     21  C   UNL A   1      31.480  21.813  25.337  1.00  0.00     0.039 C 
BRANCH  20  22
ATOM     22  C   UNL A   1      32.668  19.807  24.489  1.00  0.00     0.125 A 
ATOM     23  C   UNL A   1      32.815  18.977  23.396  1.00  0.00     0.048 A 
ATOM     24  O   UNL A   1      32.458  19.060  25.614  1.00  0.00    -0.467 OA
ATOM     25  C   UNL A   1      32.717  17.652  23.883  1.00  0.00     0.042 A 
ATOM     26  C   UNL A   1      32.496  17.755  25.236  1.00  0.00     0.195 A 
ENDBRANCH  20  22
ENDBRANCH  17  20
ENDBRANCH  11  16
ENDBRANCH   9  10
ENDBRANCH   5   8
ENDBRANCH   3   4
ENDBRANCH   2   3
ENDBRANCH   1   2
BRANCH   1  27
ATOM     27  C   UNL A   1      31.816  30.538  26.324  1.00  0.00     0.002 C 
BRANCH  27  28
ATOM     28  C   UNL A   1      31.612  31.982  26.791  1.00  0.00     0.021 C 
BRANCH  28  29
ATOM     29  C   UNL A   1      32.883  32.667  27.286  1.00  0.00     0.116 C 
BRANCH  29  30
ATOM     30  N   UNL A   1      32.645  34.066  27.607  1.00  0.00    -0.352 N 
ATOM     31  C   UNL A   1      33.171  34.829  28.619  1.00  0.00     0.251 C 
ATOM     32  H   UNL A   1      32.015  34.533  27.012  1.00  0.00     0.163 HD
ATOM     33  O   UNL A   1      32.660  35.911  28.896  1.00  0.00    -0.269 OA
BRANCH  31  34
ATOM     34  C   UNL A   1      34.340  34.338  29.380  1.00  0.00     0.039 A 
ATOM     35  C   UNL A   1      34.127  33.635  30.568  1.00  0.00     0.014 A 
ATOM     36  C   UNL A   1      35.641  34.578  28.928  1.00  0.00     0.014 A 
ATOM     37  C   UNL A   1      35.220  33.114  31.266  1.00  0.00     0.010 A 
ATOM     38  C   UNL A   1      36.723  34.001  29.588  1.00  0.00     0.010 A 
ATOM     39  C   UNL A   1      36.523  33.257  30.761  1.00  0.00    -0.014 A 
BRANCH  39  40
ATOM     40  C   UNL A   1      37.680  32.605  31.430  1.00  0.00     0.031 A 
ATOM     41  C   UNL A   1      38.387  31.449  30.775  1.00  0.00     0.074 A 
ATOM     42  C   UNL A   1      38.050  33.021  32.658  1.00  0.00     0.049 A 
ATOM     43  N   UNL A   1      39.369  30.716  31.233  1.00  0.00    -0.248 NA
ATOM     44  C   UNL A   1      37.914  31.050  29.440  1.00  0.00     0.031 C 
ATOM     45  C   UNL A   1      37.411  34.106  33.408  1.00  0.00     0.029 A 
ATOM     46  N   UNL A   1      39.042  32.581  33.499  1.00  0.00    -0.354 N 
ATOM     47  C   UNL A   1      39.626  29.765  30.252  1.00  0.00     0.074 A 
ATOM     48  C   UNL A   1      38.664  29.985  29.193  1.00  0.00     0.031 C 
ATOM     49  C   UNL A   1      38.039  34.259  34.585  1.00  0.00     0.029 A 
ATOM     50  C   UNL A   1      39.089  33.251  34.701  1.00  0.00     0.049 A 
ATOM     51  H   UNL A   1      39.663  31.853  33.264  1.00  0.00     0.167 HD
ATOM     52  C   UNL A   1      40.585  28.807  30.232  1.00  0.00     0.034 A 
ATOM     53  C   UNL A   1      39.871  33.063  35.783  1.00  0.00     0.034 A 
ATOM     54  C   UNL A   1      41.546  28.613  31.291  1.00  0.00     0.049 A 
ATOM     55  C   UNL A   1      40.912  31.970  35.742  1.00  0.00     0.074 A 
ATOM     56  C   UNL A   1      42.605  27.722  31.337  1.00  0.00     0.029 A 
ATOM     57  N   UNL A   1      41.562  29.308  32.494  1.00  0.00    -0.354 N 
ATOM     58  N   UNL A   1      41.185  31.126  34.774  1.00  0.00    -0.248 NA
ATOM     59  C   UNL A   1      41.755  31.811  36.934  1.00  0.00     0.031 C 
ATOM     60  C   UNL A   1      43.205  27.818  32.596  1.00  0.00     0.029 A 
ATOM     61  C   UNL A   1      42.582  28.832  33.304  1.00  0.00     0.049 A 
ATOM     62  H   UNL A   1      40.940  30.031  32.736  1.00  0.00     0.167 HD
ATOM     63  C   UNL A   1      42.252  30.358  35.232  1.00  0.00     0.074 A 
ATOM     64  C   UNL A   1      42.588  30.856  36.549  1.00  0.00     0.031 C 
ATOM     65  C   UNL A   1      42.898  29.331  34.622  1.00  0.00     0.034 A 
BRANCH  52  66
ATOM     66  C   UNL A   1      40.633  27.876  29.046  1.00  0.00     0.023 A 
ATOM     67  C   UNL A   1      41.559  28.047  28.003  1.00  0.00     0.031 A 
ATOM     68  C   UNL A   1      39.755  26.778  28.975  1.00  0.00     0.131 A 
ATOM     69  C   UNL A   1      41.555  27.162  26.912  1.00  0.00     0.055 A 
ATOM     70  C   UNL A   1      39.805  25.861  27.924  1.00  0.00     0.041 A 
ATOM     71  F   UNL A   1      38.833  26.578  29.931  1.00  0.00    -0.206 F 
ATOM     72  C   UNL A   1      40.704  26.055  26.880  1.00  0.00     0.022 A 
BRANCH  69  73
ATOM     73  S   UNL A   1      42.612  27.535  25.486  1.00  0.00     0.124 S 
ATOM     74  O   UNL A   1      42.000  28.762  24.981  1.00  0.00    -0.237 OA
ATOM     75  O   UNL A   1      43.928  27.681  26.097  1.00  0.00    -0.237 OA
ATOM     76  O   UNL A   1      42.449  26.366  24.625  1.00  0.00    -0.744 OA
ENDBRANCH  69  73
ENDBRANCH  52  66
BRANCH  53  77
ATOM     77  C   UNL A   1      39.691  33.893  37.012  1.00  0.00     0.023 A 
ATOM     78  C   UNL A   1      40.528  34.988  37.276  1.00  0.00     0.031 A 
ATOM     79  C   UNL A   1      38.730  33.553  37.981  1.00  0.00     0.131 A 
ATOM     80  C   UNL A   1      40.437  35.659  38.505  1.00  0.00     0.055 A 
ATOM     81  C   UNL A   1      38.596  34.269  39.172  1.00  0.00     0.041 A 
ATOM     82  F   UNL A   1      37.904  32.513  37.784  1.00  0.00    -0.206 F 
ATOM     83  C   UNL A   1      39.466  35.318  39.449  1.00  0.00     0.022 A 
BRANCH  80  84
ATOM     84  S   UNL A   1      41.700  36.899  38.911  1.00  0.00     0.124 S 
ATOM     85  O   UNL A   1      42.282  37.168  37.600  1.00  0.00    -0.237 OA
ATOM     86  O   UNL A   1      40.895  37.971  39.488  1.00  0.00    -0.237 OA
ATOM     87  O   UNL A   1      42.572  36.199  39.851  1.00  0.00    -0.744 OA
ENDBRANCH  80  84
ENDBRANCH  53  77
BRANCH  65  88
ATOM     88  C   UNL A   1      44.057  28.711  35.365  1.00  0.00     0.023 A 
ATOM     89  C   UNL A   1      43.878  27.625  36.239  1.00  0.00     0.031 A 
ATOM     90  C   UNL A   1      45.356  29.223  35.205  1.00  0.00     0.131 A 
ATOM     91  C   UNL A   1      44.968  27.127  36.967  1.00  0.00     0.055 A 
ATOM     92  C   UNL A   1      46.449  28.679  35.881  1.00  0.00     0.041 A 
ATOM     93  F   UNL A   1      45.587  30.262  34.386  1.00  0.00    -0.206 F 
ATOM     94  C   UNL A   1      46.255  27.634  36.779  1.00  0.00     0.022 A 
BRANCH  91  95
ATOM     95  S   UNL A   1      44.662  25.871  38.240  1.00  0.00     0.124 S 
ATOM     96  O   UNL A   1      43.447  26.373  38.875  1.00  0.00    -0.237 OA
ATOM     97  O   UNL A   1      44.512  24.654  37.449  1.00  0.00    -0.237 OA
ATOM     98  O   UNL A   1      45.863  25.925  39.070  1.00  0.00    -0.744 OA
ENDBRANCH  91  95
ENDBRANCH  65  88
ENDBRANCH  39  40
ENDBRANCH  31  34
ENDBRANCH  29  30
ENDBRANCH  28  29
ENDBRANCH  27  28
ENDBRANCH   1  27
TORSDOF 20
ENDMDL
MODEL 2
REMARK VINA RESULT:     -11.8      5.427      9.183
REMARK SMILES C[C@H](NC(=O)c1ccncc1/C=C/C(=O)NCCCCCCNC(=O)c1ccc(-c2c3nc(c(-c4cc(S(=O)(=O)[O-])ccc4F)c4ccc([nH]4)c(-c4cc(S(=O)(=O)[O-])ccc4F)c4nc(c(-c5cc(S(=O)(=O)[O-])ccc5F)c5ccc2[nH]5)C=C4)C=C3)cc1)c1ccco1
REMARK SMILES IDX 19 1 18 2 17 3 16 4 14 5 15 6 13 8 12 9 11 10 6 11 7 12 8 13
REMARK SMILES IDX 10 14 9 15 4 16 3 17 5 19 2 20 1 21 89 22 90 23 93 24 91 25
REMARK SMILES IDX 92 26 20 27 21 28 22 29 23 30 24 31 25 33 26 34 27 35 88 36
REMARK SMILES IDX 28 37 87 38 29 39 30 40 31 41 81 42 32 43 86 44 80 45 82 46
REMARK SMILES IDX 33 47 85 48 79 49 78 50 34 52 66 53 46 54 65 55 47 56 50 57
REMARK SMILES IDX 64 58 83 59 48 60 49 61 63 63 84 64 51 65 35 66 36 67 44 68
REMARK SMILES IDX 37 69 43 70 45 71 42 72 38 73 39 74 40 75 41 76 67 77 68 78
REMARK SMILES IDX 76 79 69 80 75 81 77 82 74 83 70 84 71 85 72 86 73 87 52 88
REMARK SMILES IDX 53 89 61 90 54 91 60 92 62 93 59 94 55 95 56 96 57 97 58 98
REMARK H PARENT 16 7 3 18 23 32 82 51 50 62
REMARK Flexibility Score: inf
ROOT
ATOM      1  C   UNL A   1      33.268  20.856  25.769  1.00  0.00     0.002 C 
ENDROOT
BRANCH   1   2
ATOM      2  C   UNL A   1      32.184  21.135  24.720  1.00  0.00     0.021 C 
BRANCH   2   3
ATOM      3  C   UNL A   1      32.182  22.583  24.230  1.00  0.00     0.116 C 
BRANCH   3   4
ATOM      4  N   UNL A   1      33.406  22.860  23.496  1.00  0.00    -0.353 N 
ATOM      5  C   UNL A   1      34.121  24.005  23.372  1.00  0.00     0.244 C 
ATOM      6  O   UNL A   1      35.164  24.008  22.723  1.00  0.00    -0.270 OA
ATOM      7  H   UNL A   1      33.776  22.088  23.009  1.00  0.00     0.163 HD
BRANCH   5   8
ATOM      8  C   UNL A   1      33.725  25.232  24.100  1.00  0.00     0.072 C 
ATOM      9  C   UNL A   1      33.461  25.322  25.413  1.00  0.00     0.016 C 
BRANCH   9  10
ATOM     10  C   UNL A   1      33.111  26.599  26.057  1.00  0.00     0.006 A 
ATOM     11  C   UNL A   1      31.792  27.018  26.295  1.00  0.00     0.050 A 
ATOM     12  C   UNL A   1      31.537  28.219  26.964  1.00  0.00     0.034 A 
ATOM     13  C   UNL A   1      32.610  29.020  27.300  1.00  0.00     0.112 A 
ATOM     14  C   UNL A   1      34.107  27.499  26.432  1.00  0.00     0.119 A 
ATOM     15  N   UNL A   1      33.889  28.696  27.033  1.00  0.00    -0.264 NA
BRANCH  11  16
ATOM     16  C   UNL A   1      30.629  26.199  25.883  1.00  0.00     0.252 C 
ATOM     17  N   UNL A   1      30.027  26.440  24.674  1.00  0.00    -0.342 N 
ATOM     18  H   UNL A   1      29.207  25.924  24.501  1.00  0.00     0.164 HD
ATOM     19  O   UNL A   1      30.225  25.305  26.622  1.00  0.00    -0.269 OA
BRANCH  17  20
ATOM     20  C   UNL A   1      30.429  27.352  23.608  1.00  0.00     0.145 C 
ATOM     21  C   UNL A   1      30.859  26.604  22.346  1.00  0.00     0.039 C 
BRANCH  20  22
ATOM     22  C   UNL A   1      29.299  28.281  23.303  1.00  0.00     0.125 A 
ATOM     23  C   UNL A   1      29.249  29.591  22.870  1.00  0.00     0.048 A 
ATOM     24  O   UNL A   1      28.033  27.779  23.413  1.00  0.00    -0.467 OA
ATOM     25  C   UNL A   1      27.881  29.896  22.678  1.00  0.00     0.042 A 
ATOM     26  C   UNL A   1      27.182  28.764  23.025  1.00  0.00     0.195 A 
ENDBRANCH  20  22
ENDBRANCH  17  20
ENDBRANCH  11  16
ENDBRANCH   9  10
ENDBRANCH   5   8
ENDBRANCH   3   4
ENDBRANCH   2   3
ENDBRANCH   1   2
BRANCH   1  27
ATOM     27  C   UNL A   1      34.663  20.584  25.192  1.00  0.00     0.002 C 
BRANCH  27  28
ATOM     28  C   UNL A   1      35.781  21.455  25.772  1.00  0.00     0.021 C 
BRANCH  28  29
ATOM     29  C   UNL A   1      37.072  21.443  24.958  1.00  0.00     0.116 C 
BRANCH  29  30
ATOM     30  N   UNL A   1      38.003  20.439  25.450  1.00  0.00    -0.352 N 
ATOM     31  C   UNL A   1      39.256  20.601  25.986  1.00  0.00     0.251 C 
ATOM     32  H   UNL A   1      37.689  19.508  25.390  1.00  0.00     0.163 HD
ATOM     33  O   UNL A   1      40.000  19.631  26.103  1.00  0.00    -0.269 OA
BRANCH  31  34
ATOM     34  C   UNL A   1      39.710  21.944  26.404  1.00  0.00     0.039 A 
ATOM     35  C   UNL A   1      40.793  22.051  27.280  1.00  0.00     0.014 A 
ATOM     36  C   UNL A   1      39.064  23.095  25.942  1.00  0.00     0.014 A 
ATOM     37  C   UNL A   1      41.270  23.315  27.637  1.00  0.00     0.010 A 
ATOM     38  C   UNL A   1      39.583  24.352  26.244  1.00  0.00     0.010 A 
ATOM     39  C   UNL A   1      40.696  24.475  27.090  1.00  0.00    -0.014 A 
BRANCH  39  40
ATOM     40  C   UNL A   1      41.270  25.818  27.367  1.00  0.00     0.031 A 
ATOM     41  C   UNL A   1      42.631  26.187  26.843  1.00  0.00     0.074 A 
ATOM     42  C   UNL A   1      40.583  26.679  28.144  1.00  0.00     0.049 A 
ATOM     43  N   UNL A   1      43.320  27.282  27.036  1.00  0.00    -0.248 NA
ATOM     44  C   UNL A   1      43.318  25.186  26.012  1.00  0.00     0.031 C 
ATOM     45  C   UNL A   1      39.272  26.415  28.742  1.00  0.00     0.029 A 
ATOM     46  N   UNL A   1      40.891  27.946  28.576  1.00  0.00    -0.354 N 
ATOM     47  C   UNL A   1      44.523  27.101  26.362  1.00  0.00     0.074 A 
ATOM     48  C   UNL A   1      44.488  25.770  25.794  1.00  0.00     0.031 C 
ATOM     49  C   UNL A   1      38.881  27.490  29.443  1.00  0.00     0.029 A 
ATOM     50  C   UNL A   1      39.931  28.501  29.394  1.00  0.00     0.049 A 
ATOM     51  H   UNL A   1      41.720  28.414  28.326  1.00  0.00     0.167 HD
ATOM     52  C   UNL A   1      45.553  27.971  26.220  1.00  0.00     0.034 A 
ATOM     53  C   UNL A   1      39.910  29.680  30.049  1.00  0.00     0.034 A 
ATOM     54  C   UNL A   1      45.563  29.301  26.780  1.00  0.00     0.049 A 
ATOM     55  C   UNL A   1      41.083  30.616  29.893  1.00  0.00     0.074 A 
ATOM     56  C   UNL A   1      46.523  30.287  26.633  1.00  0.00     0.029 A 
ATOM     57  N   UNL A   1      44.577  29.828  27.604  1.00  0.00    -0.354 N 
ATOM     58  N   UNL A   1      42.182  30.453  29.192  1.00  0.00    -0.248 NA
ATOM     59  C   UNL A   1      41.010  31.897  30.608  1.00  0.00     0.031 C 
ATOM     60  C   UNL A   1      46.160  31.375  27.433  1.00  0.00     0.029 A 
ATOM     61  C   UNL A   1      44.930  31.106  28.009  1.00  0.00     0.049 A 
ATOM     62  H   UNL A   1      43.749  29.362  27.864  1.00  0.00     0.167 HD
ATOM     63  C   UNL A   1      42.914  31.626  29.360  1.00  0.00     0.074 A 
ATOM     64  C   UNL A   1      42.121  32.494  30.204  1.00  0.00     0.031 C 
ATOM     65  C   UNL A   1      44.134  31.957  28.862  1.00  0.00     0.034 A 
BRANCH  52  66
ATOM     66  C   UNL A   1      46.768  27.512  25.452  1.00  0.00     0.023 A 
ATOM     67  C   UNL A   1      46.994  27.894  24.118  1.00  0.00     0.031 A 
ATOM     68  C   UNL A   1      47.733  26.702  26.078  1.00  0.00     0.131 A 
ATOM     69  C   UNL A   1      48.133  27.429  23.441  1.00  0.00     0.055 A 
ATOM     70  C   UNL A   1      48.899  26.303  25.421  1.00  0.00     0.041 A 
ATOM     71  F   UNL A   1      47.560  26.287  27.343  1.00  0.00    -0.206 F 
ATOM     72  C   UNL A   1      49.100  26.660  24.092  1.00  0.00     0.022 A 
BRANCH  69  73
ATOM     73  S   UNL A   1      48.283  27.761  21.665  1.00  0.00     0.124 S 
ATOM     74  O   UNL A   1      48.610  26.435  21.145  1.00  0.00    -0.237 OA
ATOM     75  O   UNL A   1      46.961  28.272  21.325  1.00  0.00    -0.237 OA
ATOM     76  O   UNL A   1      49.369  28.737  21.589  1.00  0.00    -0.744 OA
ENDBRANCH  69  73
ENDBRANCH  52  66
BRANCH  53  77
ATOM     77  C   UNL A   1      38.765  30.041  30.938  1.00  0.00     0.023 A 
ATOM     78  C   UNL A   1      37.672  30.776  30.452  1.00  0.00     0.031 A 
ATOM     79  C   UNL A   1      38.785  29.724  32.308  1.00  0.00     0.131 A 
ATOM     80  C   UNL A   1      36.684  31.231  31.338  1.00  0.00     0.055 A 
ATOM     81  C   UNL A   1      37.762  30.118  33.173  1.00  0.00     0.041 A 
ATOM     82  F   UNL A   1      39.806  29.026  32.830  1.00  0.00    -0.206 F 
ATOM     83  C   UNL A   1      36.712  30.894  32.693  1.00  0.00     0.022 A 
BRANCH  80  84
ATOM     84  S   UNL A   1      35.430  32.387  30.718  1.00  0.00     0.124 S 
ATOM     85  O   UNL A   1      36.187  33.632  30.644  1.00  0.00    -0.237 OA
ATOM     86  O   UNL A   1      35.065  31.781  29.441  1.00  0.00    -0.237 OA
ATOM     87  O   UNL A   1      34.393  32.346  31.746  1.00  0.00    -0.744 OA
ENDBRANCH  80  84
ENDBRANCH  53  77
BRANCH  65  88
ATOM     88  C   UNL A   1      44.658  33.334  29.192  1.00  0.00     0.023 A 
ATOM     89  C   UNL A   1      44.384  34.445  28.376  1.00  0.00     0.031 A 
ATOM     90  C   UNL A   1      45.454  33.534  30.334  1.00  0.00     0.131 A 
ATOM     91  C   UNL A   1      44.952  35.691  28.676  1.00  0.00     0.055 A 
ATOM     92  C   UNL A   1      45.961  34.791  30.666  1.00  0.00     0.041 A 
ATOM     93  F   UNL A   1      45.751  32.509  31.150  1.00  0.00    -0.206 F 
ATOM     94  C   UNL A   1      45.723  35.875  29.826  1.00  0.00     0.022 A 
BRANCH  91  95
ATOM     95  S   UNL A   1      44.754  37.047  27.488  1.00  0.00     0.124 S 
ATOM     96  O   UNL A   1      44.896  38.221  28.342  1.00  0.00    -0.237 OA
ATOM     97  O   UNL A   1      45.847  36.804  26.552  1.00  0.00    -0.237 OA
ATOM     98  O   UNL A   1      43.415  36.833  26.944  1.00  0.00    -0.744 OA
ENDBRANCH  91  95
ENDBRANCH  65  88
ENDBRANCH  39  40
ENDBRANCH  31  34
ENDBRANCH  29  30
ENDBRANCH  28  29
ENDBRANCH  27  28
ENDBRANCH   1  27
TORSDOF 20
ENDMDL
MODEL 3
REMARK VINA RESULT:     -11.7      1.379      1.609
REMARK SMILES C[C@H](NC(=O)c1ccncc1/C=C/C(=O)NCCCCCCNC(=O)c1ccc(-c2c3nc(c(-c4cc(S(=O)(=O)[O-])ccc4F)c4ccc([nH]4)c(-c4cc(S(=O)(=O)[O-])ccc4F)c4nc(c(-c5cc(S(=O)(=O)[O-])ccc5F)c5ccc2[nH]5)C=C4)C=C3)cc1)c1ccco1
REMARK SMILES IDX 19 1 18 2 17 3 16 4 14 5 15 6 13 8 12 9 11 10 6 11 7 12 8 13
REMARK SMILES IDX 10 14 9 15 4 16 3 17 5 19 2 20 1 21 89 22 90 23 93 24 91 25
REMARK SMILES IDX 92 26 20 27 21 28 22 29 23 30 24 31 25 33 26 34 27 35 88 36
REMARK SMILES IDX 28 37 87 38 29 39 30 40 31 41 81 42 32 43 86 44 80 45 82 46
REMARK SMILES IDX 33 47 85 48 79 49 78 50 34 52 66 53 46 54 65 55 47 56 50 57
REMARK SMILES IDX 64 58 83 59 48 60 49 61 63 63 84 64 51 65 35 66 36 67 44 68
REMARK SMILES IDX 37 69 43 70 45 71 42 72 38 73 39 74 40 75 41 76 67 77 68 78
REMARK SMILES IDX 76 79 69 80 75 81 77 82 74 83 70 84 71 85 72 86 73 87 52 88
REMARK SMILES IDX 53 89 61 90 54 91 60 92 62 93 59 94 55 95 56 96 57 97 58 98
REMARK H PARENT 16 7 3 18 23 32 82 51 50 62
REMARK Flexibility Score: inf
ROOT
ATOM      1  C   UNL A   1      31.336  29.926  25.125  1.00  0.00     0.002 C 
ENDROOT
BRANCH   1   2
ATOM      2  C   UNL A   1      31.408  28.412  24.891  1.00  0.00     0.021 C 
BRANCH   2   3
ATOM      3  C   UNL A   1      31.956  27.644  26.093  1.00  0.00     0.116 C 
BRANCH   3   4
ATOM      4  N   UNL A   1      31.045  26.570  26.453  1.00  0.00    -0.353 N 
ATOM      5  C   UNL A   1      31.234  25.228  26.487  1.00  0.00     0.244 C 
ATOM      6  O   UNL A   1      30.324  24.491  26.863  1.00  0.00    -0.270 OA
ATOM      7  H   UNL A   1      30.144  26.866  26.715  1.00  0.00     0.163 HD
BRANCH   5   8
ATOM      8  C   UNL A   1      32.557  24.636  26.184  1.00  0.00     0.072 C 
ATOM      9  C   UNL A   1      33.247  24.784  25.042  1.00  0.00     0.016 C 
BRANCH   9  10
ATOM     10  C   UNL A   1      34.578  24.185  24.846  1.00  0.00     0.006 A 
ATOM     11  C   UNL A   1      34.857  23.200  23.885  1.00  0.00     0.050 A 
ATOM     12  C   UNL A   1      36.159  22.718  23.718  1.00  0.00     0.034 A 
ATOM     13  C   UNL A   1      37.138  23.169  24.581  1.00  0.00     0.112 A 
ATOM     14  C   UNL A   1      35.646  24.550  25.664  1.00  0.00     0.119 A 
ATOM     15  N   UNL A   1      36.906  24.061  25.563  1.00  0.00    -0.264 NA
BRANCH  11  16
ATOM     16  C   UNL A   1      33.804  22.660  22.995  1.00  0.00     0.252 C 
ATOM     17  N   UNL A   1      33.003  21.639  23.438  1.00  0.00    -0.342 N 
ATOM     18  H   UNL A   1      32.386  21.266  22.768  1.00  0.00     0.164 HD
ATOM     19  O   UNL A   1      33.651  23.143  21.876  1.00  0.00    -0.269 OA
BRANCH  17  20
ATOM     20  C   UNL A   1      32.935  21.025  24.760  1.00  0.00     0.145 C 
ATOM     21  C   UNL A   1      31.599  21.298  25.450  1.00  0.00     0.039 C 
BRANCH  20  22
ATOM     22  C   UNL A   1      33.164  19.555  24.633  1.00  0.00     0.125 A 
ATOM     23  C   UNL A   1      34.294  18.795  24.406  1.00  0.00     0.048 A 
ATOM     24  O   UNL A   1      32.084  18.738  24.812  1.00  0.00    -0.467 OA
ATOM     25  C   UNL A   1      33.888  17.442  24.479  1.00  0.00     0.042 A 
ATOM     26  C   UNL A   1      32.535  17.459  24.723  1.00  0.00     0.195 A 
ENDBRANCH  20  22
ENDBRANCH  17  20
ENDBRANCH  11  16
ENDBRANCH   9  10
ENDBRANCH   5   8
ENDBRANCH   3   4
ENDBRANCH   2   3
ENDBRANCH   1   2
BRANCH   1  27
ATOM     27  C   UNL A   1      31.793  30.382  26.516  1.00  0.00     0.002 C 
BRANCH  27  28
ATOM     28  C   UNL A   1      31.650  31.883  26.782  1.00  0.00     0.021 C 
BRANCH  28  29
ATOM     29  C   UNL A   1      32.904  32.542  27.353  1.00  0.00     0.116 C 
BRANCH  29  30
ATOM     30  N   UNL A   1      32.674  33.944  27.663  1.00  0.00    -0.352 N 
ATOM     31  C   UNL A   1      33.207  34.712  28.669  1.00  0.00     0.251 C 
ATOM     32  H   UNL A   1      32.046  34.410  27.066  1.00  0.00     0.163 HD
ATOM     33  O   UNL A   1      32.703  35.798  28.939  1.00  0.00    -0.269 OA
BRANCH  31  34
ATOM     34  C   UNL A   1      34.374  34.220  29.432  1.00  0.00     0.039 A 
ATOM     35  C   UNL A   1      34.160  33.389  30.535  1.00  0.00     0.014 A 
ATOM     36  C   UNL A   1      35.673  34.583  29.066  1.00  0.00     0.014 A 
ATOM     37  C   UNL A   1      35.256  32.869  31.229  1.00  0.00     0.010 A 
ATOM     38  C   UNL A   1      36.763  34.009  29.716  1.00  0.00     0.010 A 
ATOM     39  C   UNL A   1      36.566  33.141  30.800  1.00  0.00    -0.014 A 
BRANCH  39  40
ATOM     40  C   UNL A   1      37.735  32.497  31.456  1.00  0.00     0.031 A 
ATOM     41  C   UNL A   1      38.445  31.349  30.790  1.00  0.00     0.074 A 
ATOM     42  C   UNL A   1      38.114  32.913  32.681  1.00  0.00     0.049 A 
ATOM     43  N   UNL A   1      39.438  30.624  31.236  1.00  0.00    -0.248 NA
ATOM     44  C   UNL A   1      37.963  30.951  29.459  1.00  0.00     0.031 C 
ATOM     45  C   UNL A   1      37.474  33.990  33.441  1.00  0.00     0.029 A 
ATOM     46  N   UNL A   1      39.119  32.479  33.510  1.00  0.00    -0.354 N 
ATOM     47  C   UNL A   1      39.694  29.677  30.249  1.00  0.00     0.074 A 
ATOM     48  C   UNL A   1      38.719  29.893  29.200  1.00  0.00     0.031 C 
ATOM     49  C   UNL A   1      38.113  34.144  34.612  1.00  0.00     0.029 A 
ATOM     50  C   UNL A   1      39.172  33.146  34.714  1.00  0.00     0.049 A 
ATOM     51  H   UNL A   1      39.743  31.757  33.267  1.00  0.00     0.167 HD
ATOM     52  C   UNL A   1      40.661  28.729  30.216  1.00  0.00     0.034 A 
ATOM     53  C   UNL A   1      39.967  32.961  35.787  1.00  0.00     0.034 A 
ATOM     54  C   UNL A   1      41.635  28.539  31.264  1.00  0.00     0.049 A 
ATOM     55  C   UNL A   1      41.017  31.878  35.732  1.00  0.00     0.074 A 
ATOM     56  C   UNL A   1      42.701  27.657  31.297  1.00  0.00     0.029 A 
ATOM     57  N   UNL A   1      41.656  29.231  32.469  1.00  0.00    -0.354 N 
ATOM     58  N   UNL A   1      41.287  31.038  34.758  1.00  0.00    -0.248 NA
ATOM     59  C   UNL A   1      41.873  31.722  36.915  1.00  0.00     0.031 C 
ATOM     60  C   UNL A   1      43.314  27.755  32.550  1.00  0.00     0.029 A 
ATOM     61  C   UNL A   1      42.689  28.761  33.267  1.00  0.00     0.049 A 
ATOM     62  H   UNL A   1      41.031  29.948  32.720  1.00  0.00     0.167 HD
ATOM     63  C   UNL A   1      42.366  30.279  35.203  1.00  0.00     0.074 A 
ATOM     64  C   UNL A   1      42.711  30.776  36.518  1.00  0.00     0.031 C 
ATOM     65  C   UNL A   1      43.014  29.259  34.583  1.00  0.00     0.034 A 
BRANCH  52  66
ATOM     66  C   UNL A   1      40.705  27.801  29.027  1.00  0.00     0.023 A 
ATOM     67  C   UNL A   1      41.623  27.979  27.978  1.00  0.00     0.031 A 
ATOM     68  C   UNL A   1      39.830  26.700  28.958  1.00  0.00     0.131 A 
ATOM     69  C   UNL A   1      41.616  27.097  26.885  1.00  0.00     0.055 A 
ATOM     70  C   UNL A   1      39.877  25.787  27.903  1.00  0.00     0.041 A 
ATOM     71  F   UNL A   1      38.915  26.493  29.919  1.00  0.00    -0.206 F 
ATOM     72  C   UNL A   1      40.768  25.987  26.855  1.00  0.00     0.022 A 
BRANCH  69  73
ATOM     73  S   UNL A   1      42.661  27.479  25.454  1.00  0.00     0.124 S 
ATOM     74  O   UNL A   1      41.968  28.631  24.882  1.00  0.00    -0.237 OA
ATOM     75  O   UNL A   1      43.954  27.752  26.069  1.00  0.00    -0.237 OA
ATOM     76  O   UNL A   1      42.598  26.260  24.649  1.00  0.00    -0.744 OA
ENDBRANCH  69  73
ENDBRANCH  52  66
BRANCH  53  77
ATOM     77  C   UNL A   1      39.793  33.786  37.020  1.00  0.00     0.023 A 
ATOM     78  C   UNL A   1      39.127  33.278  38.146  1.00  0.00     0.031 A 
ATOM     79  C   UNL A   1      40.220  35.126  37.060  1.00  0.00     0.131 A 
ATOM     80  C   UNL A   1      38.845  34.119  39.232  1.00  0.00     0.055 A 
ATOM     81  C   UNL A   1      39.999  35.940  38.173  1.00  0.00     0.041 A 
ATOM     82  F   UNL A   1      40.859  35.669  36.011  1.00  0.00    -0.206 F 
ATOM     83  C   UNL A   1      39.289  35.442  39.261  1.00  0.00     0.022 A 
BRANCH  80  84
ATOM     84  S   UNL A   1      37.764  33.497  40.552  1.00  0.00     0.124 S 
ATOM     85  O   UNL A   1      37.395  34.730  41.237  1.00  0.00    -0.237 OA
ATOM     86  O   UNL A   1      36.705  32.842  39.791  1.00  0.00    -0.237 OA
ATOM     87  O   UNL A   1      38.635  32.598  41.307  1.00  0.00    -0.744 OA
ENDBRANCH  80  84
ENDBRANCH  53  77
BRANCH  65  88
ATOM     88  C   UNL A   1      44.186  28.647  35.312  1.00  0.00     0.023 A 
ATOM     89  C   UNL A   1      44.010  27.653  36.290  1.00  0.00     0.031 A 
ATOM     90  C   UNL A   1      45.496  29.075  35.033  1.00  0.00     0.131 A 
ATOM     91  C   UNL A   1      45.118  27.165  36.998  1.00  0.00     0.055 A 
ATOM     92  C   UNL A   1      46.601  28.536  35.692  1.00  0.00     0.041 A 
ATOM     93  F   UNL A   1      45.724  30.023  34.110  1.00  0.00    -0.206 F 
ATOM     94  C   UNL A   1      46.414  27.585  36.692  1.00  0.00     0.022 A 
BRANCH  91  95
ATOM     95  S   UNL A   1      44.832  26.044  38.395  1.00  0.00     0.124 S 
ATOM     96  O   UNL A   1      45.936  26.385  39.287  1.00  0.00    -0.237 OA
ATOM     97  O   UNL A   1      43.503  26.442  38.847  1.00  0.00    -0.237 OA
ATOM     98  O   UNL A   1      44.910  24.716  37.792  1.00  0.00    -0.744 OA
ENDBRANCH  91  95
ENDBRANCH  65  88
ENDBRANCH  39  40
ENDBRANCH  31  34
ENDBRANCH  29  30
ENDBRANCH  28  29
ENDBRANCH  27  28
ENDBRANCH   1  27
TORSDOF 20
ENDMDL
