MODEL 1
REMARK VINA RESULT:     -11.5      0.000      0.000
REMARK SMILES C[N@H+](Cc1cc(Cl)ccc1[N+](=O)[O-])[C@H]1COC[C@@H]1C(=O)NCCCCCCNC(=O)c1ccc(-c2c3nc(c(-c4cc(S(=O)(=O)[O-])ccc4F)c4ccc([nH]4)c(-c4cc(S(=O)(=O)[O-])ccc4F)c4nc(c(-c5cc(S(=O)(=O)[O-])ccc5F)c5ccc2[nH]5)C=C4)C=C3)cc1
REMARK SMILES IDX 24 1 23 2 22 3 21 4 19 5 20 6 18 8 14 9 15 10 16 11 17 12
REMARK SMILES IDX 2 13 1 14 3 16 4 17 5 18 10 19 6 20 9 21 7 22 8 23 11 24
REMARK SMILES IDX 12 25 13 26 25 27 26 28 27 29 28 30 29 31 30 33 31 34 32 35
REMARK SMILES IDX 93 36 33 37 92 38 34 39 35 40 36 41 86 42 37 43 91 44 85 45
REMARK SMILES IDX 87 46 38 47 90 48 84 49 83 50 39 52 71 53 51 54 70 55 52 56
REMARK SMILES IDX 55 57 69 58 88 59 53 60 54 61 68 63 89 64 56 65 40 66 41 67
REMARK SMILES IDX 49 68 42 69 48 70 50 71 47 72 43 73 44 74 45 75 46 76 72 77
REMARK SMILES IDX 73 78 81 79 74 80 80 81 82 82 79 83 75 84 76 85 77 86 78 87
REMARK SMILES IDX 57 88 58 89 66 90 59 91 65 92 67 93 64 94 60 95 61 96 62 97
REMARK SMILES IDX 63 98
REMARK H PARENT 21 7 2 15 28 32 87 51 55 62
REMARK Flexibility Score: inf
ROOT
ATOM      1  C   UNL A   1      37.400  22.132  24.595  1.00  0.00     0.002 C 
ENDROOT
BRANCH   1   2
ATOM      2  C   UNL A   1      36.660  22.718  23.399  1.00  0.00     0.021 C 
BRANCH   2   3
ATOM      3  C   UNL A   1      35.272  23.254  23.704  1.00  0.00     0.116 C 
BRANCH   3   4
ATOM      4  N   UNL A   1      34.966  23.393  25.103  1.00  0.00    -0.356 N 
ATOM      5  C   UNL A   1      33.778  23.268  25.749  1.00  0.00     0.231 C 
ATOM      6  O   UNL A   1      33.830  23.258  26.986  1.00  0.00    -0.274 OA
ATOM      7  H   UNL A   1      35.733  23.612  25.679  1.00  0.00     0.163 HD
BRANCH   5   8
ATOM      8  C   UNL A   1      32.413  23.168  25.061  1.00  0.00     0.164 C 
ATOM      9  C   UNL A   1      31.413  24.322  25.274  1.00  0.00     0.225 C 
ATOM     10  C   UNL A   1      30.427  23.705  26.290  1.00  0.00     0.226 C 
ATOM     11  O   UNL A   1      30.516  22.278  26.215  1.00  0.00    -0.374 OA
ATOM     12  C   UNL A   1      31.634  21.912  25.399  1.00  0.00     0.180 C 
BRANCH   9  13
ATOM     13  N   UNL A   1      30.743  24.923  24.071  1.00  0.00    -0.328 N 
ATOM     14  C   UNL A   1      31.609  25.046  22.899  1.00  0.00     0.333 C 
ATOM     15  H   UNL A   1      30.070  24.207  23.798  1.00  0.00     0.348 HD
BRANCH  13  16
ATOM     16  C   UNL A   1      29.858  26.062  24.330  1.00  0.00     0.306 C 
BRANCH  16  17
ATOM     17  C   UNL A   1      30.535  27.381  24.644  1.00  0.00     0.085 A 
ATOM     18  C   UNL A   1      31.412  27.409  25.752  1.00  0.00     0.037 A 
ATOM     19  C   UNL A   1      30.284  28.595  23.965  1.00  0.00     0.278 A 
ATOM     20  C   UNL A   1      32.006  28.600  26.168  1.00  0.00     0.042 A 
ATOM     21  C   UNL A   1      30.889  29.791  24.395  1.00  0.00     0.088 A 
ATOM     22  Cl  UNL A   1      33.050  28.602  27.535  1.00  0.00    -0.084 Cl
ATOM     23  C   UNL A   1      31.746  29.790  25.496  1.00  0.00     0.027 A 
BRANCH  19  24
ATOM     24  N   UNL A   1      29.376  28.699  22.812  1.00  0.00     0.063 N 
ATOM     25  O   UNL A   1      28.162  28.747  23.054  1.00  0.00    -0.258 OA
ATOM     26  O   UNL A   1      29.868  28.795  21.682  1.00  0.00    -0.258 OA
ENDBRANCH  19  24
ENDBRANCH  16  17
ENDBRANCH  13  16
ENDBRANCH   9  13
ENDBRANCH   5   8
ENDBRANCH   3   4
ENDBRANCH   2   3
ENDBRANCH   1   2
BRANCH   1  27
ATOM     27  C   UNL A   1      37.030  20.689  24.955  1.00  0.00     0.002 C 
BRANCH  27  28
ATOM     28  C   UNL A   1      38.201  19.709  25.102  1.00  0.00     0.021 C 
BRANCH  28  29
ATOM     29  C   UNL A   1      39.411  20.247  25.858  1.00  0.00     0.116 C 
BRANCH  29  30
ATOM     30  N   UNL A   1      40.470  19.260  25.955  1.00  0.00    -0.352 N 
ATOM     31  C   UNL A   1      41.825  19.436  26.057  1.00  0.00     0.251 C 
ATOM     32  H   UNL A   1      40.170  18.322  25.946  1.00  0.00     0.163 HD
ATOM     33  O   UNL A   1      42.573  18.480  25.891  1.00  0.00    -0.269 OA
BRANCH  31  34
ATOM     34  C   UNL A   1      42.375  20.778  26.348  1.00  0.00     0.039 A 
ATOM     35  C   UNL A   1      42.702  21.615  25.280  1.00  0.00     0.014 A 
ATOM     36  C   UNL A   1      42.590  21.199  27.664  1.00  0.00     0.014 A 
ATOM     37  C   UNL A   1      43.199  22.894  25.532  1.00  0.00     0.010 A 
ATOM     38  C   UNL A   1      43.012  22.502  27.915  1.00  0.00     0.010 A 
ATOM     39  C   UNL A   1      43.330  23.360  26.851  1.00  0.00    -0.014 A 
BRANCH  39  40
ATOM     40  C   UNL A   1      43.807  24.739  27.131  1.00  0.00     0.031 A 
ATOM     41  C   UNL A   1      42.862  25.763  27.700  1.00  0.00     0.074 A 
ATOM     42  C   UNL A   1      45.075  25.077  26.830  1.00  0.00     0.049 A 
ATOM     43  N   UNL A   1      43.072  27.028  27.959  1.00  0.00    -0.248 NA
ATOM     44  C   UNL A   1      41.491  25.312  27.987  1.00  0.00     0.031 C 
ATOM     45  C   UNL A   1      46.070  24.177  26.239  1.00  0.00     0.029 A 
ATOM     46  N   UNL A   1      45.747  26.265  26.969  1.00  0.00    -0.354 N 
ATOM     47  C   UNL A   1      41.862  27.526  28.430  1.00  0.00     0.074 A 
ATOM     48  C   UNL A   1      40.906  26.441  28.358  1.00  0.00     0.031 C 
ATOM     49  C   UNL A   1      47.230  24.837  26.095  1.00  0.00     0.029 A 
ATOM     50  C   UNL A   1      47.051  26.218  26.530  1.00  0.00     0.049 A 
ATOM     51  H   UNL A   1      45.336  27.075  27.348  1.00  0.00     0.167 HD
ATOM     52  C   UNL A   1      41.580  28.768  28.898  1.00  0.00     0.034 A 
ATOM     53  C   UNL A   1      47.992  27.182  26.470  1.00  0.00     0.034 A 
ATOM     54  C   UNL A   1      42.551  29.834  28.968  1.00  0.00     0.049 A 
ATOM     55  C   UNL A   1      47.645  28.563  26.969  1.00  0.00     0.074 A 
ATOM     56  C   UNL A   1      42.389  31.112  29.475  1.00  0.00     0.029 A 
ATOM     57  N   UNL A   1      43.859  29.752  28.508  1.00  0.00    -0.354 N 
ATOM     58  N   UNL A   1      46.509  29.004  27.461  1.00  0.00    -0.248 NA
ATOM     59  C   UNL A   1      48.710  29.572  26.917  1.00  0.00     0.031 C 
ATOM     60  C   UNL A   1      43.571  31.826  29.248  1.00  0.00     0.029 A 
ATOM     61  C   UNL A   1      44.503  30.969  28.685  1.00  0.00     0.049 A 
ATOM     62  H   UNL A   1      44.270  28.950  28.115  1.00  0.00     0.167 HD
ATOM     63  C   UNL A   1      46.736  30.333  27.806  1.00  0.00     0.074 A 
ATOM     64  C   UNL A   1      48.120  30.615  27.482  1.00  0.00     0.031 C 
ATOM     65  C   UNL A   1      45.881  31.239  28.345  1.00  0.00     0.034 A 
BRANCH  52  66
ATOM     66  C   UNL A   1      40.161  29.044  29.339  1.00  0.00     0.023 A 
ATOM     67  C   UNL A   1      39.785  29.008  30.694  1.00  0.00     0.031 A 
ATOM     68  C   UNL A   1      39.164  29.330  28.389  1.00  0.00     0.131 A 
ATOM     69  C   UNL A   1      38.440  29.181  31.054  1.00  0.00     0.055 A 
ATOM     70  C   UNL A   1      37.843  29.586  28.762  1.00  0.00     0.041 A 
ATOM     71  F   UNL A   1      39.456  29.356  27.079  1.00  0.00    -0.206 F 
ATOM     72  C   UNL A   1      37.471  29.497  30.100  1.00  0.00     0.022 A 
BRANCH  69  73
ATOM     73  S   UNL A   1      37.951  28.841  32.767  1.00  0.00     0.124 S 
ATOM     74  O   UNL A   1      36.621  29.444  32.818  1.00  0.00    -0.237 OA
ATOM     75  O   UNL A   1      37.996  27.386  32.826  1.00  0.00    -0.237 OA
ATOM     76  O   UNL A   1      38.970  29.530  33.557  1.00  0.00    -0.744 OA
ENDBRANCH  69  73
ENDBRANCH  52  66
BRANCH  53  77
ATOM     77  C   UNL A   1      49.340  26.888  25.905  1.00  0.00     0.023 A 
ATOM     78  C   UNL A   1      49.708  27.341  24.629  1.00  0.00     0.031 A 
ATOM     79  C   UNL A   1      50.268  26.109  26.620  1.00  0.00     0.131 A 
ATOM     80  C   UNL A   1      50.950  26.972  24.087  1.00  0.00     0.055 A 
ATOM     81  C   UNL A   1      51.525  25.795  26.101  1.00  0.00     0.041 A 
ATOM     82  F   UNL A   1      49.970  25.651  27.847  1.00  0.00    -0.206 F 
ATOM     83  C   UNL A   1      51.866  26.216  24.820  1.00  0.00     0.022 A 
BRANCH  80  84
ATOM     84  S   UNL A   1      51.312  27.416  22.365  1.00  0.00     0.124 S 
ATOM     85  O   UNL A   1      51.157  28.866  22.396  1.00  0.00    -0.237 OA
ATOM     86  O   UNL A   1      52.673  26.918  22.204  1.00  0.00    -0.237 OA
ATOM     87  O   UNL A   1      50.292  26.694  21.607  1.00  0.00    -0.744 OA
ENDBRANCH  80  84
ENDBRANCH  53  77
BRANCH  65  88
ATOM     88  C   UNL A   1      46.438  32.608  28.663  1.00  0.00     0.023 A 
ATOM     89  C   UNL A   1      46.467  33.638  27.707  1.00  0.00     0.031 A 
ATOM     90  C   UNL A   1      46.958  32.878  29.942  1.00  0.00     0.131 A 
ATOM     91  C   UNL A   1      47.060  34.869  28.026  1.00  0.00     0.055 A 
ATOM     92  C   UNL A   1      47.482  34.127  30.275  1.00  0.00     0.041 A 
ATOM     93  F   UNL A   1      46.961  31.931  30.894  1.00  0.00    -0.206 F 
ATOM     94  C   UNL A   1      47.549  35.127  29.309  1.00  0.00     0.022 A 
BRANCH  91  95
ATOM     95  S   UNL A   1      47.282  36.095  26.708  1.00  0.00     0.124 S 
ATOM     96  O   UNL A   1      48.610  36.624  27.005  1.00  0.00    -0.237 OA
ATOM     97  O   UNL A   1      47.177  35.280  25.502  1.00  0.00    -0.237 OA
ATOM     98  O   UNL A   1      46.180  37.031  26.920  1.00  0.00    -0.744 OA
ENDBRANCH  91  95
ENDBRANCH  65  88
ENDBRANCH  39  40
ENDBRANCH  31  34
ENDBRANCH  29  30
ENDBRANCH  28  29
ENDBRANCH  27  28
ENDBRANCH   1  27
TORSDOF 20
ENDMDL
MODEL 2
REMARK VINA RESULT:     -11.5      6.155     11.463
REMARK SMILES C[N@H+](Cc1cc(Cl)ccc1[N+](=O)[O-])[C@H]1COC[C@@H]1C(=O)NCCCCCCNC(=O)c1ccc(-c2c3nc(c(-c4cc(S(=O)(=O)[O-])ccc4F)c4ccc([nH]4)c(-c4cc(S(=O)(=O)[O-])ccc4F)c4nc(c(-c5cc(S(=O)(=O)[O-])ccc5F)c5ccc2[nH]5)C=C4)C=C3)cc1
REMARK SMILES IDX 24 1 23 2 22 3 21 4 19 5 20 6 18 8 14 9 15 10 16 11 17 12
REMARK SMILES IDX 2 13 1 14 3 16 4 17 5 18 10 19 6 20 9 21 7 22 8 23 11 24
REMARK SMILES IDX 12 25 13 26 25 27 26 28 27 29 28 30 29 31 30 33 31 34 32 35
REMARK SMILES IDX 93 36 33 37 92 38 34 39 35 40 36 41 86 42 37 43 91 44 85 45
REMARK SMILES IDX 87 46 38 47 90 48 84 49 83 50 39 52 71 53 51 54 70 55 52 56
REMARK SMILES IDX 55 57 69 58 88 59 53 60 54 61 68 63 89 64 56 65 40 66 41 67
REMARK SMILES IDX 49 68 42 69 48 70 50 71 47 72 43 73 44 74 45 75 46 76 72 77
REMARK SMILES IDX 73 78 81 79 74 80 80 81 82 82 79 83 75 84 76 85 77 86 78 87
REMARK SMILES IDX 57 88 58 89 66 90 59 91 65 92 67 93 64 94 60 95 61 96 62 97
REMARK SMILES IDX 63 98
REMARK H PARENT 21 7 2 15 28 32 87 51 55 62
REMARK Flexibility Score: inf
ROOT
ATOM      1  C   UNL A   1      32.308  29.556  26.991  1.00  0.00     0.002 C 
ENDROOT
BRANCH   1   2
ATOM      2  C   UNL A   1      31.652  28.258  27.447  1.00  0.00     0.021 C 
BRANCH   2   3
ATOM      3  C   UNL A   1      32.120  27.012  26.717  1.00  0.00     0.116 C 
BRANCH   3   4
ATOM      4  N   UNL A   1      33.096  27.241  25.685  1.00  0.00    -0.356 N 
ATOM      5  C   UNL A   1      33.016  27.016  24.348  1.00  0.00     0.231 C 
ATOM      6  O   UNL A   1      33.938  27.476  23.663  1.00  0.00    -0.274 OA
ATOM      7  H   UNL A   1      33.951  27.617  25.994  1.00  0.00     0.163 HD
BRANCH   5   8
ATOM      8  C   UNL A   1      31.898  26.227  23.658  1.00  0.00     0.164 C 
ATOM      9  C   UNL A   1      32.305  25.109  22.677  1.00  0.00     0.225 C 
ATOM     10  C   UNL A   1      32.045  25.778  21.309  1.00  0.00     0.226 C 
ATOM     11  O   UNL A   1      31.114  26.849  21.486  1.00  0.00    -0.374 OA
ATOM     12  C   UNL A   1      30.916  27.084  22.884  1.00  0.00     0.180 C 
BRANCH   9  13
ATOM     13  N   UNL A   1      31.665  23.758  22.822  1.00  0.00    -0.328 N 
ATOM     14  C   UNL A   1      31.020  23.534  24.115  1.00  0.00     0.333 C 
ATOM     15  H   UNL A   1      30.884  23.801  22.168  1.00  0.00     0.348 HD
BRANCH  13  16
ATOM     16  C   UNL A   1      32.425  22.626  22.284  1.00  0.00     0.306 C 
BRANCH  16  17
ATOM     17  C   UNL A   1      33.115  21.738  23.300  1.00  0.00     0.085 A 
ATOM     18  C   UNL A   1      32.493  20.508  23.609  1.00  0.00     0.037 A 
ATOM     19  C   UNL A   1      34.278  22.093  24.020  1.00  0.00     0.278 A 
ATOM     20  C   UNL A   1      33.007  19.671  24.599  1.00  0.00     0.042 A 
ATOM     21  C   UNL A   1      34.789  21.241  25.017  1.00  0.00     0.088 A 
ATOM     22  Cl  UNL A   1      32.213  18.191  24.965  1.00  0.00    -0.084 Cl
ATOM     23  C   UNL A   1      34.150  20.034  25.305  1.00  0.00     0.027 A 
BRANCH  19  24
ATOM     24  N   UNL A   1      35.003  23.356  23.804  1.00  0.00     0.063 N 
ATOM     25  O   UNL A   1      34.943  24.200  24.709  1.00  0.00    -0.258 OA
ATOM     26  O   UNL A   1      35.676  23.480  22.775  1.00  0.00    -0.258 OA
ENDBRANCH  19  24
ENDBRANCH  16  17
ENDBRANCH  13  16
ENDBRANCH   9  13
ENDBRANCH   5   8
ENDBRANCH   3   4
ENDBRANCH   2   3
ENDBRANCH   1   2
BRANCH   1  27
ATOM     27  C   UNL A   1      31.437  30.461  26.113  1.00  0.00     0.002 C 
BRANCH  27  28
ATOM     28  C   UNL A   1      31.422  31.948  26.485  1.00  0.00     0.021 C 
BRANCH  28  29
ATOM     29  C   UNL A   1      32.689  32.467  27.154  1.00  0.00     0.116 C 
BRANCH  29  30
ATOM     30  N   UNL A   1      32.567  33.861  27.538  1.00  0.00    -0.352 N 
ATOM     31  C   UNL A   1      33.212  34.558  28.525  1.00  0.00     0.251 C 
ATOM     32  H   UNL A   1      31.922  34.385  27.009  1.00  0.00     0.163 HD
ATOM     33  O   UNL A   1      32.804  35.667  28.848  1.00  0.00    -0.269 OA
BRANCH  31  34
ATOM     34  C   UNL A   1      34.384  33.962  29.204  1.00  0.00     0.039 A 
ATOM     35  C   UNL A   1      34.171  32.970  30.163  1.00  0.00     0.014 A 
ATOM     36  C   UNL A   1      35.682  34.396  28.916  1.00  0.00     0.014 A 
ATOM     37  C   UNL A   1      35.263  32.378  30.797  1.00  0.00     0.010 A 
ATOM     38  C   UNL A   1      36.772  33.751  29.492  1.00  0.00     0.010 A 
ATOM     39  C   UNL A   1      36.574  32.741  30.446  1.00  0.00    -0.014 A 
BRANCH  39  40
ATOM     40  C   UNL A   1      37.746  32.078  31.076  1.00  0.00     0.031 A 
ATOM     41  C   UNL A   1      38.527  31.043  30.313  1.00  0.00     0.074 A 
ATOM     42  C   UNL A   1      38.073  32.378  32.347  1.00  0.00     0.049 A 
ATOM     43  N   UNL A   1      39.541  30.316  30.707  1.00  0.00    -0.248 NA
ATOM     44  C   UNL A   1      38.091  30.768  28.935  1.00  0.00     0.031 C 
ATOM     45  C   UNL A   1      37.364  33.339  33.197  1.00  0.00     0.029 A 
ATOM     46  N   UNL A   1      39.079  31.905  33.152  1.00  0.00    -0.354 N 
ATOM     47  C   UNL A   1      39.859  29.492  29.632  1.00  0.00     0.074 A 
ATOM     48  C   UNL A   1      38.887  29.766  28.594  1.00  0.00     0.031 C 
ATOM     49  C   UNL A   1      37.974  33.404  34.391  1.00  0.00     0.029 A 
ATOM     50  C   UNL A   1      39.082  32.455  34.414  1.00  0.00     0.049 A 
ATOM     51  H   UNL A   1      39.737  31.236  32.856  1.00  0.00     0.167 HD
ATOM     52  C   UNL A   1      40.879  28.606  29.516  1.00  0.00     0.034 A 
ATOM     53  C   UNL A   1      39.877  32.211  35.475  1.00  0.00     0.034 A 
ATOM     54  C   UNL A   1      41.841  28.354  30.562  1.00  0.00     0.049 A 
ATOM     55  C   UNL A   1      40.986  31.199  35.331  1.00  0.00     0.074 A 
ATOM     56  C   UNL A   1      42.945  27.520  30.533  1.00  0.00     0.029 A 
ATOM     57  N   UNL A   1      41.809  28.924  31.829  1.00  0.00    -0.354 N 
ATOM     58  N   UNL A   1      41.306  30.466  34.289  1.00  0.00    -0.248 NA
ATOM     59  C   UNL A   1      41.849  30.991  36.500  1.00  0.00     0.031 C 
ATOM     60  C   UNL A   1      43.531  27.523  31.803  1.00  0.00     0.029 A 
ATOM     61  C   UNL A   1      42.852  28.430  32.600  1.00  0.00     0.049 A 
ATOM     62  H   UNL A   1      41.145  29.582  32.135  1.00  0.00     0.167 HD
ATOM     63  C   UNL A   1      42.427  29.734  34.670  1.00  0.00     0.074 A 
ATOM     64  C   UNL A   1      42.737  30.129  36.029  1.00  0.00     0.031 C 
ATOM     65  C   UNL A   1      43.141  28.822  33.960  1.00  0.00     0.034 A 
BRANCH  52  66
ATOM     66  C   UNL A   1      40.983  27.825  28.226  1.00  0.00     0.023 A 
ATOM     67  C   UNL A   1      40.493  26.512  28.112  1.00  0.00     0.031 A 
ATOM     68  C   UNL A   1      41.598  28.396  27.098  1.00  0.00     0.131 A 
ATOM     69  C   UNL A   1      40.690  25.790  26.925  1.00  0.00     0.055 A 
ATOM     70  C   UNL A   1      41.715  27.703  25.891  1.00  0.00     0.041 A 
ATOM     71  F   UNL A   1      42.106  29.638  27.151  1.00  0.00    -0.206 F 
ATOM     72  C   UNL A   1      41.273  26.386  25.804  1.00  0.00     0.022 A 
BRANCH  69  73
ATOM     73  S   UNL A   1      40.308  24.017  26.915  1.00  0.00     0.124 S 
ATOM     74  O   UNL A   1      41.388  23.487  26.086  1.00  0.00    -0.237 OA
ATOM     75  O   UNL A   1      40.361  23.674  28.331  1.00  0.00    -0.237 OA
ATOM     76  O   UNL A   1      38.980  23.957  26.307  1.00  0.00    -0.744 OA
ENDBRANCH  69  73
ENDBRANCH  52  66
BRANCH  53  77
ATOM     77  C   UNL A   1      39.649  32.919  36.769  1.00  0.00     0.023 A 
ATOM     78  C   UNL A   1      38.741  32.424  37.717  1.00  0.00     0.031 A 
ATOM     79  C   UNL A   1      40.309  34.128  37.056  1.00  0.00     0.131 A 
ATOM     80  C   UNL A   1      38.480  33.160  38.885  1.00  0.00     0.055 A 
ATOM     81  C   UNL A   1      40.090  34.824  38.246  1.00  0.00     0.041 A 
ATOM     82  F   UNL A   1      41.190  34.646  36.185  1.00  0.00    -0.206 F 
ATOM     83  C   UNL A   1      39.160  34.347  39.163  1.00  0.00     0.022 A 
BRANCH  80  84
ATOM     84  S   UNL A   1      37.163  32.586  39.995  1.00  0.00     0.124 S 
ATOM     85  O   UNL A   1      36.031  32.483  39.082  1.00  0.00    -0.237 OA
ATOM     86  O   UNL A   1      37.710  31.327  40.487  1.00  0.00    -0.237 OA
ATOM     87  O   UNL A   1      37.070  33.654  40.989  1.00  0.00    -0.744 OA
ENDBRANCH  80  84
ENDBRANCH  53  77
BRANCH  65  88
ATOM     88  C   UNL A   1      44.356  28.226  34.631  1.00  0.00     0.023 A 
ATOM     89  C   UNL A   1      44.284  27.037  35.378  1.00  0.00     0.031 A 
ATOM     90  C   UNL A   1      45.605  28.867  34.529  1.00  0.00     0.131 A 
ATOM     91  C   UNL A   1      45.424  26.561  36.043  1.00  0.00     0.055 A 
ATOM     92  C   UNL A   1      46.750  28.350  35.135  1.00  0.00     0.041 A 
ATOM     93  F   UNL A   1      45.732  30.008  33.832  1.00  0.00    -0.206 F 
ATOM     94  C   UNL A   1      46.660  27.198  35.910  1.00  0.00     0.022 A 
BRANCH  91  95
ATOM     95  S   UNL A   1      45.246  25.155  37.175  1.00  0.00     0.124 S 
ATOM     96  O   UNL A   1      46.232  24.215  36.650  1.00  0.00    -0.237 OA
ATOM     97  O   UNL A   1      45.561  25.753  38.469  1.00  0.00    -0.237 OA
ATOM     98  O   UNL A   1      43.852  24.751  37.004  1.00  0.00    -0.744 OA
ENDBRANCH  91  95
ENDBRANCH  65  88
ENDBRANCH  39  40
ENDBRANCH  31  34
ENDBRANCH  29  30
ENDBRANCH  28  29
ENDBRANCH  27  28
ENDBRANCH   1  27
TORSDOF 20
ENDMDL
MODEL 3
REMARK VINA RESULT:     -11.3      6.066     11.464
REMARK SMILES C[N@H+](Cc1cc(Cl)ccc1[N+](=O)[O-])[C@H]1COC[C@@H]1C(=O)NCCCCCCNC(=O)c1ccc(-c2c3nc(c(-c4cc(S(=O)(=O)[O-])ccc4F)c4ccc([nH]4)c(-c4cc(S(=O)(=O)[O-])ccc4F)c4nc(c(-c5cc(S(=O)(=O)[O-])ccc5F)c5ccc2[nH]5)C=C4)C=C3)cc1
REMARK SMILES IDX 24 1 23 2 22 3 21 4 19 5 20 6 18 8 14 9 15 10 16 11 17 12
REMARK SMILES IDX 2 13 1 14 3 16 4 17 5 18 10 19 6 20 9 21 7 22 8 23 11 24
REMARK SMILES IDX 12 25 13 26 25 27 26 28 27 29 28 30 29 31 30 33 31 34 32 35
REMARK SMILES IDX 93 36 33 37 92 38 34 39 35 40 36 41 86 42 37 43 91 44 85 45
REMARK SMILES IDX 87 46 38 47 90 48 84 49 83 50 39 52 71 53 51 54 70 55 52 56
REMARK SMILES IDX 55 57 69 58 88 59 53 60 54 61 68 63 89 64 56 65 40 66 41 67
REMARK SMILES IDX 49 68 42 69 48 70 50 71 47 72 43 73 44 74 45 75 46 76 72 77
REMARK SMILES IDX 73 78 81 79 74 80 80 81 82 82 79 83 75 84 76 85 77 86 78 87
REMARK SMILES IDX 57 88 58 89 66 90 59 91 65 92 67 93 64 94 60 95 61 96 62 97
REMARK SMILES IDX 63 98
REMARK H PARENT 21 7 2 15 28 32 87 51 55 62
REMARK Flexibility Score: inf
ROOT
ATOM      1  C   UNL A   1      32.319  29.556  26.999  1.00  0.00     0.002 C 
ENDROOT
BRANCH   1   2
ATOM      2  C   UNL A   1      31.669  28.236  27.393  1.00  0.00     0.021 C 
BRANCH   2   3
ATOM      3  C   UNL A   1      31.987  27.066  26.479  1.00  0.00     0.116 C 
BRANCH   3   4
ATOM      4  N   UNL A   1      32.988  27.329  25.479  1.00  0.00    -0.356 N 
ATOM      5  C   UNL A   1      32.982  27.055  24.150  1.00  0.00     0.231 C 
ATOM      6  O   UNL A   1      33.899  27.556  23.486  1.00  0.00    -0.274 OA
ATOM      7  H   UNL A   1      33.801  27.775  25.809  1.00  0.00     0.163 HD
BRANCH   5   8
ATOM      8  C   UNL A   1      31.952  26.166  23.444  1.00  0.00     0.164 C 
ATOM      9  C   UNL A   1      32.464  24.902  22.724  1.00  0.00     0.225 C 
ATOM     10  C   UNL A   1      32.416  25.338  21.243  1.00  0.00     0.226 C 
ATOM     11  O   UNL A   1      31.497  26.426  21.110  1.00  0.00    -0.374 OA
ATOM     12  C   UNL A   1      31.111  26.887  22.409  1.00  0.00     0.180 C 
BRANCH   9  13
ATOM     13  N   UNL A   1      31.774  23.595  22.993  1.00  0.00    -0.328 N 
ATOM     14  C   UNL A   1      31.057  23.543  24.266  1.00  0.00     0.333 C 
ATOM     15  H   UNL A   1      31.030  23.578  22.297  1.00  0.00     0.348 HD
BRANCH  13  16
ATOM     16  C   UNL A   1      32.526  22.387  22.636  1.00  0.00     0.306 C 
BRANCH  16  17
ATOM     17  C   UNL A   1      33.645  21.991  23.577  1.00  0.00     0.085 A 
ATOM     18  C   UNL A   1      34.752  22.864  23.668  1.00  0.00     0.037 A 
ATOM     19  C   UNL A   1      33.699  20.775  24.295  1.00  0.00     0.278 A 
ATOM     20  C   UNL A   1      35.867  22.535  24.437  1.00  0.00     0.042 A 
ATOM     21  C   UNL A   1      34.830  20.452  25.068  1.00  0.00     0.088 A 
ATOM     22  Cl  UNL A   1      37.206  23.611  24.508  1.00  0.00    -0.084 Cl
ATOM     23  C   UNL A   1      35.911  21.332  25.135  1.00  0.00     0.027 A 
BRANCH  19  24
ATOM     24  N   UNL A   1      32.620  19.774  24.264  1.00  0.00     0.063 N 
ATOM     25  O   UNL A   1      32.622  18.973  23.318  1.00  0.00    -0.258 OA
ATOM     26  O   UNL A   1      31.818  19.744  25.204  1.00  0.00    -0.258 OA
ENDBRANCH  19  24
ENDBRANCH  16  17
ENDBRANCH  13  16
ENDBRANCH   9  13
ENDBRANCH   5   8
ENDBRANCH   3   4
ENDBRANCH   2   3
ENDBRANCH   1   2
BRANCH   1  27
ATOM     27  C   UNL A   1      31.468  30.471  26.112  1.00  0.00     0.002 C 
BRANCH  27  28
ATOM     28  C   UNL A   1      31.383  31.940  26.543  1.00  0.00     0.021 C 
BRANCH  28  29
ATOM     29  C   UNL A   1      32.654  32.515  27.156  1.00  0.00     0.116 C 
BRANCH  29  30
ATOM     30  N   UNL A   1      32.498  33.913  27.515  1.00  0.00    -0.352 N 
ATOM     31  C   UNL A   1      33.104  34.635  28.509  1.00  0.00     0.251 C 
ATOM     32  H   UNL A   1      31.858  34.417  26.961  1.00  0.00     0.163 HD
ATOM     33  O   UNL A   1      32.668  35.742  28.804  1.00  0.00    -0.269 OA
BRANCH  31  34
ATOM     34  C   UNL A   1      34.267  34.070  29.227  1.00  0.00     0.039 A 
ATOM     35  C   UNL A   1      34.042  33.127  30.232  1.00  0.00     0.014 A 
ATOM     36  C   UNL A   1      35.569  34.485  28.930  1.00  0.00     0.014 A 
ATOM     37  C   UNL A   1      35.125  32.564  30.906  1.00  0.00     0.010 A 
ATOM     38  C   UNL A   1      36.652  33.866  29.549  1.00  0.00     0.010 A 
ATOM     39  C   UNL A   1      36.441  32.905  30.550  1.00  0.00    -0.014 A 
BRANCH  39  40
ATOM     40  C   UNL A   1      37.604  32.271  31.223  1.00  0.00     0.031 A 
ATOM     41  C   UNL A   1      38.418  31.230  30.502  1.00  0.00     0.074 A 
ATOM     42  C   UNL A   1      37.895  32.601  32.495  1.00  0.00     0.049 A 
ATOM     43  N   UNL A   1      39.430  30.525  30.937  1.00  0.00    -0.248 NA
ATOM     44  C   UNL A   1      38.021  30.921  29.119  1.00  0.00     0.031 C 
ATOM     45  C   UNL A   1      37.153  33.570  33.306  1.00  0.00     0.029 A 
ATOM     46  N   UNL A   1      38.886  32.158  33.336  1.00  0.00    -0.354 N 
ATOM     47  C   UNL A   1      39.786  29.683  29.888  1.00  0.00     0.074 A 
ATOM     48  C   UNL A   1      38.838  29.922  28.820  1.00  0.00     0.031 C 
ATOM     49  C   UNL A   1      37.731  33.669  34.514  1.00  0.00     0.029 A 
ATOM     50  C   UNL A   1      38.849  32.734  34.585  1.00  0.00     0.049 A 
ATOM     51  H   UNL A   1      39.559  31.492  33.070  1.00  0.00     0.167 HD
ATOM     52  C   UNL A   1      40.819  28.807  29.817  1.00  0.00     0.034 A 
ATOM     53  C   UNL A   1      39.620  32.523  35.671  1.00  0.00     0.034 A 
ATOM     54  C   UNL A   1      41.757  28.590  30.892  1.00  0.00     0.049 A 
ATOM     55  C   UNL A   1      40.745  31.523  35.576  1.00  0.00     0.074 A 
ATOM     56  C   UNL A   1      42.872  27.770  30.908  1.00  0.00     0.029 A 
ATOM     57  N   UNL A   1      41.686  29.186  32.145  1.00  0.00    -0.354 N 
ATOM     58  N   UNL A   1      41.101  30.772  34.558  1.00  0.00    -0.248 NA
ATOM     59  C   UNL A   1      41.580  31.350  36.771  1.00  0.00     0.031 C 
ATOM     60  C   UNL A   1      43.425  27.807  32.193  1.00  0.00     0.029 A 
ATOM     61  C   UNL A   1      42.714  28.721  32.953  1.00  0.00     0.049 A 
ATOM     62  H   UNL A   1      41.006  29.841  32.420  1.00  0.00     0.167 HD
ATOM     63  C   UNL A   1      42.221  30.063  34.983  1.00  0.00     0.074 A 
ATOM     64  C   UNL A   1      42.490  30.489  36.341  1.00  0.00     0.031 C 
ATOM     65  C   UNL A   1      42.963  29.146  34.311  1.00  0.00     0.034 A 
BRANCH  52  66
ATOM     66  C   UNL A   1      40.966  28.001  28.547  1.00  0.00     0.023 A 
ATOM     67  C   UNL A   1      40.594  26.647  28.480  1.00  0.00     0.031 A 
ATOM     68  C   UNL A   1      41.503  28.592  27.389  1.00  0.00     0.131 A 
ATOM     69  C   UNL A   1      40.831  25.911  27.309  1.00  0.00     0.055 A 
ATOM     70  C   UNL A   1      41.656  27.876  26.199  1.00  0.00     0.041 A 
ATOM     71  F   UNL A   1      41.898  29.875  27.395  1.00  0.00    -0.206 F 
ATOM     72  C   UNL A   1      41.333  26.523  26.159  1.00  0.00     0.022 A 
BRANCH  69  73
ATOM     73  S   UNL A   1      40.609  24.111  27.357  1.00  0.00     0.124 S 
ATOM     74  O   UNL A   1      41.355  23.755  28.562  1.00  0.00    -0.237 OA
ATOM     75  O   UNL A   1      39.160  23.973  27.438  1.00  0.00    -0.237 OA
ATOM     76  O   UNL A   1      41.211  23.659  26.104  1.00  0.00    -0.744 OA
ENDBRANCH  69  73
ENDBRANCH  52  66
BRANCH  53  77
ATOM     77  C   UNL A   1      39.351  33.255  36.943  1.00  0.00     0.023 A 
ATOM     78  C   UNL A   1      39.965  34.487  37.216  1.00  0.00     0.031 A 
ATOM     79  C   UNL A   1      38.506  32.708  37.925  1.00  0.00     0.131 A 
ATOM     80  C   UNL A   1      39.763  35.108  38.459  1.00  0.00     0.055 A 
ATOM     81  C   UNL A   1      38.262  33.359  39.135  1.00  0.00     0.041 A 
ATOM     82  F   UNL A   1      37.891  31.532  37.716  1.00  0.00    -0.206 F 
ATOM     83  C   UNL A   1      38.904  34.560  39.414  1.00  0.00     0.022 A 
BRANCH  80  84
ATOM     84  S   UNL A   1      40.719  36.601  38.849  1.00  0.00     0.124 S 
ATOM     85  O   UNL A   1      41.309  36.246  40.135  1.00  0.00    -0.237 OA
ATOM     86  O   UNL A   1      41.638  36.675  37.718  1.00  0.00    -0.237 OA
ATOM     87  O   UNL A   1      39.704  37.651  38.894  1.00  0.00    -0.744 OA
ENDBRANCH  80  84
ENDBRANCH  53  77
BRANCH  65  88
ATOM     88  C   UNL A   1      44.168  28.579  35.025  1.00  0.00     0.023 A 
ATOM     89  C   UNL A   1      44.093  27.404  35.793  1.00  0.00     0.031 A 
ATOM     90  C   UNL A   1      45.410  29.236  34.943  1.00  0.00     0.131 A 
ATOM     91  C   UNL A   1      45.221  26.956  36.497  1.00  0.00     0.055 A 
ATOM     92  C   UNL A   1      46.546  28.746  35.589  1.00  0.00     0.041 A 
ATOM     93  F   UNL A   1      45.541  30.365  34.229  1.00  0.00    -0.206 F 
ATOM     94  C   UNL A   1      46.452  27.607  36.383  1.00  0.00     0.022 A 
BRANCH  91  95
ATOM     95  S   UNL A   1      45.032  25.569  37.651  1.00  0.00     0.124 S 
ATOM     96  O   UNL A   1      43.796  24.950  37.181  1.00  0.00    -0.237 OA
ATOM     97  O   UNL A   1      46.254  24.804  37.424  1.00  0.00    -0.237 OA
ATOM     98  O   UNL A   1      44.943  26.220  38.957  1.00  0.00    -0.744 OA
ENDBRANCH  91  95
ENDBRANCH  65  88
ENDBRANCH  39  40
ENDBRANCH  31  34
ENDBRANCH  29  30
ENDBRANCH  28  29
ENDBRANCH  27  28
ENDBRANCH   1  27
TORSDOF 20
ENDMDL
