MODEL 1
REMARK VINA RESULT:     -11.0      0.000      0.000
REMARK SMILES COCC[C@@H](C)NC(=O)N1Cc2nc[nH]c2C[C@@H]1C(=O)NCCCCCCNC(=O)c1ccc(-c2c3nc(c(-c4cc(S(=O)(=O)[O-])ccc4F)c4ccc([nH]4)c(-c4cc(S(=O)(=O)[O-])ccc4F)c4nc(c(-c5cc(S(=O)(=O)[O-])ccc5F)c5ccc2[nH]5)C=C4)C=C3)cc1
REMARK SMILES IDX 23 1 22 2 21 3 19 4 20 5 18 7 10 8 11 9 12 10 17 11 13 12
REMARK SMILES IDX 16 13 14 14 15 15 8 17 7 18 9 20 5 21 6 22 4 23 3 24 2 25
REMARK SMILES IDX 1 26 24 27 25 28 26 29 27 30 28 31 29 32 30 34 31 35 32 36
REMARK SMILES IDX 93 37 33 38 92 39 34 40 35 41 36 42 86 43 37 44 91 45 85 46
REMARK SMILES IDX 87 47 38 48 90 49 84 50 83 51 39 53 71 54 51 55 70 56 52 57
REMARK SMILES IDX 55 58 69 59 88 60 53 61 54 62 68 64 89 65 56 66 40 67 41 68
REMARK SMILES IDX 49 69 42 70 48 71 50 72 47 73 43 74 44 75 45 76 46 77 72 78
REMARK SMILES IDX 73 79 81 80 74 81 80 82 82 83 79 84 75 85 76 86 77 87 78 88
REMARK SMILES IDX 57 89 58 90 66 91 59 92 65 93 67 94 64 95 60 96 61 97 62 98
REMARK SMILES IDX 63 99
REMARK H PARENT 21 6 15 16 7 19 28 33 87 52 55 63
REMARK Flexibility Score: inf
ROOT
ATOM      1  C   UNL A   1      32.035  27.722  26.891  1.00  0.00     0.021 C 
ENDROOT
BRANCH   1   2
ATOM      2  C   UNL A   1      31.372  26.589  26.086  1.00  0.00     0.116 C 
BRANCH   2   3
ATOM      3  N   UNL A   1      31.356  25.310  26.788  1.00  0.00    -0.354 N 
ATOM      4  C   UNL A   1      32.216  24.239  26.803  1.00  0.00     0.243 C 
ATOM      5  O   UNL A   1      31.855  23.284  27.504  1.00  0.00    -0.273 OA
ATOM      6  H   UNL A   1      30.570  25.190  27.369  1.00  0.00     0.163 HD
BRANCH   4   7
ATOM      7  C   UNL A   1      33.561  24.175  26.002  1.00  0.00     0.182 C 
ATOM      8  N   UNL A   1      33.511  23.905  24.522  1.00  0.00    -0.306 N 
ATOM      9  C   UNL A   1      34.800  23.875  23.797  1.00  0.00     0.180 C 
ATOM     10  C   UNL A   1      35.823  23.144  24.600  1.00  0.00     0.081 A 
ATOM     11  C   UNL A   1      34.473  23.140  26.749  1.00  0.00     0.091 C 
ATOM     12  N   UNL A   1      37.026  22.679  24.134  1.00  0.00    -0.240 NA
ATOM     13  C   UNL A   1      35.676  22.842  25.934  1.00  0.00     0.042 A 
ATOM     14  C   UNL A   1      37.575  22.064  25.159  1.00  0.00     0.197 A 
ATOM     15  N   UNL A   1      36.796  22.150  26.284  1.00  0.00    -0.348 N 
ATOM     16  H   UNL A   1      37.006  21.783  27.173  1.00  0.00     0.167 HD
BRANCH   8  17
ATOM     17  C   UNL A   1      32.573  23.082  23.943  1.00  0.00     0.318 C 
ATOM     18  N   UNL A   1      31.813  23.671  22.974  1.00  0.00    -0.335 N 
ATOM     19  H   UNL A   1      31.489  23.084  22.254  1.00  0.00     0.165 HD
ATOM     20  O   UNL A   1      32.561  21.860  24.064  1.00  0.00    -0.249 OA
BRANCH  18  21
ATOM     21  C   UNL A   1      31.433  25.072  22.892  1.00  0.00     0.083 C 
ATOM     22  C   UNL A   1      29.915  25.096  23.130  1.00  0.00     0.031 C 
BRANCH  21  23
ATOM     23  C   UNL A   1      31.898  25.757  21.588  1.00  0.00     0.053 C 
BRANCH  23  24
ATOM     24  C   UNL A   1      33.207  26.581  21.688  1.00  0.00     0.162 C 
BRANCH  24  25
ATOM     25  O   UNL A   1      33.353  27.198  22.964  1.00  0.00    -0.385 OA
ATOM     26  C   UNL A   1      33.335  28.618  22.940  1.00  0.00     0.194 C 
ENDBRANCH  24  25
ENDBRANCH  23  24
ENDBRANCH  21  23
ENDBRANCH  18  21
ENDBRANCH   8  17
ENDBRANCH   4   7
ENDBRANCH   2   3
ENDBRANCH   1   2
BRANCH   1  27
ATOM     27  C   UNL A   1      33.555  27.875  26.849  1.00  0.00     0.002 C 
BRANCH  27  28
ATOM     28  C   UNL A   1      34.039  29.273  26.442  1.00  0.00     0.002 C 
BRANCH  28  29
ATOM     29  C   UNL A   1      33.731  30.428  27.416  1.00  0.00     0.021 C 
BRANCH  29  30
ATOM     30  C   UNL A   1      34.825  31.487  27.538  1.00  0.00     0.116 C 
BRANCH  30  31
ATOM     31  N   UNL A   1      34.766  32.199  28.805  1.00  0.00    -0.352 N 
ATOM     32  C   UNL A   1      35.511  31.998  29.945  1.00  0.00     0.251 C 
ATOM     33  H   UNL A   1      34.102  32.925  28.854  1.00  0.00     0.163 HD
ATOM     34  O   UNL A   1      35.121  32.482  31.011  1.00  0.00    -0.269 OA
BRANCH  32  35
ATOM     35  C   UNL A   1      36.764  31.215  29.896  1.00  0.00     0.039 A 
ATOM     36  C   UNL A   1      37.994  31.868  29.760  1.00  0.00     0.014 A 
ATOM     37  C   UNL A   1      36.713  29.820  29.934  1.00  0.00     0.014 A 
ATOM     38  C   UNL A   1      39.165  31.115  29.709  1.00  0.00     0.010 A 
ATOM     39  C   UNL A   1      37.875  29.079  29.970  1.00  0.00     0.010 A 
ATOM     40  C   UNL A   1      39.101  29.717  29.822  1.00  0.00    -0.014 A 
BRANCH  40  41
ATOM     41  C   UNL A   1      40.328  28.933  29.943  1.00  0.00     0.031 A 
ATOM     42  C   UNL A   1      40.758  28.692  31.348  1.00  0.00     0.074 A 
ATOM     43  C   UNL A   1      40.913  28.278  28.915  1.00  0.00     0.049 A 
ATOM     44  N   UNL A   1      41.814  29.137  31.942  1.00  0.00    -0.248 NA
ATOM     45  C   UNL A   1      39.823  28.000  32.252  1.00  0.00     0.031 C 
ATOM     46  C   UNL A   1      40.441  28.154  27.533  1.00  0.00     0.029 A 
ATOM     47  N   UNL A   1      42.013  27.476  28.924  1.00  0.00    -0.354 N 
ATOM     48  C   UNL A   1      41.804  28.587  33.221  1.00  0.00     0.074 A 
ATOM     49  C   UNL A   1      40.473  28.076  33.415  1.00  0.00     0.031 C 
ATOM     50  C   UNL A   1      41.102  27.147  26.919  1.00  0.00     0.029 A 
ATOM     51  C   UNL A   1      42.147  26.659  27.803  1.00  0.00     0.049 A 
ATOM     52  H   UNL A   1      42.662  27.472  29.665  1.00  0.00     0.167 HD
ATOM     53  C   UNL A   1      42.960  28.396  33.916  1.00  0.00     0.034 A 
ATOM     54  C   UNL A   1      43.022  25.629  27.632  1.00  0.00     0.034 A 
ATOM     55  C   UNL A   1      44.040  29.168  33.340  1.00  0.00     0.049 A 
ATOM     56  C   UNL A   1      44.139  25.859  28.583  1.00  0.00     0.074 A 
ATOM     57  C   UNL A   1      44.225  30.513  33.074  1.00  0.00     0.029 A 
ATOM     58  N   UNL A   1      44.972  28.514  32.565  1.00  0.00    -0.354 N 
ATOM     59  N   UNL A   1      44.947  26.882  28.502  1.00  0.00    -0.248 NA
ATOM     60  C   UNL A   1      44.044  25.252  29.903  1.00  0.00     0.031 C 
ATOM     61  C   UNL A   1      44.843  30.543  31.788  1.00  0.00     0.029 A 
ATOM     62  C   UNL A   1      45.093  29.227  31.396  1.00  0.00     0.049 A 
ATOM     63  H   UNL A   1      45.459  27.691  32.803  1.00  0.00     0.167 HD
ATOM     64  C   UNL A   1      45.107  27.318  29.808  1.00  0.00     0.074 A 
ATOM     65  C   UNL A   1      44.599  26.222  30.636  1.00  0.00     0.031 C 
ATOM     66  C   UNL A   1      45.365  28.628  30.101  1.00  0.00     0.034 A 
BRANCH  53  67
ATOM     67  C   UNL A   1      43.218  27.253  34.877  1.00  0.00     0.023 A 
ATOM     68  C   UNL A   1      44.019  26.191  34.409  1.00  0.00     0.031 A 
ATOM     69  C   UNL A   1      42.513  27.002  36.075  1.00  0.00     0.131 A 
ATOM     70  C   UNL A   1      43.996  24.934  35.038  1.00  0.00     0.055 A 
ATOM     71  C   UNL A   1      42.551  25.771  36.737  1.00  0.00     0.041 A 
ATOM     72  F   UNL A   1      41.676  27.888  36.626  1.00  0.00    -0.206 F 
ATOM     73  C   UNL A   1      43.266  24.716  36.202  1.00  0.00     0.022 A 
BRANCH  70  74
ATOM     74  S   UNL A   1      44.788  23.541  34.195  1.00  0.00     0.124 S 
ATOM     75  O   UNL A   1      45.524  24.222  33.136  1.00  0.00    -0.237 OA
ATOM     76  O   UNL A   1      45.589  22.958  35.265  1.00  0.00    -0.237 OA
ATOM     77  O   UNL A   1      43.657  22.729  33.748  1.00  0.00    -0.744 OA
ENDBRANCH  70  74
ENDBRANCH  53  67
BRANCH  54  78
ATOM     78  C   UNL A   1      42.756  24.320  26.958  1.00  0.00     0.023 A 
ATOM     79  C   UNL A   1      43.674  23.695  26.083  1.00  0.00     0.031 A 
ATOM     80  C   UNL A   1      41.653  23.537  27.371  1.00  0.00     0.131 A 
ATOM     81  C   UNL A   1      43.464  22.356  25.660  1.00  0.00     0.055 A 
ATOM     82  C   UNL A   1      41.451  22.221  26.950  1.00  0.00     0.041 A 
ATOM     83  F   UNL A   1      40.771  23.999  28.270  1.00  0.00    -0.206 F 
ATOM     84  C   UNL A   1      42.362  21.620  26.099  1.00  0.00     0.022 A 
BRANCH  81  85
ATOM     85  S   UNL A   1      44.678  21.509  24.590  1.00  0.00     0.124 S 
ATOM     86  O   UNL A   1      44.632  22.312  23.374  1.00  0.00    -0.237 OA
ATOM     87  O   UNL A   1      45.902  21.591  25.377  1.00  0.00    -0.237 OA
ATOM     88  O   UNL A   1      44.129  20.158  24.453  1.00  0.00    -0.744 OA
ENDBRANCH  81  85
ENDBRANCH  54  78
BRANCH  66  89
ATOM     89  C   UNL A   1      45.756  29.575  28.980  1.00  0.00     0.023 A 
ATOM     90  C   UNL A   1      44.949  30.619  28.472  1.00  0.00     0.031 A 
ATOM     91  C   UNL A   1      47.079  29.487  28.505  1.00  0.00     0.131 A 
ATOM     92  C   UNL A   1      45.476  31.518  27.521  1.00  0.00     0.055 A 
ATOM     93  C   UNL A   1      47.602  30.393  27.584  1.00  0.00     0.041 A 
ATOM     94  F   UNL A   1      47.905  28.534  28.964  1.00  0.00    -0.206 F 
ATOM     95  C   UNL A   1      46.800  31.410  27.085  1.00  0.00     0.022 A 
BRANCH  92  96
ATOM     96  S   UNL A   1      44.443  32.845  26.813  1.00  0.00     0.124 S 
ATOM     97  O   UNL A   1      43.800  32.205  25.671  1.00  0.00    -0.237 OA
ATOM     98  O   UNL A   1      43.568  33.195  27.928  1.00  0.00    -0.237 OA
ATOM     99  O   UNL A   1      45.417  33.881  26.459  1.00  0.00    -0.744 OA
ENDBRANCH  92  96
ENDBRANCH  66  89
ENDBRANCH  40  41
ENDBRANCH  32  35
ENDBRANCH  30  31
ENDBRANCH  29  30
ENDBRANCH  28  29
ENDBRANCH  27  28
ENDBRANCH   1  27
TORSDOF 21
ENDMDL
MODEL 2
REMARK VINA RESULT:     -10.9      3.665      7.509
REMARK SMILES COCC[C@@H](C)NC(=O)N1Cc2nc[nH]c2C[C@@H]1C(=O)NCCCCCCNC(=O)c1ccc(-c2c3nc(c(-c4cc(S(=O)(=O)[O-])ccc4F)c4ccc([nH]4)c(-c4cc(S(=O)(=O)[O-])ccc4F)c4nc(c(-c5cc(S(=O)(=O)[O-])ccc5F)c5ccc2[nH]5)C=C4)C=C3)cc1
REMARK SMILES IDX 23 1 22 2 21 3 19 4 20 5 18 7 10 8 11 9 12 10 17 11 13 12
REMARK SMILES IDX 16 13 14 14 15 15 8 17 7 18 9 20 5 21 6 22 4 23 3 24 2 25
REMARK SMILES IDX 1 26 24 27 25 28 26 29 27 30 28 31 29 32 30 34 31 35 32 36
REMARK SMILES IDX 93 37 33 38 92 39 34 40 35 41 36 42 86 43 37 44 91 45 85 46
REMARK SMILES IDX 87 47 38 48 90 49 84 50 83 51 39 53 71 54 51 55 70 56 52 57
REMARK SMILES IDX 55 58 69 59 88 60 53 61 54 62 68 64 89 65 56 66 40 67 41 68
REMARK SMILES IDX 49 69 42 70 48 71 50 72 47 73 43 74 44 75 45 76 46 77 72 78
REMARK SMILES IDX 73 79 81 80 74 81 80 82 82 83 79 84 75 85 76 86 77 87 78 88
REMARK SMILES IDX 57 89 58 90 66 91 59 92 65 93 67 94 64 95 60 96 61 97 62 98
REMARK SMILES IDX 63 99
REMARK H PARENT 21 6 15 16 7 19 28 33 87 52 55 63
REMARK Flexibility Score: inf
ROOT
ATOM      1  C   UNL A   1      34.532  29.421  26.893  1.00  0.00     0.021 C 
ENDROOT
BRANCH   1   2
ATOM      2  C   UNL A   1      33.877  28.383  25.963  1.00  0.00     0.116 C 
BRANCH   2   3
ATOM      3  N   UNL A   1      34.095  28.653  24.545  1.00  0.00    -0.354 N 
ATOM      4  C   UNL A   1      33.747  27.980  23.399  1.00  0.00     0.243 C 
ATOM      5  O   UNL A   1      34.140  28.498  22.346  1.00  0.00    -0.273 OA
ATOM      6  H   UNL A   1      34.590  29.487  24.376  1.00  0.00     0.163 HD
BRANCH   4   7
ATOM      7  C   UNL A   1      32.924  26.647  23.373  1.00  0.00     0.182 C 
ATOM      8  N   UNL A   1      31.436  26.709  23.591  1.00  0.00    -0.306 N 
ATOM      9  C   UNL A   1      30.691  25.433  23.536  1.00  0.00     0.180 C 
ATOM     10  C   UNL A   1      31.451  24.366  24.251  1.00  0.00     0.081 A 
ATOM     11  C   UNL A   1      33.618  25.678  24.394  1.00  0.00     0.091 C 
ATOM     12  N   UNL A   1      30.949  23.151  24.644  1.00  0.00    -0.240 NA
ATOM     13  C   UNL A   1      32.774  24.478  24.608  1.00  0.00     0.042 A 
ATOM     14  C   UNL A   1      31.942  22.559  25.272  1.00  0.00     0.197 A 
ATOM     15  N   UNL A   1      33.081  23.322  25.262  1.00  0.00    -0.348 N 
ATOM     16  H   UNL A   1      33.952  23.082  25.652  1.00  0.00     0.167 HD
BRANCH   8  17
ATOM     17  C   UNL A   1      30.841  27.620  24.432  1.00  0.00     0.318 C 
ATOM     18  N   UNL A   1      29.846  28.362  23.863  1.00  0.00    -0.335 N 
ATOM     19  H   UNL A   1      29.123  28.659  24.461  1.00  0.00     0.165 HD
ATOM     20  O   UNL A   1      30.973  27.618  25.653  1.00  0.00    -0.249 OA
BRANCH  18  21
ATOM     21  C   UNL A   1      29.741  28.760  22.469  1.00  0.00     0.083 C 
ATOM     22  C   UNL A   1      30.882  29.766  22.245  1.00  0.00     0.031 C 
BRANCH  21  23
ATOM     23  C   UNL A   1      28.337  29.275  22.083  1.00  0.00     0.053 C 
BRANCH  23  24
ATOM     24  C   UNL A   1      27.273  29.241  23.211  1.00  0.00     0.162 C 
BRANCH  24  25
ATOM     25  O   UNL A   1      27.022  30.537  23.746  1.00  0.00    -0.385 OA
ATOM     26  C   UNL A   1      27.662  31.599  23.051  1.00  0.00     0.194 C 
ENDBRANCH  24  25
ENDBRANCH  23  24
ENDBRANCH  21  23
ENDBRANCH  18  21
ENDBRANCH   8  17
ENDBRANCH   4   7
ENDBRANCH   2   3
ENDBRANCH   1   2
BRANCH   1  27
ATOM     27  C   UNL A   1      33.679  30.553  27.464  1.00  0.00     0.002 C 
BRANCH  27  28
ATOM     28  C   UNL A   1      32.263  30.634  26.878  1.00  0.00     0.002 C 
BRANCH  28  29
ATOM     29  C   UNL A   1      31.506  31.963  27.069  1.00  0.00     0.021 C 
BRANCH  29  30
ATOM     30  C   UNL A   1      32.296  33.221  26.715  1.00  0.00     0.116 C 
BRANCH  30  31
ATOM     31  N   UNL A   1      32.172  34.257  27.729  1.00  0.00    -0.352 N 
ATOM     32  C   UNL A   1      32.933  34.456  28.858  1.00  0.00     0.251 C 
ATOM     33  H   UNL A   1      31.443  34.904  27.589  1.00  0.00     0.163 HD
ATOM     34  O   UNL A   1      32.501  35.186  29.754  1.00  0.00    -0.269 OA
BRANCH  32  35
ATOM     35  C   UNL A   1      34.254  33.806  28.999  1.00  0.00     0.039 A 
ATOM     36  C   UNL A   1      35.204  33.921  27.978  1.00  0.00     0.014 A 
ATOM     37  C   UNL A   1      34.532  33.035  30.130  1.00  0.00     0.014 A 
ATOM     38  C   UNL A   1      36.441  33.297  28.124  1.00  0.00     0.010 A 
ATOM     39  C   UNL A   1      35.785  32.490  30.314  1.00  0.00     0.010 A 
ATOM     40  C   UNL A   1      36.731  32.586  29.299  1.00  0.00    -0.014 A 
BRANCH  40  41
ATOM     41  C   UNL A   1      38.080  32.076  29.536  1.00  0.00     0.031 A 
ATOM     42  C   UNL A   1      38.260  30.646  29.164  1.00  0.00     0.074 A 
ATOM     43  C   UNL A   1      39.141  32.855  29.843  1.00  0.00     0.049 A 
ATOM     44  N   UNL A   1      38.501  29.647  29.945  1.00  0.00    -0.248 NA
ATOM     45  C   UNL A   1      37.990  30.250  27.771  1.00  0.00     0.031 C 
ATOM     46  C   UNL A   1      39.196  34.317  29.935  1.00  0.00     0.029 A 
ATOM     47  N   UNL A   1      40.443  32.498  30.023  1.00  0.00    -0.354 N 
ATOM     48  C   UNL A   1      38.649  28.534  29.121  1.00  0.00     0.074 A 
ATOM     49  C   UNL A   1      38.127  28.925  27.839  1.00  0.00     0.031 C 
ATOM     50  C   UNL A   1      40.487  34.722  29.911  1.00  0.00     0.029 A 
ATOM     51  C   UNL A   1      41.350  33.554  29.958  1.00  0.00     0.049 A 
ATOM     52  H   UNL A   1      40.720  31.567  30.187  1.00  0.00     0.167 HD
ATOM     53  C   UNL A   1      39.404  27.467  29.508  1.00  0.00     0.034 A 
ATOM     54  C   UNL A   1      42.709  33.473  29.903  1.00  0.00     0.034 A 
ATOM     55  C   UNL A   1      39.646  27.497  30.934  1.00  0.00     0.049 A 
ATOM     56  C   UNL A   1      43.077  32.144  30.455  1.00  0.00     0.074 A 
ATOM     57  C   UNL A   1      38.826  27.535  32.048  1.00  0.00     0.029 A 
ATOM     58  N   UNL A   1      40.883  27.909  31.379  1.00  0.00    -0.354 N 
ATOM     59  N   UNL A   1      42.862  31.802  31.698  1.00  0.00    -0.248 NA
ATOM     60  C   UNL A   1      43.205  31.033  29.524  1.00  0.00     0.031 C 
ATOM     61  C   UNL A   1      39.455  28.469  32.925  1.00  0.00     0.029 A 
ATOM     62  C   UNL A   1      40.664  28.862  32.346  1.00  0.00     0.049 A 
ATOM     63  H   UNL A   1      41.758  27.583  31.065  1.00  0.00     0.167 HD
ATOM     64  C   UNL A   1      42.389  30.500  31.636  1.00  0.00     0.074 A 
ATOM     65  C   UNL A   1      42.707  30.049  30.279  1.00  0.00     0.031 C 
ATOM     66  C   UNL A   1      41.533  30.001  32.578  1.00  0.00     0.034 A 
BRANCH  53  67
ATOM     67  C   UNL A   1      40.225  26.600  28.575  1.00  0.00     0.023 A 
ATOM     68  C   UNL A   1      41.328  27.207  27.942  1.00  0.00     0.031 A 
ATOM     69  C   UNL A   1      39.839  25.345  28.055  1.00  0.00     0.131 A 
ATOM     70  C   UNL A   1      41.903  26.643  26.789  1.00  0.00     0.055 A 
ATOM     71  C   UNL A   1      40.461  24.753  26.951  1.00  0.00     0.041 A 
ATOM     72  F   UNL A   1      38.785  24.660  28.514  1.00  0.00    -0.206 F 
ATOM     73  C   UNL A   1      41.476  25.418  26.287  1.00  0.00     0.022 A 
BRANCH  70  74
ATOM     74  S   UNL A   1      43.088  27.640  25.849  1.00  0.00     0.124 S 
ATOM     75  O   UNL A   1      42.278  28.057  24.710  1.00  0.00    -0.237 OA
ATOM     76  O   UNL A   1      43.433  28.681  26.811  1.00  0.00    -0.237 OA
ATOM     77  O   UNL A   1      44.158  26.693  25.544  1.00  0.00    -0.744 OA
ENDBRANCH  70  74
ENDBRANCH  53  67
BRANCH  54  78
ATOM     78  C   UNL A   1      43.632  34.323  29.090  1.00  0.00     0.023 A 
ATOM     79  C   UNL A   1      44.305  33.858  27.937  1.00  0.00     0.031 A 
ATOM     80  C   UNL A   1      43.676  35.718  29.320  1.00  0.00     0.131 A 
ATOM     81  C   UNL A   1      44.980  34.770  27.084  1.00  0.00     0.055 A 
ATOM     82  C   UNL A   1      44.343  36.610  28.479  1.00  0.00     0.041 A 
ATOM     83  F   UNL A   1      42.996  36.277  30.333  1.00  0.00    -0.206 F 
ATOM     84  C   UNL A   1      44.992  36.141  27.349  1.00  0.00     0.022 A 
BRANCH  81  85
ATOM     85  S   UNL A   1      45.792  34.197  25.552  1.00  0.00     0.124 S 
ATOM     86  O   UNL A   1      44.780  34.481  24.540  1.00  0.00    -0.237 OA
ATOM     87  O   UNL A   1      46.999  35.013  25.511  1.00  0.00    -0.237 OA
ATOM     88  O   UNL A   1      46.025  32.773  25.801  1.00  0.00    -0.744 OA
ENDBRANCH  81  85
ENDBRANCH  54  78
BRANCH  66  89
ATOM     89  C   UNL A   1      41.308  30.782  33.861  1.00  0.00     0.023 A 
ATOM     90  C   UNL A   1      40.380  31.836  34.025  1.00  0.00     0.031 A 
ATOM     91  C   UNL A   1      41.982  30.327  35.010  1.00  0.00     0.131 A 
ATOM     92  C   UNL A   1      40.165  32.394  35.303  1.00  0.00     0.055 A 
ATOM     93  C   UNL A   1      41.749  30.864  36.275  1.00  0.00     0.041 A 
ATOM     94  F   UNL A   1      42.860  29.313  34.928  1.00  0.00    -0.206 F 
ATOM     95  C   UNL A   1      40.842  31.904  36.425  1.00  0.00     0.022 A 
BRANCH  92  96
ATOM     96  S   UNL A   1      39.009  33.786  35.536  1.00  0.00     0.124 S 
ATOM     97  O   UNL A   1      39.708  34.658  36.473  1.00  0.00    -0.237 OA
ATOM     98  O   UNL A   1      38.853  34.300  34.178  1.00  0.00    -0.237 OA
ATOM     99  O   UNL A   1      37.811  33.145  36.082  1.00  0.00    -0.744 OA
ENDBRANCH  92  96
ENDBRANCH  66  89
ENDBRANCH  40  41
ENDBRANCH  32  35
ENDBRANCH  30  31
ENDBRANCH  29  30
ENDBRANCH  28  29
ENDBRANCH  27  28
ENDBRANCH   1  27
TORSDOF 21
ENDMDL
MODEL 3
REMARK VINA RESULT:     -10.6      1.916      2.172
REMARK SMILES COCC[C@@H](C)NC(=O)N1Cc2nc[nH]c2C[C@@H]1C(=O)NCCCCCCNC(=O)c1ccc(-c2c3nc(c(-c4cc(S(=O)(=O)[O-])ccc4F)c4ccc([nH]4)c(-c4cc(S(=O)(=O)[O-])ccc4F)c4nc(c(-c5cc(S(=O)(=O)[O-])ccc5F)c5ccc2[nH]5)C=C4)C=C3)cc1
REMARK SMILES IDX 23 1 22 2 21 3 19 4 20 5 18 7 10 8 11 9 12 10 17 11 13 12
REMARK SMILES IDX 16 13 14 14 15 15 8 17 7 18 9 20 5 21 6 22 4 23 3 24 2 25
REMARK SMILES IDX 1 26 24 27 25 28 26 29 27 30 28 31 29 32 30 34 31 35 32 36
REMARK SMILES IDX 93 37 33 38 92 39 34 40 35 41 36 42 86 43 37 44 91 45 85 46
REMARK SMILES IDX 87 47 38 48 90 49 84 50 83 51 39 53 71 54 51 55 70 56 52 57
REMARK SMILES IDX 55 58 69 59 88 60 53 61 54 62 68 64 89 65 56 66 40 67 41 68
REMARK SMILES IDX 49 69 42 70 48 71 50 72 47 73 43 74 44 75 45 76 46 77 72 78
REMARK SMILES IDX 73 79 81 80 74 81 80 82 82 83 79 84 75 85 76 86 77 87 78 88
REMARK SMILES IDX 57 89 58 90 66 91 59 92 65 93 67 94 64 95 60 96 61 97 62 98
REMARK SMILES IDX 63 99
REMARK H PARENT 21 6 15 16 7 19 28 33 87 52 55 63
REMARK Flexibility Score: inf
ROOT
ATOM      1  C   UNL A   1      31.151  27.787  26.706  1.00  0.00     0.021 C 
ENDROOT
BRANCH   1   2
ATOM      2  C   UNL A   1      31.996  26.648  26.107  1.00  0.00     0.116 C 
BRANCH   2   3
ATOM      3  N   UNL A   1      31.723  25.345  26.706  1.00  0.00    -0.354 N 
ATOM      4  C   UNL A   1      32.363  24.131  26.641  1.00  0.00     0.243 C 
ATOM      5  O   UNL A   1      31.813  23.213  27.263  1.00  0.00    -0.273 OA
ATOM      6  H   UNL A   1      30.918  25.334  27.272  1.00  0.00     0.163 HD
BRANCH   4   7
ATOM      7  C   UNL A   1      33.686  23.873  25.844  1.00  0.00     0.182 C 
ATOM      8  N   UNL A   1      33.600  23.576  24.371  1.00  0.00    -0.306 N 
ATOM      9  C   UNL A   1      34.872  23.361  23.648  1.00  0.00     0.180 C 
ATOM     10  C   UNL A   1      35.791  22.520  24.470  1.00  0.00     0.081 A 
ATOM     11  C   UNL A   1      34.456  22.744  26.616  1.00  0.00     0.091 C 
ATOM     12  N   UNL A   1      36.922  21.890  24.017  1.00  0.00    -0.240 NA
ATOM     13  C   UNL A   1      35.607  22.271  25.810  1.00  0.00     0.042 A 
ATOM     14  C   UNL A   1      37.387  21.232  25.057  1.00  0.00     0.197 A 
ATOM     15  N   UNL A   1      36.627  21.446  26.178  1.00  0.00    -0.348 N 
ATOM     16  H   UNL A   1      36.788  21.075  27.076  1.00  0.00     0.167 HD
BRANCH   8  17
ATOM     17  C   UNL A   1      32.561  22.871  23.809  1.00  0.00     0.318 C 
ATOM     18  N   UNL A   1      31.757  23.598  22.978  1.00  0.00    -0.335 N 
ATOM     19  H   UNL A   1      31.331  23.106  22.240  1.00  0.00     0.165 HD
ATOM     20  O   UNL A   1      32.478  21.646  23.815  1.00  0.00    -0.249 OA
BRANCH  18  21
ATOM     21  C   UNL A   1      31.465  25.019  23.066  1.00  0.00     0.083 C 
ATOM     22  C   UNL A   1      29.939  25.112  23.222  1.00  0.00     0.031 C 
BRANCH  21  23
ATOM     23  C   UNL A   1      32.049  25.837  21.894  1.00  0.00     0.053 C 
BRANCH  23  24
ATOM     24  C   UNL A   1      33.512  26.322  22.072  1.00  0.00     0.162 C 
BRANCH  24  25
ATOM     25  O   UNL A   1      33.689  27.660  21.615  1.00  0.00    -0.385 OA
ATOM     26  C   UNL A   1      34.055  28.587  22.627  1.00  0.00     0.194 C 
ENDBRANCH  24  25
ENDBRANCH  23  24
ENDBRANCH  21  23
ENDBRANCH  18  21
ENDBRANCH   8  17
ENDBRANCH   4   7
ENDBRANCH   2   3
ENDBRANCH   1   2
BRANCH   1  27
ATOM     27  C   UNL A   1      31.844  28.885  27.513  1.00  0.00     0.002 C 
BRANCH  27  28
ATOM     28  C   UNL A   1      31.735  30.286  26.896  1.00  0.00     0.002 C 
BRANCH  28  29
ATOM     29  C   UNL A   1      33.057  30.999  26.550  1.00  0.00     0.021 C 
BRANCH  29  30
ATOM     30  C   UNL A   1      34.198  30.774  27.539  1.00  0.00     0.116 C 
BRANCH  30  31
ATOM     31  N   UNL A   1      34.145  31.695  28.664  1.00  0.00    -0.352 N 
ATOM     32  C   UNL A   1      34.995  31.792  29.742  1.00  0.00     0.251 C 
ATOM     33  H   UNL A   1      33.399  32.337  28.653  1.00  0.00     0.163 HD
ATOM     34  O   UNL A   1      34.628  32.414  30.742  1.00  0.00    -0.269 OA
BRANCH  32  35
ATOM     35  C   UNL A   1      36.331  31.160  29.706  1.00  0.00     0.039 A 
ATOM     36  C   UNL A   1      37.476  31.950  29.558  1.00  0.00     0.014 A 
ATOM     37  C   UNL A   1      36.444  29.769  29.768  1.00  0.00     0.014 A 
ATOM     38  C   UNL A   1      38.727  31.338  29.519  1.00  0.00     0.010 A 
ATOM     39  C   UNL A   1      37.685  29.170  29.816  1.00  0.00     0.010 A 
ATOM     40  C   UNL A   1      38.828  29.945  29.656  1.00  0.00    -0.014 A 
BRANCH  40  41
ATOM     41  C   UNL A   1      40.138  29.312  29.790  1.00  0.00     0.031 A 
ATOM     42  C   UNL A   1      40.572  29.108  31.200  1.00  0.00     0.074 A 
ATOM     43  C   UNL A   1      40.813  28.746  28.765  1.00  0.00     0.049 A 
ATOM     44  N   UNL A   1      41.557  29.668  31.815  1.00  0.00    -0.248 NA
ATOM     45  C   UNL A   1      39.713  28.296  32.080  1.00  0.00     0.031 C 
ATOM     46  C   UNL A   1      40.381  28.583  27.374  1.00  0.00     0.029 A 
ATOM     47  N   UNL A   1      42.002  28.081  28.785  1.00  0.00    -0.354 N 
ATOM     48  C   UNL A   1      41.593  29.105  33.089  1.00  0.00     0.074 A 
ATOM     49  C   UNL A   1      40.330  28.436  33.255  1.00  0.00     0.031 C 
ATOM     50  C   UNL A   1      41.168  27.670  26.760  1.00  0.00     0.029 A 
ATOM     51  C   UNL A   1      42.250  27.300  27.658  1.00  0.00     0.049 A 
ATOM     52  H   UNL A   1      42.635  28.146  29.536  1.00  0.00     0.167 HD
ATOM     53  C   UNL A   1      42.753  29.045  33.801  1.00  0.00     0.034 A 
ATOM     54  C   UNL A   1      43.245  26.384  27.490  1.00  0.00     0.034 A 
ATOM     55  C   UNL A   1      43.741  29.949  33.252  1.00  0.00     0.049 A 
ATOM     56  C   UNL A   1      44.311  26.735  28.462  1.00  0.00     0.074 A 
ATOM     57  C   UNL A   1      43.767  31.310  33.003  1.00  0.00     0.029 A 
ATOM     58  N   UNL A   1      44.757  29.421  32.485  1.00  0.00    -0.354 N 
ATOM     59  N   UNL A   1      44.992  27.849  28.406  1.00  0.00    -0.248 NA
ATOM     60  C   UNL A   1      44.269  26.104  29.774  1.00  0.00     0.031 C 
ATOM     61  C   UNL A   1      44.397  31.430  31.728  1.00  0.00     0.029 A 
ATOM     62  C   UNL A   1      44.810  30.158  31.326  1.00  0.00     0.049 A 
ATOM     63  H   UNL A   1      45.336  28.660  32.723  1.00  0.00     0.167 HD
ATOM     64  C   UNL A   1      45.078  28.284  29.719  1.00  0.00     0.074 A 
ATOM     65  C   UNL A   1      44.693  27.125  30.526  1.00  0.00     0.031 C 
ATOM     66  C   UNL A   1      45.172  29.612  30.030  1.00  0.00     0.034 A 
BRANCH  53  67
ATOM     67  C   UNL A   1      43.132  27.930  34.754  1.00  0.00     0.023 A 
ATOM     68  C   UNL A   1      43.558  28.306  36.043  1.00  0.00     0.031 A 
ATOM     69  C   UNL A   1      43.378  26.585  34.399  1.00  0.00     0.131 A 
ATOM     70  C   UNL A   1      44.294  27.421  36.851  1.00  0.00     0.055 A 
ATOM     71  C   UNL A   1      44.048  25.687  35.236  1.00  0.00     0.041 A 
ATOM     72  F   UNL A   1      43.077  26.082  33.197  1.00  0.00    -0.206 F 
ATOM     73  C   UNL A   1      44.543  26.111  36.455  1.00  0.00     0.022 A 
BRANCH  70  74
ATOM     74  S   UNL A   1      45.083  28.079  38.342  1.00  0.00     0.124 S 
ATOM     75  O   UNL A   1      46.496  27.948  38.006  1.00  0.00    -0.237 OA
ATOM     76  O   UNL A   1      44.554  29.438  38.387  1.00  0.00    -0.237 OA
ATOM     77  O   UNL A   1      44.605  27.189  39.398  1.00  0.00    -0.744 OA
ENDBRANCH  70  74
ENDBRANCH  53  67
BRANCH  54  78
ATOM     78  C   UNL A   1      43.149  25.062  26.798  1.00  0.00     0.023 A 
ATOM     79  C   UNL A   1      44.148  24.563  25.931  1.00  0.00     0.031 A 
ATOM     80  C   UNL A   1      42.143  24.146  27.186  1.00  0.00     0.131 A 
ATOM     81  C   UNL A   1      44.108  23.214  25.490  1.00  0.00     0.055 A 
ATOM     82  C   UNL A   1      42.108  22.821  26.748  1.00  0.00     0.041 A 
ATOM     83  F   UNL A   1      41.199  24.486  28.076  1.00  0.00    -0.206 F 
ATOM     84  C   UNL A   1      43.097  22.345  25.904  1.00  0.00     0.022 A 
BRANCH  81  85
ATOM     85  S   UNL A   1      45.429  22.534  24.430  1.00  0.00     0.124 S 
ATOM     86  O   UNL A   1      44.681  21.695  23.501  1.00  0.00    -0.237 OA
ATOM     87  O   UNL A   1      46.037  23.737  23.874  1.00  0.00    -0.237 OA
ATOM     88  O   UNL A   1      46.278  21.800  25.369  1.00  0.00    -0.744 OA
ENDBRANCH  81  85
ENDBRANCH  54  78
BRANCH  66  89
ATOM     89  C   UNL A   1      45.464  30.613  28.926  1.00  0.00     0.023 A 
ATOM     90  C   UNL A   1      46.753  31.032  28.523  1.00  0.00     0.031 A 
ATOM     91  C   UNL A   1      44.369  31.053  28.159  1.00  0.00     0.131 A 
ATOM     92  C   UNL A   1      46.902  31.866  27.393  1.00  0.00     0.055 A 
ATOM     93  C   UNL A   1      44.523  31.856  27.030  1.00  0.00     0.041 A 
ATOM     94  F   UNL A   1      43.120  30.673  28.474  1.00  0.00    -0.206 F 
ATOM     95  C   UNL A   1      45.791  32.269  26.645  1.00  0.00     0.022 A 
BRANCH  92  96
ATOM     96  S   UNL A   1      48.548  32.460  26.878  1.00  0.00     0.124 S 
ATOM     97  O   UNL A   1      49.266  31.234  26.548  1.00  0.00    -0.237 OA
ATOM     98  O   UNL A   1      48.231  33.338  25.756  1.00  0.00    -0.237 OA
ATOM     99  O   UNL A   1      49.046  33.154  28.068  1.00  0.00    -0.744 OA
ENDBRANCH  92  96
ENDBRANCH  66  89
ENDBRANCH  40  41
ENDBRANCH  32  35
ENDBRANCH  30  31
ENDBRANCH  29  30
ENDBRANCH  28  29
ENDBRANCH  27  28
ENDBRANCH   1  27
TORSDOF 21
ENDMDL
