MODEL 1
REMARK VINA RESULT:     -11.6      0.000      0.000
REMARK SMILES O=C(CC(=O)c1ccccc1)Nc1cccc(C(=O)NCCCCCCNC(=O)c2ccc(-c3c4nc(c(-c5cc(S(=O)(=O)[O-])ccc5F)c5ccc([nH]5)c(-c5cc(S(=O)(=O)[O-])ccc5F)c5nc(c(-c6cc(S(=O)(=O)[O-])ccc6F)c6ccc3[nH]6)C=C5)C=C4)cc2)c1
REMARK SMILES IDX 23 1 22 2 21 3 20 4 18 5 19 6 17 8 13 9 14 10 93 11 15 12
REMARK SMILES IDX 16 13 12 14 1 15 2 16 3 18 4 19 5 20 6 21 7 22 11 23 8 24
REMARK SMILES IDX 10 25 9 26 24 27 25 28 26 29 27 30 28 31 29 33 30 34 31 35
REMARK SMILES IDX 92 36 32 37 91 38 33 39 34 40 35 41 85 42 36 43 90 44 84 45
REMARK SMILES IDX 86 46 37 47 89 48 83 49 82 50 38 52 70 53 50 54 69 55 51 56
REMARK SMILES IDX 54 57 68 58 87 59 52 60 53 61 67 63 88 64 55 65 39 66 40 67
REMARK SMILES IDX 48 68 41 69 47 70 49 71 46 72 42 73 43 74 44 75 45 76 71 77
REMARK SMILES IDX 72 78 80 79 73 80 79 81 81 82 78 83 74 84 75 85 76 86 77 87
REMARK SMILES IDX 56 88 57 89 65 90 58 91 64 92 66 93 63 94 59 95 60 96 61 97
REMARK SMILES IDX 62 98
REMARK H PARENT 20 7 12 17 27 32 86 51 54 62
REMARK Flexibility Score: inf
ROOT
ATOM      1  C   UNL A   1      31.027  28.123  25.397  1.00  0.00     0.002 C 
ENDROOT
BRANCH   1   2
ATOM      2  C   UNL A   1      31.256  29.206  24.346  1.00  0.00     0.021 C 
BRANCH   2   3
ATOM      3  C   UNL A   1      31.112  28.776  22.891  1.00  0.00     0.116 C 
BRANCH   3   4
ATOM      4  N   UNL A   1      32.340  28.281  22.277  1.00  0.00    -0.352 N 
ATOM      5  C   UNL A   1      32.893  27.015  22.270  1.00  0.00     0.251 C 
ATOM      6  O   UNL A   1      33.964  26.829  21.693  1.00  0.00    -0.269 OA
ATOM      7  H   UNL A   1      32.859  28.960  21.788  1.00  0.00     0.163 HD
BRANCH   5   8
ATOM      8  C   UNL A   1      32.263  25.887  23.009  1.00  0.00     0.041 A 
ATOM      9  C   UNL A   1      32.524  23.828  24.252  1.00  0.00     0.041 A 
ATOM     10  C   UNL A   1      31.180  23.524  24.017  1.00  0.00     0.026 A 
ATOM     11  C   UNL A   1      33.003  25.075  23.866  1.00  0.00     0.040 A 
ATOM     12  C   UNL A   1      30.364  24.428  23.330  1.00  0.00     0.003 A 
ATOM     13  C   UNL A   1      30.916  25.592  22.790  1.00  0.00     0.014 A 
BRANCH   9  14
ATOM     14  N   UNL A   1      33.354  22.829  24.809  1.00  0.00    -0.326 N 
ATOM     15  O   UNL A   1      32.401  22.577  26.923  1.00  0.00    -0.274 OA
ATOM     16  C   UNL A   1      33.224  22.257  26.068  1.00  0.00     0.232 C 
ATOM     17  H   UNL A   1      34.097  22.507  24.249  1.00  0.00     0.169 HD
BRANCH  16  18
ATOM     18  C   UNL A   1      34.223  21.180  26.375  1.00  0.00     0.181 C 
BRANCH  18  19
ATOM     19  C   UNL A   1      34.918  20.557  25.197  1.00  0.00     0.172 C 
ATOM     20  O   UNL A   1      35.933  21.064  24.720  1.00  0.00    -0.294 OA
BRANCH  19  21
ATOM     21  C   UNL A   1      34.390  19.313  24.579  1.00  0.00     0.018 A 
ATOM     22  C   UNL A   1      33.061  19.324  24.143  1.00  0.00     0.012 A 
ATOM     23  C   UNL A   1      35.123  18.122  24.525  1.00  0.00     0.012 A 
ATOM     24  C   UNL A   1      32.472  18.152  23.664  1.00  0.00     0.001 A 
ATOM     25  C   UNL A   1      34.523  16.948  24.068  1.00  0.00     0.001 A 
ATOM     26  C   UNL A   1      33.199  16.963  23.639  1.00  0.00     0.000 A 
ENDBRANCH  19  21
ENDBRANCH  18  19
ENDBRANCH  16  18
ENDBRANCH   9  14
ENDBRANCH   5   8
ENDBRANCH   3   4
ENDBRANCH   2   3
ENDBRANCH   1   2
BRANCH   1  27
ATOM     27  C   UNL A   1      31.891  28.210  26.657  1.00  0.00     0.002 C 
BRANCH  27  28
ATOM     28  C   UNL A   1      33.363  27.817  26.502  1.00  0.00     0.021 C 
BRANCH  28  29
ATOM     29  C   UNL A   1      34.297  28.919  26.011  1.00  0.00     0.116 C 
BRANCH  29  30
ATOM     30  N   UNL A   1      33.949  30.224  26.546  1.00  0.00    -0.352 N 
ATOM     31  C   UNL A   1      34.529  30.939  27.566  1.00  0.00     0.251 C 
ATOM     32  H   UNL A   1      33.183  30.663  26.112  1.00  0.00     0.163 HD
ATOM     33  O   UNL A   1      33.975  31.949  27.988  1.00  0.00    -0.269 OA
BRANCH  31  34
ATOM     34  C   UNL A   1      35.801  30.480  28.173  1.00  0.00     0.039 A 
ATOM     35  C   UNL A   1      35.751  29.707  29.335  1.00  0.00     0.014 A 
ATOM     36  C   UNL A   1      37.036  30.819  27.612  1.00  0.00     0.014 A 
ATOM     37  C   UNL A   1      36.934  29.221  29.898  1.00  0.00     0.010 A 
ATOM     38  C   UNL A   1      38.208  30.271  28.131  1.00  0.00     0.010 A 
ATOM     39  C   UNL A   1      38.171  29.467  29.280  1.00  0.00    -0.014 A 
BRANCH  39  40
ATOM     40  C   UNL A   1      39.428  28.881  29.819  1.00  0.00     0.031 A 
ATOM     41  C   UNL A   1      40.108  29.499  31.009  1.00  0.00     0.074 A 
ATOM     42  C   UNL A   1      39.987  27.823  29.198  1.00  0.00     0.049 A 
ATOM     43  N   UNL A   1      41.234  29.163  31.589  1.00  0.00    -0.248 NA
ATOM     44  C   UNL A   1      39.452  30.670  31.608  1.00  0.00     0.031 C 
ATOM     45  C   UNL A   1      39.447  27.165  28.006  1.00  0.00     0.029 A 
ATOM     46  N   UNL A   1      41.134  27.120  29.472  1.00  0.00    -0.354 N 
ATOM     47  C   UNL A   1      41.426  30.089  32.610  1.00  0.00     0.074 A 
ATOM     48  C   UNL A   1      40.335  31.035  32.525  1.00  0.00     0.031 C 
ATOM     49  C   UNL A   1      40.245  26.142  27.668  1.00  0.00     0.029 A 
ATOM     50  C   UNL A   1      41.382  26.099  28.583  1.00  0.00     0.049 A 
ATOM     51  H   UNL A   1      41.724  27.327  30.232  1.00  0.00     0.167 HD
ATOM     52  C   UNL A   1      42.411  30.130  33.543  1.00  0.00     0.034 A 
ATOM     53  C   UNL A   1      42.414  25.236  28.502  1.00  0.00     0.034 A 
ATOM     54  C   UNL A   1      43.491  29.174  33.610  1.00  0.00     0.049 A 
ATOM     55  C   UNL A   1      43.512  25.315  29.530  1.00  0.00     0.074 A 
ATOM     56  C   UNL A   1      44.502  29.079  34.551  1.00  0.00     0.029 A 
ATOM     57  N   UNL A   1      43.714  28.156  32.689  1.00  0.00    -0.354 N 
ATOM     58  N   UNL A   1      43.646  26.154  30.533  1.00  0.00    -0.248 NA
ATOM     59  C   UNL A   1      44.590  24.324  29.425  1.00  0.00     0.031 C 
ATOM     60  C   UNL A   1      45.381  28.066  34.152  1.00  0.00     0.029 A 
ATOM     61  C   UNL A   1      44.870  27.460  33.015  1.00  0.00     0.049 A 
ATOM     62  H   UNL A   1      43.135  27.956  31.918  1.00  0.00     0.167 HD
ATOM     63  C   UNL A   1      44.812  25.774  31.192  1.00  0.00     0.074 A 
ATOM     64  C   UNL A   1      45.330  24.622  30.482  1.00  0.00     0.031 C 
ATOM     65  C   UNL A   1      45.396  26.325  32.288  1.00  0.00     0.034 A 
BRANCH  52  66
ATOM     66  C   UNL A   1      42.382  31.272  34.535  1.00  0.00     0.023 A 
ATOM     67  C   UNL A   1      41.444  31.321  35.584  1.00  0.00     0.031 A 
ATOM     68  C   UNL A   1      43.275  32.351  34.408  1.00  0.00     0.131 A 
ATOM     69  C   UNL A   1      41.360  32.461  36.398  1.00  0.00     0.055 A 
ATOM     70  C   UNL A   1      43.249  33.440  35.283  1.00  0.00     0.041 A 
ATOM     71  F   UNL A   1      44.181  32.376  33.417  1.00  0.00    -0.206 F 
ATOM     72  C   UNL A   1      42.273  33.509  36.273  1.00  0.00     0.022 A 
BRANCH  69  73
ATOM     73  S   UNL A   1      39.929  32.632  37.501  1.00  0.00     0.124 S 
ATOM     74  O   UNL A   1      40.549  32.470  38.814  1.00  0.00    -0.237 OA
ATOM     75  O   UNL A   1      39.443  33.970  37.183  1.00  0.00    -0.237 OA
ATOM     76  O   UNL A   1      39.051  31.535  37.095  1.00  0.00    -0.744 OA
ENDBRANCH  69  73
ENDBRANCH  52  66
BRANCH  53  77
ATOM     77  C   UNL A   1      42.466  24.237  27.394  1.00  0.00     0.023 A 
ATOM     78  C   UNL A   1      41.671  23.081  27.417  1.00  0.00     0.031 A 
ATOM     79  C   UNL A   1      43.326  24.425  26.297  1.00  0.00     0.131 A 
ATOM     80  C   UNL A   1      41.778  22.140  26.381  1.00  0.00     0.055 A 
ATOM     81  C   UNL A   1      43.389  23.514  25.242  1.00  0.00     0.041 A 
ATOM     82  F   UNL A   1      44.106  25.516  26.224  1.00  0.00    -0.206 F 
ATOM     83  C   UNL A   1      42.617  22.357  25.285  1.00  0.00     0.022 A 
BRANCH  80  84
ATOM     84  S   UNL A   1      40.848  20.587  26.514  1.00  0.00     0.124 S 
ATOM     85  O   UNL A   1      40.920  20.321  27.946  1.00  0.00    -0.237 OA
ATOM     86  O   UNL A   1      39.540  20.971  25.996  1.00  0.00    -0.237 OA
ATOM     87  O   UNL A   1      41.604  19.665  25.668  1.00  0.00    -0.744 OA
ENDBRANCH  80  84
ENDBRANCH  53  77
BRANCH  65  88
ATOM     88  C   UNL A   1      46.649  25.660  32.808  1.00  0.00     0.023 A 
ATOM     89  C   UNL A   1      47.918  25.943  32.273  1.00  0.00     0.031 A 
ATOM     90  C   UNL A   1      46.568  24.718  33.849  1.00  0.00     0.131 A 
ATOM     91  C   UNL A   1      49.045  25.249  32.740  1.00  0.00     0.055 A 
ATOM     92  C   UNL A   1      47.702  24.082  34.357  1.00  0.00     0.041 A 
ATOM     93  F   UNL A   1      45.383  24.401  34.396  1.00  0.00    -0.206 F 
ATOM     94  C   UNL A   1      48.948  24.336  33.792  1.00  0.00     0.022 A 
BRANCH  91  95
ATOM     95  S   UNL A   1      50.627  25.477  31.881  1.00  0.00     0.124 S 
ATOM     96  O   UNL A   1      50.581  24.417  30.877  1.00  0.00    -0.237 OA
ATOM     97  O   UNL A   1      50.515  26.840  31.374  1.00  0.00    -0.237 OA
ATOM     98  O   UNL A   1      51.621  25.287  32.937  1.00  0.00    -0.744 OA
ENDBRANCH  91  95
ENDBRANCH  65  88
ENDBRANCH  39  40
ENDBRANCH  31  34
ENDBRANCH  29  30
ENDBRANCH  28  29
ENDBRANCH  27  28
ENDBRANCH   1  27
TORSDOF 20
ENDMDL
MODEL 2
REMARK VINA RESULT:     -11.0      2.005      2.940
REMARK SMILES O=C(CC(=O)c1ccccc1)Nc1cccc(C(=O)NCCCCCCNC(=O)c2ccc(-c3c4nc(c(-c5cc(S(=O)(=O)[O-])ccc5F)c5ccc([nH]5)c(-c5cc(S(=O)(=O)[O-])ccc5F)c5nc(c(-c6cc(S(=O)(=O)[O-])ccc6F)c6ccc3[nH]6)C=C5)C=C4)cc2)c1
REMARK SMILES IDX 23 1 22 2 21 3 20 4 18 5 19 6 17 8 13 9 14 10 93 11 15 12
REMARK SMILES IDX 16 13 12 14 1 15 2 16 3 18 4 19 5 20 6 21 7 22 11 23 8 24
REMARK SMILES IDX 10 25 9 26 24 27 25 28 26 29 27 30 28 31 29 33 30 34 31 35
REMARK SMILES IDX 92 36 32 37 91 38 33 39 34 40 35 41 85 42 36 43 90 44 84 45
REMARK SMILES IDX 86 46 37 47 89 48 83 49 82 50 38 52 70 53 50 54 69 55 51 56
REMARK SMILES IDX 54 57 68 58 87 59 52 60 53 61 67 63 88 64 55 65 39 66 40 67
REMARK SMILES IDX 48 68 41 69 47 70 49 71 46 72 42 73 43 74 44 75 45 76 71 77
REMARK SMILES IDX 72 78 80 79 73 80 79 81 81 82 78 83 74 84 75 85 76 86 77 87
REMARK SMILES IDX 56 88 57 89 65 90 58 91 64 92 66 93 63 94 59 95 60 96 61 97
REMARK SMILES IDX 62 98
REMARK H PARENT 20 7 12 17 27 32 86 51 54 62
REMARK Flexibility Score: inf
ROOT
ATOM      1  C   UNL A   1      35.399  30.409  28.188  1.00  0.00     0.002 C 
ENDROOT
BRANCH   1   2
ATOM      2  C   UNL A   1      34.882  29.301  27.275  1.00  0.00     0.021 C 
BRANCH   2   3
ATOM      3  C   UNL A   1      33.566  29.575  26.558  1.00  0.00     0.116 C 
BRANCH   3   4
ATOM      4  N   UNL A   1      33.657  29.583  25.101  1.00  0.00    -0.352 N 
ATOM      5  C   UNL A   1      33.122  28.721  24.163  1.00  0.00     0.251 C 
ATOM      6  O   UNL A   1      33.346  28.915  22.969  1.00  0.00    -0.269 OA
ATOM      7  H   UNL A   1      34.185  30.323  24.725  1.00  0.00     0.163 HD
BRANCH   5   8
ATOM      8  C   UNL A   1      32.343  27.518  24.567  1.00  0.00     0.041 A 
ATOM      9  C   UNL A   1      32.229  25.114  24.808  1.00  0.00     0.041 A 
ATOM     10  C   UNL A   1      30.835  25.193  24.869  1.00  0.00     0.026 A 
ATOM     11  C   UNL A   1      32.964  26.294  24.803  1.00  0.00     0.040 A 
ATOM     12  C   UNL A   1      30.199  26.438  24.839  1.00  0.00     0.003 A 
ATOM     13  C   UNL A   1      30.951  27.599  24.646  1.00  0.00     0.014 A 
BRANCH   9  14
ATOM     14  N   UNL A   1      32.828  23.840  24.685  1.00  0.00    -0.326 N 
ATOM     15  O   UNL A   1      33.542  23.462  26.873  1.00  0.00    -0.274 OA
ATOM     16  C   UNL A   1      33.405  23.098  25.707  1.00  0.00     0.232 C 
ATOM     17  H   UNL A   1      32.836  23.439  23.785  1.00  0.00     0.169 HD
BRANCH  16  18
ATOM     18  C   UNL A   1      33.920  21.751  25.292  1.00  0.00     0.181 C 
BRANCH  18  19
ATOM     19  C   UNL A   1      32.887  20.712  24.959  1.00  0.00     0.172 C 
ATOM     20  O   UNL A   1      31.704  20.880  25.251  1.00  0.00    -0.294 OA
BRANCH  19  21
ATOM     21  C   UNL A   1      33.275  19.454  24.270  1.00  0.00     0.018 A 
ATOM     22  C   UNL A   1      32.413  18.968  23.280  1.00  0.00     0.012 A 
ATOM     23  C   UNL A   1      34.387  18.693  24.647  1.00  0.00     0.012 A 
ATOM     24  C   UNL A   1      32.660  17.732  22.681  1.00  0.00     0.001 A 
ATOM     25  C   UNL A   1      34.617  17.447  24.063  1.00  0.00     0.001 A 
ATOM     26  C   UNL A   1      33.754  16.967  23.082  1.00  0.00     0.000 A 
ENDBRANCH  19  21
ENDBRANCH  18  19
ENDBRANCH  16  18
ENDBRANCH   9  14
ENDBRANCH   5   8
ENDBRANCH   3   4
ENDBRANCH   2   3
ENDBRANCH   1   2
BRANCH   1  27
ATOM     27  C   UNL A   1      35.296  31.836  27.644  1.00  0.00     0.002 C 
BRANCH  27  28
ATOM     28  C   UNL A   1      34.047  32.627  28.039  1.00  0.00     0.021 C 
BRANCH  28  29
ATOM     29  C   UNL A   1      34.247  34.126  28.247  1.00  0.00     0.116 C 
BRANCH  29  30
ATOM     30  N   UNL A   1      33.777  34.577  29.546  1.00  0.00    -0.352 N 
ATOM     31  C   UNL A   1      34.197  34.220  30.805  1.00  0.00     0.251 C 
ATOM     32  H   UNL A   1      33.048  35.238  29.520  1.00  0.00     0.163 HD
ATOM     33  O   UNL A   1      33.550  34.580  31.782  1.00  0.00    -0.269 OA
BRANCH  31  34
ATOM     34  C   UNL A   1      35.407  33.384  30.981  1.00  0.00     0.039 A 
ATOM     35  C   UNL A   1      36.634  33.872  30.526  1.00  0.00     0.014 A 
ATOM     36  C   UNL A   1      35.336  32.120  31.576  1.00  0.00     0.014 A 
ATOM     37  C   UNL A   1      37.797  33.123  30.725  1.00  0.00     0.010 A 
ATOM     38  C   UNL A   1      36.506  31.409  31.840  1.00  0.00     0.010 A 
ATOM     39  C   UNL A   1      37.750  31.902  31.418  1.00  0.00    -0.014 A 
BRANCH  39  40
ATOM     40  C   UNL A   1      38.992  31.139  31.714  1.00  0.00     0.031 A 
ATOM     41  C   UNL A   1      39.816  31.466  32.929  1.00  0.00     0.074 A 
ATOM     42  C   UNL A   1      39.406  30.186  30.856  1.00  0.00     0.049 A 
ATOM     43  N   UNL A   1      40.952  30.948  33.325  1.00  0.00    -0.248 NA
ATOM     44  C   UNL A   1      39.312  32.541  33.796  1.00  0.00     0.031 C 
ATOM     45  C   UNL A   1      38.717  29.811  29.619  1.00  0.00     0.029 A 
ATOM     46  N   UNL A   1      40.508  29.367  30.882  1.00  0.00    -0.354 N 
ATOM     47  C   UNL A   1      41.305  31.642  34.479  1.00  0.00     0.074 A 
ATOM     48  C   UNL A   1      40.294  32.660  34.677  1.00  0.00     0.031 C 
ATOM     49  C   UNL A   1      39.396  28.820  29.021  1.00  0.00     0.029 A 
ATOM     50  C   UNL A   1      40.595  28.523  29.799  1.00  0.00     0.049 A 
ATOM     51  H   UNL A   1      41.172  29.382  31.608  1.00  0.00     0.167 HD
ATOM     52  C   UNL A   1      42.362  31.435  35.304  1.00  0.00     0.034 A 
ATOM     53  C   UNL A   1      41.540  27.625  29.458  1.00  0.00     0.034 A 
ATOM     54  C   UNL A   1      43.358  30.412  35.088  1.00  0.00     0.049 A 
ATOM     55  C   UNL A   1      42.720  27.427  30.373  1.00  0.00     0.074 A 
ATOM     56  C   UNL A   1      44.430  30.068  35.893  1.00  0.00     0.029 A 
ATOM     57  N   UNL A   1      43.418  29.580  33.975  1.00  0.00    -0.354 N 
ATOM     58  N   UNL A   1      43.006  28.045  31.498  1.00  0.00    -0.248 NA
ATOM     59  C   UNL A   1      43.698  26.405  29.982  1.00  0.00     0.031 C 
ATOM     60  C   UNL A   1      45.184  29.095  35.229  1.00  0.00     0.029 A 
ATOM     61  C   UNL A   1      44.534  28.758  34.052  1.00  0.00     0.049 A 
ATOM     62  H   UNL A   1      42.764  29.573  33.239  1.00  0.00     0.167 HD
ATOM     63  C   UNL A   1      44.185  27.466  31.960  1.00  0.00     0.074 A 
ATOM     64  C   UNL A   1      44.544  26.441  31.001  1.00  0.00     0.031 C 
ATOM     65  C   UNL A   1      44.900  27.752  33.079  1.00  0.00     0.034 A 
BRANCH  52  66
ATOM     66  C   UNL A   1      42.510  32.362  36.491  1.00  0.00     0.023 A 
ATOM     67  C   UNL A   1      41.921  32.074  37.737  1.00  0.00     0.031 A 
ATOM     68  C   UNL A   1      43.214  33.573  36.366  1.00  0.00     0.131 A 
ATOM     69  C   UNL A   1      41.965  33.023  38.770  1.00  0.00     0.055 A 
ATOM     70  C   UNL A   1      43.336  34.470  37.431  1.00  0.00     0.041 A 
ATOM     71  F   UNL A   1      43.782  33.917  35.200  1.00  0.00    -0.206 F 
ATOM     72  C   UNL A   1      42.692  34.206  38.636  1.00  0.00     0.022 A 
BRANCH  69  73
ATOM     73  S   UNL A   1      40.910  32.765  40.224  1.00  0.00     0.124 S 
ATOM     74  O   UNL A   1      39.640  32.397  39.604  1.00  0.00    -0.237 OA
ATOM     75  O   UNL A   1      41.608  31.701  40.936  1.00  0.00    -0.237 OA
ATOM     76  O   UNL A   1      40.916  34.069  40.887  1.00  0.00    -0.744 OA
ENDBRANCH  69  73
ENDBRANCH  52  66
BRANCH  53  77
ATOM     77  C   UNL A   1      41.417  26.859  28.184  1.00  0.00     0.023 A 
ATOM     78  C   UNL A   1      41.070  25.499  28.180  1.00  0.00     0.031 A 
ATOM     79  C   UNL A   1      41.659  27.481  26.945  1.00  0.00     0.131 A 
ATOM     80  C   UNL A   1      41.006  24.797  26.966  1.00  0.00     0.055 A 
ATOM     81  C   UNL A   1      41.541  26.793  25.737  1.00  0.00     0.041 A 
ATOM     82  F   UNL A   1      41.991  28.781  26.892  1.00  0.00    -0.206 F 
ATOM     83  C   UNL A   1      41.222  25.439  25.744  1.00  0.00     0.022 A 
BRANCH  80  84
ATOM     84  S   UNL A   1      40.701  23.009  27.007  1.00  0.00     0.124 S 
ATOM     85  O   UNL A   1      41.531  22.542  25.902  1.00  0.00    -0.237 OA
ATOM     86  O   UNL A   1      41.156  22.654  28.347  1.00  0.00    -0.237 OA
ATOM     87  O   UNL A   1      39.259  22.906  26.793  1.00  0.00    -0.744 OA
ENDBRANCH  80  84
ENDBRANCH  53  77
BRANCH  65  88
ATOM     88  C   UNL A   1      46.130  26.915  33.342  1.00  0.00     0.023 A 
ATOM     89  C   UNL A   1      47.398  27.283  32.859  1.00  0.00     0.031 A 
ATOM     90  C   UNL A   1      46.027  25.722  34.082  1.00  0.00     0.131 A 
ATOM     91  C   UNL A   1      48.499  26.438  33.069  1.00  0.00     0.055 A 
ATOM     92  C   UNL A   1      47.139  24.921  34.347  1.00  0.00     0.041 A 
ATOM     93  F   UNL A   1      44.842  25.316  34.564  1.00  0.00    -0.206 F 
ATOM     94  C   UNL A   1      48.382  25.271  33.827  1.00  0.00     0.022 A 
BRANCH  91  95
ATOM     95  S   UNL A   1      50.068  26.830  32.246  1.00  0.00     0.124 S 
ATOM     96  O   UNL A   1      50.806  25.579  32.392  1.00  0.00    -0.237 OA
ATOM     97  O   UNL A   1      49.637  27.162  30.892  1.00  0.00    -0.237 OA
ATOM     98  O   UNL A   1      50.591  27.952  33.023  1.00  0.00    -0.744 OA
ENDBRANCH  91  95
ENDBRANCH  65  88
ENDBRANCH  39  40
ENDBRANCH  31  34
ENDBRANCH  29  30
ENDBRANCH  28  29
ENDBRANCH  27  28
ENDBRANCH   1  27
TORSDOF 20
ENDMDL
MODEL 3
REMARK VINA RESULT:     -11.0      4.350      8.298
REMARK SMILES O=C(CC(=O)c1ccccc1)Nc1cccc(C(=O)NCCCCCCNC(=O)c2ccc(-c3c4nc(c(-c5cc(S(=O)(=O)[O-])ccc5F)c5ccc([nH]5)c(-c5cc(S(=O)(=O)[O-])ccc5F)c5nc(c(-c6cc(S(=O)(=O)[O-])ccc6F)c6ccc3[nH]6)C=C5)C=C4)cc2)c1
REMARK SMILES IDX 23 1 22 2 21 3 20 4 18 5 19 6 17 8 13 9 14 10 93 11 15 12
REMARK SMILES IDX 16 13 12 14 1 15 2 16 3 18 4 19 5 20 6 21 7 22 11 23 8 24
REMARK SMILES IDX 10 25 9 26 24 27 25 28 26 29 27 30 28 31 29 33 30 34 31 35
REMARK SMILES IDX 92 36 32 37 91 38 33 39 34 40 35 41 85 42 36 43 90 44 84 45
REMARK SMILES IDX 86 46 37 47 89 48 83 49 82 50 38 52 70 53 50 54 69 55 51 56
REMARK SMILES IDX 54 57 68 58 87 59 52 60 53 61 67 63 88 64 55 65 39 66 40 67
REMARK SMILES IDX 48 68 41 69 47 70 49 71 46 72 42 73 43 74 44 75 45 76 71 77
REMARK SMILES IDX 72 78 80 79 73 80 79 81 81 82 78 83 74 84 75 85 76 86 77 87
REMARK SMILES IDX 56 88 57 89 65 90 58 91 64 92 66 93 63 94 59 95 60 96 61 97
REMARK SMILES IDX 62 98
REMARK H PARENT 20 7 12 17 27 32 86 51 54 62
REMARK Flexibility Score: inf
ROOT
ATOM      1  C   UNL A   1      36.123  33.567  30.790  1.00  0.00     0.002 C 
ENDROOT
BRANCH   1   2
ATOM      2  C   UNL A   1      36.492  32.552  31.869  1.00  0.00     0.021 C 
BRANCH   2   3
ATOM      3  C   UNL A   1      36.042  32.880  33.287  1.00  0.00     0.116 C 
BRANCH   3   4
ATOM      4  N   UNL A   1      36.683  32.084  34.329  1.00  0.00    -0.352 N 
ATOM      5  C   UNL A   1      37.836  32.315  35.054  1.00  0.00     0.251 C 
ATOM      6  O   UNL A   1      38.203  31.484  35.883  1.00  0.00    -0.269 OA
ATOM      7  H   UNL A   1      36.219  31.245  34.551  1.00  0.00     0.163 HD
BRANCH   5   8
ATOM      8  C   UNL A   1      38.687  33.511  34.802  1.00  0.00     0.041 A 
ATOM      9  C   UNL A   1      40.455  34.559  33.528  1.00  0.00     0.041 A 
ATOM     10  C   UNL A   1      40.613  35.509  34.540  1.00  0.00     0.026 A 
ATOM     11  C   UNL A   1      39.395  33.663  33.613  1.00  0.00     0.040 A 
ATOM     12  C   UNL A   1      39.768  35.496  35.655  1.00  0.00     0.003 A 
ATOM     13  C   UNL A   1      38.832  34.472  35.806  1.00  0.00     0.014 A 
BRANCH   9  14
ATOM     14  N   UNL A   1      41.420  34.505  32.496  1.00  0.00    -0.326 N 
ATOM     15  O   UNL A   1      40.075  34.072  30.641  1.00  0.00    -0.274 OA
ATOM     16  C   UNL A   1      41.171  34.301  31.145  1.00  0.00     0.232 C 
ATOM     17  H   UNL A   1      42.360  34.624  32.762  1.00  0.00     0.169 HD
BRANCH  16  18
ATOM     18  C   UNL A   1      42.390  34.343  30.269  1.00  0.00     0.181 C 
BRANCH  18  19
ATOM     19  C   UNL A   1      43.282  33.134  30.306  1.00  0.00     0.172 C 
ATOM     20  O   UNL A   1      43.955  32.875  31.303  1.00  0.00    -0.294 OA
BRANCH  19  21
ATOM     21  C   UNL A   1      43.373  32.226  29.133  1.00  0.00     0.018 A 
ATOM     22  C   UNL A   1      42.819  30.948  29.263  1.00  0.00     0.012 A 
ATOM     23  C   UNL A   1      44.080  32.555  27.972  1.00  0.00     0.012 A 
ATOM     24  C   UNL A   1      42.977  30.009  28.242  1.00  0.00     0.001 A 
ATOM     25  C   UNL A   1      44.257  31.606  26.964  1.00  0.00     0.001 A 
ATOM     26  C   UNL A   1      43.706  30.335  27.100  1.00  0.00     0.000 A 
ENDBRANCH  19  21
ENDBRANCH  18  19
ENDBRANCH  16  18
ENDBRANCH   9  14
ENDBRANCH   5   8
ENDBRANCH   3   4
ENDBRANCH   2   3
ENDBRANCH   1   2
BRANCH   1  27
ATOM     27  C   UNL A   1      34.627  33.797  30.560  1.00  0.00     0.002 C 
BRANCH  27  28
ATOM     28  C   UNL A   1      34.178  33.954  29.105  1.00  0.00     0.021 C 
BRANCH  28  29
ATOM     29  C   UNL A   1      34.927  33.102  28.083  1.00  0.00     0.116 C 
BRANCH  29  30
ATOM     30  N   UNL A   1      34.167  31.937  27.664  1.00  0.00    -0.352 N 
ATOM     31  C   UNL A   1      34.546  30.618  27.599  1.00  0.00     0.251 C 
ATOM     32  H   UNL A   1      33.242  32.120  27.384  1.00  0.00     0.163 HD
ATOM     33  O   UNL A   1      33.813  29.805  27.046  1.00  0.00    -0.269 OA
BRANCH  31  34
ATOM     34  C   UNL A   1      35.843  30.183  28.168  1.00  0.00     0.039 A 
ATOM     35  C   UNL A   1      35.876  29.712  29.482  1.00  0.00     0.014 A 
ATOM     36  C   UNL A   1      37.023  30.250  27.420  1.00  0.00     0.014 A 
ATOM     37  C   UNL A   1      37.078  29.250  30.025  1.00  0.00     0.010 A 
ATOM     38  C   UNL A   1      38.204  29.719  27.936  1.00  0.00     0.010 A 
ATOM     39  C   UNL A   1      38.246  29.213  29.245  1.00  0.00    -0.014 A 
BRANCH  39  40
ATOM     40  C   UNL A   1      39.510  28.641  29.781  1.00  0.00     0.031 A 
ATOM     41  C   UNL A   1      40.158  29.234  31.002  1.00  0.00     0.074 A 
ATOM     42  C   UNL A   1      40.105  27.622  29.131  1.00  0.00     0.049 A 
ATOM     43  N   UNL A   1      41.283  28.907  31.586  1.00  0.00    -0.248 NA
ATOM     44  C   UNL A   1      39.462  30.366  31.632  1.00  0.00     0.031 C 
ATOM     45  C   UNL A   1      39.599  26.993  27.909  1.00  0.00     0.029 A 
ATOM     46  N   UNL A   1      41.267  26.939  29.397  1.00  0.00    -0.354 N 
ATOM     47  C   UNL A   1      41.438  29.800  32.642  1.00  0.00     0.074 A 
ATOM     48  C   UNL A   1      40.323  30.721  32.574  1.00  0.00     0.031 C 
ATOM     49  C   UNL A   1      40.429  26.003  27.547  1.00  0.00     0.029 A 
ATOM     50  C   UNL A   1      41.554  25.957  28.477  1.00  0.00     0.049 A 
ATOM     51  H   UNL A   1      41.840  27.134  30.173  1.00  0.00     0.167 HD
ATOM     52  C   UNL A   1      42.408  29.834  33.590  1.00  0.00     0.034 A 
ATOM     53  C   UNL A   1      42.609  25.125  28.380  1.00  0.00     0.034 A 
ATOM     54  C   UNL A   1      43.512  28.904  33.640  1.00  0.00     0.049 A 
ATOM     55  C   UNL A   1      43.690  25.195  29.426  1.00  0.00     0.074 A 
ATOM     56  C   UNL A   1      44.512  28.802  34.591  1.00  0.00     0.029 A 
ATOM     57  N   UNL A   1      43.774  27.926  32.687  1.00  0.00    -0.354 N 
ATOM     58  N   UNL A   1      43.789  26.001  30.460  1.00  0.00    -0.248 NA
ATOM     59  C   UNL A   1      44.795  24.237  29.302  1.00  0.00     0.031 C 
ATOM     60  C   UNL A   1      45.423  27.827  34.169  1.00  0.00     0.029 A 
ATOM     61  C   UNL A   1      44.944  27.249  33.004  1.00  0.00     0.049 A 
ATOM     62  H   UNL A   1      43.212  27.738  31.901  1.00  0.00     0.167 HD
ATOM     63  C   UNL A   1      44.954  25.628  31.122  1.00  0.00     0.074 A 
ATOM     64  C   UNL A   1      45.513  24.516  30.380  1.00  0.00     0.031 C 
ATOM     65  C   UNL A   1      45.509  26.155  32.245  1.00  0.00     0.034 A 
BRANCH  52  66
ATOM     66  C   UNL A   1      42.335  30.939  34.621  1.00  0.00     0.023 A 
ATOM     67  C   UNL A   1      43.033  32.151  34.462  1.00  0.00     0.031 A 
ATOM     68  C   UNL A   1      41.591  30.765  35.802  1.00  0.00     0.131 A 
ATOM     69  C   UNL A   1      43.049  33.093  35.501  1.00  0.00     0.055 A 
ATOM     70  C   UNL A   1      41.534  31.750  36.791  1.00  0.00     0.041 A 
ATOM     71  F   UNL A   1      40.918  29.625  36.025  1.00  0.00    -0.206 F 
ATOM     72  C   UNL A   1      42.283  32.915  36.653  1.00  0.00     0.022 A 
BRANCH  69  73
ATOM     73  S   UNL A   1      44.228  34.470  35.400  1.00  0.00     0.124 S 
ATOM     74  O   UNL A   1      44.084  34.879  34.005  1.00  0.00    -0.237 OA
ATOM     75  O   UNL A   1      43.711  35.401  36.397  1.00  0.00    -0.237 OA
ATOM     76  O   UNL A   1      45.509  33.849  35.730  1.00  0.00    -0.744 OA
ENDBRANCH  69  73
ENDBRANCH  52  66
BRANCH  53  77
ATOM     77  C   UNL A   1      42.703  24.167  27.239  1.00  0.00     0.023 A 
ATOM     78  C   UNL A   1      42.107  22.898  27.301  1.00  0.00     0.031 A 
ATOM     79  C   UNL A   1      43.403  24.511  26.068  1.00  0.00     0.131 A 
ATOM     80  C   UNL A   1      42.252  22.005  26.227  1.00  0.00     0.055 A 
ATOM     81  C   UNL A   1      43.499  23.641  24.982  1.00  0.00     0.041 A 
ATOM     82  F   UNL A   1      43.989  25.714  25.956  1.00  0.00    -0.206 F 
ATOM     83  C   UNL A   1      42.928  22.375  25.061  1.00  0.00     0.022 A 
BRANCH  80  84
ATOM     84  S   UNL A   1      41.599  20.321  26.398  1.00  0.00     0.124 S 
ATOM     85  O   UNL A   1      42.285  19.625  25.316  1.00  0.00    -0.237 OA
ATOM     86  O   UNL A   1      42.014  19.971  27.753  1.00  0.00    -0.237 OA
ATOM     87  O   UNL A   1      40.160  20.495  26.216  1.00  0.00    -0.744 OA
ENDBRANCH  80  84
ENDBRANCH  53  77
BRANCH  65  88
ATOM     88  C   UNL A   1      46.771  25.504  32.760  1.00  0.00     0.023 A 
ATOM     89  C   UNL A   1      46.743  24.501  33.746  1.00  0.00     0.031 A 
ATOM     90  C   UNL A   1      48.025  25.902  32.262  1.00  0.00     0.131 A 
ATOM     91  C   UNL A   1      47.945  23.975  34.244  1.00  0.00     0.055 A 
ATOM     92  C   UNL A   1      49.214  25.325  32.710  1.00  0.00     0.041 A 
ATOM     93  F   UNL A   1      48.117  26.859  31.324  1.00  0.00    -0.206 F 
ATOM     94  C   UNL A   1      49.179  24.365  33.717  1.00  0.00     0.022 A 
BRANCH  91  95
ATOM     95  S   UNL A   1      47.881  22.849  35.665  1.00  0.00     0.124 S 
ATOM     96  O   UNL A   1      49.273  22.422  35.774  1.00  0.00    -0.237 OA
ATOM     97  O   UNL A   1      47.395  23.718  36.731  1.00  0.00    -0.237 OA
ATOM     98  O   UNL A   1      46.947  21.810  35.237  1.00  0.00    -0.744 OA
ENDBRANCH  91  95
ENDBRANCH  65  88
ENDBRANCH  39  40
ENDBRANCH  31  34
ENDBRANCH  29  30
ENDBRANCH  28  29
ENDBRANCH  27  28
ENDBRANCH   1  27
TORSDOF 20
ENDMDL
