MODEL 1
REMARK VINA RESULT:     -11.8      0.000      0.000
REMARK SMILES O=C(NCCCCCCNC(=O)c1ccccc1Nc1nc(Cl)nc(Nc2ccc(N3CCOCC3=O)cc2)n1)c1ccc(-c2c3nc(c(-c4cc(S(=O)(=O)[O-])ccc4F)c4ccc([nH]4)c(-c4cc(S(=O)(=O)[O-])ccc4F)c4nc(c(-c5cc(S(=O)(=O)[O-])ccc5F)c5ccc2[nH]5)C=C4)C=C3)cc1
REMARK SMILES IDX 7 1 6 2 5 3 4 4 3 5 1 6 2 7 41 9 42 10 103 11 43 12 102 13
REMARK SMILES IDX 44 14 45 15 46 16 96 17 47 18 101 19 95 20 97 21 48 22
REMARK SMILES IDX 100 23 94 24 93 25 49 27 81 28 61 29 80 30 62 31 65 32 79 33
REMARK SMILES IDX 98 34 63 35 64 36 78 38 99 39 66 40 50 41 51 42 59 43 52 44
REMARK SMILES IDX 58 45 60 46 57 47 53 48 54 49 55 50 56 51 82 52 83 53 91 54
REMARK SMILES IDX 84 55 90 56 92 57 89 58 85 59 86 60 87 61 88 62 67 63 68 64
REMARK SMILES IDX 76 65 69 66 75 67 77 68 74 69 70 70 71 71 72 72 73 73 8 74
REMARK SMILES IDX 9 75 10 76 11 77 12 79 13 80 14 81 18 82 15 83 17 84 16 85
REMARK SMILES IDX 19 86 20 88 21 89 40 90 22 91 25 92 23 93 24 94 26 95 27 97
REMARK SMILES IDX 28 98 39 99 29 100 38 101 30 102 31 103 32 104 36 105 33 106
REMARK SMILES IDX 35 107 37 108 34 109
REMARK H PARENT 3 8 97 26 65 37 10 78 19 87 26 96
REMARK Flexibility Score: inf
ROOT
ATOM      1  C   UNL A   1      35.368  24.547  25.075  1.00  0.00     0.002 C 
ENDROOT
BRANCH   1   2
ATOM      2  C   UNL A   1      35.301  23.440  24.019  1.00  0.00     0.002 C 
BRANCH   2   3
ATOM      3  C   UNL A   1      35.666  22.034  24.494  1.00  0.00     0.021 C 
BRANCH   3   4
ATOM      4  C   UNL A   1      36.509  21.961  25.761  1.00  0.00     0.116 C 
BRANCH   4   5
ATOM      5  N   UNL A   1      37.510  20.906  25.729  1.00  0.00    -0.352 N 
ATOM      6  O   UNL A   1      39.576  20.004  25.819  1.00  0.00    -0.269 OA
ATOM      7  C   UNL A   1      38.856  20.984  26.001  1.00  0.00     0.251 C 
ATOM      8  H   UNL A   1      37.178  20.015  25.477  1.00  0.00     0.163 HD
BRANCH   7   9
ATOM      9  C   UNL A   1      39.441  22.257  26.482  1.00  0.00     0.039 A 
ATOM     10  C   UNL A   1      38.970  23.484  26.011  1.00  0.00     0.014 A 
ATOM     11  C   UNL A   1      40.487  22.220  27.410  1.00  0.00     0.014 A 
ATOM     12  C   UNL A   1      39.640  24.657  26.346  1.00  0.00     0.010 A 
ATOM     13  C   UNL A   1      41.104  23.409  27.812  1.00  0.00     0.010 A 
ATOM     14  C   UNL A   1      40.710  24.636  27.255  1.00  0.00    -0.014 A 
BRANCH  14  15
ATOM     15  C   UNL A   1      41.374  25.915  27.625  1.00  0.00     0.031 A 
ATOM     16  C   UNL A   1      42.727  26.279  27.074  1.00  0.00     0.074 A 
ATOM     17  C   UNL A   1      40.723  26.772  28.435  1.00  0.00     0.049 A 
ATOM     18  N   UNL A   1      43.427  27.370  27.259  1.00  0.00    -0.248 NA
ATOM     19  C   UNL A   1      43.383  25.287  26.212  1.00  0.00     0.031 C 
ATOM     20  C   UNL A   1      39.410  26.526  29.037  1.00  0.00     0.029 A 
ATOM     21  N   UNL A   1      41.055  28.029  28.872  1.00  0.00    -0.354 N 
ATOM     22  C   UNL A   1      44.614  27.191  26.557  1.00  0.00     0.074 A 
ATOM     23  C   UNL A   1      44.549  25.868  25.968  1.00  0.00     0.031 C 
ATOM     24  C   UNL A   1      39.024  27.617  29.713  1.00  0.00     0.029 A 
ATOM     25  C   UNL A   1      40.085  28.616  29.650  1.00  0.00     0.049 A 
ATOM     26  H   UNL A   1      41.908  28.469  28.649  1.00  0.00     0.167 HD
ATOM     27  C   UNL A   1      45.653  28.050  26.410  1.00  0.00     0.034 A 
ATOM     28  C   UNL A   1      40.053  29.817  30.256  1.00  0.00     0.034 A 
ATOM     29  C   UNL A   1      45.698  29.371  26.994  1.00  0.00     0.049 A 
ATOM     30  C   UNL A   1      41.230  30.740  30.099  1.00  0.00     0.074 A 
ATOM     31  C   UNL A   1      46.683  30.336  26.873  1.00  0.00     0.029 A 
ATOM     32  N   UNL A   1      44.719  29.912  27.819  1.00  0.00    -0.354 N 
ATOM     33  N   UNL A   1      42.335  30.560  29.413  1.00  0.00    -0.248 NA
ATOM     34  C   UNL A   1      41.154  32.029  30.798  1.00  0.00     0.031 C 
ATOM     35  C   UNL A   1      46.332  31.430  27.673  1.00  0.00     0.029 A 
ATOM     36  C   UNL A   1      45.092  31.181  28.238  1.00  0.00     0.049 A 
ATOM     37  H   UNL A   1      43.881  29.458  28.069  1.00  0.00     0.167 HD
ATOM     38  C   UNL A   1      43.077  31.725  29.582  1.00  0.00     0.074 A 
ATOM     39  C   UNL A   1      42.284  32.604  30.416  1.00  0.00     0.031 C 
ATOM     40  C   UNL A   1      44.302  32.040  29.089  1.00  0.00     0.034 A 
BRANCH  27  41
ATOM     41  C   UNL A   1      46.849  27.568  25.622  1.00  0.00     0.023 A 
ATOM     42  C   UNL A   1      47.074  27.970  24.294  1.00  0.00     0.031 A 
ATOM     43  C   UNL A   1      47.767  26.675  26.203  1.00  0.00     0.131 A 
ATOM     44  C   UNL A   1      48.147  27.427  23.570  1.00  0.00     0.055 A 
ATOM     45  C   UNL A   1      48.875  26.194  25.501  1.00  0.00     0.041 A 
ATOM     46  F   UNL A   1      47.597  26.244  27.463  1.00  0.00    -0.206 F 
ATOM     47  C   UNL A   1      49.061  26.557  24.170  1.00  0.00     0.022 A 
BRANCH  44  48
ATOM     48  S   UNL A   1      48.249  27.764  21.792  1.00  0.00     0.124 S 
ATOM     49  O   UNL A   1      49.407  28.652  21.721  1.00  0.00    -0.237 OA
ATOM     50  O   UNL A   1      48.430  26.436  21.220  1.00  0.00    -0.237 OA
ATOM     51  O   UNL A   1      46.968  28.395  21.486  1.00  0.00    -0.744 OA
ENDBRANCH  44  48
ENDBRANCH  27  41
BRANCH  28  52
ATOM     52  C   UNL A   1      38.876  30.211  31.080  1.00  0.00     0.023 A 
ATOM     53  C   UNL A   1      37.843  30.991  30.537  1.00  0.00     0.031 A 
ATOM     54  C   UNL A   1      38.777  29.827  32.429  1.00  0.00     0.131 A 
ATOM     55  C   UNL A   1      36.772  31.393  31.351  1.00  0.00     0.055 A 
ATOM     56  C   UNL A   1      37.685  30.187  33.219  1.00  0.00     0.041 A 
ATOM     57  F   UNL A   1      39.737  29.076  32.993  1.00  0.00    -0.206 F 
ATOM     58  C   UNL A   1      36.680  30.985  32.683  1.00  0.00     0.022 A 
BRANCH  55  59
ATOM     59  S   UNL A   1      35.531  32.518  30.657  1.00  0.00     0.124 S 
ATOM     60  O   UNL A   1      35.146  31.821  29.435  1.00  0.00    -0.237 OA
ATOM     61  O   UNL A   1      34.530  32.557  31.717  1.00  0.00    -0.237 OA
ATOM     62  O   UNL A   1      36.273  33.761  30.458  1.00  0.00    -0.744 OA
ENDBRANCH  55  59
ENDBRANCH  28  52
BRANCH  40  63
ATOM     63  C   UNL A   1      44.831  33.413  29.420  1.00  0.00     0.023 A 
ATOM     64  C   UNL A   1      44.587  34.519  28.587  1.00  0.00     0.031 A 
ATOM     65  C   UNL A   1      45.625  33.608  30.564  1.00  0.00     0.131 A 
ATOM     66  C   UNL A   1      45.185  35.755  28.873  1.00  0.00     0.055 A 
ATOM     67  C   UNL A   1      46.168  34.856  30.877  1.00  0.00     0.041 A 
ATOM     68  F   UNL A   1      45.892  32.587  31.393  1.00  0.00    -0.206 F 
ATOM     69  C   UNL A   1      45.961  35.934  30.021  1.00  0.00     0.022 A 
BRANCH  66  70
ATOM     70  S   UNL A   1      45.021  37.102  27.669  1.00  0.00     0.124 S 
ATOM     71  O   UNL A   1      43.572  37.257  27.582  1.00  0.00    -0.237 OA
ATOM     72  O   UNL A   1      45.741  38.192  28.319  1.00  0.00    -0.237 OA
ATOM     73  O   UNL A   1      45.660  36.567  26.467  1.00  0.00    -0.744 OA
ENDBRANCH  66  70
ENDBRANCH  40  63
ENDBRANCH  14  15
ENDBRANCH   7   9
ENDBRANCH   4   5
ENDBRANCH   3   4
ENDBRANCH   2   3
ENDBRANCH   1   2
BRANCH   1  74
ATOM     74  C   UNL A   1      34.082  24.813  25.867  1.00  0.00     0.021 C 
BRANCH  74  75
ATOM     75  C   UNL A   1      33.460  26.196  25.684  1.00  0.00     0.116 C 
BRANCH  75  76
ATOM     76  N   UNL A   1      34.017  26.917  24.549  1.00  0.00    -0.352 N 
ATOM     77  C   UNL A   1      33.983  28.262  24.283  1.00  0.00     0.253 C 
ATOM     78  H   UNL A   1      34.483  26.362  23.882  1.00  0.00     0.163 HD
ATOM     79  O   UNL A   1      34.475  28.701  23.247  1.00  0.00    -0.269 OA
BRANCH  77  80
ATOM     80  C   UNL A   1      33.321  29.191  25.222  1.00  0.00     0.063 A 
ATOM     81  C   UNL A   1      34.056  29.553  26.362  1.00  0.00     0.016 A 
ATOM     82  C   UNL A   1      32.017  29.678  25.013  1.00  0.00     0.054 A 
ATOM     83  C   UNL A   1      33.521  30.450  27.284  1.00  0.00     0.001 A 
ATOM     84  C   UNL A   1      31.522  30.618  25.932  1.00  0.00     0.027 A 
ATOM     85  C   UNL A   1      32.260  30.993  27.059  1.00  0.00     0.002 A 
BRANCH  82  86
ATOM     86  N   UNL A   1      31.238  29.260  23.921  1.00  0.00    -0.323 N 
ATOM     87  H   UNL A   1      31.124  29.936  23.214  1.00  0.00     0.170 HD
BRANCH  86  88
ATOM     88  C   UNL A   1      30.603  28.046  23.678  1.00  0.00     0.233 A 
ATOM     89  N   UNL A   1      29.357  27.865  24.081  1.00  0.00    -0.182 NA
ATOM     90  N   UNL A   1      31.318  27.133  23.030  1.00  0.00    -0.176 NA
ATOM     91  C   UNL A   1      28.864  26.679  23.764  1.00  0.00     0.228 A 
ATOM     92  C   UNL A   1      30.737  25.950  22.832  1.00  0.00     0.233 A 
ATOM     93  Cl  UNL A   1      27.258  26.387  24.266  1.00  0.00    -0.041 Cl
ATOM     94  N   UNL A   1      29.488  25.683  23.167  1.00  0.00    -0.182 NA
BRANCH  92  95
ATOM     95  N   UNL A   1      31.577  24.943  22.367  1.00  0.00    -0.324 N 
ATOM     96  H   UNL A   1      32.128  25.181  21.586  1.00  0.00     0.170 HD
BRANCH  95  97
ATOM     97  C   UNL A   1      31.752  23.642  22.846  1.00  0.00     0.041 A 
ATOM     98  C   UNL A   1      32.287  22.663  21.997  1.00  0.00     0.028 A 
ATOM     99  C   UNL A   1      31.491  23.301  24.177  1.00  0.00     0.028 A 
ATOM    100  C   UNL A   1      32.571  21.378  22.471  1.00  0.00     0.028 A 
ATOM    101  C   UNL A   1      31.705  21.999  24.634  1.00  0.00     0.028 A 
ATOM    102  C   UNL A   1      32.263  21.038  23.789  1.00  0.00     0.044 A 
BRANCH 102 103
ATOM    103  N   UNL A   1      32.584  19.755  24.293  1.00  0.00    -0.308 N 
ATOM    104  C   UNL A   1      32.792  19.640  25.732  1.00  0.00     0.154 C 
ATOM    105  C   UNL A   1      32.328  18.614  23.529  1.00  0.00     0.253 C 
ATOM    106  C   UNL A   1      33.467  18.323  26.087  1.00  0.00     0.183 C 
ATOM    107  C   UNL A   1      32.330  17.278  24.311  1.00  0.00     0.260 C 
ATOM    108  O   UNL A   1      32.245  18.626  22.298  1.00  0.00    -0.272 OA
ATOM    109  O   UNL A   1      32.642  17.231  25.698  1.00  0.00    -0.370 OA
ENDBRANCH 102 103
ENDBRANCH  95  97
ENDBRANCH  92  95
ENDBRANCH  86  88
ENDBRANCH  82  86
ENDBRANCH  77  80
ENDBRANCH  75  76
ENDBRANCH  74  75
ENDBRANCH   1  74
TORSDOF 21
ENDMDL
MODEL 2
REMARK VINA RESULT:     -11.7      1.847      7.244
REMARK SMILES O=C(NCCCCCCNC(=O)c1ccccc1Nc1nc(Cl)nc(Nc2ccc(N3CCOCC3=O)cc2)n1)c1ccc(-c2c3nc(c(-c4cc(S(=O)(=O)[O-])ccc4F)c4ccc([nH]4)c(-c4cc(S(=O)(=O)[O-])ccc4F)c4nc(c(-c5cc(S(=O)(=O)[O-])ccc5F)c5ccc2[nH]5)C=C4)C=C3)cc1
REMARK SMILES IDX 7 1 6 2 5 3 4 4 3 5 1 6 2 7 41 9 42 10 103 11 43 12 102 13
REMARK SMILES IDX 44 14 45 15 46 16 96 17 47 18 101 19 95 20 97 21 48 22
REMARK SMILES IDX 100 23 94 24 93 25 49 27 81 28 61 29 80 30 62 31 65 32 79 33
REMARK SMILES IDX 98 34 63 35 64 36 78 38 99 39 66 40 50 41 51 42 59 43 52 44
REMARK SMILES IDX 58 45 60 46 57 47 53 48 54 49 55 50 56 51 82 52 83 53 91 54
REMARK SMILES IDX 84 55 90 56 92 57 89 58 85 59 86 60 87 61 88 62 67 63 68 64
REMARK SMILES IDX 76 65 69 66 75 67 77 68 74 69 70 70 71 71 72 72 73 73 8 74
REMARK SMILES IDX 9 75 10 76 11 77 12 79 13 80 14 81 18 82 15 83 17 84 16 85
REMARK SMILES IDX 19 86 20 88 21 89 40 90 22 91 25 92 23 93 24 94 26 95 27 97
REMARK SMILES IDX 28 98 39 99 29 100 38 101 30 102 31 103 32 104 36 105 33 106
REMARK SMILES IDX 35 107 37 108 34 109
REMARK H PARENT 3 8 97 26 65 37 10 78 19 87 26 96
REMARK Flexibility Score: inf
ROOT
ATOM      1  C   UNL A   1      36.229  23.752  24.689  1.00  0.00     0.002 C 
ENDROOT
BRANCH   1   2
ATOM      2  C   UNL A   1      36.203  22.564  23.722  1.00  0.00     0.002 C 
BRANCH   2   3
ATOM      3  C   UNL A   1      36.725  21.238  24.272  1.00  0.00     0.021 C 
BRANCH   3   4
ATOM      4  C   UNL A   1      37.344  21.294  25.662  1.00  0.00     0.116 C 
BRANCH   4   5
ATOM      5  N   UNL A   1      38.384  20.299  25.872  1.00  0.00    -0.352 N 
ATOM      6  O   UNL A   1      40.460  19.527  26.303  1.00  0.00    -0.269 OA
ATOM      7  C   UNL A   1      39.685  20.480  26.281  1.00  0.00     0.251 C 
ATOM      8  H   UNL A   1      38.120  19.367  25.697  1.00  0.00     0.163 HD
BRANCH   7   9
ATOM      9  C   UNL A   1      40.158  21.831  26.663  1.00  0.00     0.039 A 
ATOM     10  C   UNL A   1      39.656  22.971  26.031  1.00  0.00     0.014 A 
ATOM     11  C   UNL A   1      41.129  21.957  27.662  1.00  0.00     0.014 A 
ATOM     12  C   UNL A   1      40.230  24.212  26.285  1.00  0.00     0.010 A 
ATOM     13  C   UNL A   1      41.645  23.219  27.977  1.00  0.00     0.010 A 
ATOM     14  C   UNL A   1      41.226  24.354  27.265  1.00  0.00    -0.014 A 
BRANCH  14  15
ATOM     15  C   UNL A   1      41.786  25.705  27.542  1.00  0.00     0.031 A 
ATOM     16  C   UNL A   1      41.014  26.718  28.344  1.00  0.00     0.074 A 
ATOM     17  C   UNL A   1      43.024  25.997  27.099  1.00  0.00     0.049 A 
ATOM     18  N   UNL A   1      41.371  27.923  28.713  1.00  0.00    -0.248 NA
ATOM     19  C   UNL A   1      39.664  26.335  28.778  1.00  0.00     0.031 C 
ATOM     20  C   UNL A   1      43.865  25.097  26.305  1.00  0.00     0.029 A 
ATOM     21  N   UNL A   1      43.803  27.112  27.269  1.00  0.00    -0.354 N 
ATOM     22  C   UNL A   1      40.286  28.451  29.405  1.00  0.00     0.074 A 
ATOM     23  C   UNL A   1      39.245  27.443  29.374  1.00  0.00     0.031 C 
ATOM     24  C   UNL A   1      45.061  25.671  26.110  1.00  0.00     0.029 A 
ATOM     25  C   UNL A   1      45.053  27.003  26.705  1.00  0.00     0.049 A 
ATOM     26  H   UNL A   1      43.497  27.915  27.751  1.00  0.00     0.167 HD
ATOM     27  C   UNL A   1      40.171  29.658  30.014  1.00  0.00     0.034 A 
ATOM     28  C   UNL A   1      46.076  27.876  26.659  1.00  0.00     0.034 A 
ATOM     29  C   UNL A   1      41.223  30.648  30.047  1.00  0.00     0.049 A 
ATOM     30  C   UNL A   1      45.913  29.218  27.321  1.00  0.00     0.074 A 
ATOM     31  C   UNL A   1      41.226  31.884  30.672  1.00  0.00     0.029 A 
ATOM     32  N   UNL A   1      42.457  30.523  29.420  1.00  0.00    -0.354 N 
ATOM     33  N   UNL A   1      44.886  29.691  27.987  1.00  0.00    -0.248 NA
ATOM     34  C   UNL A   1      47.049  30.142  27.223  1.00  0.00     0.031 C 
ATOM     35  C   UNL A   1      42.432  32.530  30.371  1.00  0.00     0.029 A 
ATOM     36  C   UNL A   1      43.214  31.669  29.617  1.00  0.00     0.049 A 
ATOM     37  H   UNL A   1      42.751  29.733  28.910  1.00  0.00     0.167 HD
ATOM     38  C   UNL A   1      45.263  30.963  28.407  1.00  0.00     0.074 A 
ATOM     39  C   UNL A   1      46.617  31.171  27.935  1.00  0.00     0.031 C 
ATOM     40  C   UNL A   1      44.555  31.874  29.122  1.00  0.00     0.034 A 
BRANCH  27  41
ATOM     41  C   UNL A   1      38.845  29.991  30.657  1.00  0.00     0.023 A 
ATOM     42  C   UNL A   1      37.926  30.864  30.051  1.00  0.00     0.031 A 
ATOM     43  C   UNL A   1      38.506  29.440  31.906  1.00  0.00     0.131 A 
ATOM     44  C   UNL A   1      36.746  31.216  30.726  1.00  0.00     0.055 A 
ATOM     45  C   UNL A   1      37.297  29.738  32.540  1.00  0.00     0.041 A 
ATOM     46  F   UNL A   1      39.350  28.611  32.540  1.00  0.00    -0.206 F 
ATOM     47  C   UNL A   1      36.415  30.643  31.957  1.00  0.00     0.022 A 
BRANCH  44  48
ATOM     48  S   UNL A   1      35.718  32.539  30.036  1.00  0.00     0.124 S 
ATOM     49  O   UNL A   1      34.475  32.376  30.784  1.00  0.00    -0.237 OA
ATOM     50  O   UNL A   1      36.488  33.739  30.338  1.00  0.00    -0.237 OA
ATOM     51  O   UNL A   1      35.632  32.206  28.616  1.00  0.00    -0.744 OA
ENDBRANCH  44  48
ENDBRANCH  27  41
BRANCH  28  52
ATOM     52  C   UNL A   1      47.336  27.520  25.950  1.00  0.00     0.023 A 
ATOM     53  C   UNL A   1      48.444  27.023  26.652  1.00  0.00     0.031 A 
ATOM     54  C   UNL A   1      47.455  27.690  24.559  1.00  0.00     0.131 A 
ATOM     55  C   UNL A   1      49.637  26.747  25.966  1.00  0.00     0.055 A 
ATOM     56  C   UNL A   1      48.626  27.366  23.875  1.00  0.00     0.041 A 
ATOM     57  F   UNL A   1      46.420  28.157  23.841  1.00  0.00    -0.206 F 
ATOM     58  C   UNL A   1      49.731  26.902  24.581  1.00  0.00     0.022 A 
BRANCH  55  59
ATOM     59  S   UNL A   1      51.092  26.244  26.925  1.00  0.00     0.124 S 
ATOM     60  O   UNL A   1      52.184  26.668  26.056  1.00  0.00    -0.237 OA
ATOM     61  O   UNL A   1      50.921  27.005  28.158  1.00  0.00    -0.237 OA
ATOM     62  O   UNL A   1      50.927  24.799  27.060  1.00  0.00    -0.744 OA
ENDBRANCH  55  59
ENDBRANCH  28  52
BRANCH  40  63
ATOM     63  C   UNL A   1      45.260  33.164  29.459  1.00  0.00     0.023 A 
ATOM     64  C   UNL A   1      45.213  34.277  28.601  1.00  0.00     0.031 A 
ATOM     65  C   UNL A   1      46.024  33.267  30.634  1.00  0.00     0.131 A 
ATOM     66  C   UNL A   1      45.969  35.421  28.898  1.00  0.00     0.055 A 
ATOM     67  C   UNL A   1      46.726  34.430  30.955  1.00  0.00     0.041 A 
ATOM     68  F   UNL A   1      46.106  32.234  31.488  1.00  0.00    -0.206 F 
ATOM     69  C   UNL A   1      46.713  35.510  30.077  1.00  0.00     0.022 A 
BRANCH  66  70
ATOM     70  S   UNL A   1      46.052  36.754  27.669  1.00  0.00     0.124 S 
ATOM     71  O   UNL A   1      44.709  37.321  27.746  1.00  0.00    -0.237 OA
ATOM     72  O   UNL A   1      47.128  37.591  28.189  1.00  0.00    -0.237 OA
ATOM     73  O   UNL A   1      46.358  36.053  26.423  1.00  0.00    -0.744 OA
ENDBRANCH  66  70
ENDBRANCH  40  63
ENDBRANCH  14  15
ENDBRANCH   7   9
ENDBRANCH   4   5
ENDBRANCH   3   4
ENDBRANCH   2   3
ENDBRANCH   1   2
BRANCH   1  74
ATOM     74  C   UNL A   1      35.002  23.924  25.591  1.00  0.00     0.021 C 
BRANCH  74  75
ATOM     75  C   UNL A   1      34.454  25.346  25.707  1.00  0.00     0.116 C 
BRANCH  75  76
ATOM     76  N   UNL A   1      34.316  26.001  24.415  1.00  0.00    -0.352 N 
ATOM     77  C   UNL A   1      33.765  27.224  24.125  1.00  0.00     0.253 C 
ATOM     78  H   UNL A   1      34.665  25.498  23.644  1.00  0.00     0.163 HD
ATOM     79  O   UNL A   1      33.694  27.611  22.962  1.00  0.00    -0.269 OA
BRANCH  77  80
ATOM     80  C   UNL A   1      33.220  28.071  25.206  1.00  0.00     0.063 A 
ATOM     81  C   UNL A   1      34.137  28.905  25.867  1.00  0.00     0.016 A 
ATOM     82  C   UNL A   1      31.864  28.041  25.581  1.00  0.00     0.054 A 
ATOM     83  C   UNL A   1      33.703  29.761  26.876  1.00  0.00     0.001 A 
ATOM     84  C   UNL A   1      31.446  28.950  26.568  1.00  0.00     0.027 A 
ATOM     85  C   UNL A   1      32.354  29.792  27.215  1.00  0.00     0.002 A 
BRANCH  82  86
ATOM     86  N   UNL A   1      30.952  27.154  24.986  1.00  0.00    -0.323 N 
ATOM     87  H   UNL A   1      30.364  27.560  24.309  1.00  0.00     0.170 HD
BRANCH  86  88
ATOM     88  C   UNL A   1      30.746  25.794  25.200  1.00  0.00     0.233 A 
ATOM     89  N   UNL A   1      29.983  25.396  26.203  1.00  0.00    -0.182 NA
ATOM     90  N   UNL A   1      31.346  24.972  24.347  1.00  0.00    -0.176 NA
ATOM     91  C   UNL A   1      29.848  24.082  26.279  1.00  0.00     0.228 A 
ATOM     92  C   UNL A   1      31.194  23.666  24.568  1.00  0.00     0.233 A 
ATOM     93  Cl  UNL A   1      28.877  23.509  27.561  1.00  0.00    -0.041 Cl
ATOM     94  N   UNL A   1      30.426  23.171  25.521  1.00  0.00    -0.182 NA
BRANCH  92  95
ATOM     95  N   UNL A   1      32.013  22.833  23.813  1.00  0.00    -0.324 N 
ATOM     96  H   UNL A   1      32.338  23.217  22.966  1.00  0.00     0.170 HD
BRANCH  95  97
ATOM     97  C   UNL A   1      32.441  21.530  24.080  1.00  0.00     0.041 A 
ATOM     98  C   UNL A   1      33.029  21.241  25.320  1.00  0.00     0.028 A 
ATOM     99  C   UNL A   1      32.224  20.481  23.183  1.00  0.00     0.028 A 
ATOM    100  C   UNL A   1      33.376  19.930  25.661  1.00  0.00     0.028 A 
ATOM    101  C   UNL A   1      32.637  19.182  23.491  1.00  0.00     0.028 A 
ATOM    102  C   UNL A   1      33.197  18.899  24.738  1.00  0.00     0.044 A 
BRANCH 102 103
ATOM    103  N   UNL A   1      33.505  17.561  25.087  1.00  0.00    -0.308 N 
ATOM    104  C   UNL A   1      32.382  16.654  25.292  1.00  0.00     0.154 C 
ATOM    105  C   UNL A   1      34.786  17.052  24.859  1.00  0.00     0.253 C 
ATOM    106  C   UNL A   1      32.827  15.380  25.996  1.00  0.00     0.183 C 
ATOM    107  C   UNL A   1      34.900  15.509  24.888  1.00  0.00     0.260 C 
ATOM    108  O   UNL A   1      35.794  17.760  24.779  1.00  0.00    -0.272 OA
ATOM    109  O   UNL A   1      33.780  14.688  25.197  1.00  0.00    -0.370 OA
ENDBRANCH 102 103
ENDBRANCH  95  97
ENDBRANCH  92  95
ENDBRANCH  86  88
ENDBRANCH  82  86
ENDBRANCH  77  80
ENDBRANCH  75  76
ENDBRANCH  74  75
ENDBRANCH   1  74
TORSDOF 21
ENDMDL
MODEL 3
REMARK VINA RESULT:     -11.5      2.143      2.773
REMARK SMILES O=C(NCCCCCCNC(=O)c1ccccc1Nc1nc(Cl)nc(Nc2ccc(N3CCOCC3=O)cc2)n1)c1ccc(-c2c3nc(c(-c4cc(S(=O)(=O)[O-])ccc4F)c4ccc([nH]4)c(-c4cc(S(=O)(=O)[O-])ccc4F)c4nc(c(-c5cc(S(=O)(=O)[O-])ccc5F)c5ccc2[nH]5)C=C4)C=C3)cc1
REMARK SMILES IDX 7 1 6 2 5 3 4 4 3 5 1 6 2 7 41 9 42 10 103 11 43 12 102 13
REMARK SMILES IDX 44 14 45 15 46 16 96 17 47 18 101 19 95 20 97 21 48 22
REMARK SMILES IDX 100 23 94 24 93 25 49 27 81 28 61 29 80 30 62 31 65 32 79 33
REMARK SMILES IDX 98 34 63 35 64 36 78 38 99 39 66 40 50 41 51 42 59 43 52 44
REMARK SMILES IDX 58 45 60 46 57 47 53 48 54 49 55 50 56 51 82 52 83 53 91 54
REMARK SMILES IDX 84 55 90 56 92 57 89 58 85 59 86 60 87 61 88 62 67 63 68 64
REMARK SMILES IDX 76 65 69 66 75 67 77 68 74 69 70 70 71 71 72 72 73 73 8 74
REMARK SMILES IDX 9 75 10 76 11 77 12 79 13 80 14 81 18 82 15 83 17 84 16 85
REMARK SMILES IDX 19 86 20 88 21 89 40 90 22 91 25 92 23 93 24 94 26 95 27 97
REMARK SMILES IDX 28 98 39 99 29 100 38 101 30 102 31 103 32 104 36 105 33 106
REMARK SMILES IDX 35 107 37 108 34 109
REMARK H PARENT 3 8 97 26 65 37 10 78 19 87 26 96
REMARK Flexibility Score: inf
ROOT
ATOM      1  C   UNL A   1      36.759  23.314  25.020  1.00  0.00     0.002 C 
ENDROOT
BRANCH   1   2
ATOM      2  C   UNL A   1      37.157  22.074  24.213  1.00  0.00     0.002 C 
BRANCH   2   3
ATOM      3  C   UNL A   1      37.632  20.869  25.023  1.00  0.00     0.021 C 
BRANCH   3   4
ATOM      4  C   UNL A   1      38.803  21.122  25.964  1.00  0.00     0.116 C 
BRANCH   4   5
ATOM      5  N   UNL A   1      39.793  20.056  25.955  1.00  0.00    -0.352 N 
ATOM      6  O   UNL A   1      41.854  19.139  25.981  1.00  0.00    -0.269 OA
ATOM      7  C   UNL A   1      41.155  20.139  26.126  1.00  0.00     0.251 C 
ATOM      8  H   UNL A   1      39.438  19.150  25.805  1.00  0.00     0.163 HD
BRANCH   7   9
ATOM      9  C   UNL A   1      41.781  21.441  26.453  1.00  0.00     0.039 A 
ATOM     10  C   UNL A   1      42.040  21.797  27.778  1.00  0.00     0.014 A 
ATOM     11  C   UNL A   1      42.101  22.324  25.417  1.00  0.00     0.014 A 
ATOM     12  C   UNL A   1      42.471  23.086  28.076  1.00  0.00     0.010 A 
ATOM     13  C   UNL A   1      42.617  23.590  25.715  1.00  0.00     0.010 A 
ATOM     14  C   UNL A   1      42.772  23.996  27.050  1.00  0.00    -0.014 A 
BRANCH  14  15
ATOM     15  C   UNL A   1      43.275  25.351  27.404  1.00  0.00     0.031 A 
ATOM     16  C   UNL A   1      44.689  25.763  27.093  1.00  0.00     0.074 A 
ATOM     17  C   UNL A   1      42.427  26.229  27.974  1.00  0.00     0.049 A 
ATOM     18  N   UNL A   1      45.276  26.917  27.294  1.00  0.00    -0.248 NA
ATOM     19  C   UNL A   1      45.560  24.747  26.487  1.00  0.00     0.031 C 
ATOM     20  C   UNL A   1      41.035  25.941  28.330  1.00  0.00     0.029 A 
ATOM     21  N   UNL A   1      42.594  27.542  28.331  1.00  0.00    -0.354 N 
ATOM     22  C   UNL A   1      46.588  26.763  26.860  1.00  0.00     0.074 A 
ATOM     23  C   UNL A   1      46.718  25.390  26.415  1.00  0.00     0.031 C 
ATOM     24  C   UNL A   1      40.460  27.058  28.797  1.00  0.00     0.029 A 
ATOM     25  C   UNL A   1      41.455  28.125  28.837  1.00  0.00     0.049 A 
ATOM     26  H   UNL A   1      43.448  28.023  28.234  1.00  0.00     0.167 HD
ATOM     27  C   UNL A   1      47.587  27.680  26.829  1.00  0.00     0.034 A 
ATOM     28  C   UNL A   1      41.234  29.372  29.293  1.00  0.00     0.034 A 
ATOM     29  C   UNL A   1      47.438  29.050  27.266  1.00  0.00     0.049 A 
ATOM     30  C   UNL A   1      42.366  30.362  29.271  1.00  0.00     0.074 A 
ATOM     31  C   UNL A   1      48.373  30.071  27.238  1.00  0.00     0.029 A 
ATOM     32  N   UNL A   1      46.284  29.590  27.821  1.00  0.00    -0.354 N 
ATOM     33  N   UNL A   1      43.595  30.203  28.838  1.00  0.00    -0.248 NA
ATOM     34  C   UNL A   1      42.079  31.701  29.800  1.00  0.00     0.031 C 
ATOM     35  C   UNL A   1      47.807  31.206  27.831  1.00  0.00     0.029 A 
ATOM     36  C   UNL A   1      46.494  30.917  28.166  1.00  0.00     0.049 A 
ATOM     37  H   UNL A   1      45.439  29.100  27.949  1.00  0.00     0.167 HD
ATOM     38  C   UNL A   1      44.222  31.431  29.024  1.00  0.00     0.074 A 
ATOM     39  C   UNL A   1      43.228  32.322  29.588  1.00  0.00     0.031 C 
ATOM     40  C   UNL A   1      45.502  31.790  28.749  1.00  0.00     0.034 A 
BRANCH  27  41
ATOM     41  C   UNL A   1      48.942  27.219  26.347  1.00  0.00     0.023 A 
ATOM     42  C   UNL A   1      49.446  27.584  25.087  1.00  0.00     0.031 A 
ATOM     43  C   UNL A   1      49.733  26.381  27.154  1.00  0.00     0.131 A 
ATOM     44  C   UNL A   1      50.669  27.059  24.642  1.00  0.00     0.055 A 
ATOM     45  C   UNL A   1      50.984  25.920  26.736  1.00  0.00     0.041 A 
ATOM     46  F   UNL A   1      49.299  25.987  28.361  1.00  0.00    -0.206 F 
ATOM     47  C   UNL A   1      51.451  26.245  25.465  1.00  0.00     0.022 A 
BRANCH  44  48
ATOM     48  S   UNL A   1      51.155  27.340  22.919  1.00  0.00     0.124 S 
ATOM     49  O   UNL A   1      51.271  28.795  22.873  1.00  0.00    -0.237 OA
ATOM     50  O   UNL A   1      52.406  26.599  22.810  1.00  0.00    -0.237 OA
ATOM     51  O   UNL A   1      50.044  26.785  22.151  1.00  0.00    -0.744 OA
ENDBRANCH  44  48
ENDBRANCH  27  41
BRANCH  28  52
ATOM     52  C   UNL A   1      39.895  29.751  29.822  1.00  0.00     0.023 A 
ATOM     53  C   UNL A   1      39.632  29.735  31.201  1.00  0.00     0.031 A 
ATOM     54  C   UNL A   1      38.851  30.115  28.954  1.00  0.00     0.131 A 
ATOM     55  C   UNL A   1      38.345  30.044  31.669  1.00  0.00     0.055 A 
ATOM     56  C   UNL A   1      37.588  30.471  29.427  1.00  0.00     0.041 A 
ATOM     57  F   UNL A   1      39.054  30.151  27.626  1.00  0.00    -0.206 F 
ATOM     58  C   UNL A   1      37.326  30.425  30.793  1.00  0.00     0.022 A 
BRANCH  55  59
ATOM     59  S   UNL A   1      38.004  29.874  33.441  1.00  0.00     0.124 S 
ATOM     60  O   UNL A   1      37.245  31.089  33.717  1.00  0.00    -0.237 OA
ATOM     61  O   UNL A   1      37.254  28.624  33.488  1.00  0.00    -0.237 OA
ATOM     62  O   UNL A   1      39.336  29.822  34.040  1.00  0.00    -0.744 OA
ENDBRANCH  55  59
ENDBRANCH  28  52
BRANCH  40  63
ATOM     63  C   UNL A   1      45.876  33.224  29.029  1.00  0.00     0.023 A 
ATOM     64  C   UNL A   1      45.769  34.221  28.043  1.00  0.00     0.031 A 
ATOM     65  C   UNL A   1      46.386  33.590  30.287  1.00  0.00     0.131 A 
ATOM     66  C   UNL A   1      46.227  35.520  28.309  1.00  0.00     0.055 A 
ATOM     67  C   UNL A   1      46.783  34.899  30.566  1.00  0.00     0.041 A 
ATOM     68  F   UNL A   1      46.512  32.679  31.264  1.00  0.00    -0.206 F 
ATOM     69  C   UNL A   1      46.719  35.869  29.570  1.00  0.00     0.022 A 
BRANCH  66  70
ATOM     70  S   UNL A   1      46.269  36.724  26.953  1.00  0.00     0.124 S 
ATOM     71  O   UNL A   1      47.546  37.393  27.181  1.00  0.00    -0.237 OA
ATOM     72  O   UNL A   1      46.198  35.869  25.773  1.00  0.00    -0.237 OA
ATOM     73  O   UNL A   1      45.086  37.551  27.191  1.00  0.00    -0.744 OA
ENDBRANCH  66  70
ENDBRANCH  40  63
ENDBRANCH  14  15
ENDBRANCH   7   9
ENDBRANCH   4   5
ENDBRANCH   3   4
ENDBRANCH   2   3
ENDBRANCH   1   2
BRANCH   1  74
ATOM     74  C   UNL A   1      35.257  23.537  25.230  1.00  0.00     0.021 C 
BRANCH  74  75
ATOM     75  C   UNL A   1      34.824  24.983  25.469  1.00  0.00     0.116 C 
BRANCH  75  76
ATOM     76  N   UNL A   1      34.377  25.644  24.253  1.00  0.00    -0.352 N 
ATOM     77  C   UNL A   1      33.683  26.819  24.118  1.00  0.00     0.253 C 
ATOM     78  H   UNL A   1      34.604  25.184  23.412  1.00  0.00     0.163 HD
ATOM     79  O   UNL A   1      33.348  27.217  23.005  1.00  0.00    -0.269 OA
BRANCH  77  80
ATOM     80  C   UNL A   1      33.299  27.600  25.312  1.00  0.00     0.063 A 
ATOM     81  C   UNL A   1      34.311  28.377  25.899  1.00  0.00     0.016 A 
ATOM     82  C   UNL A   1      32.003  27.561  25.858  1.00  0.00     0.054 A 
ATOM     83  C   UNL A   1      34.028  29.170  27.009  1.00  0.00     0.001 A 
ATOM     84  C   UNL A   1      31.734  28.408  26.947  1.00  0.00     0.027 A 
ATOM     85  C   UNL A   1      32.736  29.195  27.523  1.00  0.00     0.002 A 
BRANCH  82  86
ATOM     86  N   UNL A   1      31.004  26.726  25.332  1.00  0.00    -0.323 N 
ATOM     87  H   UNL A   1      30.348  27.181  24.756  1.00  0.00     0.170 HD
BRANCH  86  88
ATOM     88  C   UNL A   1      30.792  25.360  25.494  1.00  0.00     0.233 A 
ATOM     89  N   UNL A   1      30.004  24.928  26.464  1.00  0.00    -0.182 NA
ATOM     90  N   UNL A   1      31.413  24.567  24.628  1.00  0.00    -0.176 NA
ATOM     91  C   UNL A   1      29.868  23.613  26.491  1.00  0.00     0.228 A 
ATOM     92  C   UNL A   1      31.255  23.255  24.800  1.00  0.00     0.233 A 
ATOM     93  Cl  UNL A   1      28.865  22.998  27.728  1.00  0.00    -0.041 Cl
ATOM     94  N   UNL A   1      30.464  22.728  25.717  1.00  0.00    -0.182 NA
BRANCH  92  95
ATOM     95  N   UNL A   1      32.092  22.447  24.037  1.00  0.00    -0.324 N 
ATOM     96  H   UNL A   1      32.446  22.863  23.218  1.00  0.00     0.170 HD
BRANCH  95  97
ATOM     97  C   UNL A   1      32.503  21.131  24.264  1.00  0.00     0.041 A 
ATOM     98  C   UNL A   1      33.264  20.835  25.404  1.00  0.00     0.028 A 
ATOM     99  C   UNL A   1      32.107  20.078  23.434  1.00  0.00     0.028 A 
ATOM    100  C   UNL A   1      33.607  19.516  25.716  1.00  0.00     0.028 A 
ATOM    101  C   UNL A   1      32.510  18.768  23.704  1.00  0.00     0.028 A 
ATOM    102  C   UNL A   1      33.245  18.480  24.855  1.00  0.00     0.044 A 
BRANCH 102 103
ATOM    103  N   UNL A   1      33.549  17.136  25.181  1.00  0.00    -0.308 N 
ATOM    104  C   UNL A   1      32.427  16.211  25.297  1.00  0.00     0.154 C 
ATOM    105  C   UNL A   1      34.847  16.646  25.009  1.00  0.00     0.253 C 
ATOM    106  C   UNL A   1      32.848  14.921  25.987  1.00  0.00     0.183 C 
ATOM    107  C   UNL A   1      34.977  15.104  25.001  1.00  0.00     0.260 C 
ATOM    108  O   UNL A   1      35.848  17.366  25.007  1.00  0.00    -0.272 OA
ATOM    109  O   UNL A   1      33.851  14.263  25.223  1.00  0.00    -0.370 OA
ENDBRANCH 102 103
ENDBRANCH  95  97
ENDBRANCH  92  95
ENDBRANCH  86  88
ENDBRANCH  82  86
ENDBRANCH  77  80
ENDBRANCH  75  76
ENDBRANCH  74  75
ENDBRANCH   1  74
TORSDOF 21
ENDMDL
