MODEL 1
REMARK VINA RESULT:      -9.9      0.000      0.000
REMARK SMILES CCCCCCNC(=O)Oc1cccc(-c2ccc(CC(=O)NCCCCCCNC(=O)c3ccc(-c4c5nc(c(-c6cc(S(=O)(=O)[O-])ccc6F)c6ccc([nH]6)c(-c6cc(S(=O)(=O)[O-])ccc6F)c6nc(c(-c7cc(S(=O)(=O)[O-])ccc7F)c7ccc4[nH]7)C=C6)C=C5)cc3)cc2F)c1
REMARK SMILES IDX 21 1 22 2 23 3 20 5 19 6 16 7 17 8 97 9 18 10 96 11 98 12
REMARK SMILES IDX 15 13 11 14 12 15 99 16 13 17 14 18 10 19 8 20 7 21 9 23
REMARK SMILES IDX 6 24 5 25 4 26 3 27 2 28 1 29 24 30 25 31 26 32 27 33 28 34
REMARK SMILES IDX 29 35 30 36 31 37 32 39 33 40 34 41 95 42 35 43 94 44 36 45
REMARK SMILES IDX 37 46 38 47 88 48 39 49 93 50 87 51 89 52 40 53 92 54 86 55
REMARK SMILES IDX 85 56 41 58 73 59 53 60 72 61 54 62 57 63 71 64 90 65 55 66
REMARK SMILES IDX 56 67 70 69 91 70 58 71 42 72 43 73 51 74 44 75 50 76 52 77
REMARK SMILES IDX 49 78 45 79 46 80 47 81 48 82 74 83 75 84 83 85 76 86 82 87
REMARK SMILES IDX 84 88 81 89 77 90 78 91 79 92 80 93 59 94 60 95 68 96 61 97
REMARK SMILES IDX 67 98 69 99 66 100 62 101 63 102 64 103 65 104
REMARK H PARENT 23 4 7 22 30 38 89 57 57 68
REMARK Flexibility Score: inf
ROOT
ATOM      1  C   UNL A   1      34.852  33.844  28.186  1.00  0.00     0.224 C 
ATOM      2  O   UNL A   1      35.855  33.816  27.470  1.00  0.00    -0.275 OA
ATOM      3  N   UNL A   1      34.141  35.006  28.267  1.00  0.00    -0.356 N 
ATOM      4  H   UNL A   1      34.433  35.724  27.661  1.00  0.00     0.163 HD
ENDROOT
BRANCH   1   5
ATOM      5  C   UNL A   1      34.371  32.604  28.917  1.00  0.00     0.135 C 
BRANCH   5   6
ATOM      6  C   UNL A   1      34.237  31.374  28.054  1.00  0.00    -0.036 A 
ATOM      7  C   UNL A   1      33.921  29.048  26.460  1.00  0.00     0.018 A 
ATOM      8  C   UNL A   1      35.091  29.259  27.208  1.00  0.00     0.012 A 
ATOM      9  C   UNL A   1      32.927  30.035  26.520  1.00  0.00     0.131 A 
ATOM     10  C   UNL A   1      35.249  30.409  27.994  1.00  0.00     0.005 A 
ATOM     11  C   UNL A   1      33.082  31.185  27.287  1.00  0.00     0.044 A 
ATOM     12  F   UNL A   1      31.781  29.888  25.840  1.00  0.00    -0.206 F 
BRANCH   7  13
ATOM     13  C   UNL A   1      33.752  27.855  25.618  1.00  0.00    -0.012 A 
ATOM     14  C   UNL A   1      33.521  25.444  25.418  1.00  0.00     0.133 A 
ATOM     15  C   UNL A   1      33.493  25.536  24.030  1.00  0.00     0.047 A 
ATOM     16  C   UNL A   1      33.668  26.584  26.207  1.00  0.00     0.056 A 
ATOM     17  C   UNL A   1      33.575  26.790  23.428  1.00  0.00     0.004 A 
ATOM     18  C   UNL A   1      33.698  27.941  24.217  1.00  0.00     0.009 A 
BRANCH  14  19
ATOM     19  O   UNL A   1      33.519  24.159  25.983  1.00  0.00    -0.410 OA
BRANCH  19  20
ATOM     20  C   UNL A   1      32.299  23.599  26.327  1.00  0.00     0.412 C 
ATOM     21  N   UNL A   1      31.953  22.532  25.547  1.00  0.00    -0.321 N 
ATOM     22  H   UNL A   1      31.088  22.105  25.745  1.00  0.00     0.167 HD
ATOM     23  O   UNL A   1      31.550  23.982  27.223  1.00  0.00    -0.224 OA
BRANCH  21  24
ATOM     24  C   UNL A   1      32.724  21.963  24.460  1.00  0.00     0.119 C 
BRANCH  24  25
ATOM     25  C   UNL A   1      32.140  20.634  23.978  1.00  0.00     0.021 C 
BRANCH  25  26
ATOM     26  C   UNL A   1      33.073  19.424  24.124  1.00  0.00     0.002 C 
BRANCH  26  27
ATOM     27  C   UNL A   1      32.669  18.178  23.329  1.00  0.00    -0.000 C 
BRANCH  27  28
ATOM     28  C   UNL A   1      33.342  16.874  23.764  1.00  0.00    -0.003 C 
ATOM     29  C   UNL A   1      34.756  17.072  24.287  1.00  0.00     0.004 C 
ENDBRANCH  27  28
ENDBRANCH  26  27
ENDBRANCH  25  26
ENDBRANCH  24  25
ENDBRANCH  21  24
ENDBRANCH  19  20
ENDBRANCH  14  19
ENDBRANCH   7  13
ENDBRANCH   5   6
ENDBRANCH   1   5
BRANCH   3  30
ATOM     30  C   UNL A   1      33.015  35.332  29.123  1.00  0.00     0.116 C 
BRANCH  30  31
ATOM     31  C   UNL A   1      33.381  36.433  30.120  1.00  0.00     0.021 C 
BRANCH  31  32
ATOM     32  C   UNL A   1      33.092  36.066  31.583  1.00  0.00     0.002 C 
BRANCH  32  33
ATOM     33  C   UNL A   1      33.519  34.652  31.993  1.00  0.00     0.002 C 
BRANCH  33  34
ATOM     34  C   UNL A   1      34.896  34.558  32.656  1.00  0.00     0.021 C 
BRANCH  34  35
ATOM     35  C   UNL A   1      35.886  33.648  31.936  1.00  0.00     0.116 C 
BRANCH  35  36
ATOM     36  N   UNL A   1      35.732  32.257  32.332  1.00  0.00    -0.352 N 
ATOM     37  C   UNL A   1      36.558  31.187  32.092  1.00  0.00     0.251 C 
ATOM     38  H   UNL A   1      34.917  32.054  32.846  1.00  0.00     0.163 HD
ATOM     39  O   UNL A   1      36.159  30.049  32.319  1.00  0.00    -0.269 OA
BRANCH  37  40
ATOM     40  C   UNL A   1      37.914  31.408  31.544  1.00  0.00     0.039 A 
ATOM     41  C   UNL A   1      38.074  31.536  30.162  1.00  0.00     0.014 A 
ATOM     42  C   UNL A   1      39.028  31.476  32.387  1.00  0.00     0.014 A 
ATOM     43  C   UNL A   1      39.340  31.792  29.631  1.00  0.00     0.010 A 
ATOM     44  C   UNL A   1      40.276  31.803  31.862  1.00  0.00     0.010 A 
ATOM     45  C   UNL A   1      40.447  31.961  30.479  1.00  0.00    -0.014 A 
BRANCH  45  46
ATOM     46  C   UNL A   1      41.789  32.294  29.934  1.00  0.00     0.031 A 
ATOM     47  C   UNL A   1      42.161  33.727  29.664  1.00  0.00     0.074 A 
ATOM     48  C   UNL A   1      42.651  31.304  29.631  1.00  0.00     0.049 A 
ATOM     49  N   UNL A   1      43.256  34.215  29.138  1.00  0.00    -0.248 NA
ATOM     50  C   UNL A   1      41.153  34.743  30.001  1.00  0.00     0.031 C 
ATOM     51  C   UNL A   1      42.388  29.874  29.809  1.00  0.00     0.029 A 
ATOM     52  N   UNL A   1      43.917  31.344  29.105  1.00  0.00    -0.354 N 
ATOM     53  C   UNL A   1      43.065  35.592  29.072  1.00  0.00     0.074 A 
ATOM     54  C   UNL A   1      41.722  35.848  29.547  1.00  0.00     0.031 C 
ATOM     55  C   UNL A   1      43.471  29.178  29.428  1.00  0.00     0.029 A 
ATOM     56  C   UNL A   1      44.486  30.104  28.935  1.00  0.00     0.049 A 
ATOM     57  H   UNL A   1      44.377  32.184  28.872  1.00  0.00     0.167 HD
ATOM     58  C   UNL A   1      43.938  36.552  28.676  1.00  0.00     0.034 A 
ATOM     59  C   UNL A   1      45.685  29.750  28.430  1.00  0.00     0.034 A 
ATOM     60  C   UNL A   1      45.276  36.276  28.211  1.00  0.00     0.049 A 
ATOM     61  C   UNL A   1      46.628  30.831  27.968  1.00  0.00     0.074 A 
ATOM     62  C   UNL A   1      46.262  37.174  27.838  1.00  0.00     0.029 A 
ATOM     63  N   UNL A   1      45.815  35.007  28.044  1.00  0.00    -0.354 N 
ATOM     64  N   UNL A   1      46.453  32.133  27.962  1.00  0.00    -0.248 NA
ATOM     65  C   UNL A   1      47.933  30.396  27.456  1.00  0.00     0.031 C 
ATOM     66  C   UNL A   1      47.367  36.447  27.379  1.00  0.00     0.029 A 
ATOM     67  C   UNL A   1      47.105  35.097  27.541  1.00  0.00     0.049 A 
ATOM     68  H   UNL A   1      45.349  34.165  28.253  1.00  0.00     0.167 HD
ATOM     69  C   UNL A   1      47.641  32.672  27.473  1.00  0.00     0.074 A 
ATOM     70  C   UNL A   1      48.525  31.555  27.209  1.00  0.00     0.031 C 
ATOM     71  C   UNL A   1      47.972  33.973  27.265  1.00  0.00     0.034 A 
BRANCH  58  72
ATOM     72  C   UNL A   1      43.451  37.984  28.707  1.00  0.00     0.023 A 
ATOM     73  C   UNL A   1      43.786  38.856  29.759  1.00  0.00     0.031 A 
ATOM     74  C   UNL A   1      42.607  38.474  27.696  1.00  0.00     0.131 A 
ATOM     75  C   UNL A   1      43.208  40.133  29.824  1.00  0.00     0.055 A 
ATOM     76  C   UNL A   1      42.107  39.779  27.719  1.00  0.00     0.041 A 
ATOM     77  F   UNL A   1      42.234  37.686  26.674  1.00  0.00    -0.206 F 
ATOM     78  C   UNL A   1      42.392  40.610  28.798  1.00  0.00     0.022 A 
BRANCH  75  79
ATOM     79  S   UNL A   1      43.404  41.092  31.352  1.00  0.00     0.124 S 
ATOM     80  O   UNL A   1      44.554  40.434  31.967  1.00  0.00    -0.237 OA
ATOM     81  O   UNL A   1      43.632  42.442  30.849  1.00  0.00    -0.237 OA
ATOM     82  O   UNL A   1      42.135  40.890  32.048  1.00  0.00    -0.744 OA
ENDBRANCH  75  79
ENDBRANCH  58  72
BRANCH  59  83
ATOM     83  C   UNL A   1      46.066  28.312  28.333  1.00  0.00     0.023 A 
ATOM     84  C   UNL A   1      45.846  27.585  27.153  1.00  0.00     0.031 A 
ATOM     85  C   UNL A   1      46.628  27.636  29.431  1.00  0.00     0.131 A 
ATOM     86  C   UNL A   1      46.148  26.215  27.109  1.00  0.00     0.055 A 
ATOM     87  C   UNL A   1      46.975  26.285  29.365  1.00  0.00     0.041 A 
ATOM     88  F   UNL A   1      46.864  28.286  30.581  1.00  0.00    -0.206 F 
ATOM     89  C   UNL A   1      46.724  25.564  28.202  1.00  0.00     0.022 A 
BRANCH  86  90
ATOM     90  S   UNL A   1      45.710  25.276  25.620  1.00  0.00     0.124 S 
ATOM     91  O   UNL A   1      46.196  23.943  25.957  1.00  0.00    -0.237 OA
ATOM     92  O   UNL A   1      44.261  25.439  25.575  1.00  0.00    -0.237 OA
ATOM     93  O   UNL A   1      46.446  25.960  24.558  1.00  0.00    -0.744 OA
ENDBRANCH  86  90
ENDBRANCH  59  83
BRANCH  71  94
ATOM     94  C   UNL A   1      49.369  34.254  26.766  1.00  0.00     0.023 A 
ATOM     95  C   UNL A   1      50.495  34.114  27.597  1.00  0.00     0.031 A 
ATOM     96  C   UNL A   1      49.573  34.682  25.443  1.00  0.00     0.131 A 
ATOM     97  C   UNL A   1      51.767  34.452  27.111  1.00  0.00     0.055 A 
ATOM     98  C   UNL A   1      50.848  34.956  24.947  1.00  0.00     0.041 A 
ATOM     99  F   UNL A   1      48.534  34.837  24.606  1.00  0.00    -0.206 F 
ATOM    100  C   UNL A   1      51.953  34.856  25.786  1.00  0.00     0.022 A 
BRANCH  97 101
ATOM    101  S   UNL A   1      53.169  34.448  28.263  1.00  0.00     0.124 S 
ATOM    102  O   UNL A   1      52.518  34.134  29.531  1.00  0.00    -0.237 OA
ATOM    103  O   UNL A   1      54.025  33.404  27.710  1.00  0.00    -0.237 OA
ATOM    104  O   UNL A   1      53.702  35.806  28.159  1.00  0.00    -0.744 OA
ENDBRANCH  97 101
ENDBRANCH  71  94
ENDBRANCH  45  46
ENDBRANCH  37  40
ENDBRANCH  35  36
ENDBRANCH  34  35
ENDBRANCH  33  34
ENDBRANCH  32  33
ENDBRANCH  31  32
ENDBRANCH  30  31
ENDBRANCH   3  30
TORSDOF 25
ENDMDL
MODEL 2
REMARK VINA RESULT:      -9.8      4.696     10.857
REMARK SMILES CCCCCCNC(=O)Oc1cccc(-c2ccc(CC(=O)NCCCCCCNC(=O)c3ccc(-c4c5nc(c(-c6cc(S(=O)(=O)[O-])ccc6F)c6ccc([nH]6)c(-c6cc(S(=O)(=O)[O-])ccc6F)c6nc(c(-c7cc(S(=O)(=O)[O-])ccc7F)c7ccc4[nH]7)C=C6)C=C5)cc3)cc2F)c1
REMARK SMILES IDX 21 1 22 2 23 3 20 5 19 6 16 7 17 8 97 9 18 10 96 11 98 12
REMARK SMILES IDX 15 13 11 14 12 15 99 16 13 17 14 18 10 19 8 20 7 21 9 23
REMARK SMILES IDX 6 24 5 25 4 26 3 27 2 28 1 29 24 30 25 31 26 32 27 33 28 34
REMARK SMILES IDX 29 35 30 36 31 37 32 39 33 40 34 41 95 42 35 43 94 44 36 45
REMARK SMILES IDX 37 46 38 47 88 48 39 49 93 50 87 51 89 52 40 53 92 54 86 55
REMARK SMILES IDX 85 56 41 58 73 59 53 60 72 61 54 62 57 63 71 64 90 65 55 66
REMARK SMILES IDX 56 67 70 69 91 70 58 71 42 72 43 73 51 74 44 75 50 76 52 77
REMARK SMILES IDX 49 78 45 79 46 80 47 81 48 82 74 83 75 84 83 85 76 86 82 87
REMARK SMILES IDX 84 88 81 89 77 90 78 91 79 92 80 93 59 94 60 95 68 96 61 97
REMARK SMILES IDX 67 98 69 99 66 100 62 101 63 102 64 103 65 104
REMARK H PARENT 23 4 7 22 30 38 89 57 57 68
REMARK Flexibility Score: inf
ROOT
ATOM      1  C   UNL A   1      38.901  28.591  29.043  1.00  0.00     0.224 C 
ATOM      2  O   UNL A   1      38.627  28.218  30.185  1.00  0.00    -0.275 OA
ATOM      3  N   UNL A   1      39.832  27.890  28.333  1.00  0.00    -0.356 N 
ATOM      4  H   UNL A   1      40.155  27.063  28.759  1.00  0.00     0.163 HD
ENDROOT
BRANCH   1   5
ATOM      5  C   UNL A   1      38.180  29.764  28.403  1.00  0.00     0.135 C 
BRANCH   5   6
ATOM      6  C   UNL A   1      37.522  30.708  29.377  1.00  0.00    -0.036 A 
ATOM      7  C   UNL A   1      36.347  32.505  31.233  1.00  0.00     0.018 A 
ATOM      8  C   UNL A   1      35.917  31.170  31.146  1.00  0.00     0.012 A 
ATOM      9  C   UNL A   1      37.365  32.915  30.361  1.00  0.00     0.131 A 
ATOM     10  C   UNL A   1      36.494  30.283  30.227  1.00  0.00     0.005 A 
ATOM     11  C   UNL A   1      37.934  32.044  29.438  1.00  0.00     0.044 A 
ATOM     12  F   UNL A   1      37.831  34.172  30.402  1.00  0.00    -0.206 F 
BRANCH   7  13
ATOM     13  C   UNL A   1      35.736  33.449  32.179  1.00  0.00    -0.012 A 
ATOM     14  C   UNL A   1      34.083  35.165  32.657  1.00  0.00     0.133 A 
ATOM     15  C   UNL A   1      34.578  35.319  33.948  1.00  0.00     0.047 A 
ATOM     16  C   UNL A   1      34.663  34.257  31.772  1.00  0.00     0.056 A 
ATOM     17  C   UNL A   1      35.642  34.525  34.369  1.00  0.00     0.004 A 
ATOM     18  C   UNL A   1      36.212  33.593  33.493  1.00  0.00     0.009 A 
BRANCH  14  19
ATOM     19  O   UNL A   1      33.066  36.041  32.244  1.00  0.00    -0.410 OA
BRANCH  19  20
ATOM     20  C   UNL A   1      33.430  37.307  31.815  1.00  0.00     0.412 C 
ATOM     21  N   UNL A   1      33.402  37.450  30.456  1.00  0.00    -0.321 N 
ATOM     22  H   UNL A   1      33.663  38.330  30.101  1.00  0.00     0.167 HD
ATOM     23  O   UNL A   1      33.767  38.248  32.531  1.00  0.00    -0.224 OA
BRANCH  21  24
ATOM     24  C   UNL A   1      33.028  36.442  29.484  1.00  0.00     0.119 C 
BRANCH  24  25
ATOM     25  C   UNL A   1      34.072  36.301  28.375  1.00  0.00     0.021 C 
BRANCH  25  26
ATOM     26  C   UNL A   1      34.797  34.949  28.335  1.00  0.00     0.002 C 
BRANCH  26  27
ATOM     27  C   UNL A   1      33.891  33.714  28.299  1.00  0.00    -0.000 C 
BRANCH  27  28
ATOM     28  C   UNL A   1      34.576  32.409  27.884  1.00  0.00    -0.003 C 
ATOM     29  C   UNL A   1      33.597  31.278  27.607  1.00  0.00     0.004 C 
ENDBRANCH  27  28
ENDBRANCH  26  27
ENDBRANCH  25  26
ENDBRANCH  24  25
ENDBRANCH  21  24
ENDBRANCH  19  20
ENDBRANCH  14  19
ENDBRANCH   7  13
ENDBRANCH   5   6
ENDBRANCH   1   5
BRANCH   3  30
ATOM     30  C   UNL A   1      40.414  28.192  27.038  1.00  0.00     0.116 C 
BRANCH  30  31
ATOM     31  C   UNL A   1      41.654  27.334  26.777  1.00  0.00     0.021 C 
BRANCH  31  32
ATOM     32  C   UNL A   1      42.419  26.948  28.051  1.00  0.00     0.002 C 
BRANCH  32  33
ATOM     33  C   UNL A   1      42.255  25.489  28.490  1.00  0.00     0.002 C 
BRANCH  33  34
ATOM     34  C   UNL A   1      41.337  24.645  27.601  1.00  0.00     0.021 C 
BRANCH  34  35
ATOM     35  C   UNL A   1      41.974  24.174  26.298  1.00  0.00     0.116 C 
BRANCH  35  36
ATOM     36  N   UNL A   1      42.953  23.122  26.520  1.00  0.00    -0.352 N 
ATOM     37  C   UNL A   1      44.324  23.187  26.485  1.00  0.00     0.251 C 
ATOM     38  H   UNL A   1      42.578  22.235  26.726  1.00  0.00     0.163 HD
ATOM     39  O   UNL A   1      44.981  22.150  26.486  1.00  0.00    -0.269 OA
BRANCH  37  40
ATOM     40  C   UNL A   1      45.001  24.500  26.424  1.00  0.00     0.039 A 
ATOM     41  C   UNL A   1      45.622  24.996  27.572  1.00  0.00     0.014 A 
ATOM     42  C   UNL A   1      45.015  25.247  25.241  1.00  0.00     0.014 A 
ATOM     43  C   UNL A   1      46.307  26.213  27.520  1.00  0.00     0.010 A 
ATOM     44  C   UNL A   1      45.760  26.423  25.172  1.00  0.00     0.010 A 
ATOM     45  C   UNL A   1      46.410  26.920  26.311  1.00  0.00    -0.014 A 
BRANCH  45  46
ATOM     46  C   UNL A   1      47.187  28.185  26.224  1.00  0.00     0.031 A 
ATOM     47  C   UNL A   1      48.677  28.144  26.020  1.00  0.00     0.074 A 
ATOM     48  C   UNL A   1      46.559  29.366  26.383  1.00  0.00     0.049 A 
ATOM     49  N   UNL A   1      49.535  29.132  25.976  1.00  0.00    -0.248 NA
ATOM     50  C   UNL A   1      49.286  26.813  25.880  1.00  0.00     0.031 C 
ATOM     51  C   UNL A   1      45.124  29.532  26.627  1.00  0.00     0.029 A 
ATOM     52  N   UNL A   1      47.042  30.650  26.370  1.00  0.00    -0.354 N 
ATOM     53  C   UNL A   1      50.785  28.541  25.814  1.00  0.00     0.074 A 
ATOM     54  C   UNL A   1      50.575  27.109  25.839  1.00  0.00     0.031 C 
ATOM     55  C   UNL A   1      44.841  30.841  26.711  1.00  0.00     0.029 A 
ATOM     56  C   UNL A   1      46.076  31.608  26.574  1.00  0.00     0.049 A 
ATOM     57  H   UNL A   1      47.992  30.866  26.228  1.00  0.00     0.167 HD
ATOM     58  C   UNL A   1      51.990  29.139  25.636  1.00  0.00     0.034 A 
ATOM     59  C   UNL A   1      46.174  32.950  26.652  1.00  0.00     0.034 A 
ATOM     60  C   UNL A   1      52.179  30.570  25.608  1.00  0.00     0.049 A 
ATOM     61  C   UNL A   1      47.527  33.592  26.481  1.00  0.00     0.074 A 
ATOM     62  C   UNL A   1      53.343  31.283  25.380  1.00  0.00     0.029 A 
ATOM     63  N   UNL A   1      51.178  31.509  25.827  1.00  0.00    -0.354 N 
ATOM     64  N   UNL A   1      48.692  33.022  26.274  1.00  0.00    -0.248 NA
ATOM     65  C   UNL A   1      47.575  35.058  26.543  1.00  0.00     0.031 C 
ATOM     66  C   UNL A   1      53.061  32.646  25.532  1.00  0.00     0.029 A 
ATOM     67  C   UNL A   1      51.706  32.791  25.774  1.00  0.00     0.049 A 
ATOM     68  H   UNL A   1      50.232  31.296  25.995  1.00  0.00     0.167 HD
ATOM     69  C   UNL A   1      49.607  34.065  26.152  1.00  0.00     0.074 A 
ATOM     70  C   UNL A   1      48.854  35.295  26.294  1.00  0.00     0.031 C 
ATOM     71  C   UNL A   1      50.947  34.011  25.935  1.00  0.00     0.034 A 
BRANCH  58  72
ATOM     72  C   UNL A   1      53.195  28.237  25.485  1.00  0.00     0.023 A 
ATOM     73  C   UNL A   1      53.899  27.751  26.602  1.00  0.00     0.031 A 
ATOM     74  C   UNL A   1      53.674  27.890  24.210  1.00  0.00     0.131 A 
ATOM     75  C   UNL A   1      55.089  27.030  26.424  1.00  0.00     0.055 A 
ATOM     76  C   UNL A   1      54.808  27.093  24.039  1.00  0.00     0.041 A 
ATOM     77  F   UNL A   1      53.058  28.337  23.103  1.00  0.00    -0.206 F 
ATOM     78  C   UNL A   1      55.534  26.675  25.150  1.00  0.00     0.022 A 
BRANCH  75  79
ATOM     79  S   UNL A   1      56.131  26.711  27.875  1.00  0.00     0.124 S 
ATOM     80  O   UNL A   1      55.332  27.301  28.946  1.00  0.00    -0.237 OA
ATOM     81  O   UNL A   1      56.231  25.256  27.877  1.00  0.00    -0.237 OA
ATOM     82  O   UNL A   1      57.370  27.424  27.569  1.00  0.00    -0.744 OA
ENDBRANCH  75  79
ENDBRANCH  58  72
BRANCH  59  83
ATOM     83  C   UNL A   1      44.961  33.779  26.903  1.00  0.00     0.023 A 
ATOM     84  C   UNL A   1      44.471  33.965  28.205  1.00  0.00     0.031 A 
ATOM     85  C   UNL A   1      44.257  34.373  25.841  1.00  0.00     0.131 A 
ATOM     86  C   UNL A   1      43.287  34.692  28.409  1.00  0.00     0.055 A 
ATOM     87  C   UNL A   1      43.109  35.139  26.054  1.00  0.00     0.041 A 
ATOM     88  F   UNL A   1      44.686  34.230  24.577  1.00  0.00    -0.206 F 
ATOM     89  C   UNL A   1      42.611  35.291  27.344  1.00  0.00     0.022 A 
BRANCH  86  90
ATOM     90  S   UNL A   1      42.602  34.783  30.086  1.00  0.00     0.124 S 
ATOM     91  O   UNL A   1      43.160  33.584  30.700  1.00  0.00    -0.237 OA
ATOM     92  O   UNL A   1      43.135  36.056  30.562  1.00  0.00    -0.237 OA
ATOM     93  O   UNL A   1      41.158  34.759  29.865  1.00  0.00    -0.744 OA
ENDBRANCH  86  90
ENDBRANCH  59  83
BRANCH  71  94
ATOM     94  C   UNL A   1      51.673  35.327  25.798  1.00  0.00     0.023 A 
ATOM     95  C   UNL A   1      52.010  36.109  26.917  1.00  0.00     0.031 A 
ATOM     96  C   UNL A   1      52.019  35.814  24.524  1.00  0.00     0.131 A 
ATOM     97  C   UNL A   1      52.623  37.358  26.738  1.00  0.00     0.055 A 
ATOM     98  C   UNL A   1      52.685  37.028  24.356  1.00  0.00     0.041 A 
ATOM     99  F   UNL A   1      51.718  35.111  23.419  1.00  0.00    -0.206 F 
ATOM    100  C   UNL A   1      52.978  37.815  25.466  1.00  0.00     0.022 A 
BRANCH  97 101
ATOM    101  S   UNL A   1      52.866  38.425  28.185  1.00  0.00     0.124 S 
ATOM    102  O   UNL A   1      52.808  39.757  27.593  1.00  0.00    -0.237 OA
ATOM    103  O   UNL A   1      51.741  38.056  29.038  1.00  0.00    -0.237 OA
ATOM    104  O   UNL A   1      54.180  38.026  28.689  1.00  0.00    -0.744 OA
ENDBRANCH  97 101
ENDBRANCH  71  94
ENDBRANCH  45  46
ENDBRANCH  37  40
ENDBRANCH  35  36
ENDBRANCH  34  35
ENDBRANCH  33  34
ENDBRANCH  32  33
ENDBRANCH  31  32
ENDBRANCH  30  31
ENDBRANCH   3  30
TORSDOF 25
ENDMDL
MODEL 3
REMARK VINA RESULT:      -9.6      6.412     10.901
REMARK SMILES CCCCCCNC(=O)Oc1cccc(-c2ccc(CC(=O)NCCCCCCNC(=O)c3ccc(-c4c5nc(c(-c6cc(S(=O)(=O)[O-])ccc6F)c6ccc([nH]6)c(-c6cc(S(=O)(=O)[O-])ccc6F)c6nc(c(-c7cc(S(=O)(=O)[O-])ccc7F)c7ccc4[nH]7)C=C6)C=C5)cc3)cc2F)c1
REMARK SMILES IDX 21 1 22 2 23 3 20 5 19 6 16 7 17 8 97 9 18 10 96 11 98 12
REMARK SMILES IDX 15 13 11 14 12 15 99 16 13 17 14 18 10 19 8 20 7 21 9 23
REMARK SMILES IDX 6 24 5 25 4 26 3 27 2 28 1 29 24 30 25 31 26 32 27 33 28 34
REMARK SMILES IDX 29 35 30 36 31 37 32 39 33 40 34 41 95 42 35 43 94 44 36 45
REMARK SMILES IDX 37 46 38 47 88 48 39 49 93 50 87 51 89 52 40 53 92 54 86 55
REMARK SMILES IDX 85 56 41 58 73 59 53 60 72 61 54 62 57 63 71 64 90 65 55 66
REMARK SMILES IDX 56 67 70 69 91 70 58 71 42 72 43 73 51 74 44 75 50 76 52 77
REMARK SMILES IDX 49 78 45 79 46 80 47 81 48 82 74 83 75 84 83 85 76 86 82 87
REMARK SMILES IDX 84 88 81 89 77 90 78 91 79 92 80 93 59 94 60 95 68 96 61 97
REMARK SMILES IDX 67 98 69 99 66 100 62 101 63 102 64 103 65 104
REMARK H PARENT 23 4 7 22 30 38 89 57 57 68
REMARK Flexibility Score: inf
ROOT
ATOM      1  C   UNL A   1      33.273  27.003  25.540  1.00  0.00     0.224 C 
ATOM      2  O   UNL A   1      34.096  27.099  26.452  1.00  0.00    -0.275 OA
ATOM      3  N   UNL A   1      32.787  28.147  24.976  1.00  0.00    -0.356 N 
ATOM      4  H   UNL A   1      33.210  28.982  25.281  1.00  0.00     0.163 HD
ENDROOT
BRANCH   1   5
ATOM      5  C   UNL A   1      32.847  25.649  25.002  1.00  0.00     0.135 C 
BRANCH   5   6
ATOM      6  C   UNL A   1      33.919  24.589  25.040  1.00  0.00    -0.036 A 
ATOM      7  C   UNL A   1      35.950  22.612  25.180  1.00  0.00     0.018 A 
ATOM      8  C   UNL A   1      35.911  23.536  24.122  1.00  0.00     0.012 A 
ATOM      9  C   UNL A   1      34.942  22.695  26.150  1.00  0.00     0.131 A 
ATOM     10  C   UNL A   1      34.907  24.511  24.051  1.00  0.00     0.005 A 
ATOM     11  C   UNL A   1      33.934  23.651  26.079  1.00  0.00     0.044 A 
ATOM     12  F   UNL A   1      34.929  21.851  27.192  1.00  0.00    -0.206 F 
BRANCH   7  13
ATOM     13  C   UNL A   1      36.987  21.573  25.254  1.00  0.00    -0.012 A 
ATOM     14  C   UNL A   1      39.307  20.947  25.618  1.00  0.00     0.133 A 
ATOM     15  C   UNL A   1      39.018  19.615  25.342  1.00  0.00     0.047 A 
ATOM     16  C   UNL A   1      38.313  21.922  25.557  1.00  0.00     0.056 A 
ATOM     17  C   UNL A   1      37.708  19.250  25.040  1.00  0.00     0.004 A 
ATOM     18  C   UNL A   1      36.700  20.221  25.003  1.00  0.00     0.009 A 
BRANCH  14  19
ATOM     19  O   UNL A   1      40.652  21.288  25.836  1.00  0.00    -0.410 OA
BRANCH  19  20
ATOM     20  C   UNL A   1      41.259  20.837  26.997  1.00  0.00     0.412 C 
ATOM     21  N   UNL A   1      42.589  21.142  27.069  1.00  0.00    -0.321 N 
ATOM     22  H   UNL A   1      43.068  20.834  27.872  1.00  0.00     0.167 HD
ATOM     23  O   UNL A   1      40.716  20.208  27.904  1.00  0.00    -0.224 OA
BRANCH  21  24
ATOM     24  C   UNL A   1      43.367  21.873  26.090  1.00  0.00     0.119 C 
BRANCH  24  25
ATOM     25  C   UNL A   1      44.495  21.024  25.504  1.00  0.00     0.021 C 
BRANCH  25  26
ATOM     26  C   UNL A   1      45.733  21.810  25.051  1.00  0.00     0.002 C 
BRANCH  26  27
ATOM     27  C   UNL A   1      45.772  23.282  25.475  1.00  0.00    -0.000 C 
BRANCH  27  28
ATOM     28  C   UNL A   1      46.832  24.139  24.778  1.00  0.00    -0.003 C 
ATOM     29  C   UNL A   1      47.575  25.067  25.727  1.00  0.00     0.004 C 
ENDBRANCH  27  28
ENDBRANCH  26  27
ENDBRANCH  25  26
ENDBRANCH  24  25
ENDBRANCH  21  24
ENDBRANCH  19  20
ENDBRANCH  14  19
ENDBRANCH   7  13
ENDBRANCH   5   6
ENDBRANCH   1   5
BRANCH   3  30
ATOM     30  C   UNL A   1      31.734  28.306  23.989  1.00  0.00     0.116 C 
BRANCH  30  31
ATOM     31  C   UNL A   1      30.764  29.418  24.393  1.00  0.00     0.021 C 
BRANCH  31  32
ATOM     32  C   UNL A   1      31.410  30.530  25.230  1.00  0.00     0.002 C 
BRANCH  32  33
ATOM     33  C   UNL A   1      31.368  30.310  26.746  1.00  0.00     0.002 C 
BRANCH  33  34
ATOM     34  C   UNL A   1      32.317  31.197  27.557  1.00  0.00     0.021 C 
BRANCH  34  35
ATOM     35  C   UNL A   1      32.961  32.329  26.762  1.00  0.00     0.116 C 
BRANCH  35  36
ATOM     36  N   UNL A   1      32.717  33.627  27.372  1.00  0.00    -0.352 N 
ATOM     37  C   UNL A   1      33.269  34.174  28.503  1.00  0.00     0.251 C 
ATOM     38  H   UNL A   1      32.062  34.195  26.905  1.00  0.00     0.163 HD
ATOM     39  O   UNL A   1      32.783  35.194  28.983  1.00  0.00    -0.269 OA
BRANCH  37  40
ATOM     40  C   UNL A   1      34.430  33.524  29.150  1.00  0.00     0.039 A 
ATOM     41  C   UNL A   1      35.718  33.875  28.741  1.00  0.00     0.014 A 
ATOM     42  C   UNL A   1      34.249  32.563  30.150  1.00  0.00     0.014 A 
ATOM     43  C   UNL A   1      36.826  33.305  29.374  1.00  0.00     0.010 A 
ATOM     44  C   UNL A   1      35.354  32.052  30.828  1.00  0.00     0.010 A 
ATOM     45  C   UNL A   1      36.654  32.414  30.445  1.00  0.00    -0.014 A 
BRANCH  45  46
ATOM     46  C   UNL A   1      37.822  31.847  31.169  1.00  0.00     0.031 A 
ATOM     47  C   UNL A   1      38.623  30.731  30.556  1.00  0.00     0.074 A 
ATOM     48  C   UNL A   1      38.126  32.299  32.401  1.00  0.00     0.049 A 
ATOM     49  N   UNL A   1      39.635  30.067  31.052  1.00  0.00    -0.248 NA
ATOM     50  C   UNL A   1      38.207  30.281  29.219  1.00  0.00     0.031 C 
ATOM     51  C   UNL A   1      37.399  33.349  33.118  1.00  0.00     0.029 A 
ATOM     52  N   UNL A   1      39.120  31.933  33.272  1.00  0.00    -0.354 N 
ATOM     53  C   UNL A   1      39.972  29.115  30.094  1.00  0.00     0.074 A 
ATOM     54  C   UNL A   1      39.008  29.246  29.022  1.00  0.00     0.031 C 
ATOM     55  C   UNL A   1      37.989  33.562  34.304  1.00  0.00     0.029 A 
ATOM     56  C   UNL A   1      39.107  32.635  34.455  1.00  0.00     0.049 A 
ATOM     57  H   UNL A   1      39.783  31.233  33.069  1.00  0.00     0.167 HD
ATOM     58  C   UNL A   1      41.002  28.232  30.099  1.00  0.00     0.034 A 
ATOM     59  C   UNL A   1      39.898  32.536  35.543  1.00  0.00     0.034 A 
ATOM     60  C   UNL A   1      41.956  28.121  31.176  1.00  0.00     0.049 A 
ATOM     61  C   UNL A   1      41.018  31.529  35.540  1.00  0.00     0.074 A 
ATOM     62  C   UNL A   1      43.069  27.302  31.261  1.00  0.00     0.029 A 
ATOM     63  N   UNL A   1      41.906  28.842  32.362  1.00  0.00    -0.354 N 
ATOM     64  N   UNL A   1      41.357  30.672  34.603  1.00  0.00    -0.248 NA
ATOM     65  C   UNL A   1      41.869  31.483  36.734  1.00  0.00     0.031 C 
ATOM     66  C   UNL A   1      43.647  27.476  32.524  1.00  0.00     0.029 A 
ATOM     67  C   UNL A   1      42.946  28.461  33.199  1.00  0.00     0.049 A 
ATOM     68  H   UNL A   1      41.230  29.524  32.579  1.00  0.00     0.167 HD
ATOM     69  C   UNL A   1      42.480  30.006  35.087  1.00  0.00     0.074 A 
ATOM     70  C   UNL A   1      42.767  30.572  36.390  1.00  0.00     0.031 C 
ATOM     71  C   UNL A   1      43.212  29.021  34.505  1.00  0.00     0.034 A 
BRANCH  58  72
ATOM     72  C   UNL A   1      41.124  27.305  28.910  1.00  0.00     0.023 A 
ATOM     73  C   UNL A   1      42.127  27.476  27.939  1.00  0.00     0.031 A 
ATOM     74  C   UNL A   1      40.201  26.262  28.720  1.00  0.00     0.131 A 
ATOM     75  C   UNL A   1      42.127  26.682  26.782  1.00  0.00     0.055 A 
ATOM     76  C   UNL A   1      40.263  25.415  27.610  1.00  0.00     0.041 A 
ATOM     77  F   UNL A   1      39.208  26.057  29.601  1.00  0.00    -0.206 F 
ATOM     78  C   UNL A   1      41.218  25.636  26.623  1.00  0.00     0.022 A 
BRANCH  75  79
ATOM     79  S   UNL A   1      43.225  27.149  25.415  1.00  0.00     0.124 S 
ATOM     80  O   UNL A   1      44.332  27.780  26.128  1.00  0.00    -0.237 OA
ATOM     81  O   UNL A   1      43.515  25.864  24.790  1.00  0.00    -0.237 OA
ATOM     82  O   UNL A   1      42.408  28.063  24.617  1.00  0.00    -0.744 OA
ENDBRANCH  75  79
ENDBRANCH  58  72
BRANCH  59  83
ATOM     83  C   UNL A   1      39.661  33.413  36.726  1.00  0.00     0.023 A 
ATOM     84  C   UNL A   1      39.004  32.925  37.866  1.00  0.00     0.031 A 
ATOM     85  C   UNL A   1      40.064  34.760  36.720  1.00  0.00     0.131 A 
ATOM     86  C   UNL A   1      38.732  33.788  38.938  1.00  0.00     0.055 A 
ATOM     87  C   UNL A   1      39.836  35.601  37.811  1.00  0.00     0.041 A 
ATOM     88  F   UNL A   1      40.701  35.275  35.657  1.00  0.00    -0.206 F 
ATOM     89  C   UNL A   1      39.156  35.119  38.925  1.00  0.00     0.022 A 
BRANCH  86  90
ATOM     90  S   UNL A   1      37.749  33.163  40.329  1.00  0.00     0.124 S 
ATOM     91  O   UNL A   1      37.867  34.253  41.289  1.00  0.00    -0.237 OA
ATOM     92  O   UNL A   1      36.436  32.987  39.716  1.00  0.00    -0.237 OA
ATOM     93  O   UNL A   1      38.433  31.926  40.699  1.00  0.00    -0.744 OA
ENDBRANCH  86  90
ENDBRANCH  59  83
BRANCH  71  94
ATOM     94  C   UNL A   1      44.420  28.526  35.262  1.00  0.00     0.023 A 
ATOM     95  C   UNL A   1      44.318  27.534  36.254  1.00  0.00     0.031 A 
ATOM     96  C   UNL A   1      45.691  29.065  34.996  1.00  0.00     0.131 A 
ATOM     97  C   UNL A   1      45.456  27.153  36.980  1.00  0.00     0.055 A 
ATOM     98  C   UNL A   1      46.830  28.637  35.678  1.00  0.00     0.041 A 
ATOM     99  F   UNL A   1      45.847  30.018  34.061  1.00  0.00    -0.206 F 
ATOM    100  C   UNL A   1      46.715  27.685  36.687  1.00  0.00     0.022 A 
BRANCH  97 101
ATOM    101  S   UNL A   1      45.255  26.019  38.382  1.00  0.00     0.124 S 
ATOM    102  O   UNL A   1      46.606  25.976  38.933  1.00  0.00    -0.237 OA
ATOM    103  O   UNL A   1      44.255  26.701  39.195  1.00  0.00    -0.237 OA
ATOM    104  O   UNL A   1      44.802  24.777  37.756  1.00  0.00    -0.744 OA
ENDBRANCH  97 101
ENDBRANCH  71  94
ENDBRANCH  45  46
ENDBRANCH  37  40
ENDBRANCH  35  36
ENDBRANCH  34  35
ENDBRANCH  33  34
ENDBRANCH  32  33
ENDBRANCH  31  32
ENDBRANCH  30  31
ENDBRANCH   3  30
TORSDOF 25
ENDMDL
