MODEL 1
REMARK VINA RESULT:     -12.2      0.000      0.000
REMARK SMILES COC(=O)[C@@H]1C[C@@H](C(=O)NCCCCCCNC(=O)c2ccc(-c3c4nc(c(-c5cc(S(=O)(=O)[O-])ccc5F)c5ccc([nH]5)c(-c5cc(S(=O)(=O)[O-])ccc5F)c5nc(c(-c6cc(S(=O)(=O)[O-])ccc6F)c6ccc3[nH]6)C=C5)C=C4)cc2)[C@@H](c2cccc(F)c2F)[N@H+]1C
REMARK SMILES IDX 14 1 13 2 12 3 11 4 10 5 8 6 9 7 7 9 5 10 6 11 92 12 83 13
REMARK SMILES IDX 93 14 3 16 4 17 2 18 1 19 84 20 85 21 90 22 86 23 88 24
REMARK SMILES IDX 91 25 87 26 89 27 15 28 16 29 17 30 18 31 19 33 20 34 21 35
REMARK SMILES IDX 82 36 22 37 81 38 23 39 24 40 25 41 75 42 26 43 80 44 74 45
REMARK SMILES IDX 76 46 27 47 79 48 73 49 72 50 28 52 60 53 40 54 59 55 41 56
REMARK SMILES IDX 44 57 58 58 77 59 42 60 43 61 57 63 78 64 45 65 29 66 30 67
REMARK SMILES IDX 38 68 31 69 37 70 39 71 36 72 32 73 33 74 34 75 35 76 61 77
REMARK SMILES IDX 62 78 70 79 63 80 69 81 71 82 68 83 64 84 65 85 66 86 67 87
REMARK SMILES IDX 46 88 47 89 55 90 48 91 54 92 56 93 53 94 49 95 50 96 51 97
REMARK SMILES IDX 52 98
REMARK H PARENT 10 8 92 15 17 32 76 51 44 62
REMARK Flexibility Score: inf
ROOT
ATOM      1  C   UNL A   1      31.763  30.571  26.239  1.00  0.00     0.002 C 
ENDROOT
BRANCH   1   2
ATOM      2  C   UNL A   1      32.867  29.678  26.808  1.00  0.00     0.002 C 
BRANCH   2   3
ATOM      3  C   UNL A   1      32.339  28.416  27.494  1.00  0.00     0.021 C 
BRANCH   3   4
ATOM      4  C   UNL A   1      32.226  27.215  26.566  1.00  0.00     0.116 C 
BRANCH   4   5
ATOM      5  N   UNL A   1      31.019  26.443  26.801  1.00  0.00    -0.356 N 
ATOM      6  C   UNL A   1      30.398  25.449  26.120  1.00  0.00     0.229 C 
ATOM      7  O   UNL A   1      29.345  25.031  26.620  1.00  0.00    -0.275 OA
ATOM      8  H   UNL A   1      30.554  26.693  27.631  1.00  0.00     0.163 HD
BRANCH   6   9
ATOM      9  C   UNL A   1      30.901  24.826  24.821  1.00  0.00     0.148 C 
ATOM     10  C   UNL A   1      33.091  25.012  23.817  1.00  0.00     0.296 C 
ATOM     11  C   UNL A   1      32.347  24.356  24.960  1.00  0.00     0.097 C 
ATOM     12  N   UNL A   1      32.043  25.106  22.792  1.00  0.00    -0.319 N 
ATOM     13  C   UNL A   1      30.738  25.487  23.401  1.00  0.00     0.231 C 
ATOM     14  C   UNL A   1      32.499  25.652  21.537  1.00  0.00     0.333 C 
ATOM     15  H   UNL A   1      31.795  24.192  22.413  1.00  0.00     0.349 HD
BRANCH  10  16
ATOM     16  C   UNL A   1      34.290  24.123  23.443  1.00  0.00     0.364 C 
ATOM     17  O   UNL A   1      34.361  23.336  22.511  1.00  0.00    -0.245 OA
BRANCH  16  18
ATOM     18  O   UNL A   1      35.296  24.338  24.348  1.00  0.00    -0.465 OA
ATOM     19  C   UNL A   1      35.792  23.154  24.975  1.00  0.00     0.282 C 
ENDBRANCH  16  18
ENDBRANCH  10  16
BRANCH  13  20
ATOM     20  C   UNL A   1      30.113  26.893  23.301  1.00  0.00     0.049 A 
ATOM     21  C   UNL A   1      30.958  28.028  23.204  1.00  0.00     0.013 A 
ATOM     22  C   UNL A   1      28.755  27.225  23.452  1.00  0.00     0.167 A 
ATOM     23  C   UNL A   1      30.479  29.335  22.998  1.00  0.00     0.004 A 
ATOM     24  C   UNL A   1      28.267  28.523  23.250  1.00  0.00     0.159 A 
ATOM     25  F   UNL A   1      27.847  26.352  23.890  1.00  0.00    -0.203 F 
ATOM     26  C   UNL A   1      29.116  29.576  22.974  1.00  0.00     0.042 A 
ATOM     27  F   UNL A   1      26.951  28.758  23.350  1.00  0.00    -0.204 F 
ENDBRANCH  13  20
ENDBRANCH   6   9
ENDBRANCH   4   5
ENDBRANCH   3   4
ENDBRANCH   2   3
ENDBRANCH   1   2
BRANCH   1  28
ATOM     28  C   UNL A   1      31.547  31.878  27.008  1.00  0.00     0.021 C 
BRANCH  28  29
ATOM     29  C   UNL A   1      32.837  32.568  27.441  1.00  0.00     0.116 C 
BRANCH  29  30
ATOM     30  N   UNL A   1      32.635  34.001  27.596  1.00  0.00    -0.352 N 
ATOM     31  C   UNL A   1      33.154  34.819  28.568  1.00  0.00     0.251 C 
ATOM     32  H   UNL A   1      32.059  34.433  26.925  1.00  0.00     0.163 HD
ATOM     33  O   UNL A   1      32.670  35.932  28.768  1.00  0.00    -0.269 OA
BRANCH  31  34
ATOM     34  C   UNL A   1      34.290  34.330  29.375  1.00  0.00     0.039 A 
ATOM     35  C   UNL A   1      34.045  33.604  30.541  1.00  0.00     0.014 A 
ATOM     36  C   UNL A   1      35.599  34.554  28.938  1.00  0.00     0.014 A 
ATOM     37  C   UNL A   1      35.118  33.054  31.243  1.00  0.00     0.010 A 
ATOM     38  C   UNL A   1      36.660  33.943  29.598  1.00  0.00     0.010 A 
ATOM     39  C   UNL A   1      36.432  33.190  30.760  1.00  0.00    -0.014 A 
BRANCH  39  40
ATOM     40  C   UNL A   1      37.581  32.560  31.462  1.00  0.00     0.031 A 
ATOM     41  C   UNL A   1      38.312  31.411  30.820  1.00  0.00     0.074 A 
ATOM     42  C   UNL A   1      37.926  32.980  32.695  1.00  0.00     0.049 A 
ATOM     43  N   UNL A   1      39.290  30.683  31.295  1.00  0.00    -0.248 NA
ATOM     44  C   UNL A   1      37.862  31.011  29.478  1.00  0.00     0.031 C 
ATOM     45  C   UNL A   1      37.268  34.059  33.434  1.00  0.00     0.029 A 
ATOM     46  N   UNL A   1      38.910  32.548  33.549  1.00  0.00    -0.354 N 
ATOM     47  C   UNL A   1      39.565  29.733  30.317  1.00  0.00     0.074 A 
ATOM     48  C   UNL A   1      38.606  29.939  29.253  1.00  0.00     0.031 C 
ATOM     49  C   UNL A   1      37.882  34.222  34.617  1.00  0.00     0.029 A 
ATOM     50  C   UNL A   1      38.943  33.228  34.746  1.00  0.00     0.049 A 
ATOM     51  H   UNL A   1      39.534  31.820  33.327  1.00  0.00     0.167 HD
ATOM     52  C   UNL A   1      40.541  28.792  30.299  1.00  0.00     0.034 A 
ATOM     53  C   UNL A   1      39.727  33.057  35.830  1.00  0.00     0.034 A 
ATOM     54  C   UNL A   1      41.493  28.607  31.368  1.00  0.00     0.049 A 
ATOM     55  C   UNL A   1      40.782  31.979  35.803  1.00  0.00     0.074 A 
ATOM     56  C   UNL A   1      42.557  27.726  31.428  1.00  0.00     0.029 A 
ATOM     57  N   UNL A   1      41.489  29.307  32.568  1.00  0.00    -0.354 N 
ATOM     58  N   UNL A   1      41.067  31.126  34.845  1.00  0.00    -0.248 NA
ATOM     59  C   UNL A   1      41.626  31.846  36.996  1.00  0.00     0.031 C 
ATOM     60  C   UNL A   1      43.145  27.834  32.693  1.00  0.00     0.029 A 
ATOM     61  C   UNL A   1      42.507  28.848  33.390  1.00  0.00     0.049 A 
ATOM     62  H   UNL A   1      40.856  30.024  32.801  1.00  0.00     0.167 HD
ATOM     63  C   UNL A   1      42.144  30.378  35.311  1.00  0.00     0.074 A 
ATOM     64  C   UNL A   1      42.468  30.893  36.626  1.00  0.00     0.031 C 
ATOM     65  C   UNL A   1      42.812  29.362  34.706  1.00  0.00     0.034 A 
BRANCH  52  66
ATOM     66  C   UNL A   1      40.605  27.876  29.099  1.00  0.00     0.023 A 
ATOM     67  C   UNL A   1      41.561  28.055  28.081  1.00  0.00     0.031 A 
ATOM     68  C   UNL A   1      39.688  26.821  28.959  1.00  0.00     0.131 A 
ATOM     69  C   UNL A   1      41.526  27.243  26.937  1.00  0.00     0.055 A 
ATOM     70  C   UNL A   1      39.715  25.962  27.858  1.00  0.00     0.041 A 
ATOM     71  F   UNL A   1      38.739  26.612  29.885  1.00  0.00    -0.206 F 
ATOM     72  C   UNL A   1      40.628  26.180  26.831  1.00  0.00     0.022 A 
BRANCH  69  73
ATOM     73  S   UNL A   1      42.574  27.692  25.527  1.00  0.00     0.124 S 
ATOM     74  O   UNL A   1      41.890  28.877  25.016  1.00  0.00    -0.237 OA
ATOM     75  O   UNL A   1      43.869  27.923  26.157  1.00  0.00    -0.237 OA
ATOM     76  O   UNL A   1      42.502  26.518  24.659  1.00  0.00    -0.744 OA
ENDBRANCH  69  73
ENDBRANCH  52  66
BRANCH  53  77
ATOM     77  C   UNL A   1      39.542  33.910  37.041  1.00  0.00     0.023 A 
ATOM     78  C   UNL A   1      38.916  33.408  38.193  1.00  0.00     0.031 A 
ATOM     79  C   UNL A   1      39.945  35.259  37.047  1.00  0.00     0.131 A 
ATOM     80  C   UNL A   1      38.665  34.258  39.282  1.00  0.00     0.055 A 
ATOM     81  C   UNL A   1      39.747  36.084  38.155  1.00  0.00     0.041 A 
ATOM     82  F   UNL A   1      40.551  35.791  35.973  1.00  0.00    -0.206 F 
ATOM     83  C   UNL A   1      39.089  35.588  39.276  1.00  0.00     0.022 A 
BRANCH  80  84
ATOM     84  S   UNL A   1      37.686  33.625  40.671  1.00  0.00     0.124 S 
ATOM     85  O   UNL A   1      36.583  32.968  39.980  1.00  0.00    -0.237 OA
ATOM     86  O   UNL A   1      38.641  32.747  41.338  1.00  0.00    -0.237 OA
ATOM     87  O   UNL A   1      37.328  34.832  41.412  1.00  0.00    -0.744 OA
ENDBRANCH  80  84
ENDBRANCH  53  77
BRANCH  65  88
ATOM     88  C   UNL A   1      43.989  28.772  35.445  1.00  0.00     0.023 A 
ATOM     89  C   UNL A   1      43.845  27.678  36.317  1.00  0.00     0.031 A 
ATOM     90  C   UNL A   1      45.274  29.318  35.276  1.00  0.00     0.131 A 
ATOM     91  C   UNL A   1      44.957  27.201  37.028  1.00  0.00     0.055 A 
ATOM     92  C   UNL A   1      46.388  28.796  35.935  1.00  0.00     0.041 A 
ATOM     93  F   UNL A   1      45.470  30.366  34.460  1.00  0.00    -0.206 F 
ATOM     94  C   UNL A   1      46.231  27.740  36.827  1.00  0.00     0.022 A 
BRANCH  91  95
ATOM     95  S   UNL A   1      44.700  25.928  38.294  1.00  0.00     0.124 S 
ATOM     96  O   UNL A   1      44.168  26.709  39.406  1.00  0.00    -0.237 OA
ATOM     97  O   UNL A   1      43.759  25.024  37.641  1.00  0.00    -0.237 OA
ATOM     98  O   UNL A   1      46.039  25.381  38.506  1.00  0.00    -0.744 OA
ENDBRANCH  91  95
ENDBRANCH  65  88
ENDBRANCH  39  40
ENDBRANCH  31  34
ENDBRANCH  29  30
ENDBRANCH  28  29
ENDBRANCH   1  28
TORSDOF 19
ENDMDL
MODEL 2
REMARK VINA RESULT:     -11.9      1.647      3.110
REMARK SMILES COC(=O)[C@@H]1C[C@@H](C(=O)NCCCCCCNC(=O)c2ccc(-c3c4nc(c(-c5cc(S(=O)(=O)[O-])ccc5F)c5ccc([nH]5)c(-c5cc(S(=O)(=O)[O-])ccc5F)c5nc(c(-c6cc(S(=O)(=O)[O-])ccc6F)c6ccc3[nH]6)C=C5)C=C4)cc2)[C@@H](c2cccc(F)c2F)[N@H+]1C
REMARK SMILES IDX 14 1 13 2 12 3 11 4 10 5 8 6 9 7 7 9 5 10 6 11 92 12 83 13
REMARK SMILES IDX 93 14 3 16 4 17 2 18 1 19 84 20 85 21 90 22 86 23 88 24
REMARK SMILES IDX 91 25 87 26 89 27 15 28 16 29 17 30 18 31 19 33 20 34 21 35
REMARK SMILES IDX 82 36 22 37 81 38 23 39 24 40 25 41 75 42 26 43 80 44 74 45
REMARK SMILES IDX 76 46 27 47 79 48 73 49 72 50 28 52 60 53 40 54 59 55 41 56
REMARK SMILES IDX 44 57 58 58 77 59 42 60 43 61 57 63 78 64 45 65 29 66 30 67
REMARK SMILES IDX 38 68 31 69 37 70 39 71 36 72 32 73 33 74 34 75 35 76 61 77
REMARK SMILES IDX 62 78 70 79 63 80 69 81 71 82 68 83 64 84 65 85 66 86 67 87
REMARK SMILES IDX 46 88 47 89 55 90 48 91 54 92 56 93 53 94 49 95 50 96 51 97
REMARK SMILES IDX 52 98
REMARK H PARENT 10 8 92 15 17 32 76 51 44 62
REMARK Flexibility Score: inf
ROOT
ATOM      1  C   UNL A   1      31.740  29.956  26.886  1.00  0.00     0.002 C 
ENDROOT
BRANCH   1   2
ATOM      2  C   UNL A   1      33.154  29.503  27.254  1.00  0.00     0.002 C 
BRANCH   2   3
ATOM      3  C   UNL A   1      33.811  28.625  26.186  1.00  0.00     0.021 C 
BRANCH   3   4
ATOM      4  C   UNL A   1      33.499  29.057  24.761  1.00  0.00     0.116 C 
BRANCH   4   5
ATOM      5  N   UNL A   1      33.913  28.072  23.778  1.00  0.00    -0.356 N 
ATOM      6  C   UNL A   1      33.285  27.460  22.745  1.00  0.00     0.229 C 
ATOM      7  O   UNL A   1      33.961  26.634  22.117  1.00  0.00    -0.275 OA
ATOM      8  H   UNL A   1      34.850  27.789  23.884  1.00  0.00     0.163 HD
BRANCH   6   9
ATOM      9  C   UNL A   1      31.845  27.722  22.313  1.00  0.00     0.148 C 
ATOM     10  C   UNL A   1      30.197  29.143  23.365  1.00  0.00     0.296 C 
ATOM     11  C   UNL A   1      31.461  29.184  22.533  1.00  0.00     0.097 C 
ATOM     12  N   UNL A   1      29.586  27.885  22.918  1.00  0.00    -0.319 N 
ATOM     13  C   UNL A   1      30.619  26.828  22.734  1.00  0.00     0.231 C 
ATOM     14  C   UNL A   1      28.302  27.614  23.518  1.00  0.00     0.333 C 
ATOM     15  H   UNL A   1      29.232  27.949  21.964  1.00  0.00     0.349 HD
BRANCH  10  16
ATOM     16  C   UNL A   1      29.377  30.409  23.064  1.00  0.00     0.364 C 
ATOM     17  O   UNL A   1      28.829  31.141  23.876  1.00  0.00    -0.245 OA
BRANCH  16  18
ATOM     18  O   UNL A   1      29.336  30.596  21.708  1.00  0.00    -0.465 OA
ATOM     19  C   UNL A   1      28.019  30.720  21.167  1.00  0.00     0.282 C 
ENDBRANCH  16  18
ENDBRANCH  10  16
BRANCH  13  20
ATOM     20  C   UNL A   1      30.849  25.661  23.715  1.00  0.00     0.049 A 
ATOM     21  C   UNL A   1      30.653  24.327  23.273  1.00  0.00     0.013 A 
ATOM     22  C   UNL A   1      31.093  25.756  25.096  1.00  0.00     0.167 A 
ATOM     23  C   UNL A   1      30.946  23.200  24.062  1.00  0.00     0.004 A 
ATOM     24  C   UNL A   1      31.384  24.640  25.892  1.00  0.00     0.159 A 
ATOM     25  F   UNL A   1      30.972  26.901  25.769  1.00  0.00    -0.203 F 
ATOM     26  C   UNL A   1      31.361  23.361  25.373  1.00  0.00     0.042 A 
ATOM     27  F   UNL A   1      31.667  24.810  27.191  1.00  0.00    -0.204 F 
ENDBRANCH  13  20
ENDBRANCH   6   9
ENDBRANCH   4   5
ENDBRANCH   3   4
ENDBRANCH   2   3
ENDBRANCH   1   2
BRANCH   1  28
ATOM     28  C   UNL A   1      31.575  31.473  26.753  1.00  0.00     0.021 C 
BRANCH  28  29
ATOM     29  C   UNL A   1      32.881  32.255  26.862  1.00  0.00     0.116 C 
BRANCH  29  30
ATOM     30  N   UNL A   1      32.648  33.587  27.398  1.00  0.00    -0.352 N 
ATOM     31  C   UNL A   1      33.216  34.153  28.511  1.00  0.00     0.251 C 
ATOM     32  H   UNL A   1      32.008  34.148  26.903  1.00  0.00     0.163 HD
ATOM     33  O   UNL A   1      32.715  35.151  29.026  1.00  0.00    -0.269 OA
BRANCH  31  34
ATOM     34  C   UNL A   1      34.426  33.531  29.084  1.00  0.00     0.039 A 
ATOM     35  C   UNL A   1      35.662  34.161  28.935  1.00  0.00     0.014 A 
ATOM     36  C   UNL A   1      34.317  32.343  29.812  1.00  0.00     0.014 A 
ATOM     37  C   UNL A   1      36.785  33.625  29.567  1.00  0.00     0.010 A 
ATOM     38  C   UNL A   1      35.421  31.853  30.502  1.00  0.00     0.010 A 
ATOM     39  C   UNL A   1      36.668  32.485  30.383  1.00  0.00    -0.014 A 
BRANCH  39  40
ATOM     40  C   UNL A   1      37.840  31.935  31.112  1.00  0.00     0.031 A 
ATOM     41  C   UNL A   1      38.663  30.838  30.491  1.00  0.00     0.074 A 
ATOM     42  C   UNL A   1      38.127  32.379  32.352  1.00  0.00     0.049 A 
ATOM     43  N   UNL A   1      39.677  30.179  30.991  1.00  0.00    -0.248 NA
ATOM     44  C   UNL A   1      38.273  30.407  29.140  1.00  0.00     0.031 C 
ATOM     45  C   UNL A   1      37.380  33.412  33.073  1.00  0.00     0.029 A 
ATOM     46  N   UNL A   1      39.118  32.017  33.230  1.00  0.00    -0.354 N 
ATOM     47  C   UNL A   1      40.039  29.249  30.022  1.00  0.00     0.074 A 
ATOM     48  C   UNL A   1      39.093  29.388  28.935  1.00  0.00     0.031 C 
ATOM     49  C   UNL A   1      37.954  33.617  34.269  1.00  0.00     0.029 A 
ATOM     50  C   UNL A   1      39.077  32.698  34.426  1.00  0.00     0.049 A 
ATOM     51  H   UNL A   1      39.795  31.332  33.025  1.00  0.00     0.167 HD
ATOM     52  C   UNL A   1      41.077  28.377  30.029  1.00  0.00     0.034 A 
ATOM     53  C   UNL A   1      39.845  32.583  35.528  1.00  0.00     0.034 A 
ATOM     54  C   UNL A   1      42.014  28.259  31.120  1.00  0.00     0.049 A 
ATOM     55  C   UNL A   1      40.971  31.579  35.528  1.00  0.00     0.074 A 
ATOM     56  C   UNL A   1      43.134  27.452  31.208  1.00  0.00     0.029 A 
ATOM     57  N   UNL A   1      41.935  28.958  32.318  1.00  0.00    -0.354 N 
ATOM     58  N   UNL A   1      41.336  30.747  34.579  1.00  0.00    -0.248 NA
ATOM     59  C   UNL A   1      41.794  31.506  36.741  1.00  0.00     0.031 C 
ATOM     60  C   UNL A   1      43.684  27.602  32.486  1.00  0.00     0.029 A 
ATOM     61  C   UNL A   1      42.962  28.571  33.165  1.00  0.00     0.049 A 
ATOM     62  H   UNL A   1      41.249  29.631  32.534  1.00  0.00     0.167 HD
ATOM     63  C   UNL A   1      42.451  30.075  35.072  1.00  0.00     0.074 A 
ATOM     64  C   UNL A   1      42.708  30.612  36.393  1.00  0.00     0.031 C 
ATOM     65  C   UNL A   1      43.200  29.106  34.486  1.00  0.00     0.034 A 
BRANCH  52  66
ATOM     66  C   UNL A   1      41.232  27.467  28.833  1.00  0.00     0.023 A 
ATOM     67  C   UNL A   1      42.233  27.676  27.868  1.00  0.00     0.031 A 
ATOM     68  C   UNL A   1      40.355  26.384  28.645  1.00  0.00     0.131 A 
ATOM     69  C   UNL A   1      42.283  26.866  26.723  1.00  0.00     0.055 A 
ATOM     70  C   UNL A   1      40.465  25.529  27.546  1.00  0.00     0.041 A 
ATOM     71  F   UNL A   1      39.365  26.146  29.520  1.00  0.00    -0.206 F 
ATOM     72  C   UNL A   1      41.424  25.777  26.569  1.00  0.00     0.022 A 
BRANCH  69  73
ATOM     73  S   UNL A   1      43.390  27.350  25.369  1.00  0.00     0.124 S 
ATOM     74  O   UNL A   1      43.950  26.060  24.971  1.00  0.00    -0.237 OA
ATOM     75  O   UNL A   1      42.474  27.970  24.419  1.00  0.00    -0.237 OA
ATOM     76  O   UNL A   1      44.337  28.261  26.011  1.00  0.00    -0.744 OA
ENDBRANCH  69  73
ENDBRANCH  52  66
BRANCH  53  77
ATOM     77  C   UNL A   1      39.574  33.423  36.732  1.00  0.00     0.023 A 
ATOM     78  C   UNL A   1      38.908  32.895  37.849  1.00  0.00     0.031 A 
ATOM     79  C   UNL A   1      39.934  34.783  36.764  1.00  0.00     0.131 A 
ATOM     80  C   UNL A   1      38.577  33.730  38.928  1.00  0.00     0.055 A 
ATOM     81  C   UNL A   1      39.656  35.595  37.864  1.00  0.00     0.041 A 
ATOM     82  F   UNL A   1      40.576  35.340  35.724  1.00  0.00    -0.206 F 
ATOM     83  C   UNL A   1      38.960  35.073  38.949  1.00  0.00     0.022 A 
BRANCH  80  84
ATOM     84  S   UNL A   1      37.550  33.060  40.264  1.00  0.00     0.124 S 
ATOM     85  O   UNL A   1      36.307  32.764  39.561  1.00  0.00    -0.237 OA
ATOM     86  O   UNL A   1      38.333  31.908  40.697  1.00  0.00    -0.237 OA
ATOM     87  O   UNL A   1      37.480  34.159  41.223  1.00  0.00    -0.744 OA
ENDBRANCH  80  84
ENDBRANCH  53  77
BRANCH  65  88
ATOM     88  C   UNL A   1      44.397  28.599  35.254  1.00  0.00     0.023 A 
ATOM     89  C   UNL A   1      44.280  27.596  36.232  1.00  0.00     0.031 A 
ATOM     90  C   UNL A   1      45.674  29.132  35.004  1.00  0.00     0.131 A 
ATOM     91  C   UNL A   1      45.411  27.198  36.963  1.00  0.00     0.055 A 
ATOM     92  C   UNL A   1      46.806  28.684  35.686  1.00  0.00     0.041 A 
ATOM     93  F   UNL A   1      45.845  30.096  34.084  1.00  0.00    -0.206 F 
ATOM     94  C   UNL A   1      46.676  27.721  36.682  1.00  0.00     0.022 A 
BRANCH  91  95
ATOM     95  S   UNL A   1      45.191  26.055  38.354  1.00  0.00     0.124 S 
ATOM     96  O   UNL A   1      45.101  24.765  37.675  1.00  0.00    -0.237 OA
ATOM     97  O   UNL A   1      46.401  26.280  39.138  1.00  0.00    -0.237 OA
ATOM     98  O   UNL A   1      43.952  26.513  38.981  1.00  0.00    -0.744 OA
ENDBRANCH  91  95
ENDBRANCH  65  88
ENDBRANCH  39  40
ENDBRANCH  31  34
ENDBRANCH  29  30
ENDBRANCH  28  29
ENDBRANCH   1  28
TORSDOF 19
ENDMDL
MODEL 3
REMARK VINA RESULT:     -11.9      2.292      7.963
REMARK SMILES COC(=O)[C@@H]1C[C@@H](C(=O)NCCCCCCNC(=O)c2ccc(-c3c4nc(c(-c5cc(S(=O)(=O)[O-])ccc5F)c5ccc([nH]5)c(-c5cc(S(=O)(=O)[O-])ccc5F)c5nc(c(-c6cc(S(=O)(=O)[O-])ccc6F)c6ccc3[nH]6)C=C5)C=C4)cc2)[C@@H](c2cccc(F)c2F)[N@H+]1C
REMARK SMILES IDX 14 1 13 2 12 3 11 4 10 5 8 6 9 7 7 9 5 10 6 11 92 12 83 13
REMARK SMILES IDX 93 14 3 16 4 17 2 18 1 19 84 20 85 21 90 22 86 23 88 24
REMARK SMILES IDX 91 25 87 26 89 27 15 28 16 29 17 30 18 31 19 33 20 34 21 35
REMARK SMILES IDX 82 36 22 37 81 38 23 39 24 40 25 41 75 42 26 43 80 44 74 45
REMARK SMILES IDX 76 46 27 47 79 48 73 49 72 50 28 52 60 53 40 54 59 55 41 56
REMARK SMILES IDX 44 57 58 58 77 59 42 60 43 61 57 63 78 64 45 65 29 66 30 67
REMARK SMILES IDX 38 68 31 69 37 70 39 71 36 72 32 73 33 74 34 75 35 76 61 77
REMARK SMILES IDX 62 78 70 79 63 80 69 81 71 82 68 83 64 84 65 85 66 86 67 87
REMARK SMILES IDX 46 88 47 89 55 90 48 91 54 92 56 93 53 94 49 95 50 96 51 97
REMARK SMILES IDX 52 98
REMARK H PARENT 10 8 92 15 17 32 76 51 44 62
REMARK Flexibility Score: inf
ROOT
ATOM      1  C   UNL A   1      31.024  29.629  25.168  1.00  0.00     0.002 C 
ENDROOT
BRANCH   1   2
ATOM      2  C   UNL A   1      30.698  29.426  23.687  1.00  0.00     0.002 C 
BRANCH   2   3
ATOM      3  C   UNL A   1      29.462  28.553  23.449  1.00  0.00     0.021 C 
BRANCH   3   4
ATOM      4  C   UNL A   1      29.762  27.061  23.423  1.00  0.00     0.116 C 
BRANCH   4   5
ATOM      5  N   UNL A   1      29.826  26.485  24.754  1.00  0.00    -0.356 N 
ATOM      6  C   UNL A   1      30.321  25.324  25.248  1.00  0.00     0.229 C 
ATOM      7  O   UNL A   1      30.176  25.151  26.465  1.00  0.00    -0.275 OA
ATOM      8  H   UNL A   1      29.425  27.059  25.446  1.00  0.00     0.163 HD
BRANCH   6   9
ATOM      9  C   UNL A   1      31.032  24.253  24.426  1.00  0.00     0.148 C 
ATOM     10  C   UNL A   1      32.730  22.691  25.144  1.00  0.00     0.296 C 
ATOM     11  C   UNL A   1      31.249  22.982  25.245  1.00  0.00     0.097 C 
ATOM     12  N   UNL A   1      33.051  23.229  23.815  1.00  0.00    -0.319 N 
ATOM     13  C   UNL A   1      32.331  24.510  23.573  1.00  0.00     0.231 C 
ATOM     14  C   UNL A   1      34.424  23.026  23.419  1.00  0.00     0.333 C 
ATOM     15  H   UNL A   1      32.652  22.663  23.067  1.00  0.00     0.349 HD
BRANCH  10  16
ATOM     16  C   UNL A   1      32.939  21.175  25.302  1.00  0.00     0.364 C 
ATOM     17  O   UNL A   1      33.699  20.613  26.077  1.00  0.00    -0.245 OA
BRANCH  16  18
ATOM     18  O   UNL A   1      32.133  20.524  24.405  1.00  0.00    -0.465 OA
ATOM     19  C   UNL A   1      32.528  19.180  24.121  1.00  0.00     0.282 C 
ENDBRANCH  16  18
ENDBRANCH  10  16
BRANCH  13  20
ATOM     20  C   UNL A   1      32.995  25.900  23.626  1.00  0.00     0.049 A 
ATOM     21  C   UNL A   1      33.313  26.570  22.417  1.00  0.00     0.013 A 
ATOM     22  C   UNL A   1      33.487  26.556  24.769  1.00  0.00     0.167 A 
ATOM     23  C   UNL A   1      33.816  27.883  22.369  1.00  0.00     0.004 A 
ATOM     24  C   UNL A   1      33.991  27.863  24.732  1.00  0.00     0.159 A 
ATOM     25  F   UNL A   1      33.598  25.951  25.952  1.00  0.00    -0.203 F 
ATOM     26  C   UNL A   1      34.114  28.554  23.543  1.00  0.00     0.042 A 
ATOM     27  F   UNL A   1      34.387  28.452  25.869  1.00  0.00    -0.204 F 
ENDBRANCH  13  20
ENDBRANCH   6   9
ENDBRANCH   4   5
ENDBRANCH   3   4
ENDBRANCH   2   3
ENDBRANCH   1   2
BRANCH   1  28
ATOM     28  C   UNL A   1      31.034  31.094  25.618  1.00  0.00     0.021 C 
BRANCH  28  29
ATOM     29  C   UNL A   1      32.146  31.436  26.605  1.00  0.00     0.116 C 
BRANCH  29  30
ATOM     30  N   UNL A   1      32.172  32.863  26.888  1.00  0.00    -0.352 N 
ATOM     31  C   UNL A   1      32.989  33.528  27.767  1.00  0.00     0.251 C 
ATOM     32  H   UNL A   1      31.527  33.416  26.390  1.00  0.00     0.163 HD
ATOM     33  O   UNL A   1      32.709  34.667  28.137  1.00  0.00    -0.269 OA
BRANCH  31  34
ATOM     34  C   UNL A   1      34.197  32.843  28.269  1.00  0.00     0.039 A 
ATOM     35  C   UNL A   1      35.379  33.564  28.436  1.00  0.00     0.014 A 
ATOM     36  C   UNL A   1      34.132  31.491  28.620  1.00  0.00     0.014 A 
ATOM     37  C   UNL A   1      36.487  32.939  29.009  1.00  0.00     0.010 A 
ATOM     38  C   UNL A   1      35.213  30.893  29.259  1.00  0.00     0.010 A 
ATOM     39  C   UNL A   1      36.404  31.608  29.456  1.00  0.00    -0.014 A 
BRANCH  39  40
ATOM     40  C   UNL A   1      37.554  30.945  30.125  1.00  0.00     0.031 A 
ATOM     41  C   UNL A   1      37.839  31.223  31.576  1.00  0.00     0.074 A 
ATOM     42  C   UNL A   1      38.373  30.145  29.414  1.00  0.00     0.049 A 
ATOM     43  N   UNL A   1      38.830  30.802  32.321  1.00  0.00    -0.248 NA
ATOM     44  C   UNL A   1      36.901  32.117  32.273  1.00  0.00     0.031 C 
ATOM     45  C   UNL A   1      38.220  29.831  27.991  1.00  0.00     0.029 A 
ATOM     46  N   UNL A   1      39.500  29.454  29.784  1.00  0.00    -0.354 N 
ATOM     47  C   UNL A   1      38.641  31.387  33.569  1.00  0.00     0.074 A 
ATOM     48  C   UNL A   1      37.478  32.243  33.458  1.00  0.00     0.031 C 
ATOM     49  C   UNL A   1      39.198  28.990  27.618  1.00  0.00     0.029 A 
ATOM     50  C   UNL A   1      40.079  28.745  28.756  1.00  0.00     0.049 A 
ATOM     51  H   UNL A   1      39.861  29.465  30.700  1.00  0.00     0.167 HD
ATOM     52  C   UNL A   1      39.356  31.208  34.707  1.00  0.00     0.034 A 
ATOM     53  C   UNL A   1      41.201  27.997  28.729  1.00  0.00     0.034 A 
ATOM     54  C   UNL A   1      40.508  30.344  34.799  1.00  0.00     0.049 A 
ATOM     55  C   UNL A   1      42.003  27.844  29.997  1.00  0.00     0.074 A 
ATOM     56  C   UNL A   1      41.272  30.045  35.913  1.00  0.00     0.029 A 
ATOM     57  N   UNL A   1      41.072  29.651  33.735  1.00  0.00    -0.354 N 
ATOM     58  N   UNL A   1      41.777  28.358  31.185  1.00  0.00    -0.248 NA
ATOM     59  C   UNL A   1      43.204  27.002  29.925  1.00  0.00     0.031 C 
ATOM     60  C   UNL A   1      42.341  29.239  35.509  1.00  0.00     0.029 A 
ATOM     61  C   UNL A   1      42.195  28.958  34.159  1.00  0.00     0.049 A 
ATOM     62  H   UNL A   1      40.724  29.651  32.814  1.00  0.00     0.167 HD
ATOM     63  C   UNL A   1      42.791  27.875  32.007  1.00  0.00     0.074 A 
ATOM     64  C   UNL A   1      43.617  27.015  31.183  1.00  0.00     0.031 C 
ATOM     65  C   UNL A   1      43.018  28.113  33.324  1.00  0.00     0.034 A 
BRANCH  52  66
ATOM     66  C   UNL A   1      38.928  31.985  35.929  1.00  0.00     0.023 A 
ATOM     67  C   UNL A   1      38.245  31.371  36.996  1.00  0.00     0.031 A 
ATOM     68  C   UNL A   1      39.188  33.364  36.025  1.00  0.00     0.131 A 
ATOM     69  C   UNL A   1      37.780  32.146  38.069  1.00  0.00     0.055 A 
ATOM     70  C   UNL A   1      38.797  34.112  37.137  1.00  0.00     0.041 A 
ATOM     71  F   UNL A   1      39.815  34.011  35.030  1.00  0.00    -0.206 F 
ATOM     72  C   UNL A   1      38.076  33.506  38.161  1.00  0.00     0.022 A 
BRANCH  69  73
ATOM     73  S   UNL A   1      36.656  31.376  39.267  1.00  0.00     0.124 S 
ATOM     74  O   UNL A   1      35.589  32.370  39.351  1.00  0.00    -0.237 OA
ATOM     75  O   UNL A   1      36.310  30.119  38.613  1.00  0.00    -0.237 OA
ATOM     76  O   UNL A   1      37.475  31.249  40.471  1.00  0.00    -0.744 OA
ENDBRANCH  69  73
ENDBRANCH  52  66
BRANCH  53  77
ATOM     77  C   UNL A   1      41.649  27.349  27.461  1.00  0.00     0.023 A 
ATOM     78  C   UNL A   1      41.653  25.952  27.323  1.00  0.00     0.031 A 
ATOM     79  C   UNL A   1      42.127  28.117  26.383  1.00  0.00     0.131 A 
ATOM     80  C   UNL A   1      42.171  25.363  26.159  1.00  0.00     0.055 A 
ATOM     81  C   UNL A   1      42.586  27.529  25.203  1.00  0.00     0.041 A 
ATOM     82  F   UNL A   1      42.143  29.458  26.459  1.00  0.00    -0.206 F 
ATOM     83  C   UNL A   1      42.624  26.143  25.092  1.00  0.00     0.022 A 
BRANCH  80  84
ATOM     84  S   UNL A   1      42.337  23.559  26.096  1.00  0.00     0.124 S 
ATOM     85  O   UNL A   1      43.167  23.298  27.267  1.00  0.00    -0.237 OA
ATOM     86  O   UNL A   1      40.947  23.124  26.184  1.00  0.00    -0.237 OA
ATOM     87  O   UNL A   1      42.982  23.321  24.807  1.00  0.00    -0.744 OA
ENDBRANCH  80  84
ENDBRANCH  53  77
BRANCH  65  88
ATOM     88  C   UNL A   1      44.182  27.396  33.965  1.00  0.00     0.023 A 
ATOM     89  C   UNL A   1      44.052  26.103  34.503  1.00  0.00     0.031 A 
ATOM     90  C   UNL A   1      45.440  28.020  34.042  1.00  0.00     0.131 A 
ATOM     91  C   UNL A   1      45.146  25.499  35.142  1.00  0.00     0.055 A 
ATOM     92  C   UNL A   1      46.542  27.388  34.619  1.00  0.00     0.041 A 
ATOM     93  F   UNL A   1      45.621  29.256  33.550  1.00  0.00    -0.206 F 
ATOM     94  C   UNL A   1      46.395  26.125  35.185  1.00  0.00     0.022 A 
BRANCH  91  95
ATOM     95  S   UNL A   1      44.891  23.923  36.002  1.00  0.00     0.124 S 
ATOM     96  O   UNL A   1      43.574  23.523  35.518  1.00  0.00    -0.237 OA
ATOM     97  O   UNL A   1      46.016  23.122  35.528  1.00  0.00    -0.237 OA
ATOM     98  O   UNL A   1      44.946  24.292  37.416  1.00  0.00    -0.744 OA
ENDBRANCH  91  95
ENDBRANCH  65  88
ENDBRANCH  39  40
ENDBRANCH  31  34
ENDBRANCH  29  30
ENDBRANCH  28  29
ENDBRANCH   1  28
TORSDOF 19
ENDMDL
