MODEL 1
REMARK VINA RESULT:     -11.3      0.000      0.000
REMARK SMILES CCOc1cccc(C(=O)Nc2ccc(Cl)c(C(=O)NCCCCCCNC(=O)c3ccc(-c4c5nc(c(-c6cc(S(=O)(=O)[O-])ccc6F)c6ccc([nH]6)c(-c6cc(S(=O)(=O)[O-])ccc6F)c6nc(c(-c7cc(S(=O)(=O)[O-])ccc7F)c7ccc4[nH]7)C=C6)C=C5)cc3)c2)c1
REMARK SMILES IDX 23 1 22 2 21 3 20 4 18 5 19 6 17 8 12 9 13 10 93 11 14 12
REMARK SMILES IDX 15 13 16 14 11 15 9 16 10 17 8 19 4 20 5 21 94 22 6 23 7 24
REMARK SMILES IDX 3 25 2 26 1 27 24 28 25 29 26 30 27 31 28 32 29 34 30 35
REMARK SMILES IDX 31 36 92 37 32 38 91 39 33 40 34 41 35 42 85 43 36 44 90 45
REMARK SMILES IDX 84 46 86 47 37 48 89 49 83 50 82 51 38 53 70 54 50 55 69 56
REMARK SMILES IDX 51 57 54 58 68 59 87 60 52 61 53 62 67 64 88 65 55 66 39 67
REMARK SMILES IDX 40 68 48 69 41 70 47 71 49 72 46 73 42 74 43 75 44 76 45 77
REMARK SMILES IDX 71 78 72 79 80 80 73 81 79 82 81 83 78 84 74 85 75 86 76 87
REMARK SMILES IDX 77 88 56 89 57 90 65 91 58 92 64 93 66 94 63 95 59 96 60 97
REMARK SMILES IDX 61 98 62 99
REMARK H PARENT 20 7 11 18 27 33 86 52 54 63
REMARK Flexibility Score: inf
ROOT
ATOM      1  C   UNL A   1      36.903  22.255  25.007  1.00  0.00     0.002 C 
ENDROOT
BRANCH   1   2
ATOM      2  C   UNL A   1      36.264  22.901  23.774  1.00  0.00     0.021 C 
BRANCH   2   3
ATOM      3  C   UNL A   1      35.030  23.725  24.139  1.00  0.00     0.116 C 
BRANCH   3   4
ATOM      4  N   UNL A   1      34.523  24.393  22.958  1.00  0.00    -0.352 N 
ATOM      5  C   UNL A   1      33.429  25.176  22.693  1.00  0.00     0.252 C 
ATOM      6  O   UNL A   1      33.182  25.345  21.500  1.00  0.00    -0.269 OA
ATOM      7  H   UNL A   1      35.094  24.255  22.167  1.00  0.00     0.163 HD
BRANCH   5   8
ATOM      8  C   UNL A   1      32.599  25.851  23.745  1.00  0.00     0.060 A 
ATOM      9  C   UNL A   1      31.009  25.733  25.598  1.00  0.00     0.042 A 
ATOM     10  C   UNL A   1      31.196  27.081  25.875  1.00  0.00     0.028 A 
ATOM     11  C   UNL A   1      31.609  25.166  24.469  1.00  0.00     0.041 A 
ATOM     12  C   UNL A   1      32.105  27.813  25.118  1.00  0.00     0.023 A 
ATOM     13  C   UNL A   1      32.835  27.200  24.085  1.00  0.00     0.053 A 
ATOM     14  Cl  UNL A   1      34.048  28.206  23.366  1.00  0.00    -0.083 Cl
BRANCH   9  15
ATOM     15  N   UNL A   1      30.250  24.985  26.506  1.00  0.00    -0.322 N 
ATOM     16  C   UNL A   1      30.284  23.643  26.844  1.00  0.00     0.255 C 
ATOM     17  O   UNL A   1      29.337  23.193  27.491  1.00  0.00    -0.269 OA
ATOM     18  H   UNL A   1      29.571  25.506  26.992  1.00  0.00     0.170 HD
BRANCH  16  19
ATOM     19  C   UNL A   1      31.452  22.742  26.574  1.00  0.00     0.043 A 
ATOM     20  C   UNL A   1      32.601  20.979  25.355  1.00  0.00     0.120 A 
ATOM     21  C   UNL A   1      33.655  21.025  26.265  1.00  0.00     0.046 A 
ATOM     22  C   UNL A   1      31.538  21.878  25.474  1.00  0.00     0.060 A 
ATOM     23  C   UNL A   1      33.647  21.964  27.293  1.00  0.00     0.005 A 
ATOM     24  C   UNL A   1      32.542  22.804  27.459  1.00  0.00     0.014 A 
BRANCH  20  25
ATOM     25  O   UNL A   1      32.566  19.888  24.530  1.00  0.00    -0.494 OA
BRANCH  25  26
ATOM     26  C   UNL A   1      33.365  18.766  24.899  1.00  0.00     0.226 C 
ATOM     27  C   UNL A   1      32.537  17.523  25.175  1.00  0.00     0.049 C 
ENDBRANCH  25  26
ENDBRANCH  20  25
ENDBRANCH  16  19
ENDBRANCH   9  15
ENDBRANCH   5   8
ENDBRANCH   3   4
ENDBRANCH   2   3
ENDBRANCH   1   2
BRANCH   1  28
ATOM     28  C   UNL A   1      37.040  20.730  24.912  1.00  0.00     0.002 C 
BRANCH  28  29
ATOM     29  C   UNL A   1      38.482  20.217  24.862  1.00  0.00     0.021 C 
BRANCH  29  30
ATOM     30  C   UNL A   1      39.103  19.970  26.233  1.00  0.00     0.116 C 
BRANCH  30  31
ATOM     31  N   UNL A   1      40.314  19.171  26.132  1.00  0.00    -0.352 N 
ATOM     32  C   UNL A   1      41.617  19.585  26.063  1.00  0.00     0.251 C 
ATOM     33  H   UNL A   1      40.178  18.196  26.111  1.00  0.00     0.163 HD
ATOM     34  O   UNL A   1      42.495  18.791  25.723  1.00  0.00    -0.269 OA
BRANCH  32  35
ATOM     35  C   UNL A   1      41.956  20.985  26.383  1.00  0.00     0.039 A 
ATOM     36  C   UNL A   1      42.330  21.314  27.687  1.00  0.00     0.014 A 
ATOM     37  C   UNL A   1      41.902  21.973  25.394  1.00  0.00     0.014 A 
ATOM     38  C   UNL A   1      42.701  22.626  27.987  1.00  0.00     0.010 A 
ATOM     39  C   UNL A   1      42.344  23.261  25.678  1.00  0.00     0.010 A 
ATOM     40  C   UNL A   1      42.741  23.603  26.979  1.00  0.00    -0.014 A 
BRANCH  40  41
ATOM     41  C   UNL A   1      43.187  24.990  27.269  1.00  0.00     0.031 A 
ATOM     42  C   UNL A   1      42.247  25.959  27.931  1.00  0.00     0.074 A 
ATOM     43  C   UNL A   1      44.417  25.386  26.887  1.00  0.00     0.049 A 
ATOM     44  N   UNL A   1      42.423  27.226  28.207  1.00  0.00    -0.248 NA
ATOM     45  C   UNL A   1      40.921  25.442  28.305  1.00  0.00     0.031 C 
ATOM     46  C   UNL A   1      45.401  24.544  26.205  1.00  0.00     0.029 A 
ATOM     47  N   UNL A   1      45.048  26.598  27.012  1.00  0.00    -0.354 N 
ATOM     48  C   UNL A   1      41.229  27.659  28.777  1.00  0.00     0.074 A 
ATOM     49  C   UNL A   1      40.318  26.535  28.744  1.00  0.00     0.031 C 
ATOM     50  C   UNL A   1      46.520  25.256  25.995  1.00  0.00     0.029 A 
ATOM     51  C   UNL A   1      46.316  26.618  26.480  1.00  0.00     0.049 A 
ATOM     52  H   UNL A   1      44.631  27.381  27.440  1.00  0.00     0.167 HD
ATOM     53  C   UNL A   1      40.933  28.874  29.301  1.00  0.00     0.034 A 
ATOM     54  C   UNL A   1      47.210  27.623  26.382  1.00  0.00     0.034 A 
ATOM     55  C   UNL A   1      41.859  29.980  29.329  1.00  0.00     0.049 A 
ATOM     56  C   UNL A   1      46.844  28.975  26.939  1.00  0.00     0.074 A 
ATOM     57  C   UNL A   1      41.682  31.238  29.877  1.00  0.00     0.029 A 
ATOM     58  N   UNL A   1      43.133  29.967  28.773  1.00  0.00    -0.354 N 
ATOM     59  N   UNL A   1      45.730  29.356  27.520  1.00  0.00    -0.248 NA
ATOM     60  C   UNL A   1      47.860  30.030  26.834  1.00  0.00     0.031 C 
ATOM     61  C   UNL A   1      42.815  32.007  29.588  1.00  0.00     0.029 A 
ATOM     62  C   UNL A   1      43.737  31.204  28.936  1.00  0.00     0.049 A 
ATOM     63  H   UNL A   1      43.546  29.191  28.329  1.00  0.00     0.167 HD
ATOM     64  C   UNL A   1      45.926  30.687  27.880  1.00  0.00     0.074 A 
ATOM     65  C   UNL A   1      47.268  31.035  27.464  1.00  0.00     0.031 C 
ATOM     66  C   UNL A   1      45.075  31.542  28.504  1.00  0.00     0.034 A 
BRANCH  53  67
ATOM     67  C   UNL A   1      39.540  29.071  29.857  1.00  0.00     0.023 A 
ATOM     68  C   UNL A   1      38.538  29.730  29.122  1.00  0.00     0.031 A 
ATOM     69  C   UNL A   1      39.217  28.621  31.149  1.00  0.00     0.131 A 
ATOM     70  C   UNL A   1      37.292  29.991  29.712  1.00  0.00     0.055 A 
ATOM     71  C   UNL A   1      37.946  28.806  31.697  1.00  0.00     0.041 A 
ATOM     72  F   UNL A   1      40.137  28.006  31.908  1.00  0.00    -0.206 F 
ATOM     73  C   UNL A   1      36.979  29.509  30.985  1.00  0.00     0.022 A 
BRANCH  70  74
ATOM     74  S   UNL A   1      36.144  31.102  28.853  1.00  0.00     0.124 S 
ATOM     75  O   UNL A   1      35.619  30.230  27.804  1.00  0.00    -0.237 OA
ATOM     76  O   UNL A   1      35.207  31.466  29.908  1.00  0.00    -0.237 OA
ATOM     77  O   UNL A   1      37.005  32.184  28.380  1.00  0.00    -0.744 OA
ENDBRANCH  70  74
ENDBRANCH  53  67
BRANCH  54  78
ATOM     78  C   UNL A   1      48.530  27.398  25.724  1.00  0.00     0.023 A 
ATOM     79  C   UNL A   1      48.683  27.554  24.338  1.00  0.00     0.031 A 
ATOM     80  C   UNL A   1      49.650  26.986  26.469  1.00  0.00     0.131 A 
ATOM     81  C   UNL A   1      49.913  27.251  23.731  1.00  0.00     0.055 A 
ATOM     82  C   UNL A   1      50.887  26.741  25.868  1.00  0.00     0.041 A 
ATOM     83  F   UNL A   1      49.560  26.825  27.798  1.00  0.00    -0.206 F 
ATOM     84  C   UNL A   1      51.019  26.862  24.489  1.00  0.00     0.022 A 
BRANCH  81  85
ATOM     85  S   UNL A   1      50.022  27.291  21.920  1.00  0.00     0.124 S 
ATOM     86  O   UNL A   1      48.995  26.327  21.541  1.00  0.00    -0.237 OA
ATOM     87  O   UNL A   1      49.729  28.690  21.631  1.00  0.00    -0.237 OA
ATOM     88  O   UNL A   1      51.397  26.876  21.654  1.00  0.00    -0.744 OA
ENDBRANCH  81  85
ENDBRANCH  54  78
BRANCH  66  89
ATOM     89  C   UNL A   1      45.597  32.925  28.815  1.00  0.00     0.023 A 
ATOM     90  C   UNL A   1      45.328  34.025  27.982  1.00  0.00     0.031 A 
ATOM     91  C   UNL A   1      46.383  33.141  29.961  1.00  0.00     0.131 A 
ATOM     92  C   UNL A   1      45.890  35.277  28.276  1.00  0.00     0.055 A 
ATOM     93  C   UNL A   1      46.883  34.402  30.284  1.00  0.00     0.041 A 
ATOM     94  F   UNL A   1      46.675  32.126  30.791  1.00  0.00    -0.206 F 
ATOM     95  C   UNL A   1      46.650  35.477  29.431  1.00  0.00     0.022 A 
BRANCH  92  96
ATOM     96  S   UNL A   1      45.700  36.621  27.072  1.00  0.00     0.124 S 
ATOM     97  O   UNL A   1      46.701  36.274  26.070  1.00  0.00    -0.237 OA
ATOM     98  O   UNL A   1      44.308  36.475  26.660  1.00  0.00    -0.237 OA
ATOM     99  O   UNL A   1      45.992  37.823  27.851  1.00  0.00    -0.744 OA
ENDBRANCH  92  96
ENDBRANCH  66  89
ENDBRANCH  40  41
ENDBRANCH  32  35
ENDBRANCH  30  31
ENDBRANCH  29  30
ENDBRANCH  28  29
ENDBRANCH   1  28
TORSDOF 20
ENDMDL
MODEL 2
REMARK VINA RESULT:     -10.8      6.249      9.838
REMARK SMILES CCOc1cccc(C(=O)Nc2ccc(Cl)c(C(=O)NCCCCCCNC(=O)c3ccc(-c4c5nc(c(-c6cc(S(=O)(=O)[O-])ccc6F)c6ccc([nH]6)c(-c6cc(S(=O)(=O)[O-])ccc6F)c6nc(c(-c7cc(S(=O)(=O)[O-])ccc7F)c7ccc4[nH]7)C=C6)C=C5)cc3)c2)c1
REMARK SMILES IDX 23 1 22 2 21 3 20 4 18 5 19 6 17 8 12 9 13 10 93 11 14 12
REMARK SMILES IDX 15 13 16 14 11 15 9 16 10 17 8 19 4 20 5 21 94 22 6 23 7 24
REMARK SMILES IDX 3 25 2 26 1 27 24 28 25 29 26 30 27 31 28 32 29 34 30 35
REMARK SMILES IDX 31 36 92 37 32 38 91 39 33 40 34 41 35 42 85 43 36 44 90 45
REMARK SMILES IDX 84 46 86 47 37 48 89 49 83 50 82 51 38 53 70 54 50 55 69 56
REMARK SMILES IDX 51 57 54 58 68 59 87 60 52 61 53 62 67 64 88 65 55 66 39 67
REMARK SMILES IDX 40 68 48 69 41 70 47 71 49 72 46 73 42 74 43 75 44 76 45 77
REMARK SMILES IDX 71 78 72 79 80 80 73 81 79 82 81 83 78 84 74 85 75 86 76 87
REMARK SMILES IDX 77 88 56 89 57 90 65 91 58 92 64 93 66 94 63 95 59 96 60 97
REMARK SMILES IDX 61 98 62 99
REMARK H PARENT 20 7 11 18 27 33 86 52 54 63
REMARK Flexibility Score: inf
ROOT
ATOM      1  C   UNL A   1      35.733  31.336  27.633  1.00  0.00     0.002 C 
ENDROOT
BRANCH   1   2
ATOM      2  C   UNL A   1      34.695  30.399  28.257  1.00  0.00     0.021 C 
BRANCH   2   3
ATOM      3  C   UNL A   1      34.190  29.362  27.254  1.00  0.00     0.116 C 
BRANCH   3   4
ATOM      4  N   UNL A   1      33.066  28.644  27.819  1.00  0.00    -0.352 N 
ATOM      5  C   UNL A   1      31.915  28.104  27.306  1.00  0.00     0.252 C 
ATOM      6  O   UNL A   1      31.061  27.803  28.137  1.00  0.00    -0.269 OA
ATOM      7  H   UNL A   1      33.148  28.513  28.792  1.00  0.00     0.163 HD
BRANCH   5   8
ATOM      8  C   UNL A   1      31.692  27.824  25.849  1.00  0.00     0.060 A 
ATOM      9  C   UNL A   1      31.264  26.251  24.027  1.00  0.00     0.042 A 
ATOM     10  C   UNL A   1      31.052  27.299  23.141  1.00  0.00     0.028 A 
ATOM     11  C   UNL A   1      31.702  26.519  25.328  1.00  0.00     0.041 A 
ATOM     12  C   UNL A   1      31.122  28.609  23.604  1.00  0.00     0.023 A 
ATOM     13  C   UNL A   1      31.400  28.877  24.955  1.00  0.00     0.053 A 
ATOM     14  Cl  UNL A   1      31.274  30.548  25.398  1.00  0.00    -0.083 Cl
BRANCH   9  15
ATOM     15  N   UNL A   1      30.980  24.956  23.578  1.00  0.00    -0.322 N 
ATOM     16  C   UNL A   1      31.596  23.742  23.829  1.00  0.00     0.255 C 
ATOM     17  O   UNL A   1      31.296  22.790  23.107  1.00  0.00    -0.269 OA
ATOM     18  H   UNL A   1      30.203  24.898  22.977  1.00  0.00     0.170 HD
BRANCH  16  19
ATOM     19  C   UNL A   1      32.507  23.492  24.994  1.00  0.00     0.043 A 
ATOM     20  C   UNL A   1      34.695  23.276  26.034  1.00  0.00     0.120 A 
ATOM     21  C   UNL A   1      34.098  22.870  27.225  1.00  0.00     0.046 A 
ATOM     22  C   UNL A   1      33.899  23.647  24.946  1.00  0.00     0.060 A 
ATOM     23  C   UNL A   1      32.710  22.830  27.330  1.00  0.00     0.005 A 
ATOM     24  C   UNL A   1      31.919  23.119  26.214  1.00  0.00     0.014 A 
BRANCH  20  25
ATOM     25  O   UNL A   1      36.042  23.063  25.933  1.00  0.00    -0.494 OA
BRANCH  25  26
ATOM     26  C   UNL A   1      36.501  22.309  24.813  1.00  0.00     0.226 C 
ATOM     27  C   UNL A   1      36.461  20.810  25.059  1.00  0.00     0.049 C 
ENDBRANCH  25  26
ENDBRANCH  20  25
ENDBRANCH  16  19
ENDBRANCH   9  15
ENDBRANCH   5   8
ENDBRANCH   3   4
ENDBRANCH   2   3
ENDBRANCH   1   2
BRANCH   1  28
ATOM     28  C   UNL A   1      35.656  32.781  28.144  1.00  0.00     0.002 C 
BRANCH  28  29
ATOM     29  C   UNL A   1      34.251  33.389  28.137  1.00  0.00     0.021 C 
BRANCH  29  30
ATOM     30  C   UNL A   1      34.230  34.911  28.233  1.00  0.00     0.116 C 
BRANCH  30  31
ATOM     31  N   UNL A   1      33.375  35.364  29.319  1.00  0.00    -0.352 N 
ATOM     32  C   UNL A   1      33.398  35.008  30.641  1.00  0.00     0.251 C 
ATOM     33  H   UNL A   1      32.684  36.019  29.068  1.00  0.00     0.163 HD
ATOM     34  O   UNL A   1      32.444  35.290  31.367  1.00  0.00    -0.269 OA
BRANCH  32  35
ATOM     35  C   UNL A   1      34.560  34.276  31.180  1.00  0.00     0.039 A 
ATOM     36  C   UNL A   1      34.374  32.993  31.698  1.00  0.00     0.014 A 
ATOM     37  C   UNL A   1      35.832  34.858  31.174  1.00  0.00     0.014 A 
ATOM     38  C   UNL A   1      35.476  32.273  32.164  1.00  0.00     0.010 A 
ATOM     39  C   UNL A   1      36.936  34.110  31.569  1.00  0.00     0.010 A 
ATOM     40  C   UNL A   1      36.770  32.813  32.074  1.00  0.00    -0.014 A 
BRANCH  40  41
ATOM     41  C   UNL A   1      37.958  32.038  32.514  1.00  0.00     0.031 A 
ATOM     42  C   UNL A   1      38.633  32.368  33.816  1.00  0.00     0.074 A 
ATOM     43  C   UNL A   1      38.457  31.076  31.713  1.00  0.00     0.049 A 
ATOM     44  N   UNL A   1      39.716  31.856  34.341  1.00  0.00    -0.248 NA
ATOM     45  C   UNL A   1      38.024  33.439  34.621  1.00  0.00     0.031 C 
ATOM     46  C   UNL A   1      37.908  30.693  30.410  1.00  0.00     0.029 A 
ATOM     47  N   UNL A   1      39.540  30.249  31.871  1.00  0.00    -0.354 N 
ATOM     48  C   UNL A   1      39.924  32.547  35.531  1.00  0.00     0.074 A 
ATOM     49  C   UNL A   1      38.892  33.559  35.613  1.00  0.00     0.031 C 
ATOM     50  C   UNL A   1      38.641  29.690  29.902  1.00  0.00     0.029 A 
ATOM     51  C   UNL A   1      39.741  29.392  30.815  1.00  0.00     0.049 A 
ATOM     52  H   UNL A   1      40.122  30.268  32.666  1.00  0.00     0.167 HD
ATOM     53  C   UNL A   1      40.873  32.339  36.477  1.00  0.00     0.034 A 
ATOM     54  C   UNL A   1      40.709  28.478  30.598  1.00  0.00     0.034 A 
ATOM     55  C   UNL A   1      41.891  31.321  36.377  1.00  0.00     0.049 A 
ATOM     56  C   UNL A   1      41.775  28.290  31.647  1.00  0.00     0.074 A 
ATOM     57  C   UNL A   1      42.871  30.990  37.296  1.00  0.00     0.029 A 
ATOM     58  N   UNL A   1      42.069  30.476  35.288  1.00  0.00    -0.354 N 
ATOM     59  N   UNL A   1      41.930  28.917  32.790  1.00  0.00    -0.248 NA
ATOM     60  C   UNL A   1      42.792  27.265  31.380  1.00  0.00     0.031 C 
ATOM     61  C   UNL A   1      43.685  30.001  36.734  1.00  0.00     0.029 A 
ATOM     62  C   UNL A   1      43.163  29.650  35.499  1.00  0.00     0.049 A 
ATOM     63  H   UNL A   1      41.501  30.465  34.484  1.00  0.00     0.167 HD
ATOM     64  C   UNL A   1      43.043  28.337  33.394  1.00  0.00     0.074 A 
ATOM     65  C   UNL A   1      43.509  27.302  32.494  1.00  0.00     0.031 C 
ATOM     66  C   UNL A   1      43.624  28.629  34.586  1.00  0.00     0.034 A 
BRANCH  53  67
ATOM     67  C   UNL A   1      40.868  33.253  37.681  1.00  0.00     0.023 A 
ATOM     68  C   UNL A   1      40.083  32.976  38.816  1.00  0.00     0.031 A 
ATOM     69  C   UNL A   1      41.633  34.433  37.687  1.00  0.00     0.131 A 
ATOM     70  C   UNL A   1      40.019  33.901  39.869  1.00  0.00     0.055 A 
ATOM     71  C   UNL A   1      41.633  35.306  38.776  1.00  0.00     0.041 A 
ATOM     72  F   UNL A   1      42.384  34.765  36.625  1.00  0.00    -0.206 F 
ATOM     73  C   UNL A   1      40.810  35.051  39.869  1.00  0.00     0.022 A 
BRANCH  70  74
ATOM     74  S   UNL A   1      38.772  33.654  41.162  1.00  0.00     0.124 S 
ATOM     75  O   UNL A   1      39.604  33.315  42.314  1.00  0.00    -0.237 OA
ATOM     76  O   UNL A   1      38.108  34.950  41.212  1.00  0.00    -0.237 OA
ATOM     77  O   UNL A   1      37.958  32.554  40.647  1.00  0.00    -0.744 OA
ENDBRANCH  70  74
ENDBRANCH  53  67
BRANCH  54  78
ATOM     78  C   UNL A   1      40.727  27.681  29.338  1.00  0.00     0.023 A 
ATOM     79  C   UNL A   1      41.632  27.974  28.307  1.00  0.00     0.031 A 
ATOM     80  C   UNL A   1      39.808  26.635  29.130  1.00  0.00     0.131 A 
ATOM     81  C   UNL A   1      41.570  27.265  27.097  1.00  0.00     0.055 A 
ATOM     82  C   UNL A   1      39.788  25.894  27.946  1.00  0.00     0.041 A 
ATOM     83  F   UNL A   1      38.923  26.309  30.084  1.00  0.00    -0.206 F 
ATOM     84  C   UNL A   1      40.665  26.217  26.916  1.00  0.00     0.022 A 
BRANCH  81  85
ATOM     85  S   UNL A   1      42.634  27.792  25.725  1.00  0.00     0.124 S 
ATOM     86  O   UNL A   1      43.960  27.691  26.324  1.00  0.00    -0.237 OA
ATOM     87  O   UNL A   1      42.315  26.805  24.699  1.00  0.00    -0.237 OA
ATOM     88  O   UNL A   1      42.177  29.151  25.444  1.00  0.00    -0.744 OA
ENDBRANCH  81  85
ENDBRANCH  54  78
BRANCH  66  89
ATOM     89  C   UNL A   1      44.802  27.779  35.003  1.00  0.00     0.023 A 
ATOM     90  C   UNL A   1      44.635  26.581  35.720  1.00  0.00     0.031 A 
ATOM     91  C   UNL A   1      46.110  28.180  34.681  1.00  0.00     0.131 A 
ATOM     92  C   UNL A   1      45.761  25.860  36.144  1.00  0.00     0.055 A 
ATOM     93  C   UNL A   1      47.223  27.423  35.048  1.00  0.00     0.041 A 
ATOM     94  F   UNL A   1      46.329  29.317  34.002  1.00  0.00    -0.206 F 
ATOM     95  C   UNL A   1      47.053  26.262  35.796  1.00  0.00     0.022 A 
BRANCH  92  96
ATOM     96  S   UNL A   1      45.521  24.438  37.245  1.00  0.00     0.124 S 
ATOM     97  O   UNL A   1      46.827  24.327  37.886  1.00  0.00    -0.237 OA
ATOM     98  O   UNL A   1      44.427  24.887  38.100  1.00  0.00    -0.237 OA
ATOM     99  O   UNL A   1      45.186  23.348  36.331  1.00  0.00    -0.744 OA
ENDBRANCH  92  96
ENDBRANCH  66  89
ENDBRANCH  40  41
ENDBRANCH  32  35
ENDBRANCH  30  31
ENDBRANCH  29  30
ENDBRANCH  28  29
ENDBRANCH   1  28
TORSDOF 20
ENDMDL
MODEL 3
REMARK VINA RESULT:     -10.6      6.030      9.483
REMARK SMILES CCOc1cccc(C(=O)Nc2ccc(Cl)c(C(=O)NCCCCCCNC(=O)c3ccc(-c4c5nc(c(-c6cc(S(=O)(=O)[O-])ccc6F)c6ccc([nH]6)c(-c6cc(S(=O)(=O)[O-])ccc6F)c6nc(c(-c7cc(S(=O)(=O)[O-])ccc7F)c7ccc4[nH]7)C=C6)C=C5)cc3)c2)c1
REMARK SMILES IDX 23 1 22 2 21 3 20 4 18 5 19 6 17 8 12 9 13 10 93 11 14 12
REMARK SMILES IDX 15 13 16 14 11 15 9 16 10 17 8 19 4 20 5 21 94 22 6 23 7 24
REMARK SMILES IDX 3 25 2 26 1 27 24 28 25 29 26 30 27 31 28 32 29 34 30 35
REMARK SMILES IDX 31 36 92 37 32 38 91 39 33 40 34 41 35 42 85 43 36 44 90 45
REMARK SMILES IDX 84 46 86 47 37 48 89 49 83 50 82 51 38 53 70 54 50 55 69 56
REMARK SMILES IDX 51 57 54 58 68 59 87 60 52 61 53 62 67 64 88 65 55 66 39 67
REMARK SMILES IDX 40 68 48 69 41 70 47 71 49 72 46 73 42 74 43 75 44 76 45 77
REMARK SMILES IDX 71 78 72 79 80 80 73 81 79 82 81 83 78 84 74 85 75 86 76 87
REMARK SMILES IDX 77 88 56 89 57 90 65 91 58 92 64 93 66 94 63 95 59 96 60 97
REMARK SMILES IDX 61 98 62 99
REMARK H PARENT 20 7 11 18 27 33 86 52 54 63
REMARK Flexibility Score: inf
ROOT
ATOM      1  C   UNL A   1      33.985  30.241  26.843  1.00  0.00     0.002 C 
ENDROOT
BRANCH   1   2
ATOM      2  C   UNL A   1      33.146  29.104  27.434  1.00  0.00     0.021 C 
BRANCH   2   3
ATOM      3  C   UNL A   1      31.975  28.730  26.525  1.00  0.00     0.116 C 
BRANCH   3   4
ATOM      4  N   UNL A   1      31.471  27.423  26.894  1.00  0.00    -0.352 N 
ATOM      5  C   UNL A   1      31.268  26.247  26.220  1.00  0.00     0.252 C 
ATOM      6  O   UNL A   1      30.566  25.422  26.803  1.00  0.00    -0.269 OA
ATOM      7  H   UNL A   1      31.216  27.367  27.844  1.00  0.00     0.163 HD
BRANCH   5   8
ATOM      8  C   UNL A   1      31.886  25.917  24.893  1.00  0.00     0.060 A 
ATOM      9  C   UNL A   1      33.774  25.102  23.571  1.00  0.00     0.042 A 
ATOM     10  C   UNL A   1      32.992  25.084  22.423  1.00  0.00     0.028 A 
ATOM     11  C   UNL A   1      33.256  25.633  24.756  1.00  0.00     0.041 A 
ATOM     12  C   UNL A   1      31.651  25.446  22.506  1.00  0.00     0.023 A 
ATOM     13  C   UNL A   1      31.085  25.822  23.735  1.00  0.00     0.053 A 
ATOM     14  Cl  UNL A   1      29.370  26.067  23.693  1.00  0.00    -0.083 Cl
BRANCH   9  15
ATOM     15  N   UNL A   1      35.052  24.536  23.493  1.00  0.00    -0.322 N 
ATOM     16  C   UNL A   1      35.667  23.552  24.246  1.00  0.00     0.255 C 
ATOM     17  O   UNL A   1      36.886  23.418  24.125  1.00  0.00    -0.269 OA
ATOM     18  H   UNL A   1      35.613  24.903  22.772  1.00  0.00     0.170 HD
BRANCH  16  19
ATOM     19  C   UNL A   1      34.926  22.568  25.102  1.00  0.00     0.043 A 
ATOM     20  C   UNL A   1      33.564  20.584  25.450  1.00  0.00     0.120 A 
ATOM     21  C   UNL A   1      33.464  20.880  26.808  1.00  0.00     0.046 A 
ATOM     22  C   UNL A   1      34.345  21.389  24.617  1.00  0.00     0.060 A 
ATOM     23  C   UNL A   1      34.139  21.979  27.332  1.00  0.00     0.005 A 
ATOM     24  C   UNL A   1      34.849  22.831  26.481  1.00  0.00     0.014 A 
BRANCH  20  25
ATOM     25  O   UNL A   1      32.693  19.643  24.975  1.00  0.00    -0.494 OA
BRANCH  25  26
ATOM     26  C   UNL A   1      32.709  18.363  25.604  1.00  0.00     0.226 C 
ATOM     27  C   UNL A   1      33.486  17.328  24.808  1.00  0.00     0.049 C 
ENDBRANCH  25  26
ENDBRANCH  20  25
ENDBRANCH  16  19
ENDBRANCH   9  15
ENDBRANCH   5   8
ENDBRANCH   3   4
ENDBRANCH   2   3
ENDBRANCH   1   2
BRANCH   1  28
ATOM     28  C   UNL A   1      34.229  31.405  27.811  1.00  0.00     0.002 C 
BRANCH  28  29
ATOM     29  C   UNL A   1      33.106  32.445  27.860  1.00  0.00     0.021 C 
BRANCH  29  30
ATOM     30  C   UNL A   1      33.584  33.885  27.703  1.00  0.00     0.116 C 
BRANCH  30  31
ATOM     31  N   UNL A   1      33.112  34.724  28.793  1.00  0.00    -0.352 N 
ATOM     32  C   UNL A   1      33.456  34.691  30.118  1.00  0.00     0.251 C 
ATOM     33  H   UNL A   1      32.454  35.413  28.544  1.00  0.00     0.163 HD
ATOM     34  O   UNL A   1      32.773  35.298  30.944  1.00  0.00    -0.269 OA
BRANCH  32  35
ATOM     35  C   UNL A   1      34.634  33.913  30.547  1.00  0.00     0.039 A 
ATOM     36  C   UNL A   1      35.905  34.326  30.143  1.00  0.00     0.014 A 
ATOM     37  C   UNL A   1      34.482  32.776  31.347  1.00  0.00     0.014 A 
ATOM     38  C   UNL A   1      37.029  33.626  30.585  1.00  0.00     0.010 A 
ATOM     39  C   UNL A   1      35.606  32.127  31.847  1.00  0.00     0.010 A 
ATOM     40  C   UNL A   1      36.891  32.540  31.466  1.00  0.00    -0.014 A 
BRANCH  40  41
ATOM     41  C   UNL A   1      38.080  31.820  31.990  1.00  0.00     0.031 A 
ATOM     42  C   UNL A   1      38.653  32.189  33.331  1.00  0.00     0.074 A 
ATOM     43  C   UNL A   1      38.671  30.874  31.234  1.00  0.00     0.049 A 
ATOM     44  N   UNL A   1      39.720  31.728  33.931  1.00  0.00    -0.248 NA
ATOM     45  C   UNL A   1      37.948  33.239  34.083  1.00  0.00     0.031 C 
ATOM     46  C   UNL A   1      38.226  30.458  29.902  1.00  0.00     0.029 A 
ATOM     47  N   UNL A   1      39.776  30.096  31.471  1.00  0.00    -0.354 N 
ATOM     48  C   UNL A   1      39.820  32.436  35.124  1.00  0.00     0.074 A 
ATOM     49  C   UNL A   1      38.743  33.403  35.128  1.00  0.00     0.031 C 
ATOM     50  C   UNL A   1      39.032  29.484  29.453  1.00  0.00     0.029 A 
ATOM     51  C   UNL A   1      40.081  29.240  30.439  1.00  0.00     0.049 A 
ATOM     52  H   UNL A   1      40.302  30.146  32.302  1.00  0.00     0.167 HD
ATOM     53  C   UNL A   1      40.713  32.277  36.132  1.00  0.00     0.034 A 
ATOM     54  C   UNL A   1      41.099  28.368  30.296  1.00  0.00     0.034 A 
ATOM     55  C   UNL A   1      41.777  31.302  36.110  1.00  0.00     0.049 A 
ATOM     56  C   UNL A   1      42.101  28.234  31.414  1.00  0.00     0.074 A 
ATOM     57  C   UNL A   1      42.708  31.020  37.094  1.00  0.00     0.029 A 
ATOM     58  N   UNL A   1      42.062  30.458  35.043  1.00  0.00    -0.354 N 
ATOM     59  N   UNL A   1      42.154  28.875  32.558  1.00  0.00    -0.248 NA
ATOM     60  C   UNL A   1      43.175  27.250  31.225  1.00  0.00     0.031 C 
ATOM     61  C   UNL A   1      43.598  30.063  36.597  1.00  0.00     0.029 A 
ATOM     62  C   UNL A   1      43.174  29.681  35.334  1.00  0.00     0.049 A 
ATOM     63  H   UNL A   1      41.549  30.416  34.204  1.00  0.00     0.167 HD
ATOM     64  C   UNL A   1      43.248  28.347  33.239  1.00  0.00     0.074 A 
ATOM     65  C   UNL A   1      43.815  27.326  32.383  1.00  0.00     0.031 C 
ATOM     66  C   UNL A   1      43.737  28.673  34.464  1.00  0.00     0.034 A 
BRANCH  53  67
ATOM     67  C   UNL A   1      40.590  33.198  37.324  1.00  0.00     0.023 A 
ATOM     68  C   UNL A   1      39.775  32.878  38.425  1.00  0.00     0.031 A 
ATOM     69  C   UNL A   1      41.271  34.428  37.350  1.00  0.00     0.131 A 
ATOM     70  C   UNL A   1      39.600  33.805  39.463  1.00  0.00     0.055 A 
ATOM     71  C   UNL A   1      41.161  35.309  38.427  1.00  0.00     0.041 A 
ATOM     72  F   UNL A   1      42.045  34.802  36.319  1.00  0.00    -0.206 F 
ATOM     73  C   UNL A   1      40.309  35.008  39.485  1.00  0.00     0.022 A 
BRANCH  70  74
ATOM     74  S   UNL A   1      38.314  33.484  40.702  1.00  0.00     0.124 S 
ATOM     75  O   UNL A   1      38.189  34.792  41.342  1.00  0.00    -0.237 OA
ATOM     76  O   UNL A   1      37.185  33.062  39.884  1.00  0.00    -0.237 OA
ATOM     77  O   UNL A   1      38.902  32.442  41.542  1.00  0.00    -0.744 OA
ENDBRANCH  70  74
ENDBRANCH  53  67
BRANCH  54  78
ATOM     78  C   UNL A   1      41.233  27.562  29.047  1.00  0.00     0.023 A 
ATOM     79  C   UNL A   1      42.216  27.863  28.093  1.00  0.00     0.031 A 
ATOM     80  C   UNL A   1      40.351  26.500  28.773  1.00  0.00     0.131 A 
ATOM     81  C   UNL A   1      42.265  27.145  26.887  1.00  0.00     0.055 A 
ATOM     82  C   UNL A   1      40.440  25.752  27.597  1.00  0.00     0.041 A 
ATOM     83  F   UNL A   1      39.394  26.167  29.653  1.00  0.00    -0.206 F 
ATOM     84  C   UNL A   1      41.394  26.081  26.640  1.00  0.00     0.022 A 
BRANCH  81  85
ATOM     85  S   UNL A   1      43.431  27.679  25.604  1.00  0.00     0.124 S 
ATOM     86  O   UNL A   1      42.570  27.741  24.429  1.00  0.00    -0.237 OA
ATOM     87  O   UNL A   1      43.894  28.959  26.131  1.00  0.00    -0.237 OA
ATOM     88  O   UNL A   1      44.432  26.615  25.590  1.00  0.00    -0.744 OA
ENDBRANCH  81  85
ENDBRANCH  54  78
BRANCH  66  89
ATOM     89  C   UNL A   1      44.919  27.877  34.965  1.00  0.00     0.023 A 
ATOM     90  C   UNL A   1      44.757  26.693  35.705  1.00  0.00     0.031 A 
ATOM     91  C   UNL A   1      46.229  28.319  34.704  1.00  0.00     0.131 A 
ATOM     92  C   UNL A   1      45.883  26.024  36.207  1.00  0.00     0.055 A 
ATOM     93  C   UNL A   1      47.346  27.613  35.149  1.00  0.00     0.041 A 
ATOM     94  F   UNL A   1      46.444  29.446  34.006  1.00  0.00    -0.206 F 
ATOM     95  C   UNL A   1      47.176  26.465  35.918  1.00  0.00     0.022 A 
BRANCH  92  96
ATOM     96  S   UNL A   1      45.634  24.622  37.331  1.00  0.00     0.124 S 
ATOM     97  O   UNL A   1      44.263  24.834  37.781  1.00  0.00    -0.237 OA
ATOM     98  O   UNL A   1      45.846  23.476  36.452  1.00  0.00    -0.237 OA
ATOM     99  O   UNL A   1      46.660  24.815  38.354  1.00  0.00    -0.744 OA
ENDBRANCH  92  96
ENDBRANCH  66  89
ENDBRANCH  40  41
ENDBRANCH  32  35
ENDBRANCH  30  31
ENDBRANCH  29  30
ENDBRANCH  28  29
ENDBRANCH   1  28
TORSDOF 20
ENDMDL
