MODEL 1
REMARK VINA RESULT:     -13.0      0.000      0.000
REMARK SMILES C[C@H]1CCc2sc3ncn4nc(/C=C\C(=O)NCCCCCCNC(=O)c5ccc(-c6c7nc(c(-c8cc(S(=O)(=O)[O-])ccc8F)c8ccc([nH]8)c(-c8cc(S(=O)(=O)[O-])ccc8F)c8nc(c(-c9cc(S(=O)(=O)[O-])ccc9F)c9ccc6[nH]9)C=C8)C=C7)cc5)nc4c3c2C1
REMARK SMILES IDX 21 1 20 2 19 3 18 4 17 5 15 6 16 7 14 9 13 10 12 11 1 12
REMARK SMILES IDX 2 13 3 14 94 15 4 16 93 17 5 18 92 19 6 20 7 21 91 22 8 23
REMARK SMILES IDX 10 24 90 25 9 26 11 27 22 28 23 29 24 30 25 31 26 33 27 34
REMARK SMILES IDX 28 35 89 36 29 37 88 38 30 39 31 40 32 41 82 42 33 43 87 44
REMARK SMILES IDX 81 45 83 46 34 47 86 48 80 49 79 50 35 52 67 53 47 54 66 55
REMARK SMILES IDX 48 56 51 57 65 58 84 59 49 60 50 61 64 63 85 64 52 65 36 66
REMARK SMILES IDX 37 67 45 68 38 69 44 70 46 71 43 72 39 73 40 74 41 75 42 76
REMARK SMILES IDX 68 77 69 78 77 79 70 80 76 81 78 82 75 83 71 84 72 85 73 86
REMARK SMILES IDX 74 87 53 88 54 89 62 90 55 91 61 92 63 93 60 94 56 95 57 96
REMARK SMILES IDX 58 97 59 98
REMARK H PARENT 17 8 24 32 83 51 51 62
REMARK Flexibility Score: inf
ROOT
ATOM      1  C   UNL A   1      46.015  20.898  35.276  1.00  0.00     0.002 C 
ENDROOT
BRANCH   1   2
ATOM      2  C   UNL A   1      45.659  19.419  35.481  1.00  0.00     0.002 C 
BRANCH   2   3
ATOM      3  C   UNL A   1      45.624  18.874  36.916  1.00  0.00     0.021 C 
BRANCH   3   4
ATOM      4  C   UNL A   1      46.704  19.370  37.872  1.00  0.00     0.116 C 
BRANCH   4   5
ATOM      5  N   UNL A   1      46.219  20.088  39.034  1.00  0.00    -0.353 N 
ATOM      6  C   UNL A   1      46.563  19.912  40.343  1.00  0.00     0.244 C 
ATOM      7  O   UNL A   1      46.095  20.649  41.211  1.00  0.00    -0.270 OA
ATOM      8  H   UNL A   1      45.556  20.792  38.856  1.00  0.00     0.163 HD
BRANCH   6   9
ATOM      9  C   UNL A   1      47.366  18.737  40.765  1.00  0.00     0.075 C 
ATOM     10  C   UNL A   1      46.949  17.527  41.172  1.00  0.00     0.057 C 
BRANCH  10  11
ATOM     11  C   UNL A   1      45.619  17.050  41.331  1.00  0.00     0.175 A 
ATOM     12  C   UNL A   1      43.955  12.750  46.707  1.00  0.00     0.008 C 
ATOM     13  C   UNL A   1      44.701  12.431  45.408  1.00  0.00    -0.009 C 
ATOM     14  C   UNL A   1      44.074  11.209  44.704  1.00  0.00     0.009 C 
ATOM     15  C   UNL A   1      44.750  13.668  44.476  1.00  0.00     0.041 C 
ATOM     16  C   UNL A   1      42.635  11.469  44.230  1.00  0.00     0.047 C 
ATOM     17  C   UNL A   1      43.513  13.799  43.629  1.00  0.00    -0.020 A 
ATOM     18  C   UNL A   1      42.552  12.803  43.554  1.00  0.00     0.011 A 
ATOM     19  C   UNL A   1      43.237  14.781  42.644  1.00  0.00     0.060 A 
ATOM     20  S   UNL A   1      41.236  13.215  42.542  1.00  0.00    -0.120 S 
ATOM     21  C   UNL A   1      42.063  14.580  41.927  1.00  0.00     0.129 A 
ATOM     22  C   UNL A   1      44.085  15.851  42.095  1.00  0.00     0.168 A 
ATOM     23  N   UNL A   1      41.640  15.240  40.796  1.00  0.00    -0.225 NA
ATOM     24  N   UNL A   1      43.676  16.436  40.934  1.00  0.00    -0.201 N 
ATOM     25  N   UNL A   1      45.292  16.249  42.403  1.00  0.00    -0.207 NA
ATOM     26  C   UNL A   1      42.475  16.121  40.298  1.00  0.00     0.227 A 
ATOM     27  N   UNL A   1      44.631  17.243  40.436  1.00  0.00    -0.145 NA
ENDBRANCH  10  11
ENDBRANCH   6   9
ENDBRANCH   4   5
ENDBRANCH   3   4
ENDBRANCH   2   3
ENDBRANCH   1   2
BRANCH   1  28
ATOM     28  C   UNL A   1      45.482  21.578  34.010  1.00  0.00     0.021 C 
BRANCH  28  29
ATOM     29  C   UNL A   1      44.228  22.404  34.242  1.00  0.00     0.116 C 
BRANCH  29  30
ATOM     30  N   UNL A   1      44.151  23.102  35.535  1.00  0.00    -0.352 N 
ATOM     31  C   UNL A   1      44.679  24.357  35.847  1.00  0.00     0.251 C 
ATOM     32  H   UNL A   1      43.677  22.635  36.260  1.00  0.00     0.163 HD
ATOM     33  O   UNL A   1      44.765  24.758  37.001  1.00  0.00    -0.269 OA
BRANCH  31  34
ATOM     34  C   UNL A   1      45.151  25.180  34.714  1.00  0.00     0.039 A 
ATOM     35  C   UNL A   1      46.349  24.901  34.050  1.00  0.00     0.014 A 
ATOM     36  C   UNL A   1      44.174  25.953  34.122  1.00  0.00     0.014 A 
ATOM     37  C   UNL A   1      46.457  25.227  32.691  1.00  0.00     0.010 A 
ATOM     38  C   UNL A   1      44.193  26.019  32.750  1.00  0.00     0.010 A 
ATOM     39  C   UNL A   1      45.329  25.700  32.004  1.00  0.00    -0.014 A 
BRANCH  39  40
ATOM     40  C   UNL A   1      45.255  25.741  30.531  1.00  0.00     0.031 A 
ATOM     41  C   UNL A   1      46.369  26.399  29.776  1.00  0.00     0.074 A 
ATOM     42  C   UNL A   1      44.349  25.043  29.803  1.00  0.00     0.049 A 
ATOM     43  N   UNL A   1      46.300  27.484  29.074  1.00  0.00    -0.248 NA
ATOM     44  C   UNL A   1      47.719  25.820  29.817  1.00  0.00     0.031 C 
ATOM     45  C   UNL A   1      43.273  24.150  30.257  1.00  0.00     0.029 A 
ATOM     46  N   UNL A   1      44.281  24.906  28.449  1.00  0.00    -0.354 N 
ATOM     47  C   UNL A   1      47.529  27.644  28.439  1.00  0.00     0.074 A 
ATOM     48  C   UNL A   1      48.403  26.661  29.032  1.00  0.00     0.031 C 
ATOM     49  C   UNL A   1      42.857  23.368  29.243  1.00  0.00     0.029 A 
ATOM     50  C   UNL A   1      43.444  23.884  28.026  1.00  0.00     0.049 A 
ATOM     51  H   UNL A   1      44.781  25.482  27.826  1.00  0.00     0.167 HD
ATOM     52  C   UNL A   1      47.689  28.470  27.362  1.00  0.00     0.034 A 
ATOM     53  C   UNL A   1      43.130  23.533  26.759  1.00  0.00     0.034 A 
ATOM     54  C   UNL A   1      46.543  29.329  27.182  1.00  0.00     0.049 A 
ATOM     55  C   UNL A   1      43.288  24.757  25.947  1.00  0.00     0.074 A 
ATOM     56  C   UNL A   1      45.925  30.295  27.953  1.00  0.00     0.029 A 
ATOM     57  N   UNL A   1      45.606  28.969  26.242  1.00  0.00    -0.354 N 
ATOM     58  N   UNL A   1      42.575  25.833  26.135  1.00  0.00    -0.248 NA
ATOM     59  C   UNL A   1      44.527  24.957  25.218  1.00  0.00     0.031 C 
ATOM     60  C   UNL A   1      44.526  30.059  27.780  1.00  0.00     0.029 A 
ATOM     61  C   UNL A   1      44.377  29.019  26.858  1.00  0.00     0.049 A 
ATOM     62  H   UNL A   1      45.782  28.722  25.305  1.00  0.00     0.167 HD
ATOM     63  C   UNL A   1      43.461  26.884  25.961  1.00  0.00     0.074 A 
ATOM     64  C   UNL A   1      44.604  26.290  25.271  1.00  0.00     0.031 C 
ATOM     65  C   UNL A   1      43.302  28.069  26.625  1.00  0.00     0.034 A 
BRANCH  52  66
ATOM     66  C   UNL A   1      48.768  28.359  26.308  1.00  0.00     0.023 A 
ATOM     67  C   UNL A   1      48.426  27.926  25.009  1.00  0.00     0.031 A 
ATOM     68  C   UNL A   1      50.151  28.437  26.586  1.00  0.00     0.131 A 
ATOM     69  C   UNL A   1      49.421  27.585  24.071  1.00  0.00     0.055 A 
ATOM     70  C   UNL A   1      51.136  28.156  25.633  1.00  0.00     0.041 A 
ATOM     71  F   UNL A   1      50.611  28.696  27.817  1.00  0.00    -0.206 F 
ATOM     72  C   UNL A   1      50.775  27.714  24.371  1.00  0.00     0.022 A 
BRANCH  69  73
ATOM     73  S   UNL A   1      48.929  26.844  22.487  1.00  0.00     0.124 S 
ATOM     74  O   UNL A   1      47.945  27.803  21.998  1.00  0.00    -0.237 OA
ATOM     75  O   UNL A   1      50.196  26.796  21.766  1.00  0.00    -0.237 OA
ATOM     76  O   UNL A   1      48.387  25.543  22.874  1.00  0.00    -0.744 OA
ENDBRANCH  69  73
ENDBRANCH  52  66
BRANCH  53  77
ATOM     77  C   UNL A   1      42.958  22.163  26.232  1.00  0.00     0.023 A 
ATOM     78  C   UNL A   1      44.034  21.460  25.663  1.00  0.00     0.031 A 
ATOM     79  C   UNL A   1      41.785  21.424  26.512  1.00  0.00     0.131 A 
ATOM     80  C   UNL A   1      43.929  20.075  25.425  1.00  0.00     0.055 A 
ATOM     81  C   UNL A   1      41.681  20.054  26.263  1.00  0.00     0.041 A 
ATOM     82  F   UNL A   1      40.732  21.991  27.122  1.00  0.00    -0.206 F 
ATOM     83  C   UNL A   1      42.763  19.369  25.733  1.00  0.00     0.022 A 
BRANCH  80  84
ATOM     84  S   UNL A   1      45.378  19.141  24.851  1.00  0.00     0.124 S 
ATOM     85  O   UNL A   1      46.466  20.074  25.120  1.00  0.00    -0.237 OA
ATOM     86  O   UNL A   1      45.335  17.941  25.681  1.00  0.00    -0.237 OA
ATOM     87  O   UNL A   1      45.088  18.915  23.436  1.00  0.00    -0.744 OA
ENDBRANCH  80  84
ENDBRANCH  53  77
BRANCH  65  88
ATOM     88  C   UNL A   1      41.992  28.307  27.364  1.00  0.00     0.023 A 
ATOM     89  C   UNL A   1      41.837  28.249  28.770  1.00  0.00     0.031 A 
ATOM     90  C   UNL A   1      40.880  28.725  26.612  1.00  0.00     0.131 A 
ATOM     91  C   UNL A   1      40.606  28.588  29.368  1.00  0.00     0.055 A 
ATOM     92  C   UNL A   1      39.667  29.077  27.208  1.00  0.00     0.041 A 
ATOM     93  F   UNL A   1      40.964  28.832  25.276  1.00  0.00    -0.206 F 
ATOM     94  C   UNL A   1      39.523  29.005  28.590  1.00  0.00     0.022 A 
BRANCH  91  95
ATOM     95  S   UNL A   1      40.396  28.487  31.179  1.00  0.00     0.124 S 
ATOM     96  O   UNL A   1      39.280  27.560  31.342  1.00  0.00    -0.237 OA
ATOM     97  O   UNL A   1      41.697  28.000  31.628  1.00  0.00    -0.237 OA
ATOM     98  O   UNL A   1      40.099  29.868  31.565  1.00  0.00    -0.744 OA
ENDBRANCH  91  95
ENDBRANCH  65  88
ENDBRANCH  39  40
ENDBRANCH  31  34
ENDBRANCH  29  30
ENDBRANCH  28  29
ENDBRANCH   1  28
TORSDOF 17
ENDMDL
MODEL 2
REMARK VINA RESULT:     -12.9      9.754     15.191
REMARK SMILES C[C@H]1CCc2sc3ncn4nc(/C=C\C(=O)NCCCCCCNC(=O)c5ccc(-c6c7nc(c(-c8cc(S(=O)(=O)[O-])ccc8F)c8ccc([nH]8)c(-c8cc(S(=O)(=O)[O-])ccc8F)c8nc(c(-c9cc(S(=O)(=O)[O-])ccc9F)c9ccc6[nH]9)C=C8)C=C7)cc5)nc4c3c2C1
REMARK SMILES IDX 21 1 20 2 19 3 18 4 17 5 15 6 16 7 14 9 13 10 12 11 1 12
REMARK SMILES IDX 2 13 3 14 94 15 4 16 93 17 5 18 92 19 6 20 7 21 91 22 8 23
REMARK SMILES IDX 10 24 90 25 9 26 11 27 22 28 23 29 24 30 25 31 26 33 27 34
REMARK SMILES IDX 28 35 89 36 29 37 88 38 30 39 31 40 32 41 82 42 33 43 87 44
REMARK SMILES IDX 81 45 83 46 34 47 86 48 80 49 79 50 35 52 67 53 47 54 66 55
REMARK SMILES IDX 48 56 51 57 65 58 84 59 49 60 50 61 64 63 85 64 52 65 36 66
REMARK SMILES IDX 37 67 45 68 38 69 44 70 46 71 43 72 39 73 40 74 41 75 42 76
REMARK SMILES IDX 68 77 69 78 77 79 70 80 76 81 78 82 75 83 71 84 72 85 73 86
REMARK SMILES IDX 74 87 53 88 54 89 62 90 55 91 61 92 63 93 60 94 56 95 57 96
REMARK SMILES IDX 58 97 59 98
REMARK H PARENT 17 8 24 32 83 51 51 62
REMARK Flexibility Score: inf
ROOT
ATOM      1  C   UNL A   1      34.617  29.641  27.213  1.00  0.00     0.002 C 
ENDROOT
BRANCH   1   2
ATOM      2  C   UNL A   1      34.063  28.569  26.263  1.00  0.00     0.002 C 
BRANCH   2   3
ATOM      3  C   UNL A   1      32.598  28.685  25.817  1.00  0.00     0.021 C 
BRANCH   3   4
ATOM      4  C   UNL A   1      32.336  29.335  24.463  1.00  0.00     0.116 C 
BRANCH   4   5
ATOM      5  N   UNL A   1      30.975  29.782  24.244  1.00  0.00    -0.353 N 
ATOM      6  C   UNL A   1      30.036  29.261  23.401  1.00  0.00     0.244 C 
ATOM      7  O   UNL A   1      28.899  29.729  23.374  1.00  0.00    -0.270 OA
ATOM      8  H   UNL A   1      30.691  30.563  24.771  1.00  0.00     0.163 HD
BRANCH   6   9
ATOM      9  C   UNL A   1      30.409  28.241  22.389  1.00  0.00     0.075 C 
ATOM     10  C   UNL A   1      30.827  26.978  22.572  1.00  0.00     0.057 C 
BRANCH  10  11
ATOM     11  C   UNL A   1      31.047  26.281  23.793  1.00  0.00     0.175 A 
ATOM     12  C   UNL A   1      37.452  23.692  25.353  1.00  0.00     0.008 C 
ATOM     13  C   UNL A   1      36.402  23.153  24.377  1.00  0.00    -0.009 C 
ATOM     14  C   UNL A   1      36.125  21.657  24.642  1.00  0.00     0.009 C 
ATOM     15  C   UNL A   1      35.103  23.996  24.435  1.00  0.00     0.041 C 
ATOM     16  C   UNL A   1      35.490  21.406  26.019  1.00  0.00     0.047 C 
ATOM     17  C   UNL A   1      34.178  23.553  25.536  1.00  0.00    -0.020 A 
ATOM     18  C   UNL A   1      34.387  22.391  26.262  1.00  0.00     0.011 A 
ATOM     19  C   UNL A   1      32.896  24.069  25.851  1.00  0.00     0.060 A 
ATOM     20  S   UNL A   1      33.204  22.132  27.470  1.00  0.00    -0.120 S 
ATOM     21  C   UNL A   1      32.212  23.378  26.844  1.00  0.00     0.129 A 
ATOM     22  C   UNL A   1      32.070  25.071  25.157  1.00  0.00     0.168 A 
ATOM     23  N   UNL A   1      30.895  23.518  27.218  1.00  0.00    -0.225 NA
ATOM     24  N   UNL A   1      30.752  25.135  25.498  1.00  0.00    -0.201 N 
ATOM     25  N   UNL A   1      32.305  25.817  24.110  1.00  0.00    -0.207 NA
ATOM     26  C   UNL A   1      30.183  24.359  26.508  1.00  0.00     0.227 A 
ATOM     27  N   UNL A   1      30.074  25.937  24.657  1.00  0.00    -0.145 NA
ENDBRANCH  10  11
ENDBRANCH   6   9
ENDBRANCH   4   5
ENDBRANCH   3   4
ENDBRANCH   2   3
ENDBRANCH   1   2
BRANCH   1  28
ATOM     28  C   UNL A   1      33.657  30.753  27.651  1.00  0.00     0.021 C 
BRANCH  28  29
ATOM     29  C   UNL A   1      34.275  32.140  27.620  1.00  0.00     0.116 C 
BRANCH  29  30
ATOM     30  N   UNL A   1      33.374  33.251  27.967  1.00  0.00    -0.352 N 
ATOM     31  C   UNL A   1      33.485  34.117  29.056  1.00  0.00     0.251 C 
ATOM     32  H   UNL A   1      32.609  33.400  27.365  1.00  0.00     0.163 HD
ATOM     33  O   UNL A   1      32.572  34.862  29.391  1.00  0.00    -0.269 OA
BRANCH  31  34
ATOM     34  C   UNL A   1      34.759  34.082  29.806  1.00  0.00     0.039 A 
ATOM     35  C   UNL A   1      34.972  33.180  30.853  1.00  0.00     0.014 A 
ATOM     36  C   UNL A   1      35.818  34.689  29.164  1.00  0.00     0.014 A 
ATOM     37  C   UNL A   1      36.276  32.729  31.096  1.00  0.00     0.010 A 
ATOM     38  C   UNL A   1      37.028  34.044  29.236  1.00  0.00     0.010 A 
ATOM     39  C   UNL A   1      37.306  33.086  30.213  1.00  0.00    -0.014 A 
BRANCH  39  40
ATOM     40  C   UNL A   1      38.609  32.396  30.191  1.00  0.00     0.031 A 
ATOM     41  C   UNL A   1      38.680  31.016  29.611  1.00  0.00     0.074 A 
ATOM     42  C   UNL A   1      39.788  33.004  30.471  1.00  0.00     0.049 A 
ATOM     43  N   UNL A   1      38.939  29.917  30.244  1.00  0.00    -0.248 NA
ATOM     44  C   UNL A   1      38.406  30.811  28.181  1.00  0.00     0.031 C 
ATOM     45  C   UNL A   1      40.052  34.396  30.863  1.00  0.00     0.029 A 
ATOM     46  N   UNL A   1      41.048  32.498  30.351  1.00  0.00    -0.354 N 
ATOM     47  C   UNL A   1      39.041  28.906  29.291  1.00  0.00     0.074 A 
ATOM     48  C   UNL A   1      38.578  29.491  28.055  1.00  0.00     0.031 C 
ATOM     49  C   UNL A   1      41.352  34.695  30.677  1.00  0.00     0.029 A 
ATOM     50  C   UNL A   1      42.049  33.456  30.411  1.00  0.00     0.049 A 
ATOM     51  H   UNL A   1      41.230  31.537  30.232  1.00  0.00     0.167 HD
ATOM     52  C   UNL A   1      39.647  27.711  29.562  1.00  0.00     0.034 A 
ATOM     53  C   UNL A   1      43.387  33.268  30.372  1.00  0.00     0.034 A 
ATOM     54  C   UNL A   1      39.877  27.545  30.977  1.00  0.00     0.049 A 
ATOM     55  C   UNL A   1      43.621  31.904  30.892  1.00  0.00     0.074 A 
ATOM     56  C   UNL A   1      39.064  27.496  32.093  1.00  0.00     0.029 A 
ATOM     57  N   UNL A   1      41.134  27.819  31.462  1.00  0.00    -0.354 N 
ATOM     58  N   UNL A   1      43.312  31.544  32.108  1.00  0.00    -0.248 NA
ATOM     59  C   UNL A   1      43.788  30.815  29.948  1.00  0.00     0.031 C 
ATOM     60  C   UNL A   1      39.755  28.263  33.081  1.00  0.00     0.029 A 
ATOM     61  C   UNL A   1      40.977  28.667  32.535  1.00  0.00     0.049 A 
ATOM     62  H   UNL A   1      41.987  27.474  31.110  1.00  0.00     0.167 HD
ATOM     63  C   UNL A   1      42.809  30.260  31.982  1.00  0.00     0.074 A 
ATOM     64  C   UNL A   1      43.251  29.820  30.660  1.00  0.00     0.031 C 
ATOM     65  C   UNL A   1      41.864  29.776  32.843  1.00  0.00     0.034 A 
BRANCH  52  66
ATOM     66  C   UNL A   1      40.259  26.775  28.544  1.00  0.00     0.023 A 
ATOM     67  C   UNL A   1      41.356  27.214  27.771  1.00  0.00     0.031 A 
ATOM     68  C   UNL A   1      39.669  25.558  28.139  1.00  0.00     0.131 A 
ATOM     69  C   UNL A   1      41.805  26.472  26.660  1.00  0.00     0.055 A 
ATOM     70  C   UNL A   1      40.155  24.793  27.073  1.00  0.00     0.041 A 
ATOM     71  F   UNL A   1      38.539  25.100  28.694  1.00  0.00    -0.206 F 
ATOM     72  C   UNL A   1      41.221  25.255  26.317  1.00  0.00     0.022 A 
BRANCH  69  73
ATOM     73  S   UNL A   1      43.085  27.178  25.582  1.00  0.00     0.124 S 
ATOM     74  O   UNL A   1      43.897  27.931  26.531  1.00  0.00    -0.237 OA
ATOM     75  O   UNL A   1      43.698  25.983  25.013  1.00  0.00    -0.237 OA
ATOM     76  O   UNL A   1      42.322  27.992  24.636  1.00  0.00    -0.744 OA
ENDBRANCH  69  73
ENDBRANCH  52  66
BRANCH  53  77
ATOM     77  C   UNL A   1      44.385  34.112  29.682  1.00  0.00     0.023 A 
ATOM     78  C   UNL A   1      44.768  33.852  28.355  1.00  0.00     0.031 A 
ATOM     79  C   UNL A   1      44.791  35.348  30.237  1.00  0.00     0.131 A 
ATOM     80  C   UNL A   1      45.495  34.814  27.626  1.00  0.00     0.055 A 
ATOM     81  C   UNL A   1      45.523  36.293  29.516  1.00  0.00     0.041 A 
ATOM     82  F   UNL A   1      44.413  35.717  31.471  1.00  0.00    -0.206 F 
ATOM     83  C   UNL A   1      45.864  36.036  28.197  1.00  0.00     0.022 A 
BRANCH  80  84
ATOM     84  S   UNL A   1      45.838  34.547  25.862  1.00  0.00     0.124 S 
ATOM     85  O   UNL A   1      46.276  35.870  25.434  1.00  0.00    -0.237 OA
ATOM     86  O   UNL A   1      46.858  33.504  25.888  1.00  0.00    -0.237 OA
ATOM     87  O   UNL A   1      44.542  34.121  25.333  1.00  0.00    -0.744 OA
ENDBRANCH  80  84
ENDBRANCH  53  77
BRANCH  65  88
ATOM     88  C   UNL A   1      41.558  30.581  34.099  1.00  0.00     0.023 A 
ATOM     89  C   UNL A   1      40.629  31.646  34.168  1.00  0.00     0.031 A 
ATOM     90  C   UNL A   1      42.155  30.171  35.304  1.00  0.00     0.131 A 
ATOM     91  C   UNL A   1      40.338  32.264  35.402  1.00  0.00     0.055 A 
ATOM     92  C   UNL A   1      41.852  30.771  36.528  1.00  0.00     0.041 A 
ATOM     93  F   UNL A   1      43.024  29.147  35.319  1.00  0.00    -0.206 F 
ATOM     94  C   UNL A   1      40.945  31.825  36.582  1.00  0.00     0.022 A 
BRANCH  91  95
ATOM     95  S   UNL A   1      39.161  33.656  35.488  1.00  0.00     0.124 S 
ATOM     96  O   UNL A   1      39.951  34.736  36.071  1.00  0.00    -0.237 OA
ATOM     97  O   UNL A   1      38.771  33.837  34.092  1.00  0.00    -0.237 OA
ATOM     98  O   UNL A   1      38.095  33.148  36.354  1.00  0.00    -0.744 OA
ENDBRANCH  91  95
ENDBRANCH  65  88
ENDBRANCH  39  40
ENDBRANCH  31  34
ENDBRANCH  29  30
ENDBRANCH  28  29
ENDBRANCH   1  28
TORSDOF 17
ENDMDL
MODEL 3
REMARK VINA RESULT:     -12.8      6.599     13.665
REMARK SMILES C[C@H]1CCc2sc3ncn4nc(/C=C\C(=O)NCCCCCCNC(=O)c5ccc(-c6c7nc(c(-c8cc(S(=O)(=O)[O-])ccc8F)c8ccc([nH]8)c(-c8cc(S(=O)(=O)[O-])ccc8F)c8nc(c(-c9cc(S(=O)(=O)[O-])ccc9F)c9ccc6[nH]9)C=C8)C=C7)cc5)nc4c3c2C1
REMARK SMILES IDX 21 1 20 2 19 3 18 4 17 5 15 6 16 7 14 9 13 10 12 11 1 12
REMARK SMILES IDX 2 13 3 14 94 15 4 16 93 17 5 18 92 19 6 20 7 21 91 22 8 23
REMARK SMILES IDX 10 24 90 25 9 26 11 27 22 28 23 29 24 30 25 31 26 33 27 34
REMARK SMILES IDX 28 35 89 36 29 37 88 38 30 39 31 40 32 41 82 42 33 43 87 44
REMARK SMILES IDX 81 45 83 46 34 47 86 48 80 49 79 50 35 52 67 53 47 54 66 55
REMARK SMILES IDX 48 56 51 57 65 58 84 59 49 60 50 61 64 63 85 64 52 65 36 66
REMARK SMILES IDX 37 67 45 68 38 69 44 70 46 71 43 72 39 73 40 74 41 75 42 76
REMARK SMILES IDX 68 77 69 78 77 79 70 80 76 81 78 82 75 83 71 84 72 85 73 86
REMARK SMILES IDX 74 87 53 88 54 89 62 90 55 91 61 92 63 93 60 94 56 95 57 96
REMARK SMILES IDX 58 97 59 98
REMARK H PARENT 17 8 24 32 83 51 51 62
REMARK Flexibility Score: inf
ROOT
ATOM      1  C   UNL A   1      35.137  33.062  28.037  1.00  0.00     0.002 C 
ENDROOT
BRANCH   1   2
ATOM      2  C   UNL A   1      35.228  31.578  27.658  1.00  0.00     0.002 C 
BRANCH   2   3
ATOM      3  C   UNL A   1      33.922  30.818  27.387  1.00  0.00     0.021 C 
BRANCH   3   4
ATOM      4  C   UNL A   1      34.013  29.300  27.276  1.00  0.00     0.116 C 
BRANCH   4   5
ATOM      5  N   UNL A   1      34.420  28.797  25.980  1.00  0.00    -0.353 N 
ATOM      6  C   UNL A   1      33.675  28.681  24.843  1.00  0.00     0.244 C 
ATOM      7  O   UNL A   1      34.193  28.281  23.800  1.00  0.00    -0.270 OA
ATOM      8  H   UNL A   1      35.356  28.499  25.912  1.00  0.00     0.163 HD
BRANCH   6   9
ATOM      9  C   UNL A   1      32.204  28.872  24.878  1.00  0.00     0.075 C 
ATOM     10  C   UNL A   1      31.249  28.031  25.310  1.00  0.00     0.057 C 
BRANCH  10  11
ATOM     11  C   UNL A   1      31.392  26.715  25.832  1.00  0.00     0.175 A 
ATOM     12  C   UNL A   1      37.737  23.575  25.992  1.00  0.00     0.008 C 
ATOM     13  C   UNL A   1      36.799  23.798  24.803  1.00  0.00    -0.009 C 
ATOM     14  C   UNL A   1      36.561  22.479  24.038  1.00  0.00     0.009 C 
ATOM     15  C   UNL A   1      35.466  24.446  25.259  1.00  0.00     0.041 C 
ATOM     16  C   UNL A   1      35.819  21.428  24.882  1.00  0.00     0.047 C 
ATOM     17  C   UNL A   1      34.468  23.428  25.743  1.00  0.00    -0.020 A 
ATOM     18  C   UNL A   1      34.661  22.064  25.588  1.00  0.00     0.011 A 
ATOM     19  C   UNL A   1      33.144  23.658  26.192  1.00  0.00     0.060 A 
ATOM     20  S   UNL A   1      33.390  21.128  26.246  1.00  0.00    -0.120 S 
ATOM     21  C   UNL A   1      32.406  22.511  26.458  1.00  0.00     0.129 A 
ATOM     22  C   UNL A   1      32.341  24.892  26.214  1.00  0.00     0.168 A 
ATOM     23  N   UNL A   1      31.057  22.414  26.713  1.00  0.00    -0.225 NA
ATOM     24  N   UNL A   1      30.997  24.757  26.395  1.00  0.00    -0.201 N 
ATOM     25  N   UNL A   1      32.635  26.127  25.899  1.00  0.00    -0.207 NA
ATOM     26  C   UNL A   1      30.375  23.531  26.631  1.00  0.00     0.227 A 
ATOM     27  N   UNL A   1      30.362  25.926  26.190  1.00  0.00    -0.145 NA
ENDBRANCH  10  11
ENDBRANCH   6   9
ENDBRANCH   4   5
ENDBRANCH   3   4
ENDBRANCH   2   3
ENDBRANCH   1   2
BRANCH   1  28
ATOM     28  C   UNL A   1      34.862  33.395  29.508  1.00  0.00     0.021 C 
BRANCH  28  29
ATOM     29  C   UNL A   1      36.050  34.014  30.226  1.00  0.00     0.116 C 
BRANCH  29  30
ATOM     30  N   UNL A   1      37.164  34.443  29.366  1.00  0.00    -0.352 N 
ATOM     31  C   UNL A   1      38.430  33.859  29.275  1.00  0.00     0.251 C 
ATOM     32  H   UNL A   1      37.001  35.227  28.793  1.00  0.00     0.163 HD
ATOM     33  O   UNL A   1      39.362  34.415  28.706  1.00  0.00    -0.269 OA
BRANCH  31  34
ATOM     34  C   UNL A   1      38.601  32.539  29.915  1.00  0.00     0.039 A 
ATOM     35  C   UNL A   1      38.302  31.350  29.243  1.00  0.00     0.014 A 
ATOM     36  C   UNL A   1      39.424  32.541  31.021  1.00  0.00     0.014 A 
ATOM     37  C   UNL A   1      39.024  30.194  29.567  1.00  0.00     0.010 A 
ATOM     38  C   UNL A   1      40.296  31.486  31.137  1.00  0.00     0.010 A 
ATOM     39  C   UNL A   1      40.106  30.283  30.455  1.00  0.00    -0.014 A 
BRANCH  39  40
ATOM     40  C   UNL A   1      41.115  29.216  30.588  1.00  0.00     0.031 A 
ATOM     41  C   UNL A   1      41.490  28.750  31.962  1.00  0.00     0.074 A 
ATOM     42  C   UNL A   1      41.578  28.483  29.545  1.00  0.00     0.049 A 
ATOM     43  N   UNL A   1      42.635  28.892  32.548  1.00  0.00    -0.248 NA
ATOM     44  C   UNL A   1      40.487  28.080  32.802  1.00  0.00     0.031 C 
ATOM     45  C   UNL A   1      41.238  28.570  28.118  1.00  0.00     0.029 A 
ATOM     46  N   UNL A   1      42.400  27.396  29.577  1.00  0.00    -0.354 N 
ATOM     47  C   UNL A   1      42.576  28.186  33.747  1.00  0.00     0.074 A 
ATOM     48  C   UNL A   1      41.191  27.814  33.909  1.00  0.00     0.031 C 
ATOM     49  C   UNL A   1      41.608  27.443  27.480  1.00  0.00     0.029 A 
ATOM     50  C   UNL A   1      42.437  26.682  28.389  1.00  0.00     0.049 A 
ATOM     51  H   UNL A   1      42.922  27.142  30.372  1.00  0.00     0.167 HD
ATOM     52  C   UNL A   1      43.700  27.829  34.437  1.00  0.00     0.034 A 
ATOM     53  C   UNL A   1      43.185  25.597  28.091  1.00  0.00     0.034 A 
ATOM     54  C   UNL A   1      44.867  28.511  33.931  1.00  0.00     0.049 A 
ATOM     55  C   UNL A   1      44.382  25.678  28.954  1.00  0.00     0.074 A 
ATOM     56  C   UNL A   1      45.243  29.835  33.815  1.00  0.00     0.029 A 
ATOM     57  N   UNL A   1      45.687  27.829  33.062  1.00  0.00    -0.354 N 
ATOM     58  N   UNL A   1      45.245  26.655  28.883  1.00  0.00    -0.248 NA
ATOM     59  C   UNL A   1      44.402  24.924  30.194  1.00  0.00     0.031 C 
ATOM     60  C   UNL A   1      45.856  29.928  32.527  1.00  0.00     0.029 A 
ATOM     61  C   UNL A   1      45.887  28.645  31.972  1.00  0.00     0.049 A 
ATOM     62  H   UNL A   1      46.060  26.927  33.194  1.00  0.00     0.167 HD
ATOM     63  C   UNL A   1      45.588  26.924  30.198  1.00  0.00     0.074 A 
ATOM     64  C   UNL A   1      45.145  25.746  30.942  1.00  0.00     0.031 C 
ATOM     65  C   UNL A   1      45.955  28.179  30.597  1.00  0.00     0.034 A 
BRANCH  52  66
ATOM     66  C   UNL A   1      43.814  26.685  35.419  1.00  0.00     0.023 A 
ATOM     67  C   UNL A   1      44.193  26.952  36.752  1.00  0.00     0.031 A 
ATOM     68  C   UNL A   1      43.791  25.323  35.048  1.00  0.00     0.131 A 
ATOM     69  C   UNL A   1      44.538  25.908  37.633  1.00  0.00     0.055 A 
ATOM     70  C   UNL A   1      44.075  24.285  35.942  1.00  0.00     0.041 A 
ATOM     71  F   UNL A   1      43.587  24.938  33.781  1.00  0.00    -0.206 F 
ATOM     72  C   UNL A   1      44.464  24.574  37.240  1.00  0.00     0.022 A 
BRANCH  69  73
ATOM     73  S   UNL A   1      45.211  26.315  39.270  1.00  0.00     0.124 S 
ATOM     74  O   UNL A   1      45.822  25.053  39.668  1.00  0.00    -0.237 OA
ATOM     75  O   UNL A   1      46.128  27.407  38.960  1.00  0.00    -0.237 OA
ATOM     76  O   UNL A   1      44.028  26.701  40.039  1.00  0.00    -0.744 OA
ENDBRANCH  69  73
ENDBRANCH  52  66
BRANCH  53  77
ATOM     77  C   UNL A   1      42.770  24.419  27.299  1.00  0.00     0.023 A 
ATOM     78  C   UNL A   1      43.682  23.734  26.478  1.00  0.00     0.031 A 
ATOM     79  C   UNL A   1      41.525  23.793  27.537  1.00  0.00     0.131 A 
ATOM     80  C   UNL A   1      43.352  22.466  25.957  1.00  0.00     0.055 A 
ATOM     81  C   UNL A   1      41.197  22.543  27.009  1.00  0.00     0.041 A 
ATOM     82  F   UNL A   1      40.618  24.336  28.366  1.00  0.00    -0.206 F 
ATOM     83  C   UNL A   1      42.120  21.865  26.229  1.00  0.00     0.022 A 
BRANCH  80  84
ATOM     84  S   UNL A   1      44.597  21.511  25.041  1.00  0.00     0.124 S 
ATOM     85  O   UNL A   1      45.835  21.930  25.686  1.00  0.00    -0.237 OA
ATOM     86  O   UNL A   1      44.179  20.132  25.276  1.00  0.00    -0.237 OA
ATOM     87  O   UNL A   1      44.424  21.975  23.665  1.00  0.00    -0.744 OA
ENDBRANCH  80  84
ENDBRANCH  53  77
BRANCH  65  88
ATOM     88  C   UNL A   1      46.227  29.223  29.522  1.00  0.00     0.023 A 
ATOM     89  C   UNL A   1      45.232  29.846  28.732  1.00  0.00     0.031 A 
ATOM     90  C   UNL A   1      47.546  29.687  29.377  1.00  0.00     0.131 A 
ATOM     91  C   UNL A   1      45.573  30.877  27.833  1.00  0.00     0.055 A 
ATOM     92  C   UNL A   1      47.880  30.722  28.500  1.00  0.00     0.041 A 
ATOM     93  F   UNL A   1      48.537  29.163  30.116  1.00  0.00    -0.206 F 
ATOM     94  C   UNL A   1      46.894  31.318  27.720  1.00  0.00     0.022 A 
BRANCH  91  95
ATOM     95  S   UNL A   1      44.295  31.662  26.793  1.00  0.00     0.124 S 
ATOM     96  O   UNL A   1      43.687  32.645  27.682  1.00  0.00    -0.237 OA
ATOM     97  O   UNL A   1      45.072  32.205  25.681  1.00  0.00    -0.237 OA
ATOM     98  O   UNL A   1      43.418  30.546  26.431  1.00  0.00    -0.744 OA
ENDBRANCH  91  95
ENDBRANCH  65  88
ENDBRANCH  39  40
ENDBRANCH  31  34
ENDBRANCH  29  30
ENDBRANCH  28  29
ENDBRANCH   1  28
TORSDOF 17
ENDMDL
