MODEL 1
REMARK VINA RESULT:     -10.9      0.000      0.000
REMARK SMILES O=C(NCCCCCCNC(=O)[C@@]1([NH2+]C2CC2)CCC[C@@H](Sc2ncn[nH]2)C1)c1ccc(-c2c3nc(c(-c4cc(S(=O)(=O)[O-])ccc4F)c4ccc([nH]4)c(-c4cc(S(=O)(=O)[O-])ccc4F)c4nc(c(-c5cc(S(=O)(=O)[O-])ccc5F)c5ccc2[nH]5)C=C4)C=C3)cc1
REMARK SMILES IDX 6 1 5 2 4 3 3 4 1 5 2 6 29 8 30 9 91 10 31 11 90 12 32 13
REMARK SMILES IDX 33 14 34 15 84 16 35 17 89 18 83 19 85 20 36 21 88 22 82 23
REMARK SMILES IDX 81 24 37 26 69 27 49 28 68 29 50 30 53 31 67 32 86 33 51 34
REMARK SMILES IDX 52 35 66 37 87 38 54 39 38 40 39 41 47 42 40 43 46 44 48 45
REMARK SMILES IDX 45 46 41 47 42 48 43 49 44 50 70 51 71 52 79 53 72 54 78 55
REMARK SMILES IDX 80 56 77 57 73 58 74 59 75 60 76 61 55 62 56 63 64 64 57 65
REMARK SMILES IDX 63 66 65 67 62 68 58 69 59 70 60 71 61 72 7 73 8 74 9 75
REMARK SMILES IDX 10 76 11 77 12 79 13 80 18 81 28 82 19 83 21 84 20 85 14 86
REMARK SMILES IDX 15 89 16 90 17 91 22 92 23 93 24 94 27 95 25 96 26 97
REMARK H PARENT 3 7 85 25 53 36 10 78 14 87 14 88 27 98
REMARK Flexibility Score: inf
ROOT
ATOM      1  C   UNL A   1      31.974  30.295  26.910  1.00  0.00     0.002 C 
ENDROOT
BRANCH   1   2
ATOM      2  C   UNL A   1      31.666  31.792  26.863  1.00  0.00     0.021 C 
BRANCH   2   3
ATOM      3  C   UNL A   1      32.902  32.681  26.900  1.00  0.00     0.116 C 
BRANCH   3   4
ATOM      4  N   UNL A   1      32.625  33.962  27.533  1.00  0.00    -0.352 N 
ATOM      5  O   UNL A   1      32.647  35.467  29.214  1.00  0.00    -0.269 OA
ATOM      6  C   UNL A   1      33.142  34.473  28.701  1.00  0.00     0.251 C 
ATOM      7  H   UNL A   1      31.982  34.541  27.061  1.00  0.00     0.163 HD
BRANCH   6   8
ATOM      8  C   UNL A   1      34.297  33.798  29.331  1.00  0.00     0.039 A 
ATOM      9  C   UNL A   1      34.093  32.733  30.212  1.00  0.00     0.014 A 
ATOM     10  C   UNL A   1      35.592  34.237  29.045  1.00  0.00     0.014 A 
ATOM     11  C   UNL A   1      35.169  32.199  30.909  1.00  0.00     0.010 A 
ATOM     12  C   UNL A   1      36.683  33.638  29.683  1.00  0.00     0.010 A 
ATOM     13  C   UNL A   1      36.477  32.632  30.642  1.00  0.00    -0.014 A 
BRANCH  13  14
ATOM     14  C   UNL A   1      37.611  31.976  31.345  1.00  0.00     0.031 A 
ATOM     15  C   UNL A   1      38.408  30.884  30.687  1.00  0.00     0.074 A 
ATOM     16  C   UNL A   1      37.940  32.411  32.577  1.00  0.00     0.049 A 
ATOM     17  N   UNL A   1      39.452  30.237  31.142  1.00  0.00    -0.248 NA
ATOM     18  C   UNL A   1      37.972  30.454  29.352  1.00  0.00     0.031 C 
ATOM     19  C   UNL A   1      37.229  33.461  33.313  1.00  0.00     0.029 A 
ATOM     20  N   UNL A   1      38.962  32.054  33.416  1.00  0.00    -0.354 N 
ATOM     21  C   UNL A   1      39.784  29.307  30.162  1.00  0.00     0.074 A 
ATOM     22  C   UNL A   1      38.809  29.457  29.102  1.00  0.00     0.031 C 
ATOM     23  C   UNL A   1      37.874  33.706  34.462  1.00  0.00     0.029 A 
ATOM     24  C   UNL A   1      38.998  32.786  34.580  1.00  0.00     0.049 A 
ATOM     25  H   UNL A   1      39.610  31.343  33.206  1.00  0.00     0.167 HD
ATOM     26  C   UNL A   1      40.810  28.419  30.150  1.00  0.00     0.034 A 
ATOM     27  C   UNL A   1      39.834  32.716  35.633  1.00  0.00     0.034 A 
ATOM     28  C   UNL A   1      41.777  28.294  31.217  1.00  0.00     0.049 A 
ATOM     29  C   UNL A   1      40.946  31.705  35.605  1.00  0.00     0.074 A 
ATOM     30  C   UNL A   1      42.880  27.459  31.289  1.00  0.00     0.029 A 
ATOM     31  N   UNL A   1      41.752  29.015  32.405  1.00  0.00    -0.354 N 
ATOM     32  N   UNL A   1      41.261  30.850  34.659  1.00  0.00    -0.248 NA
ATOM     33  C   UNL A   1      41.814  31.651  36.786  1.00  0.00     0.031 C 
ATOM     34  C   UNL A   1      43.479  27.625  32.544  1.00  0.00     0.029 A 
ATOM     35  C   UNL A   1      42.798  28.620  33.228  1.00  0.00     0.049 A 
ATOM     36  H   UNL A   1      41.088  29.705  32.631  1.00  0.00     0.167 HD
ATOM     37  C   UNL A   1      42.382  30.170  35.124  1.00  0.00     0.074 A 
ATOM     38  C   UNL A   1      42.697  30.731  36.423  1.00  0.00     0.031 C 
ATOM     39  C   UNL A   1      43.088  29.173  34.531  1.00  0.00     0.034 A 
BRANCH  26  40
ATOM     40  C   UNL A   1      40.905  27.479  28.969  1.00  0.00     0.023 A 
ATOM     41  C   UNL A   1      41.863  27.650  27.954  1.00  0.00     0.031 A 
ATOM     42  C   UNL A   1      40.001  26.409  28.842  1.00  0.00     0.131 A 
ATOM     43  C   UNL A   1      41.847  26.815  26.826  1.00  0.00     0.055 A 
ATOM     44  C   UNL A   1      40.041  25.533  27.755  1.00  0.00     0.041 A 
ATOM     45  F   UNL A   1      39.050  26.203  29.767  1.00  0.00    -0.206 F 
ATOM     46  C   UNL A   1      40.958  25.742  26.730  1.00  0.00     0.022 A 
BRANCH  43  47
ATOM     47  S   UNL A   1      42.905  27.244  25.415  1.00  0.00     0.124 S 
ATOM     48  O   UNL A   1      44.146  27.626  26.083  1.00  0.00    -0.237 OA
ATOM     49  O   UNL A   1      42.941  25.997  24.661  1.00  0.00    -0.237 OA
ATOM     50  O   UNL A   1      42.189  28.343  24.772  1.00  0.00    -0.744 OA
ENDBRANCH  43  47
ENDBRANCH  26  40
BRANCH  27  51
ATOM     51  C   UNL A   1      39.642  33.617  36.805  1.00  0.00     0.023 A 
ATOM     52  C   UNL A   1      39.018  33.156  37.974  1.00  0.00     0.031 A 
ATOM     53  C   UNL A   1      40.060  34.958  36.763  1.00  0.00     0.131 A 
ATOM     54  C   UNL A   1      38.799  34.039  39.042  1.00  0.00     0.055 A 
ATOM     55  C   UNL A   1      39.887  35.819  37.848  1.00  0.00     0.041 A 
ATOM     56  F   UNL A   1      40.666  35.448  35.669  1.00  0.00    -0.206 F 
ATOM     57  C   UNL A   1      39.242  35.362  38.993  1.00  0.00     0.022 A 
BRANCH  54  58
ATOM     58  S   UNL A   1      37.858  33.448  40.476  1.00  0.00     0.124 S 
ATOM     59  O   UNL A   1      37.775  34.652  41.295  1.00  0.00    -0.237 OA
ATOM     60  O   UNL A   1      36.612  33.004  39.858  1.00  0.00    -0.237 OA
ATOM     61  O   UNL A   1      38.697  32.381  41.016  1.00  0.00    -0.744 OA
ENDBRANCH  54  58
ENDBRANCH  27  51
BRANCH  39  62
ATOM     62  C   UNL A   1      44.294  28.663  35.281  1.00  0.00     0.023 A 
ATOM     63  C   UNL A   1      44.187  27.646  36.247  1.00  0.00     0.031 A 
ATOM     64  C   UNL A   1      45.559  29.232  35.056  1.00  0.00     0.131 A 
ATOM     65  C   UNL A   1      45.312  27.279  37.001  1.00  0.00     0.055 A 
ATOM     66  C   UNL A   1      46.688  28.817  35.764  1.00  0.00     0.041 A 
ATOM     67  F   UNL A   1      45.717  30.209  34.148  1.00  0.00    -0.206 F 
ATOM     68  C   UNL A   1      46.565  27.847  36.754  1.00  0.00     0.022 A 
BRANCH  65  69
ATOM     69  S   UNL A   1      45.093  26.127  38.385  1.00  0.00     0.124 S 
ATOM     70  O   UNL A   1      46.246  26.439  39.225  1.00  0.00    -0.237 OA
ATOM     71  O   UNL A   1      43.792  26.521  38.916  1.00  0.00    -0.237 OA
ATOM     72  O   UNL A   1      45.130  24.813  37.745  1.00  0.00    -0.744 OA
ENDBRANCH  65  69
ENDBRANCH  39  62
ENDBRANCH  13  14
ENDBRANCH   6   8
ENDBRANCH   3   4
ENDBRANCH   2   3
ENDBRANCH   1   2
BRANCH   1  73
ATOM     73  C   UNL A   1      32.278  29.657  25.550  1.00  0.00     0.002 C 
BRANCH  73  74
ATOM     74  C   UNL A   1      33.623  28.919  25.469  1.00  0.00     0.021 C 
BRANCH  74  75
ATOM     75  C   UNL A   1      33.488  27.403  25.615  1.00  0.00     0.116 C 
BRANCH  75  76
ATOM     76  N   UNL A   1      33.700  26.761  24.337  1.00  0.00    -0.351 N 
ATOM     77  C   UNL A   1      33.774  25.455  23.964  1.00  0.00     0.281 C 
ATOM     78  H   UNL A   1      33.813  27.394  23.590  1.00  0.00     0.163 HD
ATOM     79  O   UNL A   1      34.004  25.288  22.757  1.00  0.00    -0.268 OA
BRANCH  77  80
ATOM     80  C   UNL A   1      33.449  24.250  24.939  1.00  0.00     0.176 C 
ATOM     81  C   UNL A   1      32.218  24.369  25.872  1.00  0.00     0.079 C 
ATOM     82  C   UNL A   1      33.256  23.048  23.970  1.00  0.00     0.094 C 
ATOM     83  C   UNL A   1      31.847  23.060  26.574  1.00  0.00     0.008 C 
ATOM     84  C   UNL A   1      32.739  21.755  24.610  1.00  0.00     0.061 C 
ATOM     85  C   UNL A   1      31.552  21.969  25.552  1.00  0.00     0.015 C 
BRANCH  80  86
ATOM     86  N   UNL A   1      34.641  23.969  25.788  1.00  0.00    -0.331 N 
ATOM     87  H   UNL A   1      34.567  22.996  26.085  1.00  0.00     0.347 HD
ATOM     88  H   UNL A   1      34.587  24.690  26.507  1.00  0.00     0.347 HD
BRANCH  86  89
ATOM     89  C   UNL A   1      35.996  24.141  25.247  1.00  0.00     0.183 C 
ATOM     90  C   UNL A   1      37.265  23.572  25.822  1.00  0.00     0.071 C 
ATOM     91  C   UNL A   1      36.680  22.974  24.580  1.00  0.00     0.071 C 
ENDBRANCH  86  89
ENDBRANCH  80  86
BRANCH  84  92
ATOM     92  S   UNL A   1      32.348  20.457  23.366  1.00  0.00    -0.083 SA
BRANCH  92  93
ATOM     93  C   UNL A   1      32.662  18.987  24.211  1.00  0.00     0.183 A 
ATOM     94  N   UNL A   1      32.321  18.658  25.433  1.00  0.00    -0.210 NA
ATOM     95  N   UNL A   1      33.311  17.951  23.617  1.00  0.00    -0.254 N 
ATOM     96  C   UNL A   1      32.795  17.379  25.541  1.00  0.00     0.247 A 
ATOM     97  N   UNL A   1      33.419  16.911  24.458  1.00  0.00    -0.162 NA
ATOM     98  H   UNL A   1      33.654  17.961  22.694  1.00  0.00     0.192 HD
ENDBRANCH  92  93
ENDBRANCH  84  92
ENDBRANCH  77  80
ENDBRANCH  75  76
ENDBRANCH  74  75
ENDBRANCH  73  74
ENDBRANCH   1  73
TORSDOF 20
ENDMDL
MODEL 2
REMARK VINA RESULT:     -10.9      2.500      8.117
REMARK SMILES O=C(NCCCCCCNC(=O)[C@@]1([NH2+]C2CC2)CCC[C@@H](Sc2ncn[nH]2)C1)c1ccc(-c2c3nc(c(-c4cc(S(=O)(=O)[O-])ccc4F)c4ccc([nH]4)c(-c4cc(S(=O)(=O)[O-])ccc4F)c4nc(c(-c5cc(S(=O)(=O)[O-])ccc5F)c5ccc2[nH]5)C=C4)C=C3)cc1
REMARK SMILES IDX 6 1 5 2 4 3 3 4 1 5 2 6 29 8 30 9 91 10 31 11 90 12 32 13
REMARK SMILES IDX 33 14 34 15 84 16 35 17 89 18 83 19 85 20 36 21 88 22 82 23
REMARK SMILES IDX 81 24 37 26 69 27 49 28 68 29 50 30 53 31 67 32 86 33 51 34
REMARK SMILES IDX 52 35 66 37 87 38 54 39 38 40 39 41 47 42 40 43 46 44 48 45
REMARK SMILES IDX 45 46 41 47 42 48 43 49 44 50 70 51 71 52 79 53 72 54 78 55
REMARK SMILES IDX 80 56 77 57 73 58 74 59 75 60 76 61 55 62 56 63 64 64 57 65
REMARK SMILES IDX 63 66 65 67 62 68 58 69 59 70 60 71 61 72 7 73 8 74 9 75
REMARK SMILES IDX 10 76 11 77 12 79 13 80 18 81 28 82 19 83 21 84 20 85 14 86
REMARK SMILES IDX 15 89 16 90 17 91 22 92 23 93 24 94 27 95 25 96 26 97
REMARK H PARENT 3 7 85 25 53 36 10 78 14 87 14 88 27 98
REMARK Flexibility Score: inf
ROOT
ATOM      1  C   UNL A   1      31.333  28.655  25.193  1.00  0.00     0.002 C 
ENDROOT
BRANCH   1   2
ATOM      2  C   UNL A   1      32.614  28.195  25.890  1.00  0.00     0.021 C 
BRANCH   2   3
ATOM      3  C   UNL A   1      33.758  29.197  25.810  1.00  0.00     0.116 C 
BRANCH   3   4
ATOM      4  N   UNL A   1      33.331  30.533  26.195  1.00  0.00    -0.352 N 
ATOM      5  O   UNL A   1      33.184  32.328  27.556  1.00  0.00    -0.269 OA
ATOM      6  C   UNL A   1      33.792  31.320  27.226  1.00  0.00     0.251 C 
ATOM      7  H   UNL A   1      32.616  30.929  25.644  1.00  0.00     0.163 HD
BRANCH   6   8
ATOM      8  C   UNL A   1      35.029  30.922  27.934  1.00  0.00     0.039 A 
ATOM      9  C   UNL A   1      36.133  31.778  27.951  1.00  0.00     0.014 A 
ATOM     10  C   UNL A   1      35.086  29.684  28.579  1.00  0.00     0.014 A 
ATOM     11  C   UNL A   1      37.335  31.340  28.493  1.00  0.00     0.010 A 
ATOM     12  C   UNL A   1      36.272  29.283  29.201  1.00  0.00     0.010 A 
ATOM     13  C   UNL A   1      37.416  30.096  29.138  1.00  0.00    -0.014 A 
BRANCH  13  14
ATOM     14  C   UNL A   1      38.696  29.700  29.782  1.00  0.00     0.031 A 
ATOM     15  C   UNL A   1      39.070  30.205  31.147  1.00  0.00     0.074 A 
ATOM     16  C   UNL A   1      39.502  28.838  29.131  1.00  0.00     0.049 A 
ATOM     17  N   UNL A   1      40.126  29.925  31.870  1.00  0.00    -0.248 NA
ATOM     18  C   UNL A   1      38.147  31.157  31.781  1.00  0.00     0.031 C 
ATOM     19  C   UNL A   1      39.240  28.290  27.797  1.00  0.00     0.029 A 
ATOM     20  N   UNL A   1      40.682  28.251  29.503  1.00  0.00    -0.354 N 
ATOM     21  C   UNL A   1      40.009  30.682  33.031  1.00  0.00     0.074 A 
ATOM     22  C   UNL A   1      38.791  31.455  32.900  1.00  0.00     0.031 C 
ATOM     23  C   UNL A   1      40.194  27.400  27.492  1.00  0.00     0.029 A 
ATOM     24  C   UNL A   1      41.173  27.366  28.571  1.00  0.00     0.049 A 
ATOM     25  H   UNL A   1      41.134  28.442  30.356  1.00  0.00     0.167 HD
ATOM     26  C   UNL A   1      40.838  30.720  34.105  1.00  0.00     0.034 A 
ATOM     27  C   UNL A   1      42.293  26.620  28.577  1.00  0.00     0.034 A 
ATOM     28  C   UNL A   1      42.043  29.931  34.217  1.00  0.00     0.049 A 
ATOM     29  C   UNL A   1      43.207  26.701  29.768  1.00  0.00     0.074 A 
ATOM     30  C   UNL A   1      42.932  29.859  35.277  1.00  0.00     0.029 A 
ATOM     31  N   UNL A   1      42.538  29.084  33.231  1.00  0.00    -0.354 N 
ATOM     32  N   UNL A   1      43.068  27.403  30.870  1.00  0.00    -0.248 NA
ATOM     33  C   UNL A   1      44.427  25.889  29.716  1.00  0.00     0.031 C 
ATOM     34  C   UNL A   1      43.996  29.026  34.906  1.00  0.00     0.029 A 
ATOM     35  C   UNL A   1      43.735  28.515  33.645  1.00  0.00     0.049 A 
ATOM     36  H   UNL A   1      42.104  28.914  32.365  1.00  0.00     0.167 HD
ATOM     37  C   UNL A   1      44.177  27.098  31.652  1.00  0.00     0.074 A 
ATOM     38  C   UNL A   1      44.958  26.133  30.904  1.00  0.00     0.031 C 
ATOM     39  C   UNL A   1      44.516  27.570  32.879  1.00  0.00     0.034 A 
BRANCH  26  40
ATOM     40  C   UNL A   1      40.493  31.683  35.218  1.00  0.00     0.023 A 
ATOM     41  C   UNL A   1      39.512  31.391  36.182  1.00  0.00     0.031 A 
ATOM     42  C   UNL A   1      41.139  32.931  35.299  1.00  0.00     0.131 A 
ATOM     43  C   UNL A   1      39.153  32.358  37.134  1.00  0.00     0.055 A 
ATOM     44  C   UNL A   1      40.833  33.857  36.298  1.00  0.00     0.041 A 
ATOM     45  F   UNL A   1      42.071  33.278  34.398  1.00  0.00    -0.206 F 
ATOM     46  C   UNL A   1      39.823  33.580  37.215  1.00  0.00     0.022 A 
BRANCH  43  47
ATOM     47  S   UNL A   1      37.695  32.054  38.170  1.00  0.00     0.124 S 
ATOM     48  O   UNL A   1      36.767  33.070  37.680  1.00  0.00    -0.237 OA
ATOM     49  O   UNL A   1      37.362  30.672  37.845  1.00  0.00    -0.237 OA
ATOM     50  O   UNL A   1      38.187  32.275  39.529  1.00  0.00    -0.744 OA
ENDBRANCH  43  47
ENDBRANCH  26  40
BRANCH  27  51
ATOM     51  C   UNL A   1      42.619  25.747  27.414  1.00  0.00     0.023 A 
ATOM     52  C   UNL A   1      42.173  24.418  27.361  1.00  0.00     0.031 A 
ATOM     53  C   UNL A   1      43.401  26.226  26.347  1.00  0.00     0.131 A 
ATOM     54  C   UNL A   1      42.541  23.601  26.281  1.00  0.00     0.055 A 
ATOM     55  C   UNL A   1      43.720  25.425  25.250  1.00  0.00     0.041 A 
ATOM     56  F   UNL A   1      43.848  27.492  26.347  1.00  0.00    -0.206 F 
ATOM     57  C   UNL A   1      43.298  24.099  25.219  1.00  0.00     0.022 A 
BRANCH  54  58
ATOM     58  S   UNL A   1      42.073  21.850  26.321  1.00  0.00     0.124 S 
ATOM     59  O   UNL A   1      42.901  21.295  25.256  1.00  0.00    -0.237 OA
ATOM     60  O   UNL A   1      42.436  21.469  27.682  1.00  0.00    -0.237 OA
ATOM     61  O   UNL A   1      40.637  21.876  26.047  1.00  0.00    -0.744 OA
ENDBRANCH  54  58
ENDBRANCH  27  51
BRANCH  39  62
ATOM     62  C   UNL A   1      45.775  27.009  33.493  1.00  0.00     0.023 A 
ATOM     63  C   UNL A   1      45.754  25.853  34.294  1.00  0.00     0.031 A 
ATOM     64  C   UNL A   1      47.004  27.663  33.307  1.00  0.00     0.131 A 
ATOM     65  C   UNL A   1      46.927  25.428  34.937  1.00  0.00     0.055 A 
ATOM     66  C   UNL A   1      48.181  27.198  33.897  1.00  0.00     0.041 A 
ATOM     67  F   UNL A   1      47.081  28.773  32.555  1.00  0.00    -0.206 F 
ATOM     68  C   UNL A   1      48.143  26.084  34.730  1.00  0.00     0.022 A 
BRANCH  65  69
ATOM     69  S   UNL A   1      46.819  24.070  36.135  1.00  0.00     0.124 S 
ATOM     70  O   UNL A   1      47.969  23.250  35.769  1.00  0.00    -0.237 OA
ATOM     71  O   UNL A   1      46.915  24.771  37.412  1.00  0.00    -0.237 OA
ATOM     72  O   UNL A   1      45.515  23.470  35.855  1.00  0.00    -0.744 OA
ENDBRANCH  65  69
ENDBRANCH  39  62
ENDBRANCH  13  14
ENDBRANCH   6   8
ENDBRANCH   3   4
ENDBRANCH   2   3
ENDBRANCH   1   2
BRANCH   1  73
ATOM     73  C   UNL A   1      30.833  27.723  24.083  1.00  0.00     0.002 C 
BRANCH  73  74
ATOM     74  C   UNL A   1      29.793  26.686  24.531  1.00  0.00     0.021 C 
BRANCH  74  75
ATOM     75  C   UNL A   1      30.354  25.267  24.619  1.00  0.00     0.116 C 
BRANCH  75  76
ATOM     76  N   UNL A   1      29.876  24.618  25.819  1.00  0.00    -0.351 N 
ATOM     77  C   UNL A   1      30.409  23.657  26.621  1.00  0.00     0.281 C 
ATOM     78  H   UNL A   1      28.990  24.934  26.113  1.00  0.00     0.163 HD
ATOM     79  O   UNL A   1      29.675  23.321  27.561  1.00  0.00    -0.268 OA
BRANCH  77  80
ATOM     80  C   UNL A   1      31.890  23.115  26.467  1.00  0.00     0.176 C 
ATOM     81  C   UNL A   1      32.539  22.393  27.674  1.00  0.00     0.079 C 
ATOM     82  C   UNL A   1      31.787  22.133  25.264  1.00  0.00     0.094 C 
ATOM     83  C   UNL A   1      33.855  21.687  27.336  1.00  0.00     0.008 C 
ATOM     84  C   UNL A   1      33.038  21.293  24.983  1.00  0.00     0.061 C 
ATOM     85  C   UNL A   1      33.641  20.655  26.236  1.00  0.00     0.015 C 
BRANCH  80  86
ATOM     86  N   UNL A   1      32.786  24.238  26.069  1.00  0.00    -0.331 N 
ATOM     87  H   UNL A   1      33.505  24.307  26.789  1.00  0.00     0.347 HD
ATOM     88  H   UNL A   1      32.142  25.021  25.966  1.00  0.00     0.347 HD
BRANCH  86  89
ATOM     89  C   UNL A   1      33.484  24.209  24.777  1.00  0.00     0.183 C 
ATOM     90  C   UNL A   1      34.023  25.397  24.028  1.00  0.00     0.071 C 
ATOM     91  C   UNL A   1      34.968  24.474  24.733  1.00  0.00     0.071 C 
ENDBRANCH  86  89
ENDBRANCH  80  86
BRANCH  84  92
ATOM     92  S   UNL A   1      32.761  20.023  23.682  1.00  0.00    -0.083 SA
BRANCH  92  93
ATOM     93  C   UNL A   1      32.964  18.535  24.528  1.00  0.00     0.183 A 
ATOM     94  N   UNL A   1      32.173  17.984  25.416  1.00  0.00    -0.210 NA
ATOM     95  N   UNL A   1      34.033  17.727  24.297  1.00  0.00    -0.254 N 
ATOM     96  C   UNL A   1      32.816  16.811  25.703  1.00  0.00     0.247 A 
ATOM     97  N   UNL A   1      33.965  16.619  25.052  1.00  0.00    -0.162 NA
ATOM     98  H   UNL A   1      34.758  17.926  23.661  1.00  0.00     0.192 HD
ENDBRANCH  92  93
ENDBRANCH  84  92
ENDBRANCH  77  80
ENDBRANCH  75  76
ENDBRANCH  74  75
ENDBRANCH  73  74
ENDBRANCH   1  73
TORSDOF 20
ENDMDL
MODEL 3
REMARK VINA RESULT:     -10.8      1.605      2.181
REMARK SMILES O=C(NCCCCCCNC(=O)[C@@]1([NH2+]C2CC2)CCC[C@@H](Sc2ncn[nH]2)C1)c1ccc(-c2c3nc(c(-c4cc(S(=O)(=O)[O-])ccc4F)c4ccc([nH]4)c(-c4cc(S(=O)(=O)[O-])ccc4F)c4nc(c(-c5cc(S(=O)(=O)[O-])ccc5F)c5ccc2[nH]5)C=C4)C=C3)cc1
REMARK SMILES IDX 6 1 5 2 4 3 3 4 1 5 2 6 29 8 30 9 91 10 31 11 90 12 32 13
REMARK SMILES IDX 33 14 34 15 84 16 35 17 89 18 83 19 85 20 36 21 88 22 82 23
REMARK SMILES IDX 81 24 37 26 69 27 49 28 68 29 50 30 53 31 67 32 86 33 51 34
REMARK SMILES IDX 52 35 66 37 87 38 54 39 38 40 39 41 47 42 40 43 46 44 48 45
REMARK SMILES IDX 45 46 41 47 42 48 43 49 44 50 70 51 71 52 79 53 72 54 78 55
REMARK SMILES IDX 80 56 77 57 73 58 74 59 75 60 76 61 55 62 56 63 64 64 57 65
REMARK SMILES IDX 63 66 65 67 62 68 58 69 59 70 60 71 61 72 7 73 8 74 9 75
REMARK SMILES IDX 10 76 11 77 12 79 13 80 18 81 28 82 19 83 21 84 20 85 14 86
REMARK SMILES IDX 15 89 16 90 17 91 22 92 23 93 24 94 27 95 25 96 26 97
REMARK H PARENT 3 7 85 25 53 36 10 78 14 87 14 88 27 98
REMARK Flexibility Score: inf
ROOT
ATOM      1  C   UNL A   1      31.530  30.720  26.695  1.00  0.00     0.002 C 
ENDROOT
BRANCH   1   2
ATOM      2  C   UNL A   1      31.555  32.242  26.834  1.00  0.00     0.021 C 
BRANCH   2   3
ATOM      3  C   UNL A   1      32.913  32.807  27.230  1.00  0.00     0.116 C 
BRANCH   3   4
ATOM      4  N   UNL A   1      32.801  34.164  27.742  1.00  0.00    -0.352 N 
ATOM      5  O   UNL A   1      33.077  35.815  29.256  1.00  0.00    -0.269 OA
ATOM      6  C   UNL A   1      33.439  34.731  28.821  1.00  0.00     0.251 C 
ATOM      7  H   UNL A   1      32.188  34.758  27.249  1.00  0.00     0.163 HD
BRANCH   6   8
ATOM      8  C   UNL A   1      34.562  34.005  29.454  1.00  0.00     0.039 A 
ATOM      9  C   UNL A   1      34.308  32.975  30.363  1.00  0.00     0.014 A 
ATOM     10  C   UNL A   1      35.877  34.360  29.141  1.00  0.00     0.014 A 
ATOM     11  C   UNL A   1      35.361  32.396  31.060  1.00  0.00     0.010 A 
ATOM     12  C   UNL A   1      36.939  33.714  29.781  1.00  0.00     0.010 A 
ATOM     13  C   UNL A   1      36.689  32.745  30.767  1.00  0.00    -0.014 A 
BRANCH  13  14
ATOM     14  C   UNL A   1      37.792  32.041  31.472  1.00  0.00     0.031 A 
ATOM     15  C   UNL A   1      38.590  30.965  30.790  1.00  0.00     0.074 A 
ATOM     16  C   UNL A   1      38.093  32.418  32.730  1.00  0.00     0.049 A 
ATOM     17  N   UNL A   1      39.610  30.282  31.245  1.00  0.00    -0.248 NA
ATOM     18  C   UNL A   1      38.185  30.599  29.426  1.00  0.00     0.031 C 
ATOM     19  C   UNL A   1      37.378  33.447  33.491  1.00  0.00     0.029 A 
ATOM     20  N   UNL A   1      39.085  32.009  33.581  1.00  0.00    -0.354 N 
ATOM     21  C   UNL A   1      39.956  29.389  30.236  1.00  0.00     0.074 A 
ATOM     22  C   UNL A   1      39.014  29.600  29.157  1.00  0.00     0.031 C 
ATOM     23  C   UNL A   1      37.994  33.633  34.666  1.00  0.00     0.029 A 
ATOM     24  C   UNL A   1      39.100  32.690  34.776  1.00  0.00     0.049 A 
ATOM     25  H   UNL A   1      39.728  31.297  33.358  1.00  0.00     0.167 HD
ATOM     26  C   UNL A   1      40.968  28.485  30.214  1.00  0.00     0.034 A 
ATOM     27  C   UNL A   1      39.905  32.563  35.847  1.00  0.00     0.034 A 
ATOM     28  C   UNL A   1      41.902  28.299  31.300  1.00  0.00     0.049 A 
ATOM     29  C   UNL A   1      41.001  31.535  35.806  1.00  0.00     0.074 A 
ATOM     30  C   UNL A   1      42.990  27.443  31.367  1.00  0.00     0.029 A 
ATOM     31  N   UNL A   1      41.855  28.970  32.518  1.00  0.00    -0.354 N 
ATOM     32  N   UNL A   1      41.330  30.715  34.833  1.00  0.00    -0.248 NA
ATOM     33  C   UNL A   1      41.835  31.416  37.007  1.00  0.00     0.031 C 
ATOM     34  C   UNL A   1      43.556  27.547  32.644  1.00  0.00     0.029 A 
ATOM     35  C   UNL A   1      42.872  28.523  33.351  1.00  0.00     0.049 A 
ATOM     36  H   UNL A   1      41.196  29.661  32.755  1.00  0.00     0.167 HD
ATOM     37  C   UNL A   1      42.426  29.998  35.300  1.00  0.00     0.074 A 
ATOM     38  C   UNL A   1      42.713  30.499  36.630  1.00  0.00     0.031 C 
ATOM     39  C   UNL A   1      43.133  29.016  34.684  1.00  0.00     0.034 A 
BRANCH  26  40
ATOM     40  C   UNL A   1      41.081  27.595  28.997  1.00  0.00     0.023 A 
ATOM     41  C   UNL A   1      42.069  27.794  28.016  1.00  0.00     0.031 A 
ATOM     42  C   UNL A   1      40.167  26.544  28.801  1.00  0.00     0.131 A 
ATOM     43  C   UNL A   1      42.071  27.007  26.853  1.00  0.00     0.055 A 
ATOM     44  C   UNL A   1      40.223  25.714  27.679  1.00  0.00     0.041 A 
ATOM     45  F   UNL A   1      39.189  26.314  29.692  1.00  0.00    -0.206 F 
ATOM     46  C   UNL A   1      41.170  25.953  26.688  1.00  0.00     0.022 A 
BRANCH  43  47
ATOM     47  S   UNL A   1      43.172  27.480  25.490  1.00  0.00     0.124 S 
ATOM     48  O   UNL A   1      44.143  28.328  26.176  1.00  0.00    -0.237 OA
ATOM     49  O   UNL A   1      43.665  26.189  25.024  1.00  0.00    -0.237 OA
ATOM     50  O   UNL A   1      42.287  28.183  24.563  1.00  0.00    -0.744 OA
ENDBRANCH  43  47
ENDBRANCH  26  40
BRANCH  27  51
ATOM     51  C   UNL A   1      39.694  33.416  37.050  1.00  0.00     0.023 A 
ATOM     52  C   UNL A   1      40.473  34.562  37.268  1.00  0.00     0.031 A 
ATOM     53  C   UNL A   1      38.722  33.084  38.011  1.00  0.00     0.131 A 
ATOM     54  C   UNL A   1      40.292  35.317  38.437  1.00  0.00     0.055 A 
ATOM     55  C   UNL A   1      38.509  33.868  39.146  1.00  0.00     0.041 A 
ATOM     56  F   UNL A   1      37.946  32.000  37.847  1.00  0.00    -0.206 F 
ATOM     57  C   UNL A   1      39.306  34.986  39.369  1.00  0.00     0.022 A 
BRANCH  54  58
ATOM     58  S   UNL A   1      41.416  36.702  38.757  1.00  0.00     0.124 S 
ATOM     59  O   UNL A   1      40.490  37.751  39.168  1.00  0.00    -0.237 OA
ATOM     60  O   UNL A   1      42.277  36.159  39.803  1.00  0.00    -0.237 OA
ATOM     61  O   UNL A   1      42.068  36.915  37.467  1.00  0.00    -0.744 OA
ENDBRANCH  54  58
ENDBRANCH  27  51
BRANCH  39  62
ATOM     62  C   UNL A   1      44.309  28.454  35.444  1.00  0.00     0.023 A 
ATOM     63  C   UNL A   1      44.153  27.432  36.399  1.00  0.00     0.031 A 
ATOM     64  C   UNL A   1      45.598  28.979  35.241  1.00  0.00     0.131 A 
ATOM     65  C   UNL A   1      45.254  27.017  37.163  1.00  0.00     0.055 A 
ATOM     66  C   UNL A   1      46.701  28.515  35.959  1.00  0.00     0.041 A 
ATOM     67  F   UNL A   1      45.804  29.957  34.346  1.00  0.00    -0.206 F 
ATOM     68  C   UNL A   1      46.529  27.541  36.938  1.00  0.00     0.022 A 
BRANCH  65  69
ATOM     69  S   UNL A   1      44.974  25.860  38.533  1.00  0.00     0.124 S 
ATOM     70  O   UNL A   1      44.233  24.788  37.878  1.00  0.00    -0.237 OA
ATOM     71  O   UNL A   1      46.335  25.535  38.949  1.00  0.00    -0.237 OA
ATOM     72  O   UNL A   1      44.204  26.649  39.494  1.00  0.00    -0.744 OA
ENDBRANCH  65  69
ENDBRANCH  39  62
ENDBRANCH  13  14
ENDBRANCH   6   8
ENDBRANCH   3   4
ENDBRANCH   2   3
ENDBRANCH   1   2
BRANCH   1  73
ATOM     73  C   UNL A   1      32.669  30.130  25.855  1.00  0.00     0.002 C 
BRANCH  73  74
ATOM     74  C   UNL A   1      33.662  29.257  26.634  1.00  0.00     0.021 C 
BRANCH  74  75
ATOM     75  C   UNL A   1      33.769  27.832  26.090  1.00  0.00     0.116 C 
BRANCH  75  76
ATOM     76  N   UNL A   1      32.630  27.051  26.517  1.00  0.00    -0.351 N 
ATOM     77  C   UNL A   1      32.194  25.805  26.191  1.00  0.00     0.281 C 
ATOM     78  H   UNL A   1      32.058  27.513  27.173  1.00  0.00     0.163 HD
ATOM     79  O   UNL A   1      31.136  25.480  26.748  1.00  0.00    -0.268 OA
BRANCH  77  80
ATOM     80  C   UNL A   1      33.029  24.794  25.301  1.00  0.00     0.176 C 
ATOM     81  C   UNL A   1      34.540  25.068  25.098  1.00  0.00     0.079 C 
ATOM     82  C   UNL A   1      32.837  23.433  26.030  1.00  0.00     0.094 C 
ATOM     83  C   UNL A   1      35.295  23.904  24.448  1.00  0.00     0.008 C 
ATOM     84  C   UNL A   1      33.691  22.273  25.507  1.00  0.00     0.061 C 
ATOM     85  C   UNL A   1      35.160  22.642  25.291  1.00  0.00     0.015 C 
BRANCH  80  86
ATOM     86  N   UNL A   1      32.398  24.688  23.955  1.00  0.00    -0.331 N 
ATOM     87  H   UNL A   1      31.575  24.096  24.063  1.00  0.00     0.347 HD
ATOM     88  H   UNL A   1      33.159  24.341  23.371  1.00  0.00     0.347 HD
BRANCH  86  89
ATOM     89  C   UNL A   1      31.958  25.895  23.243  1.00  0.00     0.183 C 
ATOM     90  C   UNL A   1      32.838  26.868  22.507  1.00  0.00     0.071 C 
ATOM     91  C   UNL A   1      31.979  25.914  21.735  1.00  0.00     0.071 C 
ENDBRANCH  86  89
ENDBRANCH  80  86
BRANCH  84  92
ATOM     92  S   UNL A   1      33.552  20.765  26.551  1.00  0.00    -0.083 SA
BRANCH  92  93
ATOM     93  C   UNL A   1      33.023  19.558  25.440  1.00  0.00     0.183 A 
ATOM     94  N   UNL A   1      32.625  18.333  25.692  1.00  0.00    -0.210 NA
ATOM     95  N   UNL A   1      32.933  19.808  24.107  1.00  0.00    -0.254 N 
ATOM     96  C   UNL A   1      32.293  17.867  24.449  1.00  0.00     0.247 A 
ATOM     97  N   UNL A   1      32.479  18.730  23.449  1.00  0.00    -0.162 NA
ATOM     98  H   UNL A   1      33.168  20.665  23.682  1.00  0.00     0.192 HD
ENDBRANCH  92  93
ENDBRANCH  84  92
ENDBRANCH  77  80
ENDBRANCH  75  76
ENDBRANCH  74  75
ENDBRANCH  73  74
ENDBRANCH   1  73
TORSDOF 20
ENDMDL
