MODEL 1
REMARK VINA RESULT:     -12.7      0.000      0.000
REMARK SMILES C[C@H]1[C@H](C(=O)NCCCCCCNC(=O)c2ccc(-c3c4nc(c(-c5cc(S(=O)(=O)[O-])ccc5F)c5ccc([nH]5)c(-c5cc(S(=O)(=O)[O-])ccc5F)c5nc(c(-c6cc(S(=O)(=O)[O-])ccc6F)c6ccc3[nH]6)C=C5)C=C4)cc2)CCN1C(=O)c1ccc2ccccc2c1
REMARK SMILES IDX 10 1 9 2 8 3 7 4 6 5 4 6 5 7 3 9 1 10 2 11 81 12 79 13 80 14
REMARK SMILES IDX 82 15 83 16 84 17 85 18 93 19 86 20 92 21 87 22 91 23 88 24
REMARK SMILES IDX 90 25 89 26 11 27 12 28 13 29 14 30 15 32 16 33 17 34 78 35
REMARK SMILES IDX 18 36 77 37 19 38 20 39 21 40 71 41 22 42 76 43 70 44 72 45
REMARK SMILES IDX 23 46 75 47 69 48 68 49 24 51 56 52 36 53 55 54 37 55 40 56
REMARK SMILES IDX 54 57 73 58 38 59 39 60 53 62 74 63 41 64 25 65 26 66 34 67
REMARK SMILES IDX 27 68 33 69 35 70 32 71 28 72 29 73 30 74 31 75 57 76 58 77
REMARK SMILES IDX 66 78 59 79 65 80 67 81 64 82 60 83 61 84 62 85 63 86 42 87
REMARK SMILES IDX 43 88 51 89 44 90 50 91 52 92 49 93 45 94 46 95 47 96 48 97
REMARK H PARENT 6 8 13 31 72 50 40 61
REMARK Flexibility Score: inf
ROOT
ATOM      1  C   UNL A   1      31.768  30.232  26.806  1.00  0.00     0.002 C 
ENDROOT
BRANCH   1   2
ATOM      2  C   UNL A   1      31.897  29.674  25.384  1.00  0.00     0.002 C 
BRANCH   2   3
ATOM      3  C   UNL A   1      33.320  29.283  24.979  1.00  0.00     0.021 C 
BRANCH   3   4
ATOM      4  C   UNL A   1      33.493  29.067  23.480  1.00  0.00     0.116 C 
BRANCH   4   5
ATOM      5  N   UNL A   1      32.280  28.537  22.886  1.00  0.00    -0.356 N 
ATOM      6  C   UNL A   1      31.990  27.295  22.419  1.00  0.00     0.225 C 
ATOM      7  O   UNL A   1      30.889  27.124  21.888  1.00  0.00    -0.275 OA
ATOM      8  H   UNL A   1      31.543  29.186  22.807  1.00  0.00     0.163 HD
BRANCH   6   9
ATOM      9  C   UNL A   1      32.959  26.131  22.551  1.00  0.00     0.102 C 
ATOM     10  C   UNL A   1      34.165  25.572  24.687  1.00  0.00     0.032 C 
ATOM     11  C   UNL A   1      32.861  25.401  23.905  1.00  0.00     0.094 C 
ATOM     12  N   UNL A   1      32.589  24.004  23.555  1.00  0.00    -0.335 N 
ATOM     13  C   UNL A   1      32.784  25.079  21.452  1.00  0.00     0.037 C 
ATOM     14  C   UNL A   1      32.862  23.740  22.156  1.00  0.00     0.121 C 
BRANCH  12  15
ATOM     15  C   UNL A   1      32.063  22.998  24.348  1.00  0.00     0.254 C 
ATOM     16  O   UNL A   1      30.989  23.090  24.933  1.00  0.00    -0.269 OA
BRANCH  15  17
ATOM     17  C   UNL A   1      32.772  21.710  24.424  1.00  0.00     0.040 A 
ATOM     18  C   UNL A   1      34.060  21.727  24.961  1.00  0.00     0.014 A 
ATOM     19  C   UNL A   1      32.238  20.539  23.882  1.00  0.00     0.022 A 
ATOM     20  C   UNL A   1      34.793  20.546  25.035  1.00  0.00     0.009 A 
ATOM     21  C   UNL A   1      32.991  19.349  23.910  1.00  0.00    -0.018 A 
ATOM     22  C   UNL A   1      34.270  19.351  24.521  1.00  0.00    -0.018 A 
ATOM     23  C   UNL A   1      32.525  18.161  23.321  1.00  0.00     0.009 A 
ATOM     24  C   UNL A   1      35.019  18.166  24.571  1.00  0.00     0.009 A 
ATOM     25  C   UNL A   1      33.304  17.000  23.340  1.00  0.00     0.001 A 
ATOM     26  C   UNL A   1      34.542  16.999  23.977  1.00  0.00     0.001 A 
ENDBRANCH  15  17
ENDBRANCH  12  15
ENDBRANCH   6   9
ENDBRANCH   4   5
ENDBRANCH   3   4
ENDBRANCH   2   3
ENDBRANCH   1   2
BRANCH   1  27
ATOM     27  C   UNL A   1      31.645  31.756  26.893  1.00  0.00     0.021 C 
BRANCH  27  28
ATOM     28  C   UNL A   1      32.942  32.474  27.251  1.00  0.00     0.116 C 
BRANCH  28  29
ATOM     29  N   UNL A   1      32.707  33.864  27.605  1.00  0.00    -0.352 N 
ATOM     30  C   UNL A   1      33.233  34.600  28.639  1.00  0.00     0.251 C 
ATOM     31  H   UNL A   1      32.081  34.348  27.020  1.00  0.00     0.163 HD
ATOM     32  O   UNL A   1      32.738  35.683  28.927  1.00  0.00    -0.269 OA
BRANCH  30  33
ATOM     33  C   UNL A   1      34.381  34.069  29.405  1.00  0.00     0.039 A 
ATOM     34  C   UNL A   1      34.139  33.178  30.453  1.00  0.00     0.014 A 
ATOM     35  C   UNL A   1      35.689  34.452  29.094  1.00  0.00     0.014 A 
ATOM     36  C   UNL A   1      35.216  32.627  31.151  1.00  0.00     0.010 A 
ATOM     37  C   UNL A   1      36.762  33.841  29.739  1.00  0.00     0.010 A 
ATOM     38  C   UNL A   1      36.536  32.925  30.776  1.00  0.00    -0.014 A 
BRANCH  38  39
ATOM     39  C   UNL A   1      37.692  32.288  31.463  1.00  0.00     0.031 A 
ATOM     40  C   UNL A   1      38.439  31.163  30.802  1.00  0.00     0.074 A 
ATOM     41  C   UNL A   1      38.034  32.694  32.702  1.00  0.00     0.049 A 
ATOM     42  N   UNL A   1      39.434  30.447  31.262  1.00  0.00    -0.248 NA
ATOM     43  C   UNL A   1      37.992  30.774  29.456  1.00  0.00     0.031 C 
ATOM     44  C   UNL A   1      37.362  33.753  33.459  1.00  0.00     0.029 A 
ATOM     45  N   UNL A   1      39.028  32.265  33.546  1.00  0.00    -0.354 N 
ATOM     46  C   UNL A   1      39.726  29.520  30.267  1.00  0.00     0.074 A 
ATOM     47  C   UNL A   1      38.758  29.723  29.210  1.00  0.00     0.031 C 
ATOM     48  C   UNL A   1      37.982  33.912  34.639  1.00  0.00     0.029 A 
ATOM     49  C   UNL A   1      39.058  32.933  34.749  1.00  0.00     0.049 A 
ATOM     50  H   UNL A   1      39.660  31.548  33.313  1.00  0.00     0.167 HD
ATOM     51  C   UNL A   1      40.724  28.601  30.229  1.00  0.00     0.034 A 
ATOM     52  C   UNL A   1      39.852  32.765  35.826  1.00  0.00     0.034 A 
ATOM     53  C   UNL A   1      41.680  28.415  31.294  1.00  0.00     0.049 A 
ATOM     54  C   UNL A   1      40.922  31.702  35.781  1.00  0.00     0.074 A 
ATOM     55  C   UNL A   1      42.758  27.549  31.340  1.00  0.00     0.029 A 
ATOM     56  N   UNL A   1      41.666  29.092  32.507  1.00  0.00    -0.354 N 
ATOM     57  N   UNL A   1      41.219  30.869  34.810  1.00  0.00    -0.248 NA
ATOM     58  C   UNL A   1      41.768  31.565  36.973  1.00  0.00     0.031 C 
ATOM     59  C   UNL A   1      43.344  27.644  32.606  1.00  0.00     0.029 A 
ATOM     60  C   UNL A   1      42.692  28.635  33.321  1.00  0.00     0.049 A 
ATOM     61  H   UNL A   1      41.022  29.796  32.752  1.00  0.00     0.167 HD
ATOM     62  C   UNL A   1      42.308  30.130  35.266  1.00  0.00     0.074 A 
ATOM     63  C   UNL A   1      42.623  30.630  36.588  1.00  0.00     0.031 C 
ATOM     64  C   UNL A   1      42.988  29.131  34.645  1.00  0.00     0.034 A 
BRANCH  51  65
ATOM     65  C   UNL A   1      40.807  27.714  29.008  1.00  0.00     0.023 A 
ATOM     66  C   UNL A   1      41.741  27.950  27.984  1.00  0.00     0.031 A 
ATOM     67  C   UNL A   1      39.923  26.632  28.850  1.00  0.00     0.131 A 
ATOM     68  C   UNL A   1      41.717  27.172  26.818  1.00  0.00     0.055 A 
ATOM     69  C   UNL A   1      39.963  25.803  27.727  1.00  0.00     0.041 A 
ATOM     70  F   UNL A   1      38.992  26.367  29.782  1.00  0.00    -0.206 F 
ATOM     71  C   UNL A   1      40.853  26.082  26.694  1.00  0.00     0.022 A 
BRANCH  68  72
ATOM     72  S   UNL A   1      42.718  27.703  25.401  1.00  0.00     0.124 S 
ATOM     73  O   UNL A   1      43.940  28.162  26.060  1.00  0.00    -0.237 OA
ATOM     74  O   UNL A   1      42.836  26.476  24.621  1.00  0.00    -0.237 OA
ATOM     75  O   UNL A   1      41.916  28.759  24.789  1.00  0.00    -0.744 OA
ENDBRANCH  68  72
ENDBRANCH  51  65
BRANCH  52  76
ATOM     76  C   UNL A   1      39.664  33.607  37.044  1.00  0.00     0.023 A 
ATOM     77  C   UNL A   1      39.083  33.075  38.207  1.00  0.00     0.031 A 
ATOM     78  C   UNL A   1      40.020  34.967  37.048  1.00  0.00     0.131 A 
ATOM     79  C   UNL A   1      38.829  33.911  39.306  1.00  0.00     0.055 A 
ATOM     80  C   UNL A   1      39.821  35.779  38.166  1.00  0.00     0.041 A 
ATOM     81  F   UNL A   1      40.579  35.527  35.964  1.00  0.00    -0.206 F 
ATOM     82  C   UNL A   1      39.209  35.255  39.300  1.00  0.00     0.022 A 
BRANCH  79  83
ATOM     83  S   UNL A   1      37.905  33.236  40.714  1.00  0.00     0.124 S 
ATOM     84  O   UNL A   1      38.578  31.959  40.924  1.00  0.00    -0.237 OA
ATOM     85  O   UNL A   1      38.124  34.253  41.736  1.00  0.00    -0.237 OA
ATOM     86  O   UNL A   1      36.536  33.146  40.210  1.00  0.00    -0.744 OA
ENDBRANCH  79  83
ENDBRANCH  52  76
BRANCH  64  87
ATOM     87  C   UNL A   1      44.172  28.545  35.380  1.00  0.00     0.023 A 
ATOM     88  C   UNL A   1      44.026  27.504  36.314  1.00  0.00     0.031 A 
ATOM     89  C   UNL A   1      45.466  29.045  35.147  1.00  0.00     0.131 A 
ATOM     90  C   UNL A   1      45.143  27.039  37.023  1.00  0.00     0.055 A 
ATOM     91  C   UNL A   1      46.584  28.530  35.804  1.00  0.00     0.041 A 
ATOM     92  F   UNL A   1      45.666  30.042  34.271  1.00  0.00    -0.206 F 
ATOM     93  C   UNL A   1      46.424  27.530  36.759  1.00  0.00     0.022 A 
BRANCH  90  94
ATOM     94  S   UNL A   1      44.887  25.852  38.371  1.00  0.00     0.124 S 
ATOM     95  O   UNL A   1      44.279  24.724  37.670  1.00  0.00    -0.237 OA
ATOM     96  O   UNL A   1      46.244  25.639  38.863  1.00  0.00    -0.237 OA
ATOM     97  O   UNL A   1      43.999  26.562  39.289  1.00  0.00    -0.744 OA
ENDBRANCH  90  94
ENDBRANCH  64  87
ENDBRANCH  38  39
ENDBRANCH  30  33
ENDBRANCH  28  29
ENDBRANCH  27  28
ENDBRANCH   1  27
TORSDOF 18
ENDMDL
MODEL 2
REMARK VINA RESULT:     -12.7      1.128      2.073
REMARK SMILES C[C@H]1[C@H](C(=O)NCCCCCCNC(=O)c2ccc(-c3c4nc(c(-c5cc(S(=O)(=O)[O-])ccc5F)c5ccc([nH]5)c(-c5cc(S(=O)(=O)[O-])ccc5F)c5nc(c(-c6cc(S(=O)(=O)[O-])ccc6F)c6ccc3[nH]6)C=C5)C=C4)cc2)CCN1C(=O)c1ccc2ccccc2c1
REMARK SMILES IDX 10 1 9 2 8 3 7 4 6 5 4 6 5 7 3 9 1 10 2 11 81 12 79 13 80 14
REMARK SMILES IDX 82 15 83 16 84 17 85 18 93 19 86 20 92 21 87 22 91 23 88 24
REMARK SMILES IDX 90 25 89 26 11 27 12 28 13 29 14 30 15 32 16 33 17 34 78 35
REMARK SMILES IDX 18 36 77 37 19 38 20 39 21 40 71 41 22 42 76 43 70 44 72 45
REMARK SMILES IDX 23 46 75 47 69 48 68 49 24 51 56 52 36 53 55 54 37 55 40 56
REMARK SMILES IDX 54 57 73 58 38 59 39 60 53 62 74 63 41 64 25 65 26 66 34 67
REMARK SMILES IDX 27 68 33 69 35 70 32 71 28 72 29 73 30 74 31 75 57 76 58 77
REMARK SMILES IDX 66 78 59 79 65 80 67 81 64 82 60 83 61 84 62 85 63 86 42 87
REMARK SMILES IDX 43 88 51 89 44 90 50 91 52 92 49 93 45 94 46 95 47 96 48 97
REMARK H PARENT 6 8 13 31 72 50 40 61
REMARK Flexibility Score: inf
ROOT
ATOM      1  C   UNL A   1      31.510  30.900  26.062  1.00  0.00     0.002 C 
ENDROOT
BRANCH   1   2
ATOM      2  C   UNL A   1      32.859  30.183  26.193  1.00  0.00     0.002 C 
BRANCH   2   3
ATOM      3  C   UNL A   1      32.846  28.964  27.118  1.00  0.00     0.021 C 
BRANCH   3   4
ATOM      4  C   UNL A   1      31.458  28.598  27.630  1.00  0.00     0.116 C 
BRANCH   4   5
ATOM      5  N   UNL A   1      31.192  27.183  27.451  1.00  0.00    -0.356 N 
ATOM      6  C   UNL A   1      31.150  26.424  26.325  1.00  0.00     0.225 C 
ATOM      7  O   UNL A   1      30.825  25.239  26.445  1.00  0.00    -0.275 OA
ATOM      8  H   UNL A   1      31.011  26.690  28.285  1.00  0.00     0.163 HD
BRANCH   6   9
ATOM      9  C   UNL A   1      31.507  26.980  24.956  1.00  0.00     0.102 C 
ATOM     10  C   UNL A   1      33.873  27.370  24.196  1.00  0.00     0.032 C 
ATOM     11  C   UNL A   1      32.759  26.330  24.336  1.00  0.00     0.094 C 
ATOM     12  N   UNL A   1      32.305  25.807  23.045  1.00  0.00    -0.335 N 
ATOM     13  C   UNL A   1      30.370  26.841  23.940  1.00  0.00     0.037 C 
ATOM     14  C   UNL A   1      31.027  26.371  22.658  1.00  0.00     0.121 C 
BRANCH  12  15
ATOM     15  C   UNL A   1      32.893  24.841  22.245  1.00  0.00     0.254 C 
ATOM     16  O   UNL A   1      32.967  24.929  21.024  1.00  0.00    -0.269 OA
BRANCH  15  17
ATOM     17  C   UNL A   1      33.555  23.693  22.887  1.00  0.00     0.040 A 
ATOM     18  C   UNL A   1      32.728  22.705  23.421  1.00  0.00     0.014 A 
ATOM     19  C   UNL A   1      34.939  23.639  23.061  1.00  0.00     0.022 A 
ATOM     20  C   UNL A   1      33.291  21.607  24.065  1.00  0.00     0.009 A 
ATOM     21  C   UNL A   1      35.515  22.556  23.752  1.00  0.00    -0.018 A 
ATOM     22  C   UNL A   1      34.680  21.516  24.232  1.00  0.00    -0.018 A 
ATOM     23  C   UNL A   1      36.895  22.488  24.010  1.00  0.00     0.009 A 
ATOM     24  C   UNL A   1      35.247  20.423  24.904  1.00  0.00     0.009 A 
ATOM     25  C   UNL A   1      37.438  21.414  24.721  1.00  0.00     0.001 A 
ATOM     26  C   UNL A   1      36.618  20.376  25.154  1.00  0.00     0.001 A 
ENDBRANCH  15  17
ENDBRANCH  12  15
ENDBRANCH   6   9
ENDBRANCH   4   5
ENDBRANCH   3   4
ENDBRANCH   2   3
ENDBRANCH   1   2
BRANCH   1  27
ATOM     27  C   UNL A   1      31.427  32.253  26.774  1.00  0.00     0.021 C 
BRANCH  27  28
ATOM     28  C   UNL A   1      32.779  32.861  27.136  1.00  0.00     0.116 C 
BRANCH  28  29
ATOM     29  N   UNL A   1      32.635  34.182  27.723  1.00  0.00    -0.352 N 
ATOM     30  C   UNL A   1      33.243  34.712  28.835  1.00  0.00     0.251 C 
ATOM     31  H   UNL A   1      32.012  34.785  27.257  1.00  0.00     0.163 HD
ATOM     32  O   UNL A   1      32.819  35.754  29.320  1.00  0.00    -0.269 OA
BRANCH  30  33
ATOM     33  C   UNL A   1      34.392  34.008  29.446  1.00  0.00     0.039 A 
ATOM     34  C   UNL A   1      35.684  34.351  29.044  1.00  0.00     0.014 A 
ATOM     35  C   UNL A   1      34.194  33.012  30.406  1.00  0.00     0.014 A 
ATOM     36  C   UNL A   1      36.780  33.734  29.649  1.00  0.00     0.010 A 
ATOM     37  C   UNL A   1      35.288  32.455  31.063  1.00  0.00     0.010 A 
ATOM     38  C   UNL A   1      36.593  32.808  30.689  1.00  0.00    -0.014 A 
BRANCH  38  39
ATOM     39  C   UNL A   1      37.753  32.198  31.393  1.00  0.00     0.031 A 
ATOM     40  C   UNL A   1      38.531  31.086  30.745  1.00  0.00     0.074 A 
ATOM     41  C   UNL A   1      38.071  32.614  32.635  1.00  0.00     0.049 A 
ATOM     42  N   UNL A   1      39.534  30.392  31.219  1.00  0.00    -0.248 NA
ATOM     43  C   UNL A   1      38.109  30.684  29.395  1.00  0.00     0.031 C 
ATOM     44  C   UNL A   1      37.367  33.661  33.380  1.00  0.00     0.029 A 
ATOM     45  N   UNL A   1      39.062  32.208  33.493  1.00  0.00    -0.354 N 
ATOM     46  C   UNL A   1      39.858  29.468  30.231  1.00  0.00     0.074 A 
ATOM     47  C   UNL A   1      38.899  29.648  29.162  1.00  0.00     0.031 C 
ATOM     48  C   UNL A   1      37.969  33.836  34.566  1.00  0.00     0.029 A 
ATOM     49  C   UNL A   1      39.064  32.880  34.694  1.00  0.00     0.049 A 
ATOM     50  H   UNL A   1      39.711  31.503  33.269  1.00  0.00     0.167 HD
ATOM     51  C   UNL A   1      40.875  28.570  30.209  1.00  0.00     0.034 A 
ATOM     52  C   UNL A   1      39.847  32.732  35.781  1.00  0.00     0.034 A 
ATOM     53  C   UNL A   1      41.821  28.406  31.286  1.00  0.00     0.049 A 
ATOM     54  C   UNL A   1      40.939  31.691  35.753  1.00  0.00     0.074 A 
ATOM     55  C   UNL A   1      42.916  27.562  31.349  1.00  0.00     0.029 A 
ATOM     56  N   UNL A   1      41.778  29.087  32.497  1.00  0.00    -0.354 N 
ATOM     57  N   UNL A   1      41.266  30.860  34.789  1.00  0.00    -0.248 NA
ATOM     58  C   UNL A   1      41.773  31.574  36.956  1.00  0.00     0.031 C 
ATOM     59  C   UNL A   1      43.484  27.673  32.622  1.00  0.00     0.029 A 
ATOM     60  C   UNL A   1      42.802  28.653  33.326  1.00  0.00     0.049 A 
ATOM     61  H   UNL A   1      41.116  29.778  32.732  1.00  0.00     0.167 HD
ATOM     62  C   UNL A   1      42.364  30.145  35.260  1.00  0.00     0.074 A 
ATOM     63  C   UNL A   1      42.651  30.655  36.585  1.00  0.00     0.031 C 
ATOM     64  C   UNL A   1      43.071  29.159  34.652  1.00  0.00     0.034 A 
BRANCH  51  65
ATOM     65  C   UNL A   1      40.992  27.681  28.992  1.00  0.00     0.023 A 
ATOM     66  C   UNL A   1      41.995  27.877  28.026  1.00  0.00     0.031 A 
ATOM     67  C   UNL A   1      40.072  26.639  28.778  1.00  0.00     0.131 A 
ATOM     68  C   UNL A   1      42.006  27.102  26.858  1.00  0.00     0.055 A 
ATOM     69  C   UNL A   1      40.143  25.810  27.656  1.00  0.00     0.041 A 
ATOM     70  F   UNL A   1      39.077  26.414  29.652  1.00  0.00    -0.206 F 
ATOM     71  C   UNL A   1      41.104  26.050  26.679  1.00  0.00     0.022 A 
BRANCH  68  72
ATOM     72  S   UNL A   1      43.112  27.589  25.505  1.00  0.00     0.124 S 
ATOM     73  O   UNL A   1      43.625  26.293  25.063  1.00  0.00    -0.237 OA
ATOM     74  O   UNL A   1      42.205  28.264  24.583  1.00  0.00    -0.237 OA
ATOM     75  O   UNL A   1      44.095  28.449  26.158  1.00  0.00    -0.744 OA
ENDBRANCH  68  72
ENDBRANCH  51  65
BRANCH  52  76
ATOM     76  C   UNL A   1      39.626  33.572  36.994  1.00  0.00     0.023 A 
ATOM     77  C   UNL A   1      39.002  33.044  38.135  1.00  0.00     0.031 A 
ATOM     78  C   UNL A   1      39.994  34.929  37.013  1.00  0.00     0.131 A 
ATOM     79  C   UNL A   1      38.719  33.880  39.228  1.00  0.00     0.055 A 
ATOM     80  C   UNL A   1      39.766  35.741  38.125  1.00  0.00     0.041 A 
ATOM     81  F   UNL A   1      40.594  35.486  35.948  1.00  0.00    -0.206 F 
ATOM     82  C   UNL A   1      39.112  35.220  39.237  1.00  0.00     0.022 A 
BRANCH  79  83
ATOM     83  S   UNL A   1      37.743  33.211  40.603  1.00  0.00     0.124 S 
ATOM     84  O   UNL A   1      36.442  33.015  39.974  1.00  0.00    -0.237 OA
ATOM     85  O   UNL A   1      38.483  31.999  40.938  1.00  0.00    -0.237 OA
ATOM     86  O   UNL A   1      37.800  34.271  41.607  1.00  0.00    -0.744 OA
ENDBRANCH  79  83
ENDBRANCH  52  76
BRANCH  64  87
ATOM     87  C   UNL A   1      44.257  28.599  35.404  1.00  0.00     0.023 A 
ATOM     88  C   UNL A   1      44.126  27.536  36.313  1.00  0.00     0.031 A 
ATOM     89  C   UNL A   1      45.539  29.148  35.211  1.00  0.00     0.131 A 
ATOM     90  C   UNL A   1      45.242  27.095  37.040  1.00  0.00     0.055 A 
ATOM     91  C   UNL A   1      46.658  28.659  35.885  1.00  0.00     0.041 A 
ATOM     92  F   UNL A   1      45.725  30.168  34.358  1.00  0.00    -0.206 F 
ATOM     93  C   UNL A   1      46.511  27.635  36.817  1.00  0.00     0.022 A 
BRANCH  90  94
ATOM     94  S   UNL A   1      44.997  25.874  38.359  1.00  0.00     0.124 S 
ATOM     95  O   UNL A   1      46.329  25.795  38.951  1.00  0.00    -0.237 OA
ATOM     96  O   UNL A   1      43.970  26.504  39.182  1.00  0.00    -0.237 OA
ATOM     97  O   UNL A   1      44.566  24.676  37.641  1.00  0.00    -0.744 OA
ENDBRANCH  90  94
ENDBRANCH  64  87
ENDBRANCH  38  39
ENDBRANCH  30  33
ENDBRANCH  28  29
ENDBRANCH  27  28
ENDBRANCH   1  27
TORSDOF 18
ENDMDL
MODEL 3
REMARK VINA RESULT:     -12.7      2.131      4.161
REMARK SMILES C[C@H]1[C@H](C(=O)NCCCCCCNC(=O)c2ccc(-c3c4nc(c(-c5cc(S(=O)(=O)[O-])ccc5F)c5ccc([nH]5)c(-c5cc(S(=O)(=O)[O-])ccc5F)c5nc(c(-c6cc(S(=O)(=O)[O-])ccc6F)c6ccc3[nH]6)C=C5)C=C4)cc2)CCN1C(=O)c1ccc2ccccc2c1
REMARK SMILES IDX 10 1 9 2 8 3 7 4 6 5 4 6 5 7 3 9 1 10 2 11 81 12 79 13 80 14
REMARK SMILES IDX 82 15 83 16 84 17 85 18 93 19 86 20 92 21 87 22 91 23 88 24
REMARK SMILES IDX 90 25 89 26 11 27 12 28 13 29 14 30 15 32 16 33 17 34 78 35
REMARK SMILES IDX 18 36 77 37 19 38 20 39 21 40 71 41 22 42 76 43 70 44 72 45
REMARK SMILES IDX 23 46 75 47 69 48 68 49 24 51 56 52 36 53 55 54 37 55 40 56
REMARK SMILES IDX 54 57 73 58 38 59 39 60 53 62 74 63 41 64 25 65 26 66 34 67
REMARK SMILES IDX 27 68 33 69 35 70 32 71 28 72 29 73 30 74 31 75 57 76 58 77
REMARK SMILES IDX 66 78 59 79 65 80 67 81 64 82 60 83 61 84 62 85 63 86 42 87
REMARK SMILES IDX 43 88 51 89 44 90 50 91 52 92 49 93 45 94 46 95 47 96 48 97
REMARK H PARENT 6 8 13 31 72 50 40 61
REMARK Flexibility Score: inf
ROOT
ATOM      1  C   UNL A   1      31.337  30.310  26.044  1.00  0.00     0.002 C 
ENDROOT
BRANCH   1   2
ATOM      2  C   UNL A   1      32.387  29.450  26.756  1.00  0.00     0.002 C 
BRANCH   2   3
ATOM      3  C   UNL A   1      31.849  28.146  27.349  1.00  0.00     0.021 C 
BRANCH   3   4
ATOM      4  C   UNL A   1      31.528  27.084  26.303  1.00  0.00     0.116 C 
BRANCH   4   5
ATOM      5  N   UNL A   1      31.175  25.825  26.930  1.00  0.00    -0.356 N 
ATOM      6  C   UNL A   1      31.551  24.552  26.639  1.00  0.00     0.225 C 
ATOM      7  O   UNL A   1      31.041  23.639  27.294  1.00  0.00    -0.275 OA
ATOM      8  H   UNL A   1      30.558  25.905  27.695  1.00  0.00     0.163 HD
BRANCH   6   9
ATOM      9  C   UNL A   1      32.579  24.235  25.565  1.00  0.00     0.102 C 
ATOM     10  C   UNL A   1      31.982  23.261  23.324  1.00  0.00     0.032 C 
ATOM     11  C   UNL A   1      32.094  24.552  24.137  1.00  0.00     0.094 C 
ATOM     12  N   UNL A   1      33.098  25.475  23.601  1.00  0.00    -0.335 N 
ATOM     13  C   UNL A   1      33.905  24.972  25.771  1.00  0.00     0.037 C 
ATOM     14  C   UNL A   1      34.308  25.474  24.399  1.00  0.00     0.121 C 
BRANCH  12  15
ATOM     15  C   UNL A   1      32.992  26.344  22.527  1.00  0.00     0.254 C 
ATOM     16  O   UNL A   1      33.682  26.257  21.517  1.00  0.00    -0.269 OA
BRANCH  15  17
ATOM     17  C   UNL A   1      31.933  27.367  22.543  1.00  0.00     0.040 A 
ATOM     18  C   UNL A   1      32.340  28.699  22.455  1.00  0.00     0.014 A 
ATOM     19  C   UNL A   1      30.592  27.041  22.751  1.00  0.00     0.022 A 
ATOM     20  C   UNL A   1      31.390  29.715  22.492  1.00  0.00     0.009 A 
ATOM     21  C   UNL A   1      29.629  28.064  22.837  1.00  0.00    -0.018 A 
ATOM     22  C   UNL A   1      30.033  29.414  22.676  1.00  0.00    -0.018 A 
ATOM     23  C   UNL A   1      28.277  27.792  23.110  1.00  0.00     0.009 A 
ATOM     24  C   UNL A   1      29.077  30.438  22.739  1.00  0.00     0.009 A 
ATOM     25  C   UNL A   1      27.345  28.829  23.216  1.00  0.00     0.001 A 
ATOM     26  C   UNL A   1      27.742  30.148  23.016  1.00  0.00     0.001 A 
ENDBRANCH  15  17
ENDBRANCH  12  15
ENDBRANCH   6   9
ENDBRANCH   4   5
ENDBRANCH   3   4
ENDBRANCH   2   3
ENDBRANCH   1   2
BRANCH   1  27
ATOM     27  C   UNL A   1      31.386  31.803  26.384  1.00  0.00     0.021 C 
BRANCH  27  28
ATOM     28  C   UNL A   1      32.665  32.248  27.085  1.00  0.00     0.116 C 
BRANCH  28  29
ATOM     29  N   UNL A   1      32.599  33.643  27.488  1.00  0.00    -0.352 N 
ATOM     30  C   UNL A   1      33.290  34.296  28.480  1.00  0.00     0.251 C 
ATOM     31  H   UNL A   1      31.968  34.200  26.978  1.00  0.00     0.163 HD
ATOM     32  O   UNL A   1      32.930  35.412  28.837  1.00  0.00    -0.269 OA
BRANCH  30  33
ATOM     33  C   UNL A   1      34.452  33.639  29.117  1.00  0.00     0.039 A 
ATOM     34  C   UNL A   1      35.721  34.192  28.940  1.00  0.00     0.014 A 
ATOM     35  C   UNL A   1      34.288  32.480  29.882  1.00  0.00     0.014 A 
ATOM     36  C   UNL A   1      36.820  33.613  29.580  1.00  0.00     0.010 A 
ATOM     37  C   UNL A   1      35.371  31.952  30.580  1.00  0.00     0.010 A 
ATOM     38  C   UNL A   1      36.649  32.512  30.434  1.00  0.00    -0.014 A 
BRANCH  38  39
ATOM     39  C   UNL A   1      37.798  31.931  31.178  1.00  0.00     0.031 A 
ATOM     40  C   UNL A   1      38.629  30.842  30.558  1.00  0.00     0.074 A 
ATOM     41  C   UNL A   1      38.060  32.353  32.432  1.00  0.00     0.049 A 
ATOM     42  N   UNL A   1      39.633  30.174  31.068  1.00  0.00    -0.248 NA
ATOM     43  C   UNL A   1      38.267  30.432  29.193  1.00  0.00     0.031 C 
ATOM     44  C   UNL A   1      37.302  33.379  33.152  1.00  0.00     0.029 A 
ATOM     45  N   UNL A   1      39.030  31.972  33.324  1.00  0.00    -0.354 N 
ATOM     46  C   UNL A   1      40.017  29.261  30.090  1.00  0.00     0.074 A 
ATOM     47  C   UNL A   1      39.093  29.417  28.987  1.00  0.00     0.031 C 
ATOM     48  C   UNL A   1      37.855  33.568  34.360  1.00  0.00     0.029 A 
ATOM     49  C   UNL A   1      38.970  32.641  34.526  1.00  0.00     0.049 A 
ATOM     50  H   UNL A   1      39.706  31.285  33.124  1.00  0.00     0.167 HD
ATOM     51  C   UNL A   1      41.058  28.391  30.104  1.00  0.00     0.034 A 
ATOM     52  C   UNL A   1      39.717  32.511  35.640  1.00  0.00     0.034 A 
ATOM     53  C   UNL A   1      41.968  28.250  31.215  1.00  0.00     0.049 A 
ATOM     54  C   UNL A   1      40.837  31.500  35.650  1.00  0.00     0.074 A 
ATOM     55  C   UNL A   1      43.083  27.436  31.316  1.00  0.00     0.029 A 
ATOM     56  N   UNL A   1      41.863  28.927  32.424  1.00  0.00    -0.354 N 
ATOM     57  N   UNL A   1      41.221  30.681  34.698  1.00  0.00    -0.248 NA
ATOM     58  C   UNL A   1      41.629  31.403  36.883  1.00  0.00     0.031 C 
ATOM     59  C   UNL A   1      43.601  27.559  32.609  1.00  0.00     0.029 A 
ATOM     60  C   UNL A   1      42.868  28.518  33.289  1.00  0.00     0.049 A 
ATOM     61  H   UNL A   1      41.175  29.599  32.636  1.00  0.00     0.167 HD
ATOM     62  C   UNL A   1      42.320  29.995  35.208  1.00  0.00     0.074 A 
ATOM     63  C   UNL A   1      42.545  30.509  36.543  1.00  0.00     0.031 C 
ATOM     64  C   UNL A   1      43.075  29.029  34.625  1.00  0.00     0.034 A 
BRANCH  51  65
ATOM     65  C   UNL A   1      41.242  27.508  28.891  1.00  0.00     0.023 A 
ATOM     66  C   UNL A   1      42.261  27.745  27.951  1.00  0.00     0.031 A 
ATOM     67  C   UNL A   1      40.372  26.430  28.654  1.00  0.00     0.131 A 
ATOM     68  C   UNL A   1      42.335  26.972  26.784  1.00  0.00     0.055 A 
ATOM     69  C   UNL A   1      40.506  25.605  27.535  1.00  0.00     0.041 A 
ATOM     70  F   UNL A   1      39.364  26.164  29.501  1.00  0.00    -0.206 F 
ATOM     71  C   UNL A   1      41.481  25.884  26.583  1.00  0.00     0.022 A 
BRANCH  68  72
ATOM     72  S   UNL A   1      43.455  27.504  25.461  1.00  0.00     0.124 S 
ATOM     73  O   UNL A   1      44.239  26.291  25.233  1.00  0.00    -0.237 OA
ATOM     74  O   UNL A   1      42.531  27.876  24.396  1.00  0.00    -0.237 OA
ATOM     75  O   UNL A   1      44.196  28.610  26.062  1.00  0.00    -0.744 OA
ENDBRANCH  68  72
ENDBRANCH  51  65
BRANCH  52  76
ATOM     76  C   UNL A   1      39.430  33.343  36.845  1.00  0.00     0.023 A 
ATOM     77  C   UNL A   1      40.123  34.542  37.079  1.00  0.00     0.031 A 
ATOM     78  C   UNL A   1      38.489  32.928  37.805  1.00  0.00     0.131 A 
ATOM     79  C   UNL A   1      39.903  35.257  38.267  1.00  0.00     0.055 A 
ATOM     80  C   UNL A   1      38.230  33.675  38.956  1.00  0.00     0.041 A 
ATOM     81  F   UNL A   1      37.798  31.790  37.633  1.00  0.00    -0.206 F 
ATOM     82  C   UNL A   1      38.949  34.841  39.199  1.00  0.00     0.022 A 
BRANCH  79  83
ATOM     83  S   UNL A   1      40.952  36.693  38.623  1.00  0.00     0.124 S 
ATOM     84  O   UNL A   1      41.791  36.187  39.703  1.00  0.00    -0.237 OA
ATOM     85  O   UNL A   1      41.616  36.909  37.341  1.00  0.00    -0.237 OA
ATOM     86  O   UNL A   1      39.994  37.727  39.007  1.00  0.00    -0.744 OA
ENDBRANCH  79  83
ENDBRANCH  52  76
BRANCH  64  87
ATOM     87  C   UNL A   1      44.248  28.500  35.418  1.00  0.00     0.023 A 
ATOM     88  C   UNL A   1      44.105  27.454  36.346  1.00  0.00     0.031 A 
ATOM     89  C   UNL A   1      45.527  29.060  35.247  1.00  0.00     0.131 A 
ATOM     90  C   UNL A   1      45.208  27.042  37.111  1.00  0.00     0.055 A 
ATOM     91  C   UNL A   1      46.634  28.599  35.960  1.00  0.00     0.041 A 
ATOM     92  F   UNL A   1      45.723  30.065  34.379  1.00  0.00    -0.206 F 
ATOM     93  C   UNL A   1      46.475  27.593  36.909  1.00  0.00     0.022 A 
BRANCH  90  94
ATOM     94  S   UNL A   1      44.942  25.845  38.448  1.00  0.00     0.124 S 
ATOM     95  O   UNL A   1      43.891  26.491  39.229  1.00  0.00    -0.237 OA
ATOM     96  O   UNL A   1      44.548  24.644  37.720  1.00  0.00    -0.237 OA
ATOM     97  O   UNL A   1      46.245  25.771  39.106  1.00  0.00    -0.744 OA
ENDBRANCH  90  94
ENDBRANCH  64  87
ENDBRANCH  38  39
ENDBRANCH  30  33
ENDBRANCH  28  29
ENDBRANCH  27  28
ENDBRANCH   1  27
TORSDOF 18
ENDMDL
