MODEL 1
REMARK VINA RESULT:     -11.1      0.000      0.000
REMARK SMILES [NH3+][C@@H](CC1=C[C@H](S)c2ccccc2C1)C(=O)NCCCCCCNC(=O)c1ccc(-c2c3nc(c(-c4cc(S(=O)(=O)[O-])ccc4F)c4ccc([nH]4)c(-c4cc(S(=O)(=O)[O-])ccc4F)c4nc(c(-c5cc(S(=O)(=O)[O-])ccc5F)c5ccc2[nH]5)C=C4)C=C3)cc1
REMARK SMILES IDX 20 1 19 2 18 3 17 4 15 5 16 6 2 8 1 9 3 13 4 14 5 15 14 16
REMARK SMILES IDX 6 17 13 18 8 19 12 20 9 21 11 22 10 23 7 24 21 26 22 27
REMARK SMILES IDX 23 28 24 29 25 30 26 32 27 33 28 34 89 35 29 36 88 37 30 38
REMARK SMILES IDX 31 39 32 40 82 41 33 42 87 43 81 44 83 45 34 46 86 47 80 48
REMARK SMILES IDX 79 49 35 51 67 52 47 53 66 54 48 55 51 56 65 57 84 58 49 59
REMARK SMILES IDX 50 60 64 62 85 63 52 64 36 65 37 66 45 67 38 68 44 69 46 70
REMARK SMILES IDX 43 71 39 72 40 73 41 74 42 75 68 76 69 77 77 78 70 79 76 80
REMARK SMILES IDX 78 81 75 82 71 83 72 84 73 85 74 86 53 87 54 88 62 89 55 90
REMARK SMILES IDX 61 91 63 92 60 93 56 94 57 95 58 96 59 97
REMARK H PARENT 17 7 1 10 1 11 1 12 7 25 24 31 83 50 51 61
REMARK Flexibility Score: inf
ROOT
ATOM      1  C   UNL A   1      35.468  22.545  24.062  1.00  0.00     0.002 C 
ENDROOT
BRANCH   1   2
ATOM      2  C   UNL A   1      35.367  23.849  24.857  1.00  0.00     0.021 C 
BRANCH   2   3
ATOM      3  C   UNL A   1      34.532  24.998  24.308  1.00  0.00     0.116 C 
BRANCH   3   4
ATOM      4  N   UNL A   1      34.289  25.164  22.908  1.00  0.00    -0.351 N 
ATOM      5  C   UNL A   1      33.298  25.945  22.357  1.00  0.00     0.278 C 
ATOM      6  O   UNL A   1      33.439  26.246  21.163  1.00  0.00    -0.268 OA
ATOM      7  H   UNL A   1      34.880  24.678  22.287  1.00  0.00     0.163 HD
BRANCH   5   8
ATOM      8  C   UNL A   1      32.016  26.437  23.137  1.00  0.00     0.275 C 
BRANCH   8   9
ATOM      9  N   UNL A   1      31.539  27.765  22.696  1.00  0.00    -0.347 N 
ATOM     10  H   UNL A   1      30.536  27.841  22.867  1.00  0.00     0.345 HD
ATOM     11  H   UNL A   1      31.724  27.879  21.699  1.00  0.00     0.345 HD
ATOM     12  H   UNL A   1      32.028  28.493  23.219  1.00  0.00     0.345 HD
ENDBRANCH   8   9
BRANCH   8  13
ATOM     13  C   UNL A   1      30.922  25.407  23.583  1.00  0.00     0.106 C 
BRANCH  13  14
ATOM     14  C   UNL A   1      31.152  23.979  24.086  1.00  0.00    -0.062 C 
ATOM     15  C   UNL A   1      31.072  23.701  25.405  1.00  0.00    -0.009 C 
ATOM     16  C   UNL A   1      31.475  22.876  23.135  1.00  0.00     0.066 C 
ATOM     17  C   UNL A   1      31.425  22.368  26.043  1.00  0.00     0.096 C 
ATOM     18  C   UNL A   1      31.784  21.514  23.684  1.00  0.00    -0.039 A 
ATOM     19  C   UNL A   1      31.850  21.285  25.065  1.00  0.00    -0.028 A 
ATOM     20  C   UNL A   1      32.184  20.521  22.770  1.00  0.00     0.004 A 
ATOM     21  C   UNL A   1      32.311  20.030  25.502  1.00  0.00     0.005 A 
ATOM     22  C   UNL A   1      32.658  19.298  23.221  1.00  0.00     0.000 A 
ATOM     23  C   UNL A   1      32.729  19.056  24.588  1.00  0.00     0.000 A 
BRANCH  17  24
ATOM     24  S   UNL A   1      32.769  22.754  27.237  1.00  0.00    -0.167 SA
ATOM     25  H   UNL A   1      32.554  22.075  28.396  1.00  0.00     0.103 HD
ENDBRANCH  17  24
ENDBRANCH  13  14
ENDBRANCH   8  13
ENDBRANCH   5   8
ENDBRANCH   3   4
ENDBRANCH   2   3
ENDBRANCH   1   2
BRANCH   1  26
ATOM     26  C   UNL A   1      35.490  21.204  24.804  1.00  0.00     0.002 C 
BRANCH  26  27
ATOM     27  C   UNL A   1      36.799  20.409  24.883  1.00  0.00     0.021 C 
BRANCH  27  28
ATOM     28  C   UNL A   1      38.058  21.132  25.369  1.00  0.00     0.116 C 
BRANCH  28  29
ATOM     29  N   UNL A   1      39.121  20.256  25.834  1.00  0.00    -0.352 N 
ATOM     30  C   UNL A   1      40.264  20.555  26.555  1.00  0.00     0.251 C 
ATOM     31  H   UNL A   1      39.011  19.305  25.603  1.00  0.00     0.163 HD
ATOM     32  O   UNL A   1      41.074  19.670  26.789  1.00  0.00    -0.269 OA
BRANCH  30  33
ATOM     33  C   UNL A   1      40.541  21.947  27.009  1.00  0.00     0.039 A 
ATOM     34  C   UNL A   1      39.917  23.050  26.423  1.00  0.00     0.014 A 
ATOM     35  C   UNL A   1      41.444  22.151  28.060  1.00  0.00     0.014 A 
ATOM     36  C   UNL A   1      40.321  24.345  26.763  1.00  0.00     0.010 A 
ATOM     37  C   UNL A   1      41.796  23.453  28.447  1.00  0.00     0.010 A 
ATOM     38  C   UNL A   1      41.286  24.566  27.761  1.00  0.00    -0.014 A 
BRANCH  38  39
ATOM     39  C   UNL A   1      41.762  25.951  28.059  1.00  0.00     0.031 A 
ATOM     40  C   UNL A   1      43.139  26.403  27.633  1.00  0.00     0.074 A 
ATOM     41  C   UNL A   1      40.951  26.826  28.689  1.00  0.00     0.049 A 
ATOM     42  N   UNL A   1      43.711  27.570  27.792  1.00  0.00    -0.248 NA
ATOM     43  C   UNL A   1      43.984  25.420  26.937  1.00  0.00     0.031 C 
ATOM     44  C   UNL A   1      39.599  26.523  29.153  1.00  0.00     0.029 A 
ATOM     45  N   UNL A   1      41.137  28.142  29.040  1.00  0.00    -0.354 N 
ATOM     46  C   UNL A   1      44.980  27.459  27.233  1.00  0.00     0.074 A 
ATOM     47  C   UNL A   1      45.111  26.098  26.762  1.00  0.00     0.031 C 
ATOM     48  C   UNL A   1      39.064  27.627  29.695  1.00  0.00     0.029 A 
ATOM     49  C   UNL A   1      40.055  28.702  29.682  1.00  0.00     0.049 A 
ATOM     50  H   UNL A   1      41.966  28.639  28.851  1.00  0.00     0.167 HD
ATOM     51  C   UNL A   1      45.942  28.407  27.108  1.00  0.00     0.034 A 
ATOM     52  C   UNL A   1      39.875  29.929  30.217  1.00  0.00     0.034 A 
ATOM     53  C   UNL A   1      45.802  29.768  27.564  1.00  0.00     0.049 A 
ATOM     54  C   UNL A   1      40.977  30.954  30.105  1.00  0.00     0.074 A 
ATOM     55  C   UNL A   1      46.710  30.806  27.437  1.00  0.00     0.029 A 
ATOM     56  N   UNL A   1      44.701  30.285  28.230  1.00  0.00    -0.354 N 
ATOM     57  N   UNL A   1      42.142  30.849  29.512  1.00  0.00    -0.248 NA
ATOM     58  C   UNL A   1      40.741  32.267  30.724  1.00  0.00     0.031 C 
ATOM     59  C   UNL A   1      46.196  31.921  28.095  1.00  0.00     0.029 A 
ATOM     60  C   UNL A   1      44.925  31.615  28.551  1.00  0.00     0.049 A 
ATOM     61  H   UNL A   1      43.882  29.782  28.444  1.00  0.00     0.167 HD
ATOM     62  C   UNL A   1      42.765  32.086  29.663  1.00  0.00     0.074 A 
ATOM     63  C   UNL A   1      41.836  32.933  30.381  1.00  0.00     0.031 C 
ATOM     64  C   UNL A   1      43.996  32.476  29.247  1.00  0.00     0.034 A 
BRANCH  51  65
ATOM     65  C   UNL A   1      47.247  28.041  26.436  1.00  0.00     0.023 A 
ATOM     66  C   UNL A   1      47.365  28.127  25.035  1.00  0.00     0.031 A 
ATOM     67  C   UNL A   1      48.307  27.460  27.156  1.00  0.00     0.131 A 
ATOM     68  C   UNL A   1      48.492  27.597  24.394  1.00  0.00     0.055 A 
ATOM     69  C   UNL A   1      49.451  26.979  26.517  1.00  0.00     0.041 A 
ATOM     70  F   UNL A   1      48.245  27.349  28.492  1.00  0.00    -0.206 F 
ATOM     71  C   UNL A   1      49.540  27.031  25.128  1.00  0.00     0.022 A 
BRANCH  68  72
ATOM     72  S   UNL A   1      48.605  27.541  22.585  1.00  0.00     0.124 S 
ATOM     73  O   UNL A   1      49.873  28.225  22.343  1.00  0.00    -0.237 OA
ATOM     74  O   UNL A   1      48.613  26.103  22.325  1.00  0.00    -0.237 OA
ATOM     75  O   UNL A   1      47.417  28.258  22.136  1.00  0.00    -0.744 OA
ENDBRANCH  68  72
ENDBRANCH  51  65
BRANCH  52  76
ATOM     76  C   UNL A   1      38.570  30.250  30.872  1.00  0.00     0.023 A 
ATOM     77  C   UNL A   1      37.548  30.906  30.162  1.00  0.00     0.031 A 
ATOM     78  C   UNL A   1      38.369  30.006  32.241  1.00  0.00     0.131 A 
ATOM     79  C   UNL A   1      36.412  31.367  30.840  1.00  0.00     0.055 A 
ATOM     80  C   UNL A   1      37.198  30.393  32.894  1.00  0.00     0.041 A 
ATOM     81  F   UNL A   1      39.319  29.393  32.966  1.00  0.00    -0.206 F 
ATOM     82  C   UNL A   1      36.221  31.097  32.197  1.00  0.00     0.022 A 
BRANCH  79  83
ATOM     83  S   UNL A   1      35.220  32.460  30.016  1.00  0.00     0.124 S 
ATOM     84  O   UNL A   1      34.267  32.734  31.085  1.00  0.00    -0.237 OA
ATOM     85  O   UNL A   1      36.071  33.582  29.626  1.00  0.00    -0.237 OA
ATOM     86  O   UNL A   1      34.717  31.651  28.912  1.00  0.00    -0.744 OA
ENDBRANCH  79  83
ENDBRANCH  52  76
BRANCH  64  87
ATOM     87  C   UNL A   1      44.453  33.892  29.521  1.00  0.00     0.023 A 
ATOM     88  C   UNL A   1      44.218  34.902  28.565  1.00  0.00     0.031 A 
ATOM     89  C   UNL A   1      45.263  34.204  30.626  1.00  0.00     0.131 A 
ATOM     90  C   UNL A   1      44.831  36.154  28.705  1.00  0.00     0.055 A 
ATOM     91  C   UNL A   1      45.825  35.473  30.791  1.00  0.00     0.041 A 
ATOM     92  F   UNL A   1      45.529  33.276  31.560  1.00  0.00    -0.206 F 
ATOM     93  C   UNL A   1      45.624  36.448  29.817  1.00  0.00     0.022 A 
BRANCH  90  94
ATOM     94  S   UNL A   1      44.708  37.408  27.399  1.00  0.00     0.124 S 
ATOM     95  O   UNL A   1      44.894  38.648  28.151  1.00  0.00    -0.237 OA
ATOM     96  O   UNL A   1      45.813  37.043  26.517  1.00  0.00    -0.237 OA
ATOM     97  O   UNL A   1      43.372  37.213  26.846  1.00  0.00    -0.744 OA
ENDBRANCH  90  94
ENDBRANCH  64  87
ENDBRANCH  38  39
ENDBRANCH  30  33
ENDBRANCH  28  29
ENDBRANCH  27  28
ENDBRANCH  26  27
ENDBRANCH   1  26
TORSDOF 20
ENDMDL
MODEL 2
REMARK VINA RESULT:     -11.0      5.022     10.157
REMARK SMILES [NH3+][C@@H](CC1=C[C@H](S)c2ccccc2C1)C(=O)NCCCCCCNC(=O)c1ccc(-c2c3nc(c(-c4cc(S(=O)(=O)[O-])ccc4F)c4ccc([nH]4)c(-c4cc(S(=O)(=O)[O-])ccc4F)c4nc(c(-c5cc(S(=O)(=O)[O-])ccc5F)c5ccc2[nH]5)C=C4)C=C3)cc1
REMARK SMILES IDX 20 1 19 2 18 3 17 4 15 5 16 6 2 8 1 9 3 13 4 14 5 15 14 16
REMARK SMILES IDX 6 17 13 18 8 19 12 20 9 21 11 22 10 23 7 24 21 26 22 27
REMARK SMILES IDX 23 28 24 29 25 30 26 32 27 33 28 34 89 35 29 36 88 37 30 38
REMARK SMILES IDX 31 39 32 40 82 41 33 42 87 43 81 44 83 45 34 46 86 47 80 48
REMARK SMILES IDX 79 49 35 51 67 52 47 53 66 54 48 55 51 56 65 57 84 58 49 59
REMARK SMILES IDX 50 60 64 62 85 63 52 64 36 65 37 66 45 67 38 68 44 69 46 70
REMARK SMILES IDX 43 71 39 72 40 73 41 74 42 75 68 76 69 77 77 78 70 79 76 80
REMARK SMILES IDX 78 81 75 82 71 83 72 84 73 85 74 86 53 87 54 88 62 89 55 90
REMARK SMILES IDX 61 91 63 92 60 93 56 94 57 95 58 96 59 97
REMARK H PARENT 17 7 1 10 1 11 1 12 7 25 24 31 83 50 51 61
REMARK Flexibility Score: inf
ROOT
ATOM      1  C   UNL A   1      32.951  26.958  26.553  1.00  0.00     0.002 C 
ENDROOT
BRANCH   1   2
ATOM      2  C   UNL A   1      33.661  26.270  25.385  1.00  0.00     0.021 C 
BRANCH   2   3
ATOM      3  C   UNL A   1      34.304  24.907  25.597  1.00  0.00     0.116 C 
BRANCH   3   4
ATOM      4  N   UNL A   1      35.356  24.421  24.759  1.00  0.00    -0.351 N 
ATOM      5  C   UNL A   1      35.257  23.360  23.886  1.00  0.00     0.278 C 
ATOM      6  O   UNL A   1      36.128  23.291  23.007  1.00  0.00    -0.268 OA
ATOM      7  H   UNL A   1      36.224  24.882  24.811  1.00  0.00     0.163 HD
BRANCH   5   8
ATOM      8  C   UNL A   1      34.140  22.246  23.963  1.00  0.00     0.275 C 
BRANCH   8   9
ATOM      9  N   UNL A   1      34.136  21.514  25.248  1.00  0.00    -0.347 N 
ATOM     10  H   UNL A   1      34.072  22.179  26.019  1.00  0.00     0.345 HD
ATOM     11  H   UNL A   1      34.997  20.974  25.335  1.00  0.00     0.345 HD
ATOM     12  H   UNL A   1      33.334  20.883  25.278  1.00  0.00     0.345 HD
ENDBRANCH   8   9
BRANCH   8  13
ATOM     13  C   UNL A   1      32.750  22.476  23.278  1.00  0.00     0.106 C 
BRANCH  13  14
ATOM     14  C   UNL A   1      32.109  23.820  22.923  1.00  0.00    -0.062 C 
ATOM     15  C   UNL A   1      32.699  24.640  22.027  1.00  0.00    -0.009 C 
ATOM     16  C   UNL A   1      30.832  24.251  23.563  1.00  0.00     0.066 C 
ATOM     17  C   UNL A   1      32.249  26.055  21.703  1.00  0.00     0.096 C 
ATOM     18  C   UNL A   1      30.292  25.617  23.253  1.00  0.00    -0.039 A 
ATOM     19  C   UNL A   1      31.002  26.513  22.443  1.00  0.00    -0.028 A 
ATOM     20  C   UNL A   1      29.141  26.033  23.950  1.00  0.00     0.004 A 
ATOM     21  C   UNL A   1      30.518  27.829  22.338  1.00  0.00     0.005 A 
ATOM     22  C   UNL A   1      28.693  27.342  23.851  1.00  0.00     0.000 A 
ATOM     23  C   UNL A   1      29.387  28.242  23.052  1.00  0.00     0.000 A 
BRANCH  17  24
ATOM     24  S   UNL A   1      33.693  27.118  22.110  1.00  0.00    -0.167 SA
ATOM     25  H   UNL A   1      34.664  26.361  22.690  1.00  0.00     0.103 HD
ENDBRANCH  17  24
ENDBRANCH  13  14
ENDBRANCH   8  13
ENDBRANCH   5   8
ENDBRANCH   3   4
ENDBRANCH   2   3
ENDBRANCH   1   2
BRANCH   1  26
ATOM     26  C   UNL A   1      31.558  27.565  26.344  1.00  0.00     0.002 C 
BRANCH  26  27
ATOM     27  C   UNL A   1      31.436  28.998  25.811  1.00  0.00     0.021 C 
BRANCH  27  28
ATOM     28  C   UNL A   1      32.667  29.904  25.877  1.00  0.00     0.116 C 
BRANCH  28  29
ATOM     29  N   UNL A   1      32.420  31.229  26.422  1.00  0.00    -0.352 N 
ATOM     30  C   UNL A   1      33.191  31.993  27.279  1.00  0.00     0.251 C 
ATOM     31  H   UNL A   1      31.576  31.648  26.135  1.00  0.00     0.163 HD
ATOM     32  O   UNL A   1      32.763  33.068  27.674  1.00  0.00    -0.269 OA
BRANCH  30  33
ATOM     33  C   UNL A   1      34.513  31.503  27.762  1.00  0.00     0.039 A 
ATOM     34  C   UNL A   1      34.738  30.156  28.051  1.00  0.00     0.014 A 
ATOM     35  C   UNL A   1      35.560  32.420  27.920  1.00  0.00     0.014 A 
ATOM     36  C   UNL A   1      35.936  29.760  28.653  1.00  0.00     0.010 A 
ATOM     37  C   UNL A   1      36.787  32.006  28.461  1.00  0.00     0.010 A 
ATOM     38  C   UNL A   1      36.968  30.683  28.892  1.00  0.00    -0.014 A 
BRANCH  38  39
ATOM     39  C   UNL A   1      38.211  30.260  29.607  1.00  0.00     0.031 A 
ATOM     40  C   UNL A   1      38.516  30.769  30.996  1.00  0.00     0.074 A 
ATOM     41  C   UNL A   1      39.063  29.390  29.027  1.00  0.00     0.049 A 
ATOM     42  N   UNL A   1      39.536  30.496  31.770  1.00  0.00    -0.248 NA
ATOM     43  C   UNL A   1      37.552  31.706  31.595  1.00  0.00     0.031 C 
ATOM     44  C   UNL A   1      38.891  28.818  27.693  1.00  0.00     0.029 A 
ATOM     45  N   UNL A   1      40.234  28.828  29.481  1.00  0.00    -0.354 N 
ATOM     46  C   UNL A   1      39.346  31.233  32.935  1.00  0.00     0.074 A 
ATOM     47  C   UNL A   1      38.131  31.995  32.753  1.00  0.00     0.031 C 
ATOM     48  C   UNL A   1      39.895  27.963  27.449  1.00  0.00     0.029 A 
ATOM     49  C   UNL A   1      40.823  27.972  28.578  1.00  0.00     0.049 A 
ATOM     50  H   UNL A   1      40.615  29.021  30.368  1.00  0.00     0.167 HD
ATOM     51  C   UNL A   1      40.103  31.259  34.060  1.00  0.00     0.034 A 
ATOM     52  C   UNL A   1      41.984  27.282  28.634  1.00  0.00     0.034 A 
ATOM     53  C   UNL A   1      41.306  30.485  34.244  1.00  0.00     0.049 A 
ATOM     54  C   UNL A   1      42.833  27.362  29.878  1.00  0.00     0.074 A 
ATOM     55  C   UNL A   1      42.111  30.418  35.369  1.00  0.00     0.029 A 
ATOM     56  N   UNL A   1      41.880  29.651  33.297  1.00  0.00    -0.354 N 
ATOM     57  N   UNL A   1      42.600  28.011  30.994  1.00  0.00    -0.248 NA
ATOM     58  C   UNL A   1      44.098  26.612  29.879  1.00  0.00     0.031 C 
ATOM     59  C   UNL A   1      43.210  29.613  35.075  1.00  0.00     0.029 A 
ATOM     60  C   UNL A   1      43.048  29.096  33.801  1.00  0.00     0.049 A 
ATOM     61  H   UNL A   1      41.515  29.479  32.399  1.00  0.00     0.167 HD
ATOM     62  C   UNL A   1      43.672  27.726  31.837  1.00  0.00     0.074 A 
ATOM     63  C   UNL A   1      44.542  26.825  31.111  1.00  0.00     0.031 C 
ATOM     64  C   UNL A   1      43.910  28.178  33.094  1.00  0.00     0.034 A 
BRANCH  51  65
ATOM     65  C   UNL A   1      39.671  32.138  35.213  1.00  0.00     0.023 A 
ATOM     66  C   UNL A   1      38.951  31.582  36.288  1.00  0.00     0.031 A 
ATOM     67  C   UNL A   1      39.827  33.535  35.171  1.00  0.00     0.131 A 
ATOM     68  C   UNL A   1      38.373  32.420  37.250  1.00  0.00     0.055 A 
ATOM     69  C   UNL A   1      39.293  34.363  36.160  1.00  0.00     0.041 A 
ATOM     70  F   UNL A   1      40.501  34.117  34.167  1.00  0.00    -0.206 F 
ATOM     71  C   UNL A   1      38.548  33.807  37.197  1.00  0.00     0.022 A 
BRANCH  68  72
ATOM     72  S   UNL A   1      37.303  31.755  38.555  1.00  0.00     0.124 S 
ATOM     73  O   UNL A   1      38.145  31.908  39.740  1.00  0.00    -0.237 OA
ATOM     74  O   UNL A   1      36.151  32.651  38.490  1.00  0.00    -0.237 OA
ATOM     75  O   UNL A   1      37.057  30.379  38.141  1.00  0.00    -0.744 OA
ENDBRANCH  68  72
ENDBRANCH  51  65
BRANCH  52  76
ATOM     76  C   UNL A   1      42.374  26.426  27.472  1.00  0.00     0.023 A 
ATOM     77  C   UNL A   1      42.122  25.042  27.479  1.00  0.00     0.031 A 
ATOM     78  C   UNL A   1      43.099  26.958  26.393  1.00  0.00     0.131 A 
ATOM     79  C   UNL A   1      42.661  24.229  26.474  1.00  0.00     0.055 A 
ATOM     80  C   UNL A   1      43.564  26.155  25.350  1.00  0.00     0.041 A 
ATOM     81  F   UNL A   1      43.376  28.271  26.345  1.00  0.00    -0.206 F 
ATOM     82  C   UNL A   1      43.363  24.779  25.398  1.00  0.00     0.022 A 
BRANCH  79  83
ATOM     83  S   UNL A   1      42.599  22.420  26.610  1.00  0.00     0.124 S 
ATOM     84  O   UNL A   1      42.040  22.233  27.945  1.00  0.00    -0.237 OA
ATOM     85  O   UNL A   1      41.714  22.072  25.501  1.00  0.00    -0.237 OA
ATOM     86  O   UNL A   1      43.990  22.014  26.444  1.00  0.00    -0.744 OA
ENDBRANCH  79  83
ENDBRANCH  52  76
BRANCH  64  87
ATOM     87  C   UNL A   1      45.153  27.713  33.822  1.00  0.00     0.023 A 
ATOM     88  C   UNL A   1      45.092  26.581  34.661  1.00  0.00     0.031 A 
ATOM     89  C   UNL A   1      46.332  28.476  33.827  1.00  0.00     0.131 A 
ATOM     90  C   UNL A   1      46.165  26.279  35.508  1.00  0.00     0.055 A 
ATOM     91  C   UNL A   1      47.423  28.137  34.632  1.00  0.00     0.041 A 
ATOM     92  F   UNL A   1      46.440  29.571  33.057  1.00  0.00    -0.206 F 
ATOM     93  C   UNL A   1      47.334  27.045  35.491  1.00  0.00     0.022 A 
BRANCH  90  94
ATOM     94  S   UNL A   1      46.044  24.949  36.737  1.00  0.00     0.124 S 
ATOM     95  O   UNL A   1      47.386  24.948  37.316  1.00  0.00    -0.237 OA
ATOM     96  O   UNL A   1      44.987  25.439  37.617  1.00  0.00    -0.237 OA
ATOM     97  O   UNL A   1      45.709  23.769  35.947  1.00  0.00    -0.744 OA
ENDBRANCH  90  94
ENDBRANCH  64  87
ENDBRANCH  38  39
ENDBRANCH  30  33
ENDBRANCH  28  29
ENDBRANCH  27  28
ENDBRANCH  26  27
ENDBRANCH   1  26
TORSDOF 20
ENDMDL
MODEL 3
REMARK VINA RESULT:     -10.9      5.014      7.873
REMARK SMILES [NH3+][C@@H](CC1=C[C@H](S)c2ccccc2C1)C(=O)NCCCCCCNC(=O)c1ccc(-c2c3nc(c(-c4cc(S(=O)(=O)[O-])ccc4F)c4ccc([nH]4)c(-c4cc(S(=O)(=O)[O-])ccc4F)c4nc(c(-c5cc(S(=O)(=O)[O-])ccc5F)c5ccc2[nH]5)C=C4)C=C3)cc1
REMARK SMILES IDX 20 1 19 2 18 3 17 4 15 5 16 6 2 8 1 9 3 13 4 14 5 15 14 16
REMARK SMILES IDX 6 17 13 18 8 19 12 20 9 21 11 22 10 23 7 24 21 26 22 27
REMARK SMILES IDX 23 28 24 29 25 30 26 32 27 33 28 34 89 35 29 36 88 37 30 38
REMARK SMILES IDX 31 39 32 40 82 41 33 42 87 43 81 44 83 45 34 46 86 47 80 48
REMARK SMILES IDX 79 49 35 51 67 52 47 53 66 54 48 55 51 56 65 57 84 58 49 59
REMARK SMILES IDX 50 60 64 62 85 63 52 64 36 65 37 66 45 67 38 68 44 69 46 70
REMARK SMILES IDX 43 71 39 72 40 73 41 74 42 75 68 76 69 77 77 78 70 79 76 80
REMARK SMILES IDX 78 81 75 82 71 83 72 84 73 85 74 86 53 87 54 88 62 89 55 90
REMARK SMILES IDX 61 91 63 92 60 93 56 94 57 95 58 96 59 97
REMARK H PARENT 17 7 1 10 1 11 1 12 7 25 24 31 83 50 51 61
REMARK Flexibility Score: inf
ROOT
ATOM      1  C   UNL A   1      33.152  28.652  24.848  1.00  0.00     0.002 C 
ENDROOT
BRANCH   1   2
ATOM      2  C   UNL A   1      33.768  27.750  25.919  1.00  0.00     0.021 C 
BRANCH   2   3
ATOM      3  C   UNL A   1      33.735  26.239  25.736  1.00  0.00     0.116 C 
BRANCH   3   4
ATOM      4  N   UNL A   1      34.360  25.591  24.625  1.00  0.00    -0.351 N 
ATOM      5  C   UNL A   1      33.701  25.004  23.567  1.00  0.00     0.278 C 
ATOM      6  O   UNL A   1      34.375  24.800  22.548  1.00  0.00    -0.268 OA
ATOM      7  H   UNL A   1      35.345  25.561  24.616  1.00  0.00     0.163 HD
BRANCH   5   8
ATOM      8  C   UNL A   1      32.184  24.565  23.599  1.00  0.00     0.275 C 
BRANCH   8   9
ATOM      9  N   UNL A   1      31.258  25.638  23.175  1.00  0.00    -0.347 N 
ATOM     10  H   UNL A   1      31.215  26.355  23.899  1.00  0.00     0.345 HD
ATOM     11  H   UNL A   1      30.328  25.245  23.029  1.00  0.00     0.345 HD
ATOM     12  H   UNL A   1      31.593  26.052  22.305  1.00  0.00     0.345 HD
ENDBRANCH   8   9
BRANCH   8  13
ATOM     13  C   UNL A   1      31.782  23.098  23.227  1.00  0.00     0.106 C 
BRANCH  13  14
ATOM     14  C   UNL A   1      32.442  21.807  23.721  1.00  0.00    -0.062 C 
ATOM     15  C   UNL A   1      33.328  21.843  24.739  1.00  0.00    -0.009 C 
ATOM     16  C   UNL A   1      32.127  20.495  23.084  1.00  0.00     0.066 C 
ATOM     17  C   UNL A   1      34.160  20.666  25.219  1.00  0.00     0.096 C 
ATOM     18  C   UNL A   1      32.869  19.273  23.541  1.00  0.00    -0.039 A 
ATOM     19  C   UNL A   1      33.897  19.358  24.489  1.00  0.00    -0.028 A 
ATOM     20  C   UNL A   1      32.623  18.070  22.852  1.00  0.00     0.004 A 
ATOM     21  C   UNL A   1      34.658  18.203  24.738  1.00  0.00     0.005 A 
ATOM     22  C   UNL A   1      33.400  16.947  23.096  1.00  0.00     0.000 A 
ATOM     23  C   UNL A   1      34.423  17.016  24.034  1.00  0.00     0.000 A 
BRANCH  17  24
ATOM     24  S   UNL A   1      35.907  21.204  25.015  1.00  0.00    -0.167 SA
ATOM     25  H   UNL A   1      35.940  22.405  24.378  1.00  0.00     0.103 HD
ENDBRANCH  17  24
ENDBRANCH  13  14
ENDBRANCH   8  13
ENDBRANCH   5   8
ENDBRANCH   3   4
ENDBRANCH   2   3
ENDBRANCH   1   2
BRANCH   1  26
ATOM     26  C   UNL A   1      31.700  29.124  24.996  1.00  0.00     0.002 C 
BRANCH  26  27
ATOM     27  C   UNL A   1      31.419  30.541  25.508  1.00  0.00     0.021 C 
BRANCH  27  28
ATOM     28  C   UNL A   1      32.004  30.953  26.860  1.00  0.00     0.116 C 
BRANCH  28  29
ATOM     29  N   UNL A   1      32.145  32.388  27.052  1.00  0.00    -0.352 N 
ATOM     30  C   UNL A   1      33.181  33.110  27.618  1.00  0.00     0.251 C 
ATOM     31  H   UNL A   1      31.388  32.928  26.729  1.00  0.00     0.163 HD
ATOM     32  O   UNL A   1      33.069  34.320  27.745  1.00  0.00    -0.269 OA
BRANCH  30  33
ATOM     33  C   UNL A   1      34.409  32.426  28.114  1.00  0.00     0.039 A 
ATOM     34  C   UNL A   1      34.391  31.095  28.534  1.00  0.00     0.014 A 
ATOM     35  C   UNL A   1      35.615  33.138  28.147  1.00  0.00     0.014 A 
ATOM     36  C   UNL A   1      35.521  30.538  29.143  1.00  0.00     0.010 A 
ATOM     37  C   UNL A   1      36.766  32.552  28.695  1.00  0.00     0.010 A 
ATOM     38  C   UNL A   1      36.717  31.267  29.257  1.00  0.00    -0.014 A 
BRANCH  38  39
ATOM     39  C   UNL A   1      37.890  30.687  29.978  1.00  0.00     0.031 A 
ATOM     40  C   UNL A   1      38.811  29.704  29.292  1.00  0.00     0.074 A 
ATOM     41  C   UNL A   1      38.159  31.060  31.246  1.00  0.00     0.049 A 
ATOM     42  N   UNL A   1      39.884  29.115  29.758  1.00  0.00    -0.248 NA
ATOM     43  C   UNL A   1      38.487  29.336  27.905  1.00  0.00     0.031 C 
ATOM     44  C   UNL A   1      37.357  32.001  32.026  1.00  0.00     0.029 A 
ATOM     45  N   UNL A   1      39.178  30.706  32.099  1.00  0.00    -0.354 N 
ATOM     46  C   UNL A   1      40.353  28.299  28.733  1.00  0.00     0.074 A 
ATOM     47  C   UNL A   1      39.427  28.441  27.631  1.00  0.00     0.031 C 
ATOM     48  C   UNL A   1      37.929  32.177  33.225  1.00  0.00     0.029 A 
ATOM     49  C   UNL A   1      39.103  31.312  33.333  1.00  0.00     0.049 A 
ATOM     50  H   UNL A   1      39.894  30.077  31.851  1.00  0.00     0.167 HD
ATOM     51  C   UNL A   1      41.461  27.518  28.705  1.00  0.00     0.034 A 
ATOM     52  C   UNL A   1      39.873  31.183  34.436  1.00  0.00     0.034 A 
ATOM     53  C   UNL A   1      42.391  27.392  29.800  1.00  0.00     0.049 A 
ATOM     54  C   UNL A   1      41.076  30.273  34.396  1.00  0.00     0.074 A 
ATOM     55  C   UNL A   1      43.563  26.657  29.841  1.00  0.00     0.029 A 
ATOM     56  N   UNL A   1      42.264  28.003  31.039  1.00  0.00    -0.354 N 
ATOM     57  N   UNL A   1      41.540  29.565  33.394  1.00  0.00    -0.248 NA
ATOM     58  C   UNL A   1      41.867  30.149  35.629  1.00  0.00     0.031 C 
ATOM     59  C   UNL A   1      44.099  26.756  31.124  1.00  0.00     0.029 A 
ATOM     60  C   UNL A   1      43.318  27.630  31.860  1.00  0.00     0.049 A 
ATOM     61  H   UNL A   1      41.533  28.610  31.298  1.00  0.00     0.167 HD
ATOM     62  C   UNL A   1      42.689  28.934  33.867  1.00  0.00     0.074 A 
ATOM     63  C   UNL A   1      42.864  29.365  35.237  1.00  0.00     0.031 C 
ATOM     64  C   UNL A   1      43.515  28.073  33.221  1.00  0.00     0.034 A 
BRANCH  51  65
ATOM     65  C   UNL A   1      41.771  26.731  27.450  1.00  0.00     0.023 A 
ATOM     66  C   UNL A   1      41.548  25.341  27.420  1.00  0.00     0.031 A 
ATOM     67  C   UNL A   1      42.429  27.321  26.357  1.00  0.00     0.131 A 
ATOM     68  C   UNL A   1      42.022  24.580  26.344  1.00  0.00     0.055 A 
ATOM     69  C   UNL A   1      42.854  26.566  25.262  1.00  0.00     0.041 A 
ATOM     70  F   UNL A   1      42.670  28.642  26.336  1.00  0.00    -0.206 F 
ATOM     71  C   UNL A   1      42.666  25.187  25.260  1.00  0.00     0.022 A 
BRANCH  68  72
ATOM     72  S   UNL A   1      41.901  22.770  26.346  1.00  0.00     0.124 S 
ATOM     73  O   UNL A   1      42.661  22.418  25.148  1.00  0.00    -0.237 OA
ATOM     74  O   UNL A   1      42.540  22.424  27.613  1.00  0.00    -0.237 OA
ATOM     75  O   UNL A   1      40.468  22.514  26.270  1.00  0.00    -0.744 OA
ENDBRANCH  68  72
ENDBRANCH  51  65
BRANCH  52  76
ATOM     76  C   UNL A   1      39.532  31.978  35.655  1.00  0.00     0.023 A 
ATOM     77  C   UNL A   1      38.743  31.424  36.679  1.00  0.00     0.031 A 
ATOM     78  C   UNL A   1      39.897  33.330  35.762  1.00  0.00     0.131 A 
ATOM     79  C   UNL A   1      38.276  32.239  37.719  1.00  0.00     0.055 A 
ATOM     80  C   UNL A   1      39.499  34.117  36.844  1.00  0.00     0.041 A 
ATOM     81  F   UNL A   1      40.641  33.908  34.805  1.00  0.00    -0.206 F 
ATOM     82  C   UNL A   1      38.666  33.577  37.819  1.00  0.00     0.022 A 
BRANCH  79  83
ATOM     83  S   UNL A   1      37.029  31.629  38.888  1.00  0.00     0.124 S 
ATOM     84  O   UNL A   1      36.682  30.333  38.315  1.00  0.00    -0.237 OA
ATOM     85  O   UNL A   1      37.791  31.585  40.134  1.00  0.00    -0.237 OA
ATOM     86  O   UNL A   1      35.983  32.644  38.837  1.00  0.00    -0.744 OA
ENDBRANCH  79  83
ENDBRANCH  52  76
BRANCH  64  87
ATOM     87  C   UNL A   1      44.721  27.522  33.949  1.00  0.00     0.023 A 
ATOM     88  C   UNL A   1      44.580  26.401  34.792  1.00  0.00     0.031 A 
ATOM     89  C   UNL A   1      45.953  28.199  33.951  1.00  0.00     0.131 A 
ATOM     90  C   UNL A   1      45.630  26.025  35.640  1.00  0.00     0.055 A 
ATOM     91  C   UNL A   1      47.018  27.784  34.755  1.00  0.00     0.041 A 
ATOM     92  F   UNL A   1      46.138  29.280  33.176  1.00  0.00    -0.206 F 
ATOM     93  C   UNL A   1      46.851  26.704  35.618  1.00  0.00     0.022 A 
BRANCH  90  94
ATOM     94  S   UNL A   1      45.415  24.712  36.873  1.00  0.00     0.124 S 
ATOM     95  O   UNL A   1      46.335  25.131  37.928  1.00  0.00    -0.237 OA
ATOM     96  O   UNL A   1      43.997  24.828  37.202  1.00  0.00    -0.237 OA
ATOM     97  O   UNL A   1      45.798  23.495  36.163  1.00  0.00    -0.744 OA
ENDBRANCH  90  94
ENDBRANCH  64  87
ENDBRANCH  38  39
ENDBRANCH  30  33
ENDBRANCH  28  29
ENDBRANCH  27  28
ENDBRANCH  26  27
ENDBRANCH   1  26
TORSDOF 20
ENDMDL
