MODEL 1
REMARK VINA RESULT:      -9.5      0.000      0.000
REMARK SMILES C=CCCCOc1ccc(C(=O)NCCCCCCNC(=O)c2ccc(-c3c4nc(c(-c5cc(S(=O)(=O)[O-])ccc5F)c5ccc([nH]5)c(-c5cc(S(=O)(=O)[O-])ccc5F)c5nc(c(-c6cc(S(=O)(=O)[O-])ccc6F)c6ccc3[nH]6)C=C5)C=C4)cc2)cc1[N+](=O)[O-]
REMARK SMILES IDX 15 1 14 2 13 3 11 4 12 5 10 7 7 8 8 9 87 10 9 11 86 12 6 13
REMARK SMILES IDX 5 14 4 15 3 16 2 17 1 18 88 19 89 20 90 21 16 22 17 23 18 24
REMARK SMILES IDX 19 25 20 26 21 27 22 29 23 30 24 31 85 32 25 33 84 34 26 35
REMARK SMILES IDX 27 36 28 37 78 38 29 39 83 40 77 41 79 42 30 43 82 44 76 45
REMARK SMILES IDX 75 46 31 48 63 49 43 50 62 51 44 52 47 53 61 54 80 55 45 56
REMARK SMILES IDX 46 57 60 59 81 60 48 61 32 62 33 63 41 64 34 65 40 66 42 67
REMARK SMILES IDX 39 68 35 69 36 70 37 71 38 72 64 73 65 74 73 75 66 76 72 77
REMARK SMILES IDX 74 78 71 79 67 80 68 81 69 82 70 83 49 84 50 85 58 86 51 87
REMARK SMILES IDX 57 88 59 89 56 90 52 91 53 92 54 93 55 94
REMARK H PARENT 13 6 20 28 79 47 47 58
REMARK Flexibility Score: inf
ROOT
ATOM      1  C   UNL A   1      35.346  30.277  27.640  1.00  0.00     0.021 C 
ENDROOT
BRANCH   1   2
ATOM      2  C   UNL A   1      34.457  29.298  26.870  1.00  0.00     0.116 C 
BRANCH   2   3
ATOM      3  N   UNL A   1      33.382  28.787  27.710  1.00  0.00    -0.352 N 
ATOM      4  C   UNL A   1      32.134  28.326  27.376  1.00  0.00     0.251 C 
ATOM      5  O   UNL A   1      31.422  27.808  28.234  1.00  0.00    -0.269 OA
ATOM      6  H   UNL A   1      33.583  28.772  28.673  1.00  0.00     0.163 HD
BRANCH   4   7
ATOM      7  C   UNL A   1      31.647  28.389  25.979  1.00  0.00     0.046 A 
ATOM      8  C   UNL A   1      30.519  28.598  23.418  1.00  0.00     0.197 A 
ATOM      9  C   UNL A   1      30.802  29.751  24.153  1.00  0.00     0.055 A 
ATOM     10  C   UNL A   1      30.926  27.359  23.922  1.00  0.00     0.311 A 
ATOM     11  C   UNL A   1      31.358  29.647  25.432  1.00  0.00     0.018 A 
ATOM     12  C   UNL A   1      31.493  27.244  25.196  1.00  0.00     0.103 A 
BRANCH   8  13
ATOM     13  O   UNL A   1      29.888  28.687  22.211  1.00  0.00    -0.487 OA
BRANCH  13  14
ATOM     14  C   UNL A   1      29.869  30.016  21.661  1.00  0.00     0.230 C 
BRANCH  14  15
ATOM     15  C   UNL A   1      28.481  30.376  21.116  1.00  0.00     0.046 C 
BRANCH  15  16
ATOM     16  C   UNL A   1      27.972  31.767  21.519  1.00  0.00     0.030 C 
BRANCH  16  17
ATOM     17  C   UNL A   1      28.136  32.087  22.979  1.00  0.00    -0.035 C 
ATOM     18  C   UNL A   1      27.409  31.492  23.934  1.00  0.00     0.004 C 
ENDBRANCH  16  17
ENDBRANCH  15  16
ENDBRANCH  14  15
ENDBRANCH  13  14
ENDBRANCH   8  13
BRANCH  10  19
ATOM     19  N   UNL A   1      30.671  26.135  23.181  1.00  0.00     0.066 N 
ATOM     20  O   UNL A   1      29.719  25.441  23.570  1.00  0.00    -0.258 OA
ATOM     21  O   UNL A   1      31.429  25.849  22.246  1.00  0.00    -0.258 OA
ENDBRANCH  10  19
ENDBRANCH   4   7
ENDBRANCH   2   3
ENDBRANCH   1   2
BRANCH   1  22
ATOM     22  C   UNL A   1      34.623  31.547  28.101  1.00  0.00     0.002 C 
BRANCH  22  23
ATOM     23  C   UNL A   1      35.349  32.860  27.786  1.00  0.00     0.002 C 
BRANCH  23  24
ATOM     24  C   UNL A   1      34.484  34.121  27.865  1.00  0.00     0.021 C 
BRANCH  24  25
ATOM     25  C   UNL A   1      33.156  33.946  28.598  1.00  0.00     0.116 C 
BRANCH  25  26
ATOM     26  N   UNL A   1      33.020  34.881  29.703  1.00  0.00    -0.352 N 
ATOM     27  C   UNL A   1      33.695  34.933  30.897  1.00  0.00     0.251 C 
ATOM     28  H   UNL A   1      32.341  35.583  29.576  1.00  0.00     0.163 HD
ATOM     29  O   UNL A   1      33.276  35.657  31.795  1.00  0.00    -0.269 OA
BRANCH  27  30
ATOM     30  C   UNL A   1      34.907  34.109  31.110  1.00  0.00     0.039 A 
ATOM     31  C   UNL A   1      36.152  34.638  30.762  1.00  0.00     0.014 A 
ATOM     32  C   UNL A   1      34.820  32.809  31.622  1.00  0.00     0.014 A 
ATOM     33  C   UNL A   1      37.311  33.888  30.976  1.00  0.00     0.010 A 
ATOM     34  C   UNL A   1      35.982  32.091  31.900  1.00  0.00     0.010 A 
ATOM     35  C   UNL A   1      37.240  32.621  31.579  1.00  0.00    -0.014 A 
BRANCH  35  36
ATOM     36  C   UNL A   1      38.476  31.852  31.881  1.00  0.00     0.031 A 
ATOM     37  C   UNL A   1      39.242  32.103  33.153  1.00  0.00     0.074 A 
ATOM     38  C   UNL A   1      38.931  30.952  30.986  1.00  0.00     0.049 A 
ATOM     39  N   UNL A   1      40.346  31.543  33.579  1.00  0.00    -0.248 NA
ATOM     40  C   UNL A   1      38.710  33.140  34.050  1.00  0.00     0.031 C 
ATOM     41  C   UNL A   1      38.302  30.658  29.695  1.00  0.00     0.029 A 
ATOM     42  N   UNL A   1      40.022  30.121  31.019  1.00  0.00    -0.354 N 
ATOM     43  C   UNL A   1      40.645  32.161  34.789  1.00  0.00     0.074 A 
ATOM     44  C   UNL A   1      39.640  33.184  34.993  1.00  0.00     0.031 C 
ATOM     45  C   UNL A   1      38.999  29.690  29.078  1.00  0.00     0.029 A 
ATOM     46  C   UNL A   1      40.145  29.325  29.903  1.00  0.00     0.049 A 
ATOM     47  H   UNL A   1      40.658  30.096  31.770  1.00  0.00     0.167 HD
ATOM     48  C   UNL A   1      41.649  31.886  35.660  1.00  0.00     0.034 A 
ATOM     49  C   UNL A   1      41.076  28.407  29.579  1.00  0.00     0.034 A 
ATOM     50  C   UNL A   1      42.641  30.860  35.440  1.00  0.00     0.049 A 
ATOM     51  C   UNL A   1      42.190  28.125  30.556  1.00  0.00     0.074 A 
ATOM     52  C   UNL A   1      43.673  30.464  36.273  1.00  0.00     0.029 A 
ATOM     53  N   UNL A   1      42.733  30.071  34.298  1.00  0.00    -0.354 N 
ATOM     54  N   UNL A   1      42.425  28.679  31.723  1.00  0.00    -0.248 NA
ATOM     55  C   UNL A   1      43.151  27.081  30.179  1.00  0.00     0.031 C 
ATOM     56  C   UNL A   1      44.427  29.490  35.611  1.00  0.00     0.029 A 
ATOM     57  C   UNL A   1      43.819  29.213  34.397  1.00  0.00     0.049 A 
ATOM     58  H   UNL A   1      42.117  30.114  33.533  1.00  0.00     0.167 HD
ATOM     59  C   UNL A   1      43.542  28.024  32.235  1.00  0.00     0.074 A 
ATOM     60  C   UNL A   1      43.919  27.024  31.256  1.00  0.00     0.031 C 
ATOM     61  C   UNL A   1      44.194  28.227  33.408  1.00  0.00     0.034 A 
BRANCH  48  62
ATOM     62  C   UNL A   1      41.735  32.727  36.913  1.00  0.00     0.023 A 
ATOM     63  C   UNL A   1      41.027  32.389  38.080  1.00  0.00     0.031 A 
ATOM     64  C   UNL A   1      42.516  33.896  36.937  1.00  0.00     0.131 A 
ATOM     65  C   UNL A   1      41.053  33.246  39.191  1.00  0.00     0.055 A 
ATOM     66  C   UNL A   1      42.605  34.701  38.075  1.00  0.00     0.041 A 
ATOM     67  F   UNL A   1      43.199  34.285  35.849  1.00  0.00    -0.206 F 
ATOM     68  C   UNL A   1      41.858  34.387  39.207  1.00  0.00     0.022 A 
BRANCH  65  69
ATOM     69  S   UNL A   1      39.904  32.928  40.559  1.00  0.00     0.124 S 
ATOM     70  O   UNL A   1      38.830  32.207  39.880  1.00  0.00    -0.237 OA
ATOM     71  O   UNL A   1      40.719  32.143  41.479  1.00  0.00    -0.237 OA
ATOM     72  O   UNL A   1      39.548  34.266  41.027  1.00  0.00    -0.744 OA
ENDBRANCH  65  69
ENDBRANCH  48  62
BRANCH  49  73
ATOM     73  C   UNL A   1      41.002  27.682  28.277  1.00  0.00     0.023 A 
ATOM     74  C   UNL A   1      40.284  26.482  28.155  1.00  0.00     0.031 A 
ATOM     75  C   UNL A   1      41.682  28.161  27.143  1.00  0.00     0.131 A 
ATOM     76  C   UNL A   1      40.302  25.775  26.943  1.00  0.00     0.055 A 
ATOM     77  C   UNL A   1      41.651  27.483  25.923  1.00  0.00     0.041 A 
ATOM     78  F   UNL A   1      42.378  29.307  27.202  1.00  0.00    -0.206 F 
ATOM     79  C   UNL A   1      40.969  26.274  25.822  1.00  0.00     0.022 A 
BRANCH  76  80
ATOM     80  S   UNL A   1      39.512  24.143  26.876  1.00  0.00     0.124 S 
ATOM     81  O   UNL A   1      40.650  23.273  26.599  1.00  0.00    -0.237 OA
ATOM     82  O   UNL A   1      38.929  24.034  28.209  1.00  0.00    -0.237 OA
ATOM     83  O   UNL A   1      38.548  24.277  25.786  1.00  0.00    -0.744 OA
ENDBRANCH  76  80
ENDBRANCH  49  73
BRANCH  61  84
ATOM     84  C   UNL A   1      45.354  27.309  33.714  1.00  0.00     0.023 A 
ATOM     85  C   UNL A   1      45.170  26.056  34.325  1.00  0.00     0.031 A 
ATOM     86  C   UNL A   1      46.669  27.711  33.417  1.00  0.00     0.131 A 
ATOM     87  C   UNL A   1      46.284  25.281  34.683  1.00  0.00     0.055 A 
ATOM     88  C   UNL A   1      47.769  26.904  33.714  1.00  0.00     0.041 A 
ATOM     89  F   UNL A   1      46.908  28.898  32.838  1.00  0.00    -0.206 F 
ATOM     90  C   UNL A   1      47.581  25.690  34.366  1.00  0.00     0.022 A 
BRANCH  87  91
ATOM     91  S   UNL A   1      46.021  23.786  35.676  1.00  0.00     0.124 S 
ATOM     92  O   UNL A   1      44.571  23.634  35.619  1.00  0.00    -0.237 OA
ATOM     93  O   UNL A   1      46.795  22.786  34.948  1.00  0.00    -0.237 OA
ATOM     94  O   UNL A   1      46.554  24.147  36.988  1.00  0.00    -0.744 OA
ENDBRANCH  87  91
ENDBRANCH  61  84
ENDBRANCH  35  36
ENDBRANCH  27  30
ENDBRANCH  25  26
ENDBRANCH  24  25
ENDBRANCH  23  24
ENDBRANCH  22  23
ENDBRANCH   1  22
TORSDOF 22
ENDMDL
MODEL 2
REMARK VINA RESULT:      -9.4      2.896      4.252
REMARK SMILES C=CCCCOc1ccc(C(=O)NCCCCCCNC(=O)c2ccc(-c3c4nc(c(-c5cc(S(=O)(=O)[O-])ccc5F)c5ccc([nH]5)c(-c5cc(S(=O)(=O)[O-])ccc5F)c5nc(c(-c6cc(S(=O)(=O)[O-])ccc6F)c6ccc3[nH]6)C=C5)C=C4)cc2)cc1[N+](=O)[O-]
REMARK SMILES IDX 15 1 14 2 13 3 11 4 12 5 10 7 7 8 8 9 87 10 9 11 86 12 6 13
REMARK SMILES IDX 5 14 4 15 3 16 2 17 1 18 88 19 89 20 90 21 16 22 17 23 18 24
REMARK SMILES IDX 19 25 20 26 21 27 22 29 23 30 24 31 85 32 25 33 84 34 26 35
REMARK SMILES IDX 27 36 28 37 78 38 29 39 83 40 77 41 79 42 30 43 82 44 76 45
REMARK SMILES IDX 75 46 31 48 63 49 43 50 62 51 44 52 47 53 61 54 80 55 45 56
REMARK SMILES IDX 46 57 60 59 81 60 48 61 32 62 33 63 41 64 34 65 40 66 42 67
REMARK SMILES IDX 39 68 35 69 36 70 37 71 38 72 64 73 65 74 73 75 66 76 72 77
REMARK SMILES IDX 74 78 71 79 67 80 68 81 69 82 70 83 49 84 50 85 58 86 51 87
REMARK SMILES IDX 57 88 59 89 56 90 52 91 53 92 54 93 55 94
REMARK H PARENT 13 6 20 28 79 47 47 58
REMARK Flexibility Score: inf
ROOT
ATOM      1  C   UNL A   1      31.797  28.561  27.385  1.00  0.00     0.021 C 
ENDROOT
BRANCH   1   2
ATOM      2  C   UNL A   1      31.801  27.326  26.482  1.00  0.00     0.116 C 
BRANCH   2   3
ATOM      3  N   UNL A   1      32.596  27.551  25.282  1.00  0.00    -0.352 N 
ATOM      4  C   UNL A   1      33.428  26.704  24.594  1.00  0.00     0.251 C 
ATOM      5  O   UNL A   1      33.905  27.055  23.516  1.00  0.00    -0.269 OA
ATOM      6  H   UNL A   1      32.525  28.457  24.904  1.00  0.00     0.163 HD
BRANCH   4   7
ATOM      7  C   UNL A   1      33.719  25.344  25.101  1.00  0.00     0.046 A 
ATOM      8  C   UNL A   1      34.219  22.684  25.841  1.00  0.00     0.197 A 
ATOM      9  C   UNL A   1      35.052  23.320  24.918  1.00  0.00     0.055 A 
ATOM     10  C   UNL A   1      33.224  23.428  26.479  1.00  0.00     0.311 A 
ATOM     11  C   UNL A   1      34.799  24.644  24.544  1.00  0.00     0.018 A 
ATOM     12  C   UNL A   1      32.968  24.757  26.120  1.00  0.00     0.103 A 
BRANCH   8  13
ATOM     13  O   UNL A   1      34.401  21.364  26.137  1.00  0.00    -0.487 OA
BRANCH  13  14
ATOM     14  C   UNL A   1      34.717  20.549  24.994  1.00  0.00     0.230 C 
BRANCH  14  15
ATOM     15  C   UNL A   1      33.586  19.560  24.682  1.00  0.00     0.046 C 
BRANCH  15  16
ATOM     16  C   UNL A   1      34.052  18.141  24.330  1.00  0.00     0.030 C 
BRANCH  16  17
ATOM     17  C   UNL A   1      33.280  17.495  23.213  1.00  0.00    -0.035 C 
ATOM     18  C   UNL A   1      32.421  18.175  22.443  1.00  0.00     0.004 C 
ENDBRANCH  16  17
ENDBRANCH  15  16
ENDBRANCH  14  15
ENDBRANCH  13  14
ENDBRANCH   8  13
BRANCH  10  19
ATOM     19  N   UNL A   1      32.347  22.812  27.460  1.00  0.00     0.066 N 
ATOM     20  O   UNL A   1      32.899  22.202  28.389  1.00  0.00    -0.258 OA
ATOM     21  O   UNL A   1      31.125  22.902  27.291  1.00  0.00    -0.258 OA
ENDBRANCH  10  19
ENDBRANCH   4   7
ENDBRANCH   2   3
ENDBRANCH   1   2
BRANCH   1  22
ATOM     22  C   UNL A   1      32.456  29.795  26.760  1.00  0.00     0.002 C 
BRANCH  22  23
ATOM     23  C   UNL A   1      31.495  30.763  26.062  1.00  0.00     0.002 C 
BRANCH  23  24
ATOM     24  C   UNL A   1      31.466  32.183  26.635  1.00  0.00     0.021 C 
BRANCH  24  25
ATOM     25  C   UNL A   1      32.786  32.662  27.234  1.00  0.00     0.116 C 
BRANCH  25  26
ATOM     26  N   UNL A   1      32.691  34.024  27.734  1.00  0.00    -0.352 N 
ATOM     27  C   UNL A   1      33.386  34.638  28.746  1.00  0.00     0.251 C 
ATOM     28  H   UNL A   1      32.028  34.592  27.278  1.00  0.00     0.163 HD
ATOM     29  O   UNL A   1      33.000  35.723  29.170  1.00  0.00    -0.269 OA
BRANCH  27  30
ATOM     30  C   UNL A   1      34.581  33.991  29.336  1.00  0.00     0.039 A 
ATOM     31  C   UNL A   1      34.402  33.034  30.338  1.00  0.00     0.014 A 
ATOM     32  C   UNL A   1      35.872  34.342  28.929  1.00  0.00     0.014 A 
ATOM     33  C   UNL A   1      35.513  32.392  30.892  1.00  0.00     0.010 A 
ATOM     34  C   UNL A   1      36.974  33.651  29.432  1.00  0.00     0.010 A 
ATOM     35  C   UNL A   1      36.807  32.671  30.421  1.00  0.00    -0.014 A 
BRANCH  35  36
ATOM     36  C   UNL A   1      37.984  31.934  30.951  1.00  0.00     0.031 A 
ATOM     37  C   UNL A   1      38.551  32.269  32.305  1.00  0.00     0.074 A 
ATOM     38  C   UNL A   1      38.568  30.985  30.191  1.00  0.00     0.049 A 
ATOM     39  N   UNL A   1      39.579  31.747  32.925  1.00  0.00    -0.248 NA
ATOM     40  C   UNL A   1      37.891  33.353  33.047  1.00  0.00     0.031 C 
ATOM     41  C   UNL A   1      38.140  30.608  28.842  1.00  0.00     0.029 A 
ATOM     42  N   UNL A   1      39.643  30.168  30.437  1.00  0.00    -0.354 N 
ATOM     43  C   UNL A   1      39.693  32.440  34.125  1.00  0.00     0.074 A 
ATOM     44  C   UNL A   1      38.669  33.463  34.114  1.00  0.00     0.031 C 
ATOM     45  C   UNL A   1      38.921  29.611  28.396  1.00  0.00     0.029 A 
ATOM     46  C   UNL A   1      39.932  29.307  29.403  1.00  0.00     0.049 A 
ATOM     47  H   UNL A   1      40.159  30.196  31.275  1.00  0.00     0.167 HD
ATOM     48  C   UNL A   1      40.556  32.228  35.152  1.00  0.00     0.034 A 
ATOM     49  C   UNL A   1      40.901  28.380  29.279  1.00  0.00     0.034 A 
ATOM     50  C   UNL A   1      41.571  31.199  35.146  1.00  0.00     0.049 A 
ATOM     51  C   UNL A   1      41.856  28.168  30.427  1.00  0.00     0.074 A 
ATOM     52  C   UNL A   1      42.466  30.865  36.147  1.00  0.00     0.029 A 
ATOM     53  N   UNL A   1      41.833  30.343  34.082  1.00  0.00    -0.354 N 
ATOM     54  N   UNL A   1      41.914  28.795  31.579  1.00  0.00    -0.248 NA
ATOM     55  C   UNL A   1      42.863  27.113  30.262  1.00  0.00     0.031 C 
ATOM     56  C   UNL A   1      43.311  29.859  35.665  1.00  0.00     0.029 A 
ATOM     57  C   UNL A   1      42.892  29.503  34.394  1.00  0.00     0.049 A 
ATOM     58  H   UNL A   1      41.338  30.334  33.231  1.00  0.00     0.167 HD
ATOM     59  C   UNL A   1      42.942  28.183  32.292  1.00  0.00     0.074 A 
ATOM     60  C   UNL A   1      43.462  27.130  31.443  1.00  0.00     0.031 C 
ATOM     61  C   UNL A   1      43.411  28.463  33.535  1.00  0.00     0.034 A 
BRANCH  48  62
ATOM     62  C   UNL A   1      40.453  33.144  36.349  1.00  0.00     0.023 A 
ATOM     63  C   UNL A   1      39.731  32.779  37.500  1.00  0.00     0.031 A 
ATOM     64  C   UNL A   1      41.065  34.410  36.335  1.00  0.00     0.131 A 
ATOM     65  C   UNL A   1      39.575  33.695  38.552  1.00  0.00     0.055 A 
ATOM     66  C   UNL A   1      40.977  35.284  37.421  1.00  0.00     0.041 A 
ATOM     67  F   UNL A   1      41.752  34.826  35.259  1.00  0.00    -0.206 F 
ATOM     68  C   UNL A   1      40.215  34.935  38.532  1.00  0.00     0.022 A 
BRANCH  65  69
ATOM     69  S   UNL A   1      38.402  33.299  39.879  1.00  0.00     0.124 S 
ATOM     70  O   UNL A   1      37.205  32.946  39.118  1.00  0.00    -0.237 OA
ATOM     71  O   UNL A   1      39.067  32.201  40.570  1.00  0.00    -0.237 OA
ATOM     72  O   UNL A   1      38.306  34.546  40.635  1.00  0.00    -0.744 OA
ENDBRANCH  65  69
ENDBRANCH  48  62
BRANCH  49  73
ATOM     73  C   UNL A   1      41.023  27.577  28.027  1.00  0.00     0.023 A 
ATOM     74  C   UNL A   1      40.624  26.232  27.988  1.00  0.00     0.031 A 
ATOM     75  C   UNL A   1      41.577  28.134  26.861  1.00  0.00     0.131 A 
ATOM     76  C   UNL A   1      40.829  25.474  26.825  1.00  0.00     0.055 A 
ATOM     77  C   UNL A   1      41.728  27.393  25.689  1.00  0.00     0.041 A 
ATOM     78  F   UNL A   1      41.969  29.418  26.842  1.00  0.00    -0.206 F 
ATOM     79  C   UNL A   1      41.366  26.049  25.670  1.00  0.00     0.022 A 
BRANCH  76  80
ATOM     80  S   UNL A   1      40.466  23.697  26.868  1.00  0.00     0.124 S 
ATOM     81  O   UNL A   1      40.652  23.390  28.281  1.00  0.00    -0.237 OA
ATOM     82  O   UNL A   1      39.092  23.658  26.378  1.00  0.00    -0.237 OA
ATOM     83  O   UNL A   1      41.463  23.124  25.967  1.00  0.00    -0.744 OA
ENDBRANCH  76  80
ENDBRANCH  49  73
BRANCH  61  84
ATOM     84  C   UNL A   1      44.513  27.577  34.066  1.00  0.00     0.023 A 
ATOM     85  C   UNL A   1      44.242  26.451  34.865  1.00  0.00     0.031 A 
ATOM     86  C   UNL A   1      45.859  27.883  33.793  1.00  0.00     0.131 A 
ATOM     87  C   UNL A   1      45.300  25.717  35.421  1.00  0.00     0.055 A 
ATOM     88  C   UNL A   1      46.905  27.106  34.293  1.00  0.00     0.041 A 
ATOM     89  F   UNL A   1      46.179  28.946  33.040  1.00  0.00    -0.206 F 
ATOM     90  C   UNL A   1      46.630  26.027  35.126  1.00  0.00     0.022 A 
BRANCH  87  91
ATOM     91  S   UNL A   1      44.918  24.420  36.632  1.00  0.00     0.124 S 
ATOM     92  O   UNL A   1      43.635  24.869  37.162  1.00  0.00    -0.237 OA
ATOM     93  O   UNL A   1      44.880  23.220  35.803  1.00  0.00    -0.237 OA
ATOM     94  O   UNL A   1      46.035  24.489  37.572  1.00  0.00    -0.744 OA
ENDBRANCH  87  91
ENDBRANCH  61  84
ENDBRANCH  35  36
ENDBRANCH  27  30
ENDBRANCH  25  26
ENDBRANCH  24  25
ENDBRANCH  23  24
ENDBRANCH  22  23
ENDBRANCH   1  22
TORSDOF 22
ENDMDL
MODEL 3
REMARK VINA RESULT:      -9.4      3.534      8.858
REMARK SMILES C=CCCCOc1ccc(C(=O)NCCCCCCNC(=O)c2ccc(-c3c4nc(c(-c5cc(S(=O)(=O)[O-])ccc5F)c5ccc([nH]5)c(-c5cc(S(=O)(=O)[O-])ccc5F)c5nc(c(-c6cc(S(=O)(=O)[O-])ccc6F)c6ccc3[nH]6)C=C5)C=C4)cc2)cc1[N+](=O)[O-]
REMARK SMILES IDX 15 1 14 2 13 3 11 4 12 5 10 7 7 8 8 9 87 10 9 11 86 12 6 13
REMARK SMILES IDX 5 14 4 15 3 16 2 17 1 18 88 19 89 20 90 21 16 22 17 23 18 24
REMARK SMILES IDX 19 25 20 26 21 27 22 29 23 30 24 31 85 32 25 33 84 34 26 35
REMARK SMILES IDX 27 36 28 37 78 38 29 39 83 40 77 41 79 42 30 43 82 44 76 45
REMARK SMILES IDX 75 46 31 48 63 49 43 50 62 51 44 52 47 53 61 54 80 55 45 56
REMARK SMILES IDX 46 57 60 59 81 60 48 61 32 62 33 63 41 64 34 65 40 66 42 67
REMARK SMILES IDX 39 68 35 69 36 70 37 71 38 72 64 73 65 74 73 75 66 76 72 77
REMARK SMILES IDX 74 78 71 79 67 80 68 81 69 82 70 83 49 84 50 85 58 86 51 87
REMARK SMILES IDX 57 88 59 89 56 90 52 91 53 92 54 93 55 94
REMARK H PARENT 13 6 20 28 79 47 47 58
REMARK Flexibility Score: inf
ROOT
ATOM      1  C   UNL A   1      31.744  28.363  27.506  1.00  0.00     0.021 C 
ENDROOT
BRANCH   1   2
ATOM      2  C   UNL A   1      31.834  27.121  26.617  1.00  0.00     0.116 C 
BRANCH   2   3
ATOM      3  N   UNL A   1      30.727  27.064  25.672  1.00  0.00    -0.352 N 
ATOM      4  C   UNL A   1      30.346  26.071  24.806  1.00  0.00     0.251 C 
ATOM      5  O   UNL A   1      29.290  26.171  24.185  1.00  0.00    -0.269 OA
ATOM      6  H   UNL A   1      30.160  27.869  25.652  1.00  0.00     0.163 HD
BRANCH   4   7
ATOM      7  C   UNL A   1      31.163  24.846  24.645  1.00  0.00     0.046 A 
ATOM      8  C   UNL A   1      32.504  22.399  24.346  1.00  0.00     0.197 A 
ATOM      9  C   UNL A   1      31.668  22.867  23.329  1.00  0.00     0.055 A 
ATOM     10  C   UNL A   1      32.759  23.225  25.444  1.00  0.00     0.311 A 
ATOM     11  C   UNL A   1      30.994  24.083  23.481  1.00  0.00     0.018 A 
ATOM     12  C   UNL A   1      32.098  24.449  25.601  1.00  0.00     0.103 A 
BRANCH   8  13
ATOM     13  O   UNL A   1      33.087  21.170  24.247  1.00  0.00    -0.487 OA
BRANCH  13  14
ATOM     14  C   UNL A   1      32.371  20.251  23.403  1.00  0.00     0.230 C 
BRANCH  14  15
ATOM     15  C   UNL A   1      32.405  18.826  23.971  1.00  0.00     0.046 C 
BRANCH  15  16
ATOM     16  C   UNL A   1      32.725  17.732  22.944  1.00  0.00     0.030 C 
BRANCH  16  17
ATOM     17  C   UNL A   1      34.052  17.058  23.150  1.00  0.00    -0.035 C 
ATOM     18  C   UNL A   1      34.305  16.271  24.205  1.00  0.00     0.004 C 
ENDBRANCH  16  17
ENDBRANCH  15  16
ENDBRANCH  14  15
ENDBRANCH  13  14
ENDBRANCH   8  13
BRANCH  10  19
ATOM     19  N   UNL A   1      33.638  22.788  26.515  1.00  0.00     0.066 N 
ATOM     20  O   UNL A   1      33.139  22.041  27.370  1.00  0.00    -0.258 OA
ATOM     21  O   UNL A   1      34.801  23.209  26.525  1.00  0.00    -0.258 OA
ENDBRANCH  10  19
ENDBRANCH   4   7
ENDBRANCH   2   3
ENDBRANCH   1   2
BRANCH   1  22
ATOM     22  C   UNL A   1      32.477  29.587  26.945  1.00  0.00     0.002 C 
BRANCH  22  23
ATOM     23  C   UNL A   1      31.620  30.522  26.086  1.00  0.00     0.002 C 
BRANCH  23  24
ATOM     24  C   UNL A   1      31.480  31.952  26.614  1.00  0.00     0.021 C 
BRANCH  24  25
ATOM     25  C   UNL A   1      32.713  32.495  27.335  1.00  0.00     0.116 C 
BRANCH  25  26
ATOM     26  N   UNL A   1      32.580  33.909  27.645  1.00  0.00    -0.352 N 
ATOM     27  C   UNL A   1      33.197  34.657  28.616  1.00  0.00     0.251 C 
ATOM     28  H   UNL A   1      31.953  34.406  27.071  1.00  0.00     0.163 HD
ATOM     29  O   UNL A   1      32.779  35.784  28.866  1.00  0.00    -0.269 OA
BRANCH  27  30
ATOM     30  C   UNL A   1      34.344  34.104  29.372  1.00  0.00     0.039 A 
ATOM     31  C   UNL A   1      34.092  33.272  30.467  1.00  0.00     0.014 A 
ATOM     32  C   UNL A   1      35.662  34.423  29.028  1.00  0.00     0.014 A 
ATOM     33  C   UNL A   1      35.159  32.720  31.180  1.00  0.00     0.010 A 
ATOM     34  C   UNL A   1      36.725  33.815  29.696  1.00  0.00     0.010 A 
ATOM     35  C   UNL A   1      36.485  32.959  30.780  1.00  0.00    -0.014 A 
BRANCH  35  36
ATOM     36  C   UNL A   1      37.621  32.309  31.487  1.00  0.00     0.031 A 
ATOM     37  C   UNL A   1      38.374  31.174  30.846  1.00  0.00     0.074 A 
ATOM     38  C   UNL A   1      37.948  32.721  32.729  1.00  0.00     0.049 A 
ATOM     39  N   UNL A   1      39.378  30.477  31.315  1.00  0.00    -0.248 NA
ATOM     40  C   UNL A   1      37.918  30.749  29.514  1.00  0.00     0.031 C 
ATOM     41  C   UNL A   1      37.260  33.778  33.474  1.00  0.00     0.029 A 
ATOM     42  N   UNL A   1      38.937  32.303  33.585  1.00  0.00    -0.354 N 
ATOM     43  C   UNL A   1      39.672  29.529  30.340  1.00  0.00     0.074 A 
ATOM     44  C   UNL A   1      38.695  29.701  29.285  1.00  0.00     0.031 C 
ATOM     45  C   UNL A   1      37.869  33.949  34.658  1.00  0.00     0.029 A 
ATOM     46  C   UNL A   1      38.960  32.988  34.779  1.00  0.00     0.049 A 
ATOM     47  H   UNL A   1      39.570  31.583  33.365  1.00  0.00     0.167 HD
ATOM     48  C   UNL A   1      40.677  28.617  30.316  1.00  0.00     0.034 A 
ATOM     49  C   UNL A   1      39.767  32.856  35.850  1.00  0.00     0.034 A 
ATOM     50  C   UNL A   1      41.644  28.462  31.378  1.00  0.00     0.049 A 
ATOM     51  C   UNL A   1      40.870  31.828  35.806  1.00  0.00     0.074 A 
ATOM     52  C   UNL A   1      42.729  27.605  31.439  1.00  0.00     0.029 A 
ATOM     53  N   UNL A   1      41.638  29.175  32.572  1.00  0.00    -0.354 N 
ATOM     54  N   UNL A   1      41.170  30.978  34.852  1.00  0.00    -0.248 NA
ATOM     55  C   UNL A   1      41.752  31.757  36.977  1.00  0.00     0.031 C 
ATOM     56  C   UNL A   1      43.335  27.749  32.692  1.00  0.00     0.029 A 
ATOM     57  C   UNL A   1      42.683  28.756  33.384  1.00  0.00     0.049 A 
ATOM     58  H   UNL A   1      40.988  29.875  32.807  1.00  0.00     0.167 HD
ATOM     59  C   UNL A   1      42.299  30.295  35.294  1.00  0.00     0.074 A 
ATOM     60  C   UNL A   1      42.633  30.846  36.592  1.00  0.00     0.031 C 
ATOM     61  C   UNL A   1      42.999  29.305  34.683  1.00  0.00     0.034 A 
BRANCH  48  62
ATOM     62  C   UNL A   1      40.759  27.702  29.116  1.00  0.00     0.023 A 
ATOM     63  C   UNL A   1      41.681  27.925  28.077  1.00  0.00     0.031 A 
ATOM     64  C   UNL A   1      39.889  26.603  28.994  1.00  0.00     0.131 A 
ATOM     65  C   UNL A   1      41.662  27.113  26.933  1.00  0.00     0.055 A 
ATOM     66  C   UNL A   1      39.932  25.748  27.891  1.00  0.00     0.041 A 
ATOM     67  F   UNL A   1      38.973  26.348  29.941  1.00  0.00    -0.206 F 
ATOM     68  C   UNL A   1      40.812  26.010  26.844  1.00  0.00     0.022 A 
BRANCH  65  69
ATOM     69  S   UNL A   1      42.659  27.609  25.501  1.00  0.00     0.124 S 
ATOM     70  O   UNL A   1      43.994  27.697  26.087  1.00  0.00    -0.237 OA
ATOM     71  O   UNL A   1      42.441  26.508  24.569  1.00  0.00    -0.237 OA
ATOM     72  O   UNL A   1      42.075  28.888  25.103  1.00  0.00    -0.744 OA
ENDBRANCH  65  69
ENDBRANCH  48  62
BRANCH  49  73
ATOM     73  C   UNL A   1      39.571  33.715  37.054  1.00  0.00     0.023 A 
ATOM     74  C   UNL A   1      40.397  34.824  37.295  1.00  0.00     0.031 A 
ATOM     75  C   UNL A   1      38.577  33.415  38.002  1.00  0.00     0.131 A 
ATOM     76  C   UNL A   1      40.248  35.563  38.478  1.00  0.00     0.055 A 
ATOM     77  C   UNL A   1      38.396  34.187  39.150  1.00  0.00     0.041 A 
ATOM     78  F   UNL A   1      37.755  32.370  37.817  1.00  0.00    -0.206 F 
ATOM     79  C   UNL A   1      39.245  35.261  39.401  1.00  0.00     0.022 A 
BRANCH  76  80
ATOM     80  S   UNL A   1      41.446  36.878  38.840  1.00  0.00     0.124 S 
ATOM     81  O   UNL A   1      40.581  37.935  39.349  1.00  0.00    -0.237 OA
ATOM     82  O   UNL A   1      42.317  36.232  39.817  1.00  0.00    -0.237 OA
ATOM     83  O   UNL A   1      42.060  37.144  37.541  1.00  0.00    -0.744 OA
ENDBRANCH  76  80
ENDBRANCH  49  73
BRANCH  61  84
ATOM     84  C   UNL A   1      44.229  28.795  35.397  1.00  0.00     0.023 A 
ATOM     85  C   UNL A   1      44.147  27.867  36.450  1.00  0.00     0.031 A 
ATOM     86  C   UNL A   1      45.503  29.272  35.037  1.00  0.00     0.131 A 
ATOM     87  C   UNL A   1      45.305  27.500  37.152  1.00  0.00     0.055 A 
ATOM     88  C   UNL A   1      46.659  28.849  35.694  1.00  0.00     0.041 A 
ATOM     89  F   UNL A   1      45.644  30.162  34.042  1.00  0.00    -0.206 F 
ATOM     90  C   UNL A   1      46.563  27.972  36.769  1.00  0.00     0.022 A 
BRANCH  87  91
ATOM     91  S   UNL A   1      45.132  26.487  38.648  1.00  0.00     0.124 S 
ATOM     92  O   UNL A   1      43.707  26.175  38.640  1.00  0.00    -0.237 OA
ATOM     93  O   UNL A   1      46.030  25.370  38.374  1.00  0.00    -0.237 OA
ATOM     94  O   UNL A   1      45.565  27.383  39.719  1.00  0.00    -0.744 OA
ENDBRANCH  87  91
ENDBRANCH  61  84
ENDBRANCH  35  36
ENDBRANCH  27  30
ENDBRANCH  25  26
ENDBRANCH  24  25
ENDBRANCH  23  24
ENDBRANCH  22  23
ENDBRANCH   1  22
TORSDOF 22
ENDMDL
