MODEL 1
REMARK VINA RESULT:     -11.4      0.000      0.000
REMARK SMILES CC1(C)CCN(C(=O)CC(C)(C)C(=O)NCCCCCCNC(=O)c2ccc(-c3c4nc(c(-c5cc(S(=O)(=O)[O-])ccc5F)c5ccc([nH]5)c(-c5cc(S(=O)(=O)[O-])ccc5F)c5nc(c(-c6cc(S(=O)(=O)[O-])ccc6F)c6ccc3[nH]6)C=C5)C=C4)cc2)C1
REMARK SMILES IDX 18 1 17 2 16 3 15 4 13 5 14 6 10 8 11 9 12 10 9 11 7 12 8 13
REMARK SMILES IDX 6 14 1 15 2 16 3 17 4 18 88 19 5 20 19 21 20 22 21 23 22 24
REMARK SMILES IDX 23 25 24 27 25 28 26 29 87 30 27 31 86 32 28 33 29 34 30 35
REMARK SMILES IDX 80 36 31 37 85 38 79 39 81 40 32 41 84 42 78 43 77 44 33 46
REMARK SMILES IDX 65 47 45 48 64 49 46 50 49 51 63 52 82 53 47 54 48 55 62 57
REMARK SMILES IDX 83 58 50 59 34 60 35 61 43 62 36 63 42 64 44 65 41 66 37 67
REMARK SMILES IDX 38 68 39 69 40 70 66 71 67 72 75 73 68 74 74 75 76 76 73 77
REMARK SMILES IDX 69 78 70 79 71 80 72 81 51 82 52 83 60 84 53 85 59 86 61 87
REMARK SMILES IDX 58 88 54 89 55 90 56 91 57 92
REMARK H PARENT 15 7 22 26 81 45 49 56
REMARK Flexibility Score: inf
ROOT
ATOM      1  C   UNL A   1      32.826  29.857  27.242  1.00  0.00     0.002 C 
ENDROOT
BRANCH   1   2
ATOM      2  C   UNL A   1      33.981  29.310  26.407  1.00  0.00     0.021 C 
BRANCH   2   3
ATOM      3  C   UNL A   1      34.008  27.798  26.254  1.00  0.00     0.116 C 
BRANCH   3   4
ATOM      4  N   UNL A   1      32.805  27.163  26.750  1.00  0.00    -0.356 N 
ATOM      5  C   UNL A   1      31.808  26.478  26.126  1.00  0.00     0.226 C 
ATOM      6  O   UNL A   1      30.876  26.129  26.852  1.00  0.00    -0.274 OA
ATOM      7  H   UNL A   1      32.684  27.244  27.724  1.00  0.00     0.163 HD
BRANCH   5   8
ATOM      8  C   UNL A   1      31.793  26.235  24.603  1.00  0.00     0.052 C 
ATOM      9  C   UNL A   1      30.609  25.376  24.155  1.00  0.00     0.022 C 
ATOM     10  C   UNL A   1      33.095  25.500  24.218  1.00  0.00     0.022 C 
BRANCH   8  11
ATOM     11  C   UNL A   1      31.782  27.591  23.808  1.00  0.00     0.116 C 
BRANCH  11  12
ATOM     12  C   UNL A   1      30.695  27.883  22.764  1.00  0.00     0.223 C 
ATOM     13  O   UNL A   1      30.773  27.379  21.638  1.00  0.00    -0.275 OA
BRANCH  12  14
ATOM     14  N   UNL A   1      29.586  28.624  23.102  1.00  0.00    -0.342 N 
ATOM     15  C   UNL A   1      28.176  30.502  21.278  1.00  0.00     0.013 C 
ATOM     16  C   UNL A   1      28.120  30.415  22.818  1.00  0.00    -0.016 C 
ATOM     17  C   UNL A   1      27.618  31.746  23.366  1.00  0.00     0.013 C 
ATOM     18  C   UNL A   1      27.281  29.194  23.238  1.00  0.00     0.030 C 
ATOM     19  C   UNL A   1      29.460  30.021  23.455  1.00  0.00     0.126 C 
ATOM     20  C   UNL A   1      28.258  28.018  23.072  1.00  0.00     0.120 C 
ENDBRANCH  12  14
ENDBRANCH  11  12
ENDBRANCH   8  11
ENDBRANCH   5   8
ENDBRANCH   3   4
ENDBRANCH   2   3
ENDBRANCH   1   2
BRANCH   1  21
ATOM     21  C   UNL A   1      31.717  30.560  26.453  1.00  0.00     0.002 C 
BRANCH  21  22
ATOM     22  C   UNL A   1      31.645  32.080  26.618  1.00  0.00     0.021 C 
BRANCH  22  23
ATOM     23  C   UNL A   1      32.836  32.717  27.325  1.00  0.00     0.116 C 
BRANCH  23  24
ATOM     24  N   UNL A   1      32.577  34.090  27.712  1.00  0.00    -0.352 N 
ATOM     25  C   UNL A   1      33.138  34.833  28.720  1.00  0.00     0.251 C 
ATOM     26  H   UNL A   1      31.898  34.558  27.173  1.00  0.00     0.163 HD
ATOM     27  O   UNL A   1      32.653  35.918  29.017  1.00  0.00    -0.269 OA
BRANCH  25  28
ATOM     28  C   UNL A   1      34.307  34.308  29.460  1.00  0.00     0.039 A 
ATOM     29  C   UNL A   1      34.085  33.530  30.598  1.00  0.00     0.014 A 
ATOM     30  C   UNL A   1      35.614  34.584  29.043  1.00  0.00     0.014 A 
ATOM     31  C   UNL A   1      35.170  32.984  31.287  1.00  0.00     0.010 A 
ATOM     32  C   UNL A   1      36.691  33.977  29.687  1.00  0.00     0.010 A 
ATOM     33  C   UNL A   1      36.481  33.173  30.817  1.00  0.00    -0.014 A 
BRANCH  33  34
ATOM     34  C   UNL A   1      37.635  32.528  31.500  1.00  0.00     0.031 A 
ATOM     35  C   UNL A   1      38.370  31.392  30.839  1.00  0.00     0.074 A 
ATOM     36  C   UNL A   1      37.986  32.937  32.736  1.00  0.00     0.049 A 
ATOM     37  N   UNL A   1      39.369  30.680  31.294  1.00  0.00    -0.248 NA
ATOM     38  C   UNL A   1      37.904  30.986  29.504  1.00  0.00     0.031 C 
ATOM     39  C   UNL A   1      37.318  33.998  33.495  1.00  0.00     0.029 A 
ATOM     40  N   UNL A   1      38.983  32.510  33.578  1.00  0.00    -0.354 N 
ATOM     41  C   UNL A   1      39.640  29.733  30.311  1.00  0.00     0.074 A 
ATOM     42  C   UNL A   1      38.668  29.931  29.259  1.00  0.00     0.031 C 
ATOM     43  C   UNL A   1      37.937  34.153  34.676  1.00  0.00     0.029 A 
ATOM     44  C   UNL A   1      39.012  33.173  34.785  1.00  0.00     0.049 A 
ATOM     45  H   UNL A   1      39.618  31.796  33.342  1.00  0.00     0.167 HD
ATOM     46  C   UNL A   1      40.620  28.796  30.288  1.00  0.00     0.034 A 
ATOM     47  C   UNL A   1      39.803  33.000  35.864  1.00  0.00     0.034 A 
ATOM     48  C   UNL A   1      41.594  28.629  31.338  1.00  0.00     0.049 A 
ATOM     49  C   UNL A   1      40.878  31.943  35.811  1.00  0.00     0.074 A 
ATOM     50  C   UNL A   1      42.680  27.770  31.374  1.00  0.00     0.029 A 
ATOM     51  N   UNL A   1      41.597  29.320  32.544  1.00  0.00    -0.354 N 
ATOM     52  N   UNL A   1      41.171  31.109  34.839  1.00  0.00    -0.248 NA
ATOM     53  C   UNL A   1      41.738  31.811  36.994  1.00  0.00     0.031 C 
ATOM     54  C   UNL A   1      43.284  27.879  32.631  1.00  0.00     0.029 A 
ATOM     55  C   UNL A   1      42.636  28.873  33.346  1.00  0.00     0.049 A 
ATOM     56  H   UNL A   1      40.956  30.025  32.791  1.00  0.00     0.167 HD
ATOM     57  C   UNL A   1      42.270  30.379  35.283  1.00  0.00     0.074 A 
ATOM     58  C   UNL A   1      42.600  30.886  36.599  1.00  0.00     0.031 C 
ATOM     59  C   UNL A   1      42.948  29.380  34.662  1.00  0.00     0.034 A 
BRANCH  46  60
ATOM     60  C   UNL A   1      40.671  27.856  29.107  1.00  0.00     0.023 A 
ATOM     61  C   UNL A   1      41.590  28.022  28.057  1.00  0.00     0.031 A 
ATOM     62  C   UNL A   1      39.788  26.762  29.040  1.00  0.00     0.131 A 
ATOM     63  C   UNL A   1      41.569  27.144  26.962  1.00  0.00     0.055 A 
ATOM     64  C   UNL A   1      39.825  25.846  27.987  1.00  0.00     0.041 A 
ATOM     65  F   UNL A   1      38.872  26.563  30.002  1.00  0.00    -0.206 F 
ATOM     66  C   UNL A   1      40.712  26.041  26.933  1.00  0.00     0.022 A 
BRANCH  63  67
ATOM     67  S   UNL A   1      42.597  27.530  25.518  1.00  0.00     0.124 S 
ATOM     68  O   UNL A   1      43.916  27.680  26.126  1.00  0.00    -0.237 OA
ATOM     69  O   UNL A   1      42.412  26.355  24.675  1.00  0.00    -0.237 OA
ATOM     70  O   UNL A   1      42.012  28.767  25.002  1.00  0.00    -0.744 OA
ENDBRANCH  63  67
ENDBRANCH  46  60
BRANCH  47  71
ATOM     71  C   UNL A   1      39.600  33.817  37.097  1.00  0.00     0.023 A 
ATOM     72  C   UNL A   1      38.941  33.291  38.219  1.00  0.00     0.031 A 
ATOM     73  C   UNL A   1      40.002  35.165  37.146  1.00  0.00     0.131 A 
ATOM     74  C   UNL A   1      38.644  34.121  39.311  1.00  0.00     0.055 A 
ATOM     75  C   UNL A   1      39.765  35.969  38.262  1.00  0.00     0.041 A 
ATOM     76  F   UNL A   1      40.637  35.724  36.102  1.00  0.00    -0.206 F 
ATOM     77  C   UNL A   1      39.065  35.453  39.347  1.00  0.00     0.022 A 
BRANCH  74  78
ATOM     78  S   UNL A   1      37.589  33.469  40.636  1.00  0.00     0.124 S 
ATOM     79  O   UNL A   1      38.494  32.540  41.304  1.00  0.00    -0.237 OA
ATOM     80  O   UNL A   1      37.249  34.680  41.376  1.00  0.00    -0.237 OA
ATOM     81  O   UNL A   1      36.480  32.849  39.912  1.00  0.00    -0.744 OA
ENDBRANCH  74  78
ENDBRANCH  47  71
BRANCH  59  82
ATOM     82  C   UNL A   1      44.141  28.805  35.386  1.00  0.00     0.023 A 
ATOM     83  C   UNL A   1      44.017  27.737  36.292  1.00  0.00     0.031 A 
ATOM     84  C   UNL A   1      45.423  29.346  35.177  1.00  0.00     0.131 A 
ATOM     85  C   UNL A   1      45.140  27.288  37.003  1.00  0.00     0.055 A 
ATOM     86  C   UNL A   1      46.549  28.848  35.834  1.00  0.00     0.041 A 
ATOM     87  F   UNL A   1      45.603  30.370  34.327  1.00  0.00    -0.206 F 
ATOM     88  C   UNL A   1      46.408  27.823  36.765  1.00  0.00     0.022 A 
BRANCH  85  89
ATOM     89  S   UNL A   1      44.903  26.068  38.324  1.00  0.00     0.124 S 
ATOM     90  O   UNL A   1      44.832  24.819  37.573  1.00  0.00    -0.237 OA
ATOM     91  O   UNL A   1      46.100  26.254  39.138  1.00  0.00    -0.237 OA
ATOM     92  O   UNL A   1      43.653  26.485  38.955  1.00  0.00    -0.744 OA
ENDBRANCH  85  89
ENDBRANCH  59  82
ENDBRANCH  33  34
ENDBRANCH  25  28
ENDBRANCH  23  24
ENDBRANCH  22  23
ENDBRANCH  21  22
ENDBRANCH   1  21
TORSDOF 19
ENDMDL
MODEL 2
REMARK VINA RESULT:     -11.0      5.643      8.542
REMARK SMILES CC1(C)CCN(C(=O)CC(C)(C)C(=O)NCCCCCCNC(=O)c2ccc(-c3c4nc(c(-c5cc(S(=O)(=O)[O-])ccc5F)c5ccc([nH]5)c(-c5cc(S(=O)(=O)[O-])ccc5F)c5nc(c(-c6cc(S(=O)(=O)[O-])ccc6F)c6ccc3[nH]6)C=C5)C=C4)cc2)C1
REMARK SMILES IDX 18 1 17 2 16 3 15 4 13 5 14 6 10 8 11 9 12 10 9 11 7 12 8 13
REMARK SMILES IDX 6 14 1 15 2 16 3 17 4 18 88 19 5 20 19 21 20 22 21 23 22 24
REMARK SMILES IDX 23 25 24 27 25 28 26 29 87 30 27 31 86 32 28 33 29 34 30 35
REMARK SMILES IDX 80 36 31 37 85 38 79 39 81 40 32 41 84 42 78 43 77 44 33 46
REMARK SMILES IDX 65 47 45 48 64 49 46 50 49 51 63 52 82 53 47 54 48 55 62 57
REMARK SMILES IDX 83 58 50 59 34 60 35 61 43 62 36 63 42 64 44 65 41 66 37 67
REMARK SMILES IDX 38 68 39 69 40 70 66 71 67 72 75 73 68 74 74 75 76 76 73 77
REMARK SMILES IDX 69 78 70 79 71 80 72 81 51 82 52 83 60 84 53 85 59 86 61 87
REMARK SMILES IDX 58 88 54 89 55 90 56 91 57 92
REMARK H PARENT 15 7 22 26 81 45 49 56
REMARK Flexibility Score: inf
ROOT
ATOM      1  C   UNL A   1      34.215  20.254  24.821  1.00  0.00     0.002 C 
ENDROOT
BRANCH   1   2
ATOM      2  C   UNL A   1      33.144  20.667  25.827  1.00  0.00     0.021 C 
BRANCH   2   3
ATOM      3  C   UNL A   1      31.880  21.257  25.220  1.00  0.00     0.116 C 
BRANCH   3   4
ATOM      4  N   UNL A   1      31.011  21.855  26.211  1.00  0.00    -0.356 N 
ATOM      5  C   UNL A   1      30.615  23.139  26.425  1.00  0.00     0.226 C 
ATOM      6  O   UNL A   1      29.913  23.315  27.422  1.00  0.00    -0.274 OA
ATOM      7  H   UNL A   1      30.635  21.210  26.852  1.00  0.00     0.163 HD
BRANCH   5   8
ATOM      8  C   UNL A   1      31.085  24.313  25.541  1.00  0.00     0.052 C 
ATOM      9  C   UNL A   1      30.902  24.035  24.047  1.00  0.00     0.022 C 
ATOM     10  C   UNL A   1      32.588  24.547  25.807  1.00  0.00     0.022 C 
BRANCH   8  11
ATOM     11  C   UNL A   1      30.342  25.645  25.916  1.00  0.00     0.116 C 
BRANCH  11  12
ATOM     12  C   UNL A   1      31.125  26.940  26.170  1.00  0.00     0.223 C 
ATOM     13  O   UNL A   1      31.402  27.275  27.327  1.00  0.00    -0.275 OA
BRANCH  12  14
ATOM     14  N   UNL A   1      31.606  27.681  25.115  1.00  0.00    -0.342 N 
ATOM     15  C   UNL A   1      32.979  26.551  22.732  1.00  0.00     0.013 C 
ATOM     16  C   UNL A   1      32.982  28.002  23.260  1.00  0.00    -0.016 C 
ATOM     17  C   UNL A   1      34.192  28.730  22.684  1.00  0.00     0.013 C 
ATOM     18  C   UNL A   1      31.629  28.668  22.952  1.00  0.00     0.030 C 
ATOM     19  C   UNL A   1      32.955  28.092  24.792  1.00  0.00     0.126 C 
ATOM     20  C   UNL A   1      30.706  28.125  24.055  1.00  0.00     0.120 C 
ENDBRANCH  12  14
ENDBRANCH  11  12
ENDBRANCH   8  11
ENDBRANCH   5   8
ENDBRANCH   3   4
ENDBRANCH   2   3
ENDBRANCH   1   2
BRANCH   1  21
ATOM     21  C   UNL A   1      35.572  20.945  24.983  1.00  0.00     0.002 C 
BRANCH  21  22
ATOM     22  C   UNL A   1      35.536  22.344  25.604  1.00  0.00     0.021 C 
BRANCH  22  23
ATOM     23  C   UNL A   1      36.876  23.069  25.655  1.00  0.00     0.116 C 
BRANCH  23  24
ATOM     24  N   UNL A   1      37.973  22.176  25.977  1.00  0.00    -0.352 N 
ATOM     25  C   UNL A   1      39.237  22.473  26.422  1.00  0.00     0.251 C 
ATOM     26  H   UNL A   1      37.784  21.217  25.857  1.00  0.00     0.163 HD
ATOM     27  O   UNL A   1      40.091  21.595  26.456  1.00  0.00    -0.269 OA
BRANCH  25  28
ATOM     28  C   UNL A   1      39.569  23.856  26.832  1.00  0.00     0.039 A 
ATOM     29  C   UNL A   1      39.377  24.223  28.165  1.00  0.00     0.014 A 
ATOM     30  C   UNL A   1      40.059  24.788  25.911  1.00  0.00     0.014 A 
ATOM     31  C   UNL A   1      39.727  25.508  28.587  1.00  0.00     0.010 A 
ATOM     32  C   UNL A   1      40.476  26.044  26.350  1.00  0.00     0.010 A 
ATOM     33  C   UNL A   1      40.312  26.418  27.691  1.00  0.00    -0.014 A 
BRANCH  33  34
ATOM     34  C   UNL A   1      40.760  27.760  28.153  1.00  0.00     0.031 A 
ATOM     35  C   UNL A   1      42.223  28.115  28.147  1.00  0.00     0.074 A 
ATOM     36  C   UNL A   1      39.849  28.637  28.622  1.00  0.00     0.049 A 
ATOM     37  N   UNL A   1      42.807  29.215  28.549  1.00  0.00    -0.248 NA
ATOM     38  C   UNL A   1      43.154  27.091  27.649  1.00  0.00     0.031 C 
ATOM     39  C   UNL A   1      38.409  28.386  28.718  1.00  0.00     0.029 A 
ATOM     40  N   UNL A   1      39.993  29.911  29.113  1.00  0.00    -0.354 N 
ATOM     41  C   UNL A   1      44.171  29.010  28.369  1.00  0.00     0.074 A 
ATOM     42  C   UNL A   1      44.330  27.663  27.868  1.00  0.00     0.031 C 
ATOM     43  C   UNL A   1      37.803  29.477  29.212  1.00  0.00     0.029 A 
ATOM     44  C   UNL A   1      38.810  30.487  29.517  1.00  0.00     0.049 A 
ATOM     45  H   UNL A   1      40.862  30.370  29.170  1.00  0.00     0.167 HD
ATOM     46  C   UNL A   1      45.192  29.875  28.590  1.00  0.00     0.034 A 
ATOM     47  C   UNL A   1      38.565  31.686  30.086  1.00  0.00     0.034 A 
ATOM     48  C   UNL A   1      45.011  31.223  29.069  1.00  0.00     0.049 A 
ATOM     49  C   UNL A   1      39.724  32.622  30.328  1.00  0.00     0.074 A 
ATOM     50  C   UNL A   1      45.969  32.208  29.244  1.00  0.00     0.029 A 
ATOM     51  N   UNL A   1      43.799  31.775  29.465  1.00  0.00    -0.354 N 
ATOM     52  N   UNL A   1      41.000  32.441  30.076  1.00  0.00    -0.248 NA
ATOM     53  C   UNL A   1      39.408  33.930  30.917  1.00  0.00     0.031 C 
ATOM     54  C   UNL A   1      45.352  33.320  29.825  1.00  0.00     0.029 A 
ATOM     55  C   UNL A   1      43.993  33.068  29.926  1.00  0.00     0.049 A 
ATOM     56  H   UNL A   1      42.930  31.315  29.423  1.00  0.00     0.167 HD
ATOM     57  C   UNL A   1      41.632  33.624  30.447  1.00  0.00     0.074 A 
ATOM     58  C   UNL A   1      40.594  34.518  30.917  1.00  0.00     0.031 C 
ATOM     59  C   UNL A   1      42.951  33.946  30.402  1.00  0.00     0.034 A 
BRANCH  46  60
ATOM     60  C   UNL A   1      46.599  29.382  28.348  1.00  0.00     0.023 A 
ATOM     61  C   UNL A   1      47.054  29.012  27.071  1.00  0.00     0.031 A 
ATOM     62  C   UNL A   1      47.508  29.296  29.419  1.00  0.00     0.131 A 
ATOM     63  C   UNL A   1      48.359  28.523  26.906  1.00  0.00     0.055 A 
ATOM     64  C   UNL A   1      48.829  28.883  29.236  1.00  0.00     0.041 A 
ATOM     65  F   UNL A   1      47.127  29.614  30.667  1.00  0.00    -0.206 F 
ATOM     66  C   UNL A   1      49.259  28.482  27.975  1.00  0.00     0.022 A 
BRANCH  63  67
ATOM     67  S   UNL A   1      48.830  27.826  25.299  1.00  0.00     0.124 S 
ATOM     68  O   UNL A   1      47.763  28.327  24.437  1.00  0.00    -0.237 OA
ATOM     69  O   UNL A   1      50.151  28.403  25.080  1.00  0.00    -0.237 OA
ATOM     70  O   UNL A   1      48.809  26.383  25.531  1.00  0.00    -0.744 OA
ENDBRANCH  63  67
ENDBRANCH  46  60
BRANCH  47  71
ATOM     71  C   UNL A   1      37.181  32.067  30.496  1.00  0.00     0.023 A 
ATOM     72  C   UNL A   1      36.293  32.667  29.590  1.00  0.00     0.031 A 
ATOM     73  C   UNL A   1      36.748  31.900  31.824  1.00  0.00     0.131 A 
ATOM     74  C   UNL A   1      35.048  33.139  30.036  1.00  0.00     0.055 A 
ATOM     75  C   UNL A   1      35.483  32.309  32.248  1.00  0.00     0.041 A 
ATOM     76  F   UNL A   1      37.554  31.332  32.736  1.00  0.00    -0.206 F 
ATOM     77  C   UNL A   1      34.630  32.949  31.355  1.00  0.00     0.022 A 
BRANCH  74  78
ATOM     78  S   UNL A   1      34.030  34.116  28.895  1.00  0.00     0.124 S 
ATOM     79  O   UNL A   1      34.999  35.080  28.386  1.00  0.00    -0.237 OA
ATOM     80  O   UNL A   1      33.577  33.100  27.950  1.00  0.00    -0.237 OA
ATOM     81  O   UNL A   1      32.989  34.671  29.758  1.00  0.00    -0.744 OA
ENDBRANCH  74  78
ENDBRANCH  47  71
BRANCH  59  82
ATOM     82  C   UNL A   1      43.332  35.342  30.835  1.00  0.00     0.023 A 
ATOM     83  C   UNL A   1      43.390  36.411  29.925  1.00  0.00     0.031 A 
ATOM     84  C   UNL A   1      43.658  35.601  32.179  1.00  0.00     0.131 A 
ATOM     85  C   UNL A   1      43.827  37.674  30.355  1.00  0.00     0.055 A 
ATOM     86  C   UNL A   1      44.023  36.875  32.616  1.00  0.00     0.041 A 
ATOM     87  F   UNL A   1      43.624  34.617  33.093  1.00  0.00    -0.206 F 
ATOM     88  C   UNL A   1      44.124  37.916  31.698  1.00  0.00     0.022 A 
BRANCH  85  89
ATOM     89  S   UNL A   1      44.107  38.967  29.116  1.00  0.00     0.124 S 
ATOM     90  O   UNL A   1      42.905  39.783  29.253  1.00  0.00    -0.237 OA
ATOM     91  O   UNL A   1      45.348  39.579  29.579  1.00  0.00    -0.237 OA
ATOM     92  O   UNL A   1      44.213  38.224  27.862  1.00  0.00    -0.744 OA
ENDBRANCH  85  89
ENDBRANCH  59  82
ENDBRANCH  33  34
ENDBRANCH  25  28
ENDBRANCH  23  24
ENDBRANCH  22  23
ENDBRANCH  21  22
ENDBRANCH   1  21
TORSDOF 19
ENDMDL
MODEL 3
REMARK VINA RESULT:     -11.0      2.106      3.583
REMARK SMILES CC1(C)CCN(C(=O)CC(C)(C)C(=O)NCCCCCCNC(=O)c2ccc(-c3c4nc(c(-c5cc(S(=O)(=O)[O-])ccc5F)c5ccc([nH]5)c(-c5cc(S(=O)(=O)[O-])ccc5F)c5nc(c(-c6cc(S(=O)(=O)[O-])ccc6F)c6ccc3[nH]6)C=C5)C=C4)cc2)C1
REMARK SMILES IDX 18 1 17 2 16 3 15 4 13 5 14 6 10 8 11 9 12 10 9 11 7 12 8 13
REMARK SMILES IDX 6 14 1 15 2 16 3 17 4 18 88 19 5 20 19 21 20 22 21 23 22 24
REMARK SMILES IDX 23 25 24 27 25 28 26 29 87 30 27 31 86 32 28 33 29 34 30 35
REMARK SMILES IDX 80 36 31 37 85 38 79 39 81 40 32 41 84 42 78 43 77 44 33 46
REMARK SMILES IDX 65 47 45 48 64 49 46 50 49 51 63 52 82 53 47 54 48 55 62 57
REMARK SMILES IDX 83 58 50 59 34 60 35 61 43 62 36 63 42 64 44 65 41 66 37 67
REMARK SMILES IDX 38 68 39 69 40 70 66 71 67 72 75 73 68 74 74 75 76 76 73 77
REMARK SMILES IDX 69 78 70 79 71 80 72 81 51 82 52 83 60 84 53 85 59 86 61 87
REMARK SMILES IDX 58 88 54 89 55 90 56 91 57 92
REMARK H PARENT 15 7 22 26 81 45 49 56
REMARK Flexibility Score: inf
ROOT
ATOM      1  C   UNL A   1      32.859  29.433  25.465  1.00  0.00     0.002 C 
ENDROOT
BRANCH   1   2
ATOM      2  C   UNL A   1      33.188  29.055  24.023  1.00  0.00     0.021 C 
BRANCH   2   3
ATOM      3  C   UNL A   1      32.075  28.341  23.272  1.00  0.00     0.116 C 
BRANCH   3   4
ATOM      4  N   UNL A   1      32.548  27.664  22.083  1.00  0.00    -0.356 N 
ATOM      5  C   UNL A   1      32.864  26.363  21.835  1.00  0.00     0.226 C 
ATOM      6  O   UNL A   1      33.314  26.136  20.711  1.00  0.00    -0.274 OA
ATOM      7  H   UNL A   1      32.663  28.257  21.306  1.00  0.00     0.163 HD
BRANCH   5   8
ATOM      8  C   UNL A   1      32.759  25.263  22.911  1.00  0.00     0.052 C 
ATOM      9  C   UNL A   1      31.345  25.130  23.482  1.00  0.00     0.022 C 
ATOM     10  C   UNL A   1      33.714  25.626  24.068  1.00  0.00     0.022 C 
BRANCH   8  11
ATOM     11  C   UNL A   1      33.226  23.871  22.352  1.00  0.00     0.116 C 
BRANCH  11  12
ATOM     12  C   UNL A   1      34.367  23.094  23.024  1.00  0.00     0.223 C 
ATOM     13  O   UNL A   1      35.525  23.225  22.612  1.00  0.00    -0.275 OA
BRANCH  12  14
ATOM     14  N   UNL A   1      34.125  22.329  24.141  1.00  0.00    -0.342 N 
ATOM     15  C   UNL A   1      32.371  23.134  26.403  1.00  0.00     0.013 C 
ATOM     16  C   UNL A   1      33.465  22.045  26.359  1.00  0.00    -0.016 C 
ATOM     17  C   UNL A   1      33.902  21.733  27.787  1.00  0.00     0.013 C 
ATOM     18  C   UNL A   1      32.954  20.829  25.567  1.00  0.00     0.030 C 
ATOM     19  C   UNL A   1      34.665  22.423  25.480  1.00  0.00     0.126 C 
ATOM     20  C   UNL A   1      33.133  21.259  24.102  1.00  0.00     0.120 C 
ENDBRANCH  12  14
ENDBRANCH  11  12
ENDBRANCH   8  11
ENDBRANCH   5   8
ENDBRANCH   3   4
ENDBRANCH   2   3
ENDBRANCH   1   2
BRANCH   1  21
ATOM     21  C   UNL A   1      31.647  30.351  25.645  1.00  0.00     0.002 C 
BRANCH  21  22
ATOM     22  C   UNL A   1      31.700  31.293  26.851  1.00  0.00     0.021 C 
BRANCH  22  23
ATOM     23  C   UNL A   1      32.941  32.175  26.935  1.00  0.00     0.116 C 
BRANCH  23  24
ATOM     24  N   UNL A   1      32.623  33.537  27.322  1.00  0.00    -0.352 N 
ATOM     25  C   UNL A   1      33.121  34.289  28.356  1.00  0.00     0.251 C 
ATOM     26  H   UNL A   1      31.950  33.987  26.760  1.00  0.00     0.163 HD
ATOM     27  O   UNL A   1      32.590  35.355  28.641  1.00  0.00    -0.269 OA
BRANCH  25  28
ATOM     28  C   UNL A   1      34.278  33.795  29.136  1.00  0.00     0.039 A 
ATOM     29  C   UNL A   1      34.050  32.875  30.161  1.00  0.00     0.014 A 
ATOM     30  C   UNL A   1      35.577  34.238  28.867  1.00  0.00     0.014 A 
ATOM     31  C   UNL A   1      35.129  32.358  30.881  1.00  0.00     0.010 A 
ATOM     32  C   UNL A   1      36.658  33.666  29.536  1.00  0.00     0.010 A 
ATOM     33  C   UNL A   1      36.446  32.722  30.552  1.00  0.00    -0.014 A 
BRANCH  33  34
ATOM     34  C   UNL A   1      37.604  32.115  31.261  1.00  0.00     0.031 A 
ATOM     35  C   UNL A   1      38.394  31.008  30.616  1.00  0.00     0.074 A 
ATOM     36  C   UNL A   1      37.909  32.531  32.508  1.00  0.00     0.049 A 
ATOM     37  N   UNL A   1      39.406  30.330  31.094  1.00  0.00    -0.248 NA
ATOM     38  C   UNL A   1      37.977  30.591  29.269  1.00  0.00     0.031 C 
ATOM     39  C   UNL A   1      37.186  33.565  33.252  1.00  0.00     0.029 A 
ATOM     40  N   UNL A   1      38.899  32.136  33.373  1.00  0.00    -0.354 N 
ATOM     41  C   UNL A   1      39.735  29.396  30.115  1.00  0.00     0.074 A 
ATOM     42  C   UNL A   1      38.784  29.565  29.039  1.00  0.00     0.031 C 
ATOM     43  C   UNL A   1      37.769  33.738  34.449  1.00  0.00     0.029 A 
ATOM     44  C   UNL A   1      38.875  32.795  34.582  1.00  0.00     0.049 A 
ATOM     45  H   UNL A   1      39.564  31.445  33.151  1.00  0.00     0.167 HD
ATOM     46  C   UNL A   1      40.747  28.494  30.114  1.00  0.00     0.034 A 
ATOM     47  C   UNL A   1      39.644  32.645  35.680  1.00  0.00     0.034 A 
ATOM     48  C   UNL A   1      41.700  28.357  31.188  1.00  0.00     0.049 A 
ATOM     49  C   UNL A   1      40.756  31.626  35.651  1.00  0.00     0.074 A 
ATOM     50  C   UNL A   1      42.814  27.536  31.249  1.00  0.00     0.029 A 
ATOM     51  N   UNL A   1      41.648  29.043  32.395  1.00  0.00    -0.354 N 
ATOM     52  N   UNL A   1      41.103  30.807  34.684  1.00  0.00    -0.248 NA
ATOM     53  C   UNL A   1      41.590  31.520  36.855  1.00  0.00     0.031 C 
ATOM     54  C   UNL A   1      43.381  27.661  32.521  1.00  0.00     0.029 A 
ATOM     55  C   UNL A   1      42.681  28.629  33.223  1.00  0.00     0.049 A 
ATOM     56  H   UNL A   1      40.977  29.724  32.628  1.00  0.00     0.167 HD
ATOM     57  C   UNL A   1      42.214  30.114  35.154  1.00  0.00     0.074 A 
ATOM     58  C   UNL A   1      42.493  30.627  36.480  1.00  0.00     0.031 C 
ATOM     59  C   UNL A   1      42.942  29.141  34.547  1.00  0.00     0.034 A 
BRANCH  46  60
ATOM     60  C   UNL A   1      40.860  27.561  28.932  1.00  0.00     0.023 A 
ATOM     61  C   UNL A   1      41.813  27.752  27.916  1.00  0.00     0.031 A 
ATOM     62  C   UNL A   1      40.004  26.449  28.829  1.00  0.00     0.131 A 
ATOM     63  C   UNL A   1      41.850  26.879  26.818  1.00  0.00     0.055 A 
ATOM     64  C   UNL A   1      40.098  25.539  27.774  1.00  0.00     0.041 A 
ATOM     65  F   UNL A   1      39.059  26.226  29.756  1.00  0.00    -0.206 F 
ATOM     66  C   UNL A   1      41.019  25.758  26.754  1.00  0.00     0.022 A 
BRANCH  63  67
ATOM     67  S   UNL A   1      42.920  27.294  25.413  1.00  0.00     0.124 S 
ATOM     68  O   UNL A   1      42.156  28.357  24.765  1.00  0.00    -0.237 OA
ATOM     69  O   UNL A   1      44.156  27.704  26.068  1.00  0.00    -0.237 OA
ATOM     70  O   UNL A   1      42.998  26.044  24.659  1.00  0.00    -0.744 OA
ENDBRANCH  63  67
ENDBRANCH  46  60
BRANCH  47  71
ATOM     71  C   UNL A   1      39.381  33.450  36.911  1.00  0.00     0.023 A 
ATOM     72  C   UNL A   1      40.050  34.661  37.144  1.00  0.00     0.031 A 
ATOM     73  C   UNL A   1      38.506  32.982  37.908  1.00  0.00     0.131 A 
ATOM     74  C   UNL A   1      39.886  35.328  38.369  1.00  0.00     0.055 A 
ATOM     75  C   UNL A   1      38.294  33.682  39.096  1.00  0.00     0.041 A 
ATOM     76  F   UNL A   1      37.838  31.829  37.739  1.00  0.00    -0.206 F 
ATOM     77  C   UNL A   1      39.000  34.855  39.340  1.00  0.00     0.022 A 
BRANCH  74  78
ATOM     78  S   UNL A   1      40.943  36.759  38.727  1.00  0.00     0.124 S 
ATOM     79  O   UNL A   1      41.643  36.933  37.460  1.00  0.00    -0.237 OA
ATOM     80  O   UNL A   1      39.960  37.784  39.063  1.00  0.00    -0.237 OA
ATOM     81  O   UNL A   1      41.771  36.300  39.841  1.00  0.00    -0.744 OA
ENDBRANCH  74  78
ENDBRANCH  47  71
BRANCH  59  82
ATOM     82  C   UNL A   1      44.136  28.605  35.300  1.00  0.00     0.023 A 
ATOM     83  C   UNL A   1      44.023  27.543  36.212  1.00  0.00     0.031 A 
ATOM     84  C   UNL A   1      45.407  29.180  35.110  1.00  0.00     0.131 A 
ATOM     85  C   UNL A   1      45.144  27.130  36.949  1.00  0.00     0.055 A 
ATOM     86  C   UNL A   1      46.533  28.718  35.793  1.00  0.00     0.041 A 
ATOM     87  F   UNL A   1      45.575  30.201  34.254  1.00  0.00    -0.206 F 
ATOM     88  C   UNL A   1      46.401  27.698  36.731  1.00  0.00     0.022 A 
BRANCH  85  89
ATOM     89  S   UNL A   1      44.914  25.916  38.276  1.00  0.00     0.124 S 
ATOM     90  O   UNL A   1      46.253  25.348  38.402  1.00  0.00    -0.237 OA
ATOM     91  O   UNL A   1      44.470  26.750  39.388  1.00  0.00    -0.237 OA
ATOM     92  O   UNL A   1      43.903  25.008  37.740  1.00  0.00    -0.744 OA
ENDBRANCH  85  89
ENDBRANCH  59  82
ENDBRANCH  33  34
ENDBRANCH  25  28
ENDBRANCH  23  24
ENDBRANCH  22  23
ENDBRANCH  21  22
ENDBRANCH   1  21
TORSDOF 19
ENDMDL
