MODEL 1
REMARK VINA RESULT:     -11.8      0.000      0.000
REMARK SMILES COc1ccc(CSc2ncccc2C(=O)NCCCCCCNC(=O)c2ccc(-c3c4nc(c(-c5cc(S(=O)(=O)[O-])ccc5F)c5ccc([nH]5)c(-c5cc(S(=O)(=O)[O-])ccc5F)c5nc(c(-c6cc(S(=O)(=O)[O-])ccc6F)c6ccc3[nH]6)C=C5)C=C4)cc2)cc1
REMARK SMILES IDX 20 1 19 2 18 3 17 4 15 5 16 6 14 8 9 9 10 10 11 11 13 12
REMARK SMILES IDX 12 13 8 14 7 15 6 16 3 17 4 18 91 19 5 20 90 21 2 22 1 23
REMARK SMILES IDX 21 24 22 25 23 26 24 27 25 28 26 30 27 31 28 32 89 33 29 34
REMARK SMILES IDX 88 35 30 36 31 37 32 38 82 39 33 40 87 41 81 42 83 43 34 44
REMARK SMILES IDX 86 45 80 46 79 47 35 49 67 50 47 51 66 52 48 53 51 54 65 55
REMARK SMILES IDX 84 56 49 57 50 58 64 60 85 61 52 62 36 63 37 64 45 65 38 66
REMARK SMILES IDX 44 67 46 68 43 69 39 70 40 71 41 72 42 73 68 74 69 75 77 76
REMARK SMILES IDX 70 77 76 78 78 79 75 80 71 81 72 82 73 83 74 84 53 85 54 86
REMARK SMILES IDX 62 87 55 88 61 89 63 90 60 91 56 92 57 93 58 94 59 95
REMARK H PARENT 17 7 24 29 83 48 51 59
REMARK Flexibility Score: inf
ROOT
ATOM      1  C   UNL A   1      32.334  29.742  27.087  1.00  0.00     0.002 C 
ENDROOT
BRANCH   1   2
ATOM      2  C   UNL A   1      31.638  28.430  27.491  1.00  0.00     0.021 C 
BRANCH   2   3
ATOM      3  C   UNL A   1      31.552  27.425  26.337  1.00  0.00     0.116 C 
BRANCH   3   4
ATOM      4  N   UNL A   1      31.231  26.123  26.897  1.00  0.00    -0.352 N 
ATOM      5  C   UNL A   1      31.393  24.858  26.380  1.00  0.00     0.254 C 
ATOM      6  O   UNL A   1      30.551  24.017  26.677  1.00  0.00    -0.269 OA
ATOM      7  H   UNL A   1      30.832  26.150  27.797  1.00  0.00     0.163 HD
BRANCH   5   8
ATOM      8  C   UNL A   1      32.583  24.483  25.587  1.00  0.00     0.072 A 
ATOM      9  C   UNL A   1      32.531  24.367  24.188  1.00  0.00     0.109 A 
ATOM     10  N   UNL A   1      33.631  24.006  23.464  1.00  0.00    -0.249 NA
ATOM     11  C   UNL A   1      34.794  23.785  24.107  1.00  0.00     0.112 A 
ATOM     12  C   UNL A   1      33.830  24.311  26.208  1.00  0.00     0.018 A 
ATOM     13  C   UNL A   1      34.946  23.935  25.468  1.00  0.00     0.021 A 
BRANCH   9  14
ATOM     14  S   UNL A   1      31.196  24.813  23.087  1.00  0.00    -0.101 SA
BRANCH  14  15
ATOM     15  C   UNL A   1      31.566  26.506  22.549  1.00  0.00     0.112 C 
BRANCH  15  16
ATOM     16  C   UNL A   1      30.470  27.518  22.756  1.00  0.00    -0.037 A 
ATOM     17  C   UNL A   1      28.389  29.399  22.984  1.00  0.00     0.118 A 
ATOM     18  C   UNL A   1      28.198  28.080  23.397  1.00  0.00     0.047 A 
ATOM     19  C   UNL A   1      29.629  29.785  22.477  1.00  0.00     0.047 A 
ATOM     20  C   UNL A   1      29.225  27.142  23.276  1.00  0.00     0.008 A 
ATOM     21  C   UNL A   1      30.659  28.848  22.359  1.00  0.00     0.008 A 
BRANCH  17  22
ATOM     22  O   UNL A   1      27.308  30.221  23.146  1.00  0.00    -0.497 OA
ATOM     23  C   UNL A   1      27.604  31.586  23.419  1.00  0.00     0.278 C 
ENDBRANCH  17  22
ENDBRANCH  15  16
ENDBRANCH  14  15
ENDBRANCH   9  14
ENDBRANCH   5   8
ENDBRANCH   3   4
ENDBRANCH   2   3
ENDBRANCH   1   2
BRANCH   1  24
ATOM     24  C   UNL A   1      31.515  30.630  26.144  1.00  0.00     0.002 C 
BRANCH  24  25
ATOM     25  C   UNL A   1      31.434  32.097  26.568  1.00  0.00     0.021 C 
BRANCH  25  26
ATOM     26  C   UNL A   1      32.687  32.603  27.272  1.00  0.00     0.116 C 
BRANCH  26  27
ATOM     27  N   UNL A   1      32.537  33.986  27.692  1.00  0.00    -0.352 N 
ATOM     28  C   UNL A   1      33.175  34.644  28.716  1.00  0.00     0.251 C 
ATOM     29  H   UNL A   1      31.893  34.523  27.174  1.00  0.00     0.163 HD
ATOM     30  O   UNL A   1      32.757  35.723  29.110  1.00  0.00    -0.269 OA
BRANCH  28  31
ATOM     31  C   UNL A   1      34.360  34.016  29.340  1.00  0.00     0.039 A 
ATOM     32  C   UNL A   1      35.636  34.370  28.899  1.00  0.00     0.014 A 
ATOM     33  C   UNL A   1      34.200  33.087  30.373  1.00  0.00     0.014 A 
ATOM     34  C   UNL A   1      36.757  33.828  29.530  1.00  0.00     0.010 A 
ATOM     35  C   UNL A   1      35.316  32.610  31.051  1.00  0.00     0.010 A 
ATOM     36  C   UNL A   1      36.607  32.966  30.629  1.00  0.00    -0.014 A 
BRANCH  36  37
ATOM     37  C   UNL A   1      37.781  32.392  31.334  1.00  0.00     0.031 A 
ATOM     38  C   UNL A   1      38.527  31.240  30.714  1.00  0.00     0.074 A 
ATOM     39  C   UNL A   1      38.131  32.853  32.550  1.00  0.00     0.049 A 
ATOM     40  N   UNL A   1      39.496  30.515  31.211  1.00  0.00    -0.248 NA
ATOM     41  C   UNL A   1      38.097  30.828  29.369  1.00  0.00     0.031 C 
ATOM     42  C   UNL A   1      37.469  33.947  33.262  1.00  0.00     0.029 A 
ATOM     43  N   UNL A   1      39.122  32.451  33.410  1.00  0.00    -0.354 N 
ATOM     44  C   UNL A   1      39.780  29.552  30.247  1.00  0.00     0.074 A 
ATOM     45  C   UNL A   1      38.833  29.746  29.170  1.00  0.00     0.031 C 
ATOM     46  C   UNL A   1      38.086  34.143  34.439  1.00  0.00     0.029 A 
ATOM     47  C   UNL A   1      39.150  33.156  34.591  1.00  0.00     0.049 A 
ATOM     48  H   UNL A   1      39.755  31.726  33.201  1.00  0.00     0.167 HD
ATOM     49  C   UNL A   1      40.754  28.610  30.251  1.00  0.00     0.034 A 
ATOM     50  C   UNL A   1      39.930  33.010  35.681  1.00  0.00     0.034 A 
ATOM     51  C   UNL A   1      41.696  28.442  31.330  1.00  0.00     0.049 A 
ATOM     52  C   UNL A   1      40.984  31.929  35.681  1.00  0.00     0.074 A 
ATOM     53  C   UNL A   1      42.753  27.552  31.422  1.00  0.00     0.029 A 
ATOM     54  N   UNL A   1      41.693  29.175  32.511  1.00  0.00    -0.354 N 
ATOM     55  N   UNL A   1      41.265  31.048  34.747  1.00  0.00    -0.248 NA
ATOM     56  C   UNL A   1      41.832  31.829  36.875  1.00  0.00     0.031 C 
ATOM     57  C   UNL A   1      43.337  27.695  32.685  1.00  0.00     0.029 A 
ATOM     58  C   UNL A   1      42.707  28.735  33.348  1.00  0.00     0.049 A 
ATOM     59  H   UNL A   1      41.063  29.901  32.722  1.00  0.00     0.167 HD
ATOM     60  C   UNL A   1      42.348  30.317  35.228  1.00  0.00     0.074 A 
ATOM     61  C   UNL A   1      42.674  30.866  36.528  1.00  0.00     0.031 C 
ATOM     62  C   UNL A   1      43.020  29.291  34.644  1.00  0.00     0.034 A 
BRANCH  49  63
ATOM     63  C   UNL A   1      40.825  27.676  29.065  1.00  0.00     0.023 A 
ATOM     64  C   UNL A   1      41.790  27.836  28.054  1.00  0.00     0.031 A 
ATOM     65  C   UNL A   1      39.895  26.631  28.924  1.00  0.00     0.131 A 
ATOM     66  C   UNL A   1      41.750  27.024  26.911  1.00  0.00     0.055 A 
ATOM     67  C   UNL A   1      39.919  25.766  27.827  1.00  0.00     0.041 A 
ATOM     68  F   UNL A   1      38.936  26.440  29.842  1.00  0.00    -0.206 F 
ATOM     69  C   UNL A   1      40.839  25.971  26.804  1.00  0.00     0.022 A 
BRANCH  66  70
ATOM     70  S   UNL A   1      42.799  27.466  25.499  1.00  0.00     0.124 S 
ATOM     71  O   UNL A   1      41.988  28.488  24.840  1.00  0.00    -0.237 OA
ATOM     72  O   UNL A   1      44.018  27.937  26.147  1.00  0.00    -0.237 OA
ATOM     73  O   UNL A   1      42.927  26.213  24.761  1.00  0.00    -0.744 OA
ENDBRANCH  66  70
ENDBRANCH  49  63
BRANCH  50  74
ATOM     74  C   UNL A   1      39.746  33.893  36.869  1.00  0.00     0.023 A 
ATOM     75  C   UNL A   1      39.162  33.406  38.048  1.00  0.00     0.031 A 
ATOM     76  C   UNL A   1      40.108  35.252  36.827  1.00  0.00     0.131 A 
ATOM     77  C   UNL A   1      38.909  34.279  39.119  1.00  0.00     0.055 A 
ATOM     78  C   UNL A   1      39.909  36.103  37.916  1.00  0.00     0.041 A 
ATOM     79  F   UNL A   1      40.673  35.771  35.726  1.00  0.00    -0.206 F 
ATOM     80  C   UNL A   1      39.292  35.620  39.066  1.00  0.00     0.022 A 
BRANCH  77  81
ATOM     81  S   UNL A   1      37.981  33.655  40.547  1.00  0.00     0.124 S 
ATOM     82  O   UNL A   1      36.754  33.181  39.918  1.00  0.00    -0.237 OA
ATOM     83  O   UNL A   1      38.877  32.626  41.063  1.00  0.00    -0.237 OA
ATOM     84  O   UNL A   1      37.833  34.834  41.397  1.00  0.00    -0.744 OA
ENDBRANCH  77  81
ENDBRANCH  50  74
BRANCH  62  85
ATOM     85  C   UNL A   1      44.214  28.737  35.383  1.00  0.00     0.023 A 
ATOM     86  C   UNL A   1      44.084  27.774  36.398  1.00  0.00     0.031 A 
ATOM     87  C   UNL A   1      45.508  29.186  35.060  1.00  0.00     0.131 A 
ATOM     88  C   UNL A   1      45.222  27.330  37.089  1.00  0.00     0.055 A 
ATOM     89  C   UNL A   1      46.641  28.691  35.705  1.00  0.00     0.041 A 
ATOM     90  F   UNL A   1      45.692  30.109  34.102  1.00  0.00    -0.206 F 
ATOM     91  C   UNL A   1      46.501  27.767  36.735  1.00  0.00     0.022 A 
BRANCH  88  92
ATOM     92  S   UNL A   1      45.000  26.240  38.522  1.00  0.00     0.124 S 
ATOM     93  O   UNL A   1      45.217  24.921  37.937  1.00  0.00    -0.237 OA
ATOM     94  O   UNL A   1      46.036  26.711  39.436  1.00  0.00    -0.237 OA
ATOM     95  O   UNL A   1      43.628  26.512  38.949  1.00  0.00    -0.744 OA
ENDBRANCH  88  92
ENDBRANCH  62  85
ENDBRANCH  36  37
ENDBRANCH  28  31
ENDBRANCH  26  27
ENDBRANCH  25  26
ENDBRANCH  24  25
ENDBRANCH   1  24
TORSDOF 20
ENDMDL
MODEL 2
REMARK VINA RESULT:     -11.3      1.709      3.650
REMARK SMILES COc1ccc(CSc2ncccc2C(=O)NCCCCCCNC(=O)c2ccc(-c3c4nc(c(-c5cc(S(=O)(=O)[O-])ccc5F)c5ccc([nH]5)c(-c5cc(S(=O)(=O)[O-])ccc5F)c5nc(c(-c6cc(S(=O)(=O)[O-])ccc6F)c6ccc3[nH]6)C=C5)C=C4)cc2)cc1
REMARK SMILES IDX 20 1 19 2 18 3 17 4 15 5 16 6 14 8 9 9 10 10 11 11 13 12
REMARK SMILES IDX 12 13 8 14 7 15 6 16 3 17 4 18 91 19 5 20 90 21 2 22 1 23
REMARK SMILES IDX 21 24 22 25 23 26 24 27 25 28 26 30 27 31 28 32 89 33 29 34
REMARK SMILES IDX 88 35 30 36 31 37 32 38 82 39 33 40 87 41 81 42 83 43 34 44
REMARK SMILES IDX 86 45 80 46 79 47 35 49 67 50 47 51 66 52 48 53 51 54 65 55
REMARK SMILES IDX 84 56 49 57 50 58 64 60 85 61 52 62 36 63 37 64 45 65 38 66
REMARK SMILES IDX 44 67 46 68 43 69 39 70 40 71 41 72 42 73 68 74 69 75 77 76
REMARK SMILES IDX 70 77 76 78 78 79 75 80 71 81 72 82 73 83 74 84 53 85 54 86
REMARK SMILES IDX 62 87 55 88 61 89 63 90 60 91 56 92 57 93 58 94 59 95
REMARK H PARENT 17 7 24 29 83 48 51 59
REMARK Flexibility Score: inf
ROOT
ATOM      1  C   UNL A   1      32.435  29.889  27.055  1.00  0.00     0.002 C 
ENDROOT
BRANCH   1   2
ATOM      2  C   UNL A   1      33.867  29.675  26.534  1.00  0.00     0.021 C 
BRANCH   2   3
ATOM      3  C   UNL A   1      34.026  28.359  25.763  1.00  0.00     0.116 C 
BRANCH   3   4
ATOM      4  N   UNL A   1      34.068  28.672  24.344  1.00  0.00    -0.352 N 
ATOM      5  C   UNL A   1      33.405  28.106  23.280  1.00  0.00     0.254 C 
ATOM      6  O   UNL A   1      33.999  28.060  22.207  1.00  0.00    -0.269 OA
ATOM      7  H   UNL A   1      34.670  29.413  24.105  1.00  0.00     0.163 HD
BRANCH   5   8
ATOM      8  C   UNL A   1      31.997  27.664  23.378  1.00  0.00     0.072 A 
ATOM      9  C   UNL A   1      31.661  26.335  23.678  1.00  0.00     0.109 A 
ATOM     10  N   UNL A   1      30.357  25.932  23.753  1.00  0.00    -0.249 NA
ATOM     11  C   UNL A   1      29.380  26.840  23.563  1.00  0.00     0.112 A 
ATOM     12  C   UNL A   1      30.948  28.590  23.257  1.00  0.00     0.018 A 
ATOM     13  C   UNL A   1      29.623  28.174  23.325  1.00  0.00     0.021 A 
BRANCH   9  14
ATOM     14  S   UNL A   1      32.740  25.004  24.184  1.00  0.00    -0.101 SA
BRANCH  14  15
ATOM     15  C   UNL A   1      32.449  23.670  22.989  1.00  0.00     0.112 C 
BRANCH  15  16
ATOM     16  C   UNL A   1      32.797  22.281  23.454  1.00  0.00    -0.037 A 
ATOM     17  C   UNL A   1      33.354  19.710  24.455  1.00  0.00     0.118 A 
ATOM     18  C   UNL A   1      32.444  19.881  23.411  1.00  0.00     0.047 A 
ATOM     19  C   UNL A   1      34.004  20.823  24.985  1.00  0.00     0.047 A 
ATOM     20  C   UNL A   1      32.158  21.156  22.919  1.00  0.00     0.008 A 
ATOM     21  C   UNL A   1      33.722  22.099  24.491  1.00  0.00     0.008 A 
BRANCH  17  22
ATOM     22  O   UNL A   1      33.544  18.416  24.855  1.00  0.00    -0.497 OA
ATOM     23  C   UNL A   1      34.080  17.537  23.872  1.00  0.00     0.278 C 
ENDBRANCH  17  22
ENDBRANCH  15  16
ENDBRANCH  14  15
ENDBRANCH   9  14
ENDBRANCH   5   8
ENDBRANCH   3   4
ENDBRANCH   2   3
ENDBRANCH   1   2
BRANCH   1  24
ATOM     24  C   UNL A   1      31.587  30.840  26.204  1.00  0.00     0.002 C 
BRANCH  24  25
ATOM     25  C   UNL A   1      31.432  32.245  26.789  1.00  0.00     0.021 C 
BRANCH  25  26
ATOM     26  C   UNL A   1      32.747  32.873  27.234  1.00  0.00     0.116 C 
BRANCH  26  27
ATOM     27  N   UNL A   1      32.546  34.219  27.746  1.00  0.00    -0.352 N 
ATOM     28  C   UNL A   1      33.127  34.814  28.839  1.00  0.00     0.251 C 
ATOM     29  H   UNL A   1      31.908  34.777  27.242  1.00  0.00     0.163 HD
ATOM     30  O   UNL A   1      32.666  35.852  29.293  1.00  0.00    -0.269 OA
BRANCH  28  31
ATOM     31  C   UNL A   1      34.303  34.170  29.463  1.00  0.00     0.039 A 
ATOM     32  C   UNL A   1      35.582  34.481  28.999  1.00  0.00     0.014 A 
ATOM     33  C   UNL A   1      34.132  33.270  30.519  1.00  0.00     0.014 A 
ATOM     34  C   UNL A   1      36.697  33.924  29.629  1.00  0.00     0.010 A 
ATOM     35  C   UNL A   1      35.244  32.779  31.194  1.00  0.00     0.010 A 
ATOM     36  C   UNL A   1      36.538  33.092  30.748  1.00  0.00    -0.014 A 
BRANCH  36  37
ATOM     37  C   UNL A   1      37.706  32.503  31.453  1.00  0.00     0.031 A 
ATOM     38  C   UNL A   1      38.447  31.353  30.824  1.00  0.00     0.074 A 
ATOM     39  C   UNL A   1      38.055  32.951  32.674  1.00  0.00     0.049 A 
ATOM     40  N   UNL A   1      39.409  30.617  31.318  1.00  0.00    -0.248 NA
ATOM     41  C   UNL A   1      38.019  30.956  29.474  1.00  0.00     0.031 C 
ATOM     42  C   UNL A   1      37.397  34.042  33.394  1.00  0.00     0.029 A 
ATOM     43  N   UNL A   1      39.040  32.535  33.534  1.00  0.00    -0.354 N 
ATOM     44  C   UNL A   1      39.691  29.662  30.346  1.00  0.00     0.074 A 
ATOM     45  C   UNL A   1      38.750  29.872  29.267  1.00  0.00     0.031 C 
ATOM     46  C   UNL A   1      38.010  34.223  34.576  1.00  0.00     0.029 A 
ATOM     47  C   UNL A   1      39.067  33.228  34.722  1.00  0.00     0.049 A 
ATOM     48  H   UNL A   1      39.669  31.808  33.321  1.00  0.00     0.167 HD
ATOM     49  C   UNL A   1      40.660  28.714  30.344  1.00  0.00     0.034 A 
ATOM     50  C   UNL A   1      39.843  33.067  35.814  1.00  0.00     0.034 A 
ATOM     51  C   UNL A   1      41.596  28.529  31.425  1.00  0.00     0.049 A 
ATOM     52  C   UNL A   1      40.889  31.979  35.807  1.00  0.00     0.074 A 
ATOM     53  C   UNL A   1      42.647  27.632  31.513  1.00  0.00     0.029 A 
ATOM     54  N   UNL A   1      41.593  29.251  32.613  1.00  0.00    -0.354 N 
ATOM     55  N   UNL A   1      41.168  31.105  34.866  1.00  0.00    -0.248 NA
ATOM     56  C   UNL A   1      41.732  31.863  37.003  1.00  0.00     0.031 C 
ATOM     57  C   UNL A   1      43.227  27.759  32.779  1.00  0.00     0.029 A 
ATOM     58  C   UNL A   1      42.601  28.797  33.450  1.00  0.00     0.049 A 
ATOM     59  H   UNL A   1      40.967  29.979  32.830  1.00  0.00     0.167 HD
ATOM     60  C   UNL A   1      42.245  30.363  35.344  1.00  0.00     0.074 A 
ATOM     61  C   UNL A   1      42.569  30.898  36.650  1.00  0.00     0.031 C 
ATOM     62  C   UNL A   1      42.912  29.338  34.753  1.00  0.00     0.034 A 
BRANCH  49  63
ATOM     63  C   UNL A   1      40.729  27.791  29.150  1.00  0.00     0.023 A 
ATOM     64  C   UNL A   1      41.663  27.987  28.116  1.00  0.00     0.031 A 
ATOM     65  C   UNL A   1      39.829  26.718  29.024  1.00  0.00     0.131 A 
ATOM     66  C   UNL A   1      41.619  27.182  26.969  1.00  0.00     0.055 A 
ATOM     67  C   UNL A   1      39.851  25.862  27.921  1.00  0.00     0.041 A 
ATOM     68  F   UNL A   1      38.899  26.491  29.965  1.00  0.00    -0.206 F 
ATOM     69  C   UNL A   1      40.738  26.103  26.876  1.00  0.00     0.022 A 
BRANCH  66  70
ATOM     70  S   UNL A   1      42.617  27.667  25.534  1.00  0.00     0.124 S 
ATOM     71  O   UNL A   1      43.914  27.930  26.155  1.00  0.00    -0.237 OA
ATOM     72  O   UNL A   1      42.543  26.483  24.685  1.00  0.00    -0.237 OA
ATOM     73  O   UNL A   1      41.929  28.849  25.021  1.00  0.00    -0.744 OA
ENDBRANCH  66  70
ENDBRANCH  49  63
BRANCH  50  74
ATOM     74  C   UNL A   1      39.659  33.939  37.009  1.00  0.00     0.023 A 
ATOM     75  C   UNL A   1      39.018  33.461  38.162  1.00  0.00     0.031 A 
ATOM     76  C   UNL A   1      40.080  35.282  37.000  1.00  0.00     0.131 A 
ATOM     77  C   UNL A   1      38.770  34.328  39.238  1.00  0.00     0.055 A 
ATOM     78  C   UNL A   1      39.884  36.125  38.095  1.00  0.00     0.041 A 
ATOM     79  F   UNL A   1      40.701  35.792  35.925  1.00  0.00    -0.206 F 
ATOM     80  C   UNL A   1      39.212  35.652  39.218  1.00  0.00     0.022 A 
BRANCH  77  81
ATOM     81  S   UNL A   1      37.772  33.724  40.627  1.00  0.00     0.124 S 
ATOM     82  O   UNL A   1      37.460  34.964  41.328  1.00  0.00    -0.237 OA
ATOM     83  O   UNL A   1      36.659  33.077  39.940  1.00  0.00    -0.237 OA
ATOM     84  O   UNL A   1      38.680  32.819  41.329  1.00  0.00    -0.744 OA
ENDBRANCH  77  81
ENDBRANCH  50  74
BRANCH  62  85
ATOM     85  C   UNL A   1      44.100  28.770  35.491  1.00  0.00     0.023 A 
ATOM     86  C   UNL A   1      43.975  27.707  36.401  1.00  0.00     0.031 A 
ATOM     87  C   UNL A   1      45.383  29.307  35.274  1.00  0.00     0.131 A 
ATOM     88  C   UNL A   1      45.104  27.250  37.099  1.00  0.00     0.055 A 
ATOM     89  C   UNL A   1      46.511  28.804  35.921  1.00  0.00     0.041 A 
ATOM     90  F   UNL A   1      45.561  30.327  34.419  1.00  0.00    -0.206 F 
ATOM     91  C   UNL A   1      46.373  27.777  36.850  1.00  0.00     0.022 A 
BRANCH  88  92
ATOM     92  S   UNL A   1      44.876  26.016  38.410  1.00  0.00     0.124 S 
ATOM     93  O   UNL A   1      43.799  26.606  39.198  1.00  0.00    -0.237 OA
ATOM     94  O   UNL A   1      44.529  24.817  37.653  1.00  0.00    -0.237 OA
ATOM     95  O   UNL A   1      46.179  25.975  39.072  1.00  0.00    -0.744 OA
ENDBRANCH  88  92
ENDBRANCH  62  85
ENDBRANCH  36  37
ENDBRANCH  28  31
ENDBRANCH  26  27
ENDBRANCH  25  26
ENDBRANCH  24  25
ENDBRANCH   1  24
TORSDOF 20
ENDMDL
MODEL 3
REMARK VINA RESULT:     -11.3      5.516      8.345
REMARK SMILES COc1ccc(CSc2ncccc2C(=O)NCCCCCCNC(=O)c2ccc(-c3c4nc(c(-c5cc(S(=O)(=O)[O-])ccc5F)c5ccc([nH]5)c(-c5cc(S(=O)(=O)[O-])ccc5F)c5nc(c(-c6cc(S(=O)(=O)[O-])ccc6F)c6ccc3[nH]6)C=C5)C=C4)cc2)cc1
REMARK SMILES IDX 20 1 19 2 18 3 17 4 15 5 16 6 14 8 9 9 10 10 11 11 13 12
REMARK SMILES IDX 12 13 8 14 7 15 6 16 3 17 4 18 91 19 5 20 90 21 2 22 1 23
REMARK SMILES IDX 21 24 22 25 23 26 24 27 25 28 26 30 27 31 28 32 89 33 29 34
REMARK SMILES IDX 88 35 30 36 31 37 32 38 82 39 33 40 87 41 81 42 83 43 34 44
REMARK SMILES IDX 86 45 80 46 79 47 35 49 67 50 47 51 66 52 48 53 51 54 65 55
REMARK SMILES IDX 84 56 49 57 50 58 64 60 85 61 52 62 36 63 37 64 45 65 38 66
REMARK SMILES IDX 44 67 46 68 43 69 39 70 40 71 41 72 42 73 68 74 69 75 77 76
REMARK SMILES IDX 70 77 76 78 78 79 75 80 71 81 72 82 73 83 74 84 53 85 54 86
REMARK SMILES IDX 62 87 55 88 61 89 63 90 60 91 56 92 57 93 58 94 59 95
REMARK H PARENT 17 7 24 29 83 48 51 59
REMARK Flexibility Score: inf
ROOT
ATOM      1  C   UNL A   1      35.580  22.975  23.191  1.00  0.00     0.002 C 
ENDROOT
BRANCH   1   2
ATOM      2  C   UNL A   1      34.709  24.226  23.397  1.00  0.00     0.021 C 
BRANCH   2   3
ATOM      3  C   UNL A   1      33.665  24.409  22.289  1.00  0.00     0.116 C 
BRANCH   3   4
ATOM      4  N   UNL A   1      32.360  24.535  22.918  1.00  0.00    -0.352 N 
ATOM      5  C   UNL A   1      31.395  23.590  23.178  1.00  0.00     0.254 C 
ATOM      6  O   UNL A   1      30.223  23.951  23.114  1.00  0.00    -0.269 OA
ATOM      7  H   UNL A   1      32.130  25.447  23.207  1.00  0.00     0.163 HD
BRANCH   5   8
ATOM      8  C   UNL A   1      31.736  22.222  23.622  1.00  0.00     0.072 A 
ATOM      9  C   UNL A   1      31.670  21.847  24.974  1.00  0.00     0.109 A 
ATOM     10  N   UNL A   1      32.001  20.584  25.377  1.00  0.00    -0.249 NA
ATOM     11  C   UNL A   1      32.370  19.677  24.452  1.00  0.00     0.112 A 
ATOM     12  C   UNL A   1      32.058  21.227  22.686  1.00  0.00     0.018 A 
ATOM     13  C   UNL A   1      32.403  19.945  23.101  1.00  0.00     0.021 A 
BRANCH   9  14
ATOM     14  S   UNL A   1      31.010  22.773  26.352  1.00  0.00    -0.101 SA
BRANCH  14  15
ATOM     15  C   UNL A   1      32.358  23.863  26.885  1.00  0.00     0.112 C 
BRANCH  15  16
ATOM     16  C   UNL A   1      32.313  25.273  26.357  1.00  0.00    -0.037 A 
ATOM     17  C   UNL A   1      32.263  27.847  25.220  1.00  0.00     0.118 A 
ATOM     18  C   UNL A   1      31.074  27.193  25.544  1.00  0.00     0.047 A 
ATOM     19  C   UNL A   1      33.481  27.223  25.485  1.00  0.00     0.047 A 
ATOM     20  C   UNL A   1      31.095  25.913  26.099  1.00  0.00     0.008 A 
ATOM     21  C   UNL A   1      33.504  25.943  26.044  1.00  0.00     0.008 A 
BRANCH  17  22
ATOM     22  O   UNL A   1      32.113  29.093  24.677  1.00  0.00    -0.497 OA
ATOM     23  C   UNL A   1      31.713  30.118  25.579  1.00  0.00     0.278 C 
ENDBRANCH  17  22
ENDBRANCH  15  16
ENDBRANCH  14  15
ENDBRANCH   9  14
ENDBRANCH   5   8
ENDBRANCH   3   4
ENDBRANCH   2   3
ENDBRANCH   1   2
BRANCH   1  24
ATOM     24  C   UNL A   1      35.400  21.894  24.263  1.00  0.00     0.002 C 
BRANCH  24  25
ATOM     25  C   UNL A   1      35.610  22.383  25.696  1.00  0.00     0.021 C 
BRANCH  25  26
ATOM     26  C   UNL A   1      36.908  23.154  25.899  1.00  0.00     0.116 C 
BRANCH  26  27
ATOM     27  N   UNL A   1      38.032  22.255  26.107  1.00  0.00    -0.352 N 
ATOM     28  C   UNL A   1      39.331  22.570  26.424  1.00  0.00     0.251 C 
ATOM     29  H   UNL A   1      37.836  21.295  26.007  1.00  0.00     0.163 HD
ATOM     30  O   UNL A   1      40.213  21.731  26.310  1.00  0.00    -0.269 OA
BRANCH  28  31
ATOM     31  C   UNL A   1      39.643  23.940  26.885  1.00  0.00     0.039 A 
ATOM     32  C   UNL A   1      39.531  24.248  28.242  1.00  0.00     0.014 A 
ATOM     33  C   UNL A   1      40.061  24.911  25.971  1.00  0.00     0.014 A 
ATOM     34  C   UNL A   1      39.887  25.522  28.689  1.00  0.00     0.010 A 
ATOM     35  C   UNL A   1      40.490  26.151  26.429  1.00  0.00     0.010 A 
ATOM     36  C   UNL A   1      40.396  26.474  27.792  1.00  0.00    -0.014 A 
BRANCH  36  37
ATOM     37  C   UNL A   1      40.804  27.829  28.243  1.00  0.00     0.031 A 
ATOM     38  C   UNL A   1      42.268  28.162  28.361  1.00  0.00     0.074 A 
ATOM     39  C   UNL A   1      39.871  28.729  28.609  1.00  0.00     0.049 A 
ATOM     40  N   UNL A   1      42.838  29.234  28.846  1.00  0.00    -0.248 NA
ATOM     41  C   UNL A   1      43.213  27.131  27.904  1.00  0.00     0.031 C 
ATOM     42  C   UNL A   1      38.423  28.512  28.562  1.00  0.00     0.029 A 
ATOM     43  N   UNL A   1      39.998  30.001  29.106  1.00  0.00    -0.354 N 
ATOM     44  C   UNL A   1      44.208  29.000  28.768  1.00  0.00     0.074 A 
ATOM     45  C   UNL A   1      44.376  27.658  28.253  1.00  0.00     0.031 C 
ATOM     46  C   UNL A   1      37.798  29.621  28.991  1.00  0.00     0.029 A 
ATOM     47  C   UNL A   1      38.797  30.606  29.395  1.00  0.00     0.049 A 
ATOM     48  H   UNL A   1      40.869  30.441  29.244  1.00  0.00     0.167 HD
ATOM     49  C   UNL A   1      45.230  29.837  29.075  1.00  0.00     0.034 A 
ATOM     50  C   UNL A   1      38.530  31.810  29.942  1.00  0.00     0.034 A 
ATOM     51  C   UNL A   1      45.040  31.177  29.575  1.00  0.00     0.049 A 
ATOM     52  C   UNL A   1      39.683  32.710  30.313  1.00  0.00     0.074 A 
ATOM     53  C   UNL A   1      45.999  32.128  29.877  1.00  0.00     0.029 A 
ATOM     54  N   UNL A   1      43.808  31.755  29.855  1.00  0.00    -0.354 N 
ATOM     55  N   UNL A   1      40.974  32.490  30.201  1.00  0.00    -0.248 NA
ATOM     56  C   UNL A   1      39.344  34.024  30.874  1.00  0.00     0.031 C 
ATOM     57  C   UNL A   1      45.353  33.249  30.409  1.00  0.00     0.029 A 
ATOM     58  C   UNL A   1      43.985  33.036  30.355  1.00  0.00     0.049 A 
ATOM     59  H   UNL A   1      42.936  31.319  29.717  1.00  0.00     0.167 HD
ATOM     60  C   UNL A   1      41.597  33.656  30.641  1.00  0.00     0.074 A 
ATOM     61  C   UNL A   1      40.542  34.575  31.010  1.00  0.00     0.031 C 
ATOM     62  C   UNL A   1      42.922  33.943  30.723  1.00  0.00     0.034 A 
BRANCH  49  63
ATOM     63  C   UNL A   1      46.636  29.311  28.904  1.00  0.00     0.023 A 
ATOM     64  C   UNL A   1      47.221  29.161  27.634  1.00  0.00     0.031 A 
ATOM     65  C   UNL A   1      47.393  28.922  30.024  1.00  0.00     0.131 A 
ATOM     66  C   UNL A   1      48.482  28.560  27.508  1.00  0.00     0.055 A 
ATOM     67  C   UNL A   1      48.685  28.410  29.898  1.00  0.00     0.041 A 
ATOM     68  F   UNL A   1      46.883  29.019  31.261  1.00  0.00    -0.206 F 
ATOM     69  C   UNL A   1      49.231  28.209  28.634  1.00  0.00     0.022 A 
BRANCH  66  70
ATOM     70  S   UNL A   1      49.057  28.095  25.852  1.00  0.00     0.124 S 
ATOM     71  O   UNL A   1      50.232  28.951  25.699  1.00  0.00    -0.237 OA
ATOM     72  O   UNL A   1      49.320  26.668  25.999  1.00  0.00    -0.237 OA
ATOM     73  O   UNL A   1      47.930  28.438  24.989  1.00  0.00    -0.744 OA
ENDBRANCH  66  70
ENDBRANCH  49  63
BRANCH  50  74
ATOM     74  C   UNL A   1      37.122  32.236  30.187  1.00  0.00     0.023 A 
ATOM     75  C   UNL A   1      36.385  32.901  29.195  1.00  0.00     0.031 A 
ATOM     76  C   UNL A   1      36.506  32.025  31.434  1.00  0.00     0.131 A 
ATOM     77  C   UNL A   1      35.096  33.379  29.481  1.00  0.00     0.055 A 
ATOM     78  C   UNL A   1      35.202  32.450  31.694  1.00  0.00     0.041 A 
ATOM     79  F   UNL A   1      37.163  31.391  32.418  1.00  0.00    -0.206 F 
ATOM     80  C   UNL A   1      34.494  33.145  30.718  1.00  0.00     0.022 A 
BRANCH  77  81
ATOM     81  S   UNL A   1      34.254  34.400  28.240  1.00  0.00     0.124 S 
ATOM     82  O   UNL A   1      33.039  33.630  27.999  1.00  0.00    -0.237 OA
ATOM     83  O   UNL A   1      34.084  35.662  28.952  1.00  0.00    -0.237 OA
ATOM     84  O   UNL A   1      35.203  34.435  27.129  1.00  0.00    -0.744 OA
ENDBRANCH  77  81
ENDBRANCH  50  74
BRANCH  62  85
ATOM     85  C   UNL A   1      43.301  35.333  31.174  1.00  0.00     0.023 A 
ATOM     86  C   UNL A   1      43.525  36.379  30.263  1.00  0.00     0.031 A 
ATOM     87  C   UNL A   1      43.437  35.611  32.547  1.00  0.00     0.131 A 
ATOM     88  C   UNL A   1      43.925  37.639  30.733  1.00  0.00     0.055 A 
ATOM     89  C   UNL A   1      43.769  36.884  33.011  1.00  0.00     0.041 A 
ATOM     90  F   UNL A   1      43.239  34.649  33.463  1.00  0.00    -0.206 F 
ATOM     91  C   UNL A   1      44.028  37.904  32.101  1.00  0.00     0.022 A 
BRANCH  88  92
ATOM     92  S   UNL A   1      44.400  38.908  29.526  1.00  0.00     0.124 S 
ATOM     93  O   UNL A   1      43.264  39.821  29.583  1.00  0.00    -0.237 OA
ATOM     94  O   UNL A   1      45.653  39.413  30.079  1.00  0.00    -0.237 OA
ATOM     95  O   UNL A   1      44.532  38.159  28.277  1.00  0.00    -0.744 OA
ENDBRANCH  88  92
ENDBRANCH  62  85
ENDBRANCH  36  37
ENDBRANCH  28  31
ENDBRANCH  26  27
ENDBRANCH  25  26
ENDBRANCH  24  25
ENDBRANCH   1  24
TORSDOF 20
ENDMDL
