MODEL 1
REMARK VINA RESULT:     -12.0      0.000      0.000
REMARK SMILES NC(=O)c1c(F)cccc1N1CCC[C@H](CC(=O)NCCCCCCNC(=O)c2ccc(-c3c4nc(c(-c5cc(S(=O)(=O)[O-])ccc5F)c5ccc([nH]5)c(-c5cc(S(=O)(=O)[O-])ccc5F)c5nc(c(-c6cc(S(=O)(=O)[O-])ccc6F)c6ccc3[nH]6)C=C5)C=C4)cc2)C1
REMARK SMILES IDX 22 1 21 2 20 3 19 4 17 5 18 6 16 8 15 9 11 10 12 11 92 12
REMARK SMILES IDX 13 13 14 14 10 15 4 16 5 17 6 18 7 19 9 20 8 21 2 22 1 23
REMARK SMILES IDX 3 26 23 27 24 28 25 29 26 30 27 31 28 33 29 34 30 35 91 36
REMARK SMILES IDX 31 37 90 38 32 39 33 40 34 41 84 42 35 43 89 44 83 45 85 46
REMARK SMILES IDX 36 47 88 48 82 49 81 50 37 52 69 53 49 54 68 55 50 56 53 57
REMARK SMILES IDX 67 58 86 59 51 60 52 61 66 63 87 64 54 65 38 66 39 67 47 68
REMARK SMILES IDX 40 69 46 70 48 71 45 72 41 73 42 74 43 75 44 76 70 77 71 78
REMARK SMILES IDX 79 79 72 80 78 81 80 82 77 83 73 84 74 85 75 86 76 87 55 88
REMARK SMILES IDX 56 89 64 90 57 91 63 92 65 93 62 94 58 95 59 96 60 97 61 98
REMARK H PARENT 19 7 1 24 1 25 26 32 85 51 53 62
REMARK Flexibility Score: inf
ROOT
ATOM      1  C   UNL A   1      34.203  21.030  25.609  1.00  0.00     0.002 C 
ENDROOT
BRANCH   1   2
ATOM      2  C   UNL A   1      32.780  20.480  25.565  1.00  0.00     0.021 C 
BRANCH   2   3
ATOM      3  C   UNL A   1      31.751  21.490  25.055  1.00  0.00     0.116 C 
BRANCH   3   4
ATOM      4  N   UNL A   1      30.842  21.864  26.118  1.00  0.00    -0.356 N 
ATOM      5  C   UNL A   1      30.502  23.102  26.567  1.00  0.00     0.220 C 
ATOM      6  O   UNL A   1      29.806  23.189  27.581  1.00  0.00    -0.275 OA
ATOM      7  H   UNL A   1      30.407  21.113  26.583  1.00  0.00     0.163 HD
BRANCH   5   8
ATOM      8  C   UNL A   1      30.938  24.341  25.811  1.00  0.00     0.105 C 
BRANCH   8   9
ATOM      9  C   UNL A   1      32.137  25.087  26.437  1.00  0.00     0.018 C 
ATOM     10  N   UNL A   1      32.003  26.906  24.849  1.00  0.00    -0.371 N 
ATOM     11  C   UNL A   1      33.292  26.680  24.199  1.00  0.00     0.116 C 
ATOM     12  C   UNL A   1      31.928  26.602  26.276  1.00  0.00     0.120 C 
ATOM     13  C   UNL A   1      33.660  25.206  24.365  1.00  0.00     0.022 C 
ATOM     14  C   UNL A   1      33.510  24.748  25.823  1.00  0.00     0.008 C 
BRANCH  10  15
ATOM     15  C   UNL A   1      31.134  27.820  24.278  1.00  0.00     0.053 A 
ATOM     16  C   UNL A   1      31.060  29.185  24.606  1.00  0.00     0.098 A 
ATOM     17  C   UNL A   1      30.069  29.986  24.027  1.00  0.00     0.138 A 
ATOM     18  F   UNL A   1      29.971  31.289  24.334  1.00  0.00    -0.206 F 
ATOM     19  C   UNL A   1      29.151  29.460  23.121  1.00  0.00     0.040 A 
ATOM     20  C   UNL A   1      30.211  27.314  23.342  1.00  0.00     0.027 A 
ATOM     21  C   UNL A   1      29.225  28.118  22.771  1.00  0.00     0.005 A 
BRANCH  16  22
ATOM     22  C   UNL A   1      32.038  29.819  25.515  1.00  0.00     0.253 C 
ATOM     23  N   UNL A   1      33.277  30.077  25.001  1.00  0.00    -0.365 N 
ATOM     24  H   UNL A   1      33.966  30.499  25.563  1.00  0.00     0.159 HD
ATOM     25  H   UNL A   1      33.481  29.842  24.066  1.00  0.00     0.159 HD
ATOM     26  O   UNL A   1      31.768  30.126  26.674  1.00  0.00    -0.269 OA
ENDBRANCH  16  22
ENDBRANCH  10  15
ENDBRANCH   8   9
ENDBRANCH   5   8
ENDBRANCH   3   4
ENDBRANCH   2   3
ENDBRANCH   1   2
BRANCH   1  27
ATOM     27  C   UNL A   1      34.680  21.641  24.288  1.00  0.00     0.002 C 
BRANCH  27  28
ATOM     28  C   UNL A   1      36.062  22.300  24.338  1.00  0.00     0.021 C 
BRANCH  28  29
ATOM     29  C   UNL A   1      36.716  22.293  25.716  1.00  0.00     0.116 C 
BRANCH  29  30
ATOM     30  N   UNL A   1      37.621  21.164  25.871  1.00  0.00    -0.352 N 
ATOM     31  C   UNL A   1      38.970  21.166  26.127  1.00  0.00     0.251 C 
ATOM     32  H   UNL A   1      37.209  20.275  25.779  1.00  0.00     0.163 HD
ATOM     33  O   UNL A   1      39.632  20.148  25.951  1.00  0.00    -0.269 OA
BRANCH  31  34
ATOM     34  C   UNL A   1      39.610  22.407  26.606  1.00  0.00     0.039 A 
ATOM     35  C   UNL A   1      40.638  22.331  27.548  1.00  0.00     0.014 A 
ATOM     36  C   UNL A   1      39.189  23.646  26.114  1.00  0.00     0.014 A 
ATOM     37  C   UNL A   1      41.289  23.499  27.950  1.00  0.00     0.010 A 
ATOM     38  C   UNL A   1      39.883  24.798  26.461  1.00  0.00     0.010 A 
ATOM     39  C   UNL A   1      40.940  24.737  27.383  1.00  0.00    -0.014 A 
BRANCH  39  40
ATOM     40  C   UNL A   1      41.652  25.989  27.740  1.00  0.00     0.031 A 
ATOM     41  C   UNL A   1      40.946  27.044  28.545  1.00  0.00     0.074 A 
ATOM     42  C   UNL A   1      42.900  26.206  27.279  1.00  0.00     0.049 A 
ATOM     43  N   UNL A   1      41.332  28.260  28.833  1.00  0.00    -0.248 NA
ATOM     44  C   UNL A   1      39.618  26.694  29.076  1.00  0.00     0.031 C 
ATOM     45  C   UNL A   1      43.683  25.261  26.477  1.00  0.00     0.029 A 
ATOM     46  N   UNL A   1      43.726  27.293  27.408  1.00  0.00    -0.354 N 
ATOM     47  C   UNL A   1      40.292  28.824  29.563  1.00  0.00     0.074 A 
ATOM     48  C   UNL A   1      39.239  27.834  29.632  1.00  0.00     0.031 C 
ATOM     49  C   UNL A   1      44.882  25.800  26.211  1.00  0.00     0.029 A 
ATOM     50  C   UNL A   1      44.935  27.148  26.769  1.00  0.00     0.049 A 
ATOM     51  H   UNL A   1      43.477  28.102  27.910  1.00  0.00     0.167 HD
ATOM     52  C   UNL A   1      40.233  30.048  30.140  1.00  0.00     0.034 A 
ATOM     53  C   UNL A   1      45.963  28.009  26.630  1.00  0.00     0.034 A 
ATOM     54  C   UNL A   1      41.298  31.016  30.082  1.00  0.00     0.049 A 
ATOM     55  C   UNL A   1      45.854  29.380  27.242  1.00  0.00     0.074 A 
ATOM     56  C   UNL A   1      41.351  32.270  30.664  1.00  0.00     0.029 A 
ATOM     57  N   UNL A   1      42.497  30.840  29.404  1.00  0.00    -0.354 N 
ATOM     58  N   UNL A   1      44.860  29.901  27.924  1.00  0.00    -0.248 NA
ATOM     59  C   UNL A   1      47.001  30.278  27.065  1.00  0.00     0.031 C 
ATOM     60  C   UNL A   1      42.553  32.877  30.287  1.00  0.00     0.029 A 
ATOM     61  C   UNL A   1      43.284  31.974  29.531  1.00  0.00     0.049 A 
ATOM     62  H   UNL A   1      42.751  30.030  28.907  1.00  0.00     0.167 HD
ATOM     63  C   UNL A   1      45.272  31.183  28.273  1.00  0.00     0.074 A 
ATOM     64  C   UNL A   1      46.608  31.350  27.738  1.00  0.00     0.031 C 
ATOM     65  C   UNL A   1      44.606  32.135  28.974  1.00  0.00     0.034 A 
BRANCH  52  66
ATOM     66  C   UNL A   1      38.968  30.416  30.872  1.00  0.00     0.023 A 
ATOM     67  C   UNL A   1      37.907  31.072  30.224  1.00  0.00     0.031 A 
ATOM     68  C   UNL A   1      38.812  30.085  32.229  1.00  0.00     0.131 A 
ATOM     69  C   UNL A   1      36.752  31.410  30.944  1.00  0.00     0.055 A 
ATOM     70  C   UNL A   1      37.634  30.367  32.923  1.00  0.00     0.041 A 
ATOM     71  F   UNL A   1      39.802  29.478  32.902  1.00  0.00    -0.206 F 
ATOM     72  C   UNL A   1      36.598  31.039  32.282  1.00  0.00     0.022 A 
BRANCH  69  73
ATOM     73  S   UNL A   1      35.479  32.410  30.127  1.00  0.00     0.124 S 
ATOM     74  O   UNL A   1      35.231  31.635  28.914  1.00  0.00    -0.237 OA
ATOM     75  O   UNL A   1      34.402  32.418  31.110  1.00  0.00    -0.237 OA
ATOM     76  O   UNL A   1      36.138  33.696  29.914  1.00  0.00    -0.744 OA
ENDBRANCH  69  73
ENDBRANCH  52  66
BRANCH  53  77
ATOM     77  C   UNL A   1      47.176  27.605  25.867  1.00  0.00     0.023 A 
ATOM     78  C   UNL A   1      47.268  27.836  24.486  1.00  0.00     0.031 A 
ATOM     79  C   UNL A   1      48.262  26.982  26.508  1.00  0.00     0.131 A 
ATOM     80  C   UNL A   1      48.412  27.427  23.785  1.00  0.00     0.055 A 
ATOM     81  C   UNL A   1      49.415  26.613  25.814  1.00  0.00     0.041 A 
ATOM     82  F   UNL A   1      48.225  26.748  27.830  1.00  0.00    -0.206 F 
ATOM     83  C   UNL A   1      49.492  26.830  24.441  1.00  0.00     0.022 A 
BRANCH  80  84
ATOM     84  S   UNL A   1      48.464  27.664  21.987  1.00  0.00     0.124 S 
ATOM     85  O   UNL A   1      47.155  28.254  21.729  1.00  0.00    -0.237 OA
ATOM     86  O   UNL A   1      49.611  28.551  21.829  1.00  0.00    -0.237 OA
ATOM     87  O   UNL A   1      48.652  26.310  21.472  1.00  0.00    -0.744 OA
ENDBRANCH  80  84
ENDBRANCH  53  77
BRANCH  65  88
ATOM     88  C   UNL A   1      45.324  33.437  29.225  1.00  0.00     0.023 A 
ATOM     89  C   UNL A   1      45.196  34.526  28.346  1.00  0.00     0.031 A 
ATOM     90  C   UNL A   1      46.129  33.595  30.366  1.00  0.00     0.131 A 
ATOM     91  C   UNL A   1      45.900  35.713  28.600  1.00  0.00     0.055 A 
ATOM     92  C   UNL A   1      46.780  34.797  30.644  1.00  0.00     0.041 A 
ATOM     93  F   UNL A   1      46.284  32.585  31.238  1.00  0.00    -0.206 F 
ATOM     94  C   UNL A   1      46.675  35.862  29.753  1.00  0.00     0.022 A 
BRANCH  91  95
ATOM     95  S   UNL A   1      45.840  37.040  27.366  1.00  0.00     0.124 S 
ATOM     96  O   UNL A   1      47.163  37.641  27.507  1.00  0.00    -0.237 OA
ATOM     97  O   UNL A   1      45.602  36.306  26.127  1.00  0.00    -0.237 OA
ATOM     98  O   UNL A   1      44.727  37.875  27.815  1.00  0.00    -0.744 OA
ENDBRANCH  91  95
ENDBRANCH  65  88
ENDBRANCH  39  40
ENDBRANCH  31  34
ENDBRANCH  29  30
ENDBRANCH  28  29
ENDBRANCH  27  28
ENDBRANCH   1  27
TORSDOF 19
ENDMDL
MODEL 2
REMARK VINA RESULT:     -11.9      1.517      1.718
REMARK SMILES NC(=O)c1c(F)cccc1N1CCC[C@H](CC(=O)NCCCCCCNC(=O)c2ccc(-c3c4nc(c(-c5cc(S(=O)(=O)[O-])ccc5F)c5ccc([nH]5)c(-c5cc(S(=O)(=O)[O-])ccc5F)c5nc(c(-c6cc(S(=O)(=O)[O-])ccc6F)c6ccc3[nH]6)C=C5)C=C4)cc2)C1
REMARK SMILES IDX 22 1 21 2 20 3 19 4 17 5 18 6 16 8 15 9 11 10 12 11 92 12
REMARK SMILES IDX 13 13 14 14 10 15 4 16 5 17 6 18 7 19 9 20 8 21 2 22 1 23
REMARK SMILES IDX 3 26 23 27 24 28 25 29 26 30 27 31 28 33 29 34 30 35 91 36
REMARK SMILES IDX 31 37 90 38 32 39 33 40 34 41 84 42 35 43 89 44 83 45 85 46
REMARK SMILES IDX 36 47 88 48 82 49 81 50 37 52 69 53 49 54 68 55 50 56 53 57
REMARK SMILES IDX 67 58 86 59 51 60 52 61 66 63 87 64 54 65 38 66 39 67 47 68
REMARK SMILES IDX 40 69 46 70 48 71 45 72 41 73 42 74 43 75 44 76 70 77 71 78
REMARK SMILES IDX 79 79 72 80 78 81 80 82 77 83 73 84 74 85 75 86 76 87 55 88
REMARK SMILES IDX 56 89 64 90 57 91 63 92 65 93 62 94 58 95 59 96 60 97 61 98
REMARK H PARENT 19 7 1 24 1 25 26 32 85 51 53 62
REMARK Flexibility Score: inf
ROOT
ATOM      1  C   UNL A   1      34.214  21.046  25.644  1.00  0.00     0.002 C 
ENDROOT
BRANCH   1   2
ATOM      2  C   UNL A   1      32.787  20.506  25.634  1.00  0.00     0.021 C 
BRANCH   2   3
ATOM      3  C   UNL A   1      31.771  21.480  25.035  1.00  0.00     0.116 C 
BRANCH   3   4
ATOM      4  N   UNL A   1      30.836  21.918  26.050  1.00  0.00    -0.356 N 
ATOM      5  C   UNL A   1      30.572  23.177  26.495  1.00  0.00     0.220 C 
ATOM      6  O   UNL A   1      29.828  23.312  27.468  1.00  0.00    -0.275 OA
ATOM      7  H   UNL A   1      30.315  21.202  26.480  1.00  0.00     0.163 HD
BRANCH   5   8
ATOM      8  C   UNL A   1      31.149  24.381  25.780  1.00  0.00     0.105 C 
BRANCH   8   9
ATOM      9  C   UNL A   1      32.323  25.064  26.516  1.00  0.00     0.018 C 
ATOM     10  N   UNL A   1      32.317  26.974  25.033  1.00  0.00    -0.371 N 
ATOM     11  C   UNL A   1      33.637  26.757  24.446  1.00  0.00     0.116 C 
ATOM     12  C   UNL A   1      32.153  26.590  26.433  1.00  0.00     0.120 C 
ATOM     13  C   UNL A   1      33.967  25.268  24.546  1.00  0.00     0.022 C 
ATOM     14  C   UNL A   1      33.724  24.730  25.963  1.00  0.00     0.008 C 
BRANCH  10  15
ATOM     15  C   UNL A   1      31.501  27.938  24.468  1.00  0.00     0.053 A 
ATOM     16  C   UNL A   1      31.361  29.258  24.932  1.00  0.00     0.098 A 
ATOM     17  C   UNL A   1      30.427  30.110  24.332  1.00  0.00     0.138 A 
ATOM     18  F   UNL A   1      30.268  31.371  24.766  1.00  0.00    -0.206 F 
ATOM     19  C   UNL A   1      29.629  29.680  23.274  1.00  0.00     0.040 A 
ATOM     20  C   UNL A   1      30.701  27.531  23.382  1.00  0.00     0.027 A 
ATOM     21  C   UNL A   1      29.770  28.385  22.791  1.00  0.00     0.005 A 
BRANCH  16  22
ATOM     22  C   UNL A   1      32.216  29.796  26.011  1.00  0.00     0.253 C 
ATOM     23  N   UNL A   1      33.465  30.219  25.653  1.00  0.00    -0.365 N 
ATOM     24  H   UNL A   1      34.075  30.586  26.333  1.00  0.00     0.159 HD
ATOM     25  H   UNL A   1      33.755  30.157  24.714  1.00  0.00     0.159 HD
ATOM     26  O   UNL A   1      31.838  29.886  27.177  1.00  0.00    -0.269 OA
ENDBRANCH  16  22
ENDBRANCH  10  15
ENDBRANCH   8   9
ENDBRANCH   5   8
ENDBRANCH   3   4
ENDBRANCH   2   3
ENDBRANCH   1   2
BRANCH   1  27
ATOM     27  C   UNL A   1      34.683  21.604  24.297  1.00  0.00     0.002 C 
BRANCH  27  28
ATOM     28  C   UNL A   1      36.160  22.009  24.239  1.00  0.00     0.021 C 
BRANCH  28  29
ATOM     29  C   UNL A   1      36.851  22.073  25.597  1.00  0.00     0.116 C 
BRANCH  29  30
ATOM     30  N   UNL A   1      37.780  20.967  25.776  1.00  0.00    -0.352 N 
ATOM     31  C   UNL A   1      39.119  21.002  26.072  1.00  0.00     0.251 C 
ATOM     32  H   UNL A   1      37.393  20.068  25.669  1.00  0.00     0.163 HD
ATOM     33  O   UNL A   1      39.812  20.001  25.913  1.00  0.00    -0.269 OA
BRANCH  31  34
ATOM     34  C   UNL A   1      39.713  22.256  26.575  1.00  0.00     0.039 A 
ATOM     35  C   UNL A   1      40.631  22.210  27.626  1.00  0.00     0.014 A 
ATOM     36  C   UNL A   1      39.360  23.478  25.995  1.00  0.00     0.014 A 
ATOM     37  C   UNL A   1      41.243  23.389  28.056  1.00  0.00     0.010 A 
ATOM     38  C   UNL A   1      40.021  24.639  26.375  1.00  0.00     0.010 A 
ATOM     39  C   UNL A   1      40.969  24.607  27.410  1.00  0.00    -0.014 A 
BRANCH  39  40
ATOM     40  C   UNL A   1      41.648  25.868  27.798  1.00  0.00     0.031 A 
ATOM     41  C   UNL A   1      40.875  26.941  28.513  1.00  0.00     0.074 A 
ATOM     42  C   UNL A   1      42.932  26.075  27.443  1.00  0.00     0.049 A 
ATOM     43  N   UNL A   1      41.235  28.164  28.805  1.00  0.00    -0.248 NA
ATOM     44  C   UNL A   1      39.505  26.602  28.933  1.00  0.00     0.031 C 
ATOM     45  C   UNL A   1      43.782  25.112  26.737  1.00  0.00     0.029 A 
ATOM     46  N   UNL A   1      43.745  27.166  27.619  1.00  0.00    -0.354 N 
ATOM     47  C   UNL A   1      40.136  28.744  29.427  1.00  0.00     0.074 A 
ATOM     48  C   UNL A   1      39.079  27.755  29.426  1.00  0.00     0.031 C 
ATOM     49  C   UNL A   1      45.000  25.647  26.564  1.00  0.00     0.029 A 
ATOM     50  C   UNL A   1      45.005  27.007  27.093  1.00  0.00     0.049 A 
ATOM     51  H   UNL A   1      43.453  27.987  28.079  1.00  0.00     0.167 HD
ATOM     52  C   UNL A   1      40.027  29.981  29.967  1.00  0.00     0.034 A 
ATOM     53  C   UNL A   1      46.042  27.866  27.024  1.00  0.00     0.034 A 
ATOM     54  C   UNL A   1      41.094  30.949  29.980  1.00  0.00     0.049 A 
ATOM     55  C   UNL A   1      45.880  29.251  27.592  1.00  0.00     0.074 A 
ATOM     56  C   UNL A   1      41.097  32.217  30.534  1.00  0.00     0.029 A 
ATOM     57  N   UNL A   1      42.348  30.758  29.414  1.00  0.00    -0.354 N 
ATOM     58  N   UNL A   1      44.831  29.787  28.171  1.00  0.00    -0.248 NA
ATOM     59  C   UNL A   1      47.040  30.146  27.496  1.00  0.00     0.031 C 
ATOM     60  C   UNL A   1      42.328  32.816  30.251  1.00  0.00     0.029 A 
ATOM     61  C   UNL A   1      43.121  31.896  29.584  1.00  0.00     0.049 A 
ATOM     62  H   UNL A   1      42.644  29.937  28.961  1.00  0.00     0.167 HD
ATOM     63  C   UNL A   1      45.212  31.078  28.524  1.00  0.00     0.074 A 
ATOM     64  C   UNL A   1      46.590  31.233  28.105  1.00  0.00     0.031 C 
ATOM     65  C   UNL A   1      44.488  32.045  29.142  1.00  0.00     0.034 A 
BRANCH  52  66
ATOM     66  C   UNL A   1      38.703  30.365  30.576  1.00  0.00     0.023 A 
ATOM     67  C   UNL A   1      37.691  30.973  29.813  1.00  0.00     0.031 A 
ATOM     68  C   UNL A   1      38.441  30.097  31.931  1.00  0.00     0.131 A 
ATOM     69  C   UNL A   1      36.478  31.328  30.420  1.00  0.00     0.055 A 
ATOM     70  C   UNL A   1      37.208  30.394  32.513  1.00  0.00     0.041 A 
ATOM     71  F   UNL A   1      39.380  29.538  32.710  1.00  0.00    -0.206 F 
ATOM     72  C   UNL A   1      36.220  31.020  31.758  1.00  0.00     0.022 A 
BRANCH  69  73
ATOM     73  S   UNL A   1      35.265  32.268  29.456  1.00  0.00     0.124 S 
ATOM     74  O   UNL A   1      34.236  32.537  30.458  1.00  0.00    -0.237 OA
ATOM     75  O   UNL A   1      36.038  33.422  29.011  1.00  0.00    -0.237 OA
ATOM     76  O   UNL A   1      34.871  31.338  28.400  1.00  0.00    -0.744 OA
ENDBRANCH  69  73
ENDBRANCH  52  66
BRANCH  53  77
ATOM     77  C   UNL A   1      47.317  27.445  26.381  1.00  0.00     0.023 A 
ATOM     78  C   UNL A   1      48.283  26.727  27.103  1.00  0.00     0.031 A 
ATOM     79  C   UNL A   1      47.590  27.755  25.037  1.00  0.00     0.131 A 
ATOM     80  C   UNL A   1      49.487  26.359  26.482  1.00  0.00     0.055 A 
ATOM     81  C   UNL A   1      48.771  27.353  24.412  1.00  0.00     0.041 A 
ATOM     82  F   UNL A   1      46.692  28.433  24.303  1.00  0.00    -0.206 F 
ATOM     83  C   UNL A   1      49.732  26.655  25.139  1.00  0.00     0.022 A 
BRANCH  80  84
ATOM     84  S   UNL A   1      50.749  25.506  27.466  1.00  0.00     0.124 S 
ATOM     85  O   UNL A   1      51.811  25.316  26.485  1.00  0.00    -0.237 OA
ATOM     86  O   UNL A   1      51.017  26.473  28.525  1.00  0.00    -0.237 OA
ATOM     87  O   UNL A   1      50.073  24.284  27.899  1.00  0.00    -0.744 OA
ENDBRANCH  80  84
ENDBRANCH  53  77
BRANCH  65  88
ATOM     88  C   UNL A   1      45.182  33.353  29.424  1.00  0.00     0.023 A 
ATOM     89  C   UNL A   1      45.094  34.437  28.533  1.00  0.00     0.031 A 
ATOM     90  C   UNL A   1      45.924  33.523  30.605  1.00  0.00     0.131 A 
ATOM     91  C   UNL A   1      45.775  35.630  28.819  1.00  0.00     0.055 A 
ATOM     92  C   UNL A   1      46.550  34.731  30.912  1.00  0.00     0.041 A 
ATOM     93  F   UNL A   1      46.039  32.518  31.489  1.00  0.00    -0.206 F 
ATOM     94  C   UNL A   1      46.486  35.790  30.011  1.00  0.00     0.022 A 
BRANCH  91  95
ATOM     95  S   UNL A   1      45.772  36.951  27.577  1.00  0.00     0.124 S 
ATOM     96  O   UNL A   1      46.942  36.611  26.774  1.00  0.00    -0.237 OA
ATOM     97  O   UNL A   1      44.478  36.769  26.927  1.00  0.00    -0.237 OA
ATOM     98  O   UNL A   1      45.898  38.171  28.373  1.00  0.00    -0.744 OA
ENDBRANCH  91  95
ENDBRANCH  65  88
ENDBRANCH  39  40
ENDBRANCH  31  34
ENDBRANCH  29  30
ENDBRANCH  28  29
ENDBRANCH  27  28
ENDBRANCH   1  27
TORSDOF 19
ENDMDL
MODEL 3
REMARK VINA RESULT:     -11.8      0.623      7.384
REMARK SMILES NC(=O)c1c(F)cccc1N1CCC[C@H](CC(=O)NCCCCCCNC(=O)c2ccc(-c3c4nc(c(-c5cc(S(=O)(=O)[O-])ccc5F)c5ccc([nH]5)c(-c5cc(S(=O)(=O)[O-])ccc5F)c5nc(c(-c6cc(S(=O)(=O)[O-])ccc6F)c6ccc3[nH]6)C=C5)C=C4)cc2)C1
REMARK SMILES IDX 22 1 21 2 20 3 19 4 17 5 18 6 16 8 15 9 11 10 12 11 92 12
REMARK SMILES IDX 13 13 14 14 10 15 4 16 5 17 6 18 7 19 9 20 8 21 2 22 1 23
REMARK SMILES IDX 3 26 23 27 24 28 25 29 26 30 27 31 28 33 29 34 30 35 91 36
REMARK SMILES IDX 31 37 90 38 32 39 33 40 34 41 84 42 35 43 89 44 83 45 85 46
REMARK SMILES IDX 36 47 88 48 82 49 81 50 37 52 69 53 49 54 68 55 50 56 53 57
REMARK SMILES IDX 67 58 86 59 51 60 52 61 66 63 87 64 54 65 38 66 39 67 47 68
REMARK SMILES IDX 40 69 46 70 48 71 45 72 41 73 42 74 43 75 44 76 70 77 71 78
REMARK SMILES IDX 79 79 72 80 78 81 80 82 77 83 73 84 74 85 75 86 76 87 55 88
REMARK SMILES IDX 56 89 64 90 57 91 63 92 65 93 62 94 58 95 59 96 60 97 61 98
REMARK H PARENT 19 7 1 24 1 25 26 32 85 51 53 62
REMARK Flexibility Score: inf
ROOT
ATOM      1  C   UNL A   1      34.146  20.685  24.963  1.00  0.00     0.002 C 
ENDROOT
BRANCH   1   2
ATOM      2  C   UNL A   1      32.667  20.356  24.778  1.00  0.00     0.021 C 
BRANCH   2   3
ATOM      3  C   UNL A   1      31.782  21.593  24.625  1.00  0.00     0.116 C 
BRANCH   3   4
ATOM      4  N   UNL A   1      31.089  21.874  25.866  1.00  0.00    -0.356 N 
ATOM      5  C   UNL A   1      30.881  23.066  26.487  1.00  0.00     0.220 C 
ATOM      6  O   UNL A   1      30.378  23.062  27.613  1.00  0.00    -0.275 OA
ATOM      7  H   UNL A   1      30.715  21.088  26.326  1.00  0.00     0.163 HD
BRANCH   5   8
ATOM      8  C   UNL A   1      31.223  24.366  25.790  1.00  0.00     0.105 C 
BRANCH   8   9
ATOM      9  C   UNL A   1      32.407  25.138  26.413  1.00  0.00     0.018 C 
ATOM     10  N   UNL A   1      32.216  26.966  24.841  1.00  0.00    -0.371 N 
ATOM     11  C   UNL A   1      33.505  26.777  24.179  1.00  0.00     0.116 C 
ATOM     12  C   UNL A   1      32.159  26.649  26.266  1.00  0.00     0.120 C 
ATOM     13  C   UNL A   1      33.910  25.312  24.330  1.00  0.00     0.022 C 
ATOM     14  C   UNL A   1      33.784  24.839  25.786  1.00  0.00     0.008 C 
BRANCH  10  15
ATOM     15  C   UNL A   1      31.320  27.862  24.284  1.00  0.00     0.053 A 
ATOM     16  C   UNL A   1      31.164  29.204  24.674  1.00  0.00     0.098 A 
ATOM     17  C   UNL A   1      30.153  29.982  24.100  1.00  0.00     0.138 A 
ATOM     18  F   UNL A   1      29.979  31.262  24.465  1.00  0.00    -0.206 F 
ATOM     19  C   UNL A   1      29.292  29.456  23.139  1.00  0.00     0.040 A 
ATOM     20  C   UNL A   1      30.454  27.357  23.294  1.00  0.00     0.027 A 
ATOM     21  C   UNL A   1      29.446  28.138  22.728  1.00  0.00     0.005 A 
BRANCH  16  22
ATOM     22  C   UNL A   1      32.080  29.841  25.645  1.00  0.00     0.253 C 
ATOM     23  N   UNL A   1      33.354  30.085  25.219  1.00  0.00    -0.365 N 
ATOM     24  H   UNL A   1      34.004  30.507  25.826  1.00  0.00     0.159 HD
ATOM     25  H   UNL A   1      33.624  29.838  24.304  1.00  0.00     0.159 HD
ATOM     26  O   UNL A   1      31.728  30.162  26.778  1.00  0.00    -0.269 OA
ENDBRANCH  16  22
ENDBRANCH  10  15
ENDBRANCH   8   9
ENDBRANCH   5   8
ENDBRANCH   3   4
ENDBRANCH   2   3
ENDBRANCH   1   2
BRANCH   1  27
ATOM     27  C   UNL A   1      34.655  21.809  24.054  1.00  0.00     0.002 C 
BRANCH  27  28
ATOM     28  C   UNL A   1      36.114  22.218  24.283  1.00  0.00     0.021 C 
BRANCH  28  29
ATOM     29  C   UNL A   1      36.585  22.102  25.729  1.00  0.00     0.116 C 
BRANCH  29  30
ATOM     30  N   UNL A   1      37.598  21.068  25.879  1.00  0.00    -0.352 N 
ATOM     31  C   UNL A   1      38.944  21.205  26.109  1.00  0.00     0.251 C 
ATOM     32  H   UNL A   1      37.273  20.142  25.804  1.00  0.00     0.163 HD
ATOM     33  O   UNL A   1      39.699  20.254  25.932  1.00  0.00    -0.269 OA
BRANCH  31  34
ATOM     34  C   UNL A   1      39.468  22.508  26.563  1.00  0.00     0.039 A 
ATOM     35  C   UNL A   1      40.568  22.545  27.423  1.00  0.00     0.014 A 
ATOM     36  C   UNL A   1      38.868  23.693  26.128  1.00  0.00     0.014 A 
ATOM     37  C   UNL A   1      41.105  23.778  27.798  1.00  0.00     0.010 A 
ATOM     38  C   UNL A   1      39.446  24.916  26.445  1.00  0.00     0.010 A 
ATOM     39  C   UNL A   1      40.570  24.972  27.284  1.00  0.00    -0.014 A 
BRANCH  39  40
ATOM     40  C   UNL A   1      41.155  26.295  27.610  1.00  0.00     0.031 A 
ATOM     41  C   UNL A   1      42.579  26.595  27.231  1.00  0.00     0.074 A 
ATOM     42  C   UNL A   1      40.434  27.194  28.310  1.00  0.00     0.049 A 
ATOM     43  N   UNL A   1      43.321  27.622  27.552  1.00  0.00    -0.248 NA
ATOM     44  C   UNL A   1      43.267  25.592  26.400  1.00  0.00     0.031 C 
ATOM     45  C   UNL A   1      39.046  27.012  28.744  1.00  0.00     0.029 A 
ATOM     46  N   UNL A   1      40.769  28.435  28.787  1.00  0.00    -0.354 N 
ATOM     47  C   UNL A   1      44.565  27.384  26.978  1.00  0.00     0.074 A 
ATOM     48  C   UNL A   1      44.492  26.092  26.330  1.00  0.00     0.031 C 
ATOM     49  C   UNL A   1      38.644  28.112  29.400  1.00  0.00     0.029 A 
ATOM     50  C   UNL A   1      39.757  29.052  29.484  1.00  0.00     0.049 A 
ATOM     51  H   UNL A   1      41.653  28.847  28.644  1.00  0.00     0.167 HD
ATOM     52  C   UNL A   1      45.660  28.181  26.976  1.00  0.00     0.034 A 
ATOM     53  C   UNL A   1      39.733  30.232  30.136  1.00  0.00     0.034 A 
ATOM     54  C   UNL A   1      45.713  29.476  27.607  1.00  0.00     0.049 A 
ATOM     55  C   UNL A   1      40.977  31.079  30.156  1.00  0.00     0.074 A 
ATOM     56  C   UNL A   1      46.762  30.377  27.630  1.00  0.00     0.029 A 
ATOM     57  N   UNL A   1      44.674  30.054  28.324  1.00  0.00    -0.354 N 
ATOM     58  N   UNL A   1      42.148  30.837  29.614  1.00  0.00    -0.248 NA
ATOM     59  C   UNL A   1      40.897  32.356  30.876  1.00  0.00     0.031 C 
ATOM     60  C   UNL A   1      46.381  31.472  28.412  1.00  0.00     0.029 A 
ATOM     61  C   UNL A   1      45.069  31.288  28.817  1.00  0.00     0.049 A 
ATOM     62  H   UNL A   1      43.788  29.648  28.462  1.00  0.00     0.167 HD
ATOM     63  C   UNL A   1      42.940  31.942  29.914  1.00  0.00     0.074 A 
ATOM     64  C   UNL A   1      42.108  32.855  30.671  1.00  0.00     0.031 C 
ATOM     65  C   UNL A   1      44.236  32.179  29.589  1.00  0.00     0.034 A 
BRANCH  52  66
ATOM     66  C   UNL A   1      46.896  27.671  26.281  1.00  0.00     0.023 A 
ATOM     67  C   UNL A   1      47.125  27.913  24.916  1.00  0.00     0.031 A 
ATOM     68  C   UNL A   1      47.869  26.956  27.000  1.00  0.00     0.131 A 
ATOM     69  C   UNL A   1      48.282  27.410  24.303  1.00  0.00     0.055 A 
ATOM     70  C   UNL A   1      49.049  26.513  26.398  1.00  0.00     0.041 A 
ATOM     71  F   UNL A   1      47.691  26.678  28.301  1.00  0.00    -0.206 F 
ATOM     72  C   UNL A   1      49.257  26.734  25.040  1.00  0.00     0.022 A 
BRANCH  69  73
ATOM     73  S   UNL A   1      48.462  27.585  22.507  1.00  0.00     0.124 S 
ATOM     74  O   UNL A   1      48.550  26.190  22.083  1.00  0.00    -0.237 OA
ATOM     75  O   UNL A   1      47.240  28.289  22.133  1.00  0.00    -0.237 OA
ATOM     76  O   UNL A   1      49.694  28.356  22.360  1.00  0.00    -0.744 OA
ENDBRANCH  69  73
ENDBRANCH  52  66
BRANCH  53  77
ATOM     77  C   UNL A   1      38.494  30.673  30.834  1.00  0.00     0.023 A 
ATOM     78  C   UNL A   1      37.503  31.395  30.151  1.00  0.00     0.031 A 
ATOM     79  C   UNL A   1      38.283  30.379  32.193  1.00  0.00     0.131 A 
ATOM     80  C   UNL A   1      36.353  31.818  30.835  1.00  0.00     0.055 A 
ATOM     81  C   UNL A   1      37.120  30.768  32.858  1.00  0.00     0.041 A 
ATOM     82  F   UNL A   1      39.198  29.683  32.886  1.00  0.00    -0.206 F 
ATOM     83  C   UNL A   1      36.148  31.498  32.180  1.00  0.00     0.022 A 
BRANCH  80  84
ATOM     84  S   UNL A   1      35.131  32.821  29.947  1.00  0.00     0.124 S 
ATOM     85  O   UNL A   1      35.956  33.912  29.439  1.00  0.00    -0.237 OA
ATOM     86  O   UNL A   1      34.628  31.879  28.953  1.00  0.00    -0.237 OA
ATOM     87  O   UNL A   1      34.175  33.193  30.988  1.00  0.00    -0.744 OA
ENDBRANCH  80  84
ENDBRANCH  53  77
BRANCH  65  88
ATOM     88  C   UNL A   1      44.828  33.493  30.032  1.00  0.00     0.023 A 
ATOM     89  C   UNL A   1      44.745  34.643  29.229  1.00  0.00     0.031 A 
ATOM     90  C   UNL A   1      45.465  33.599  31.280  1.00  0.00     0.131 A 
ATOM     91  C   UNL A   1      45.329  35.841  29.665  1.00  0.00     0.055 A 
ATOM     92  C   UNL A   1      45.994  34.808  31.734  1.00  0.00     0.041 A 
ATOM     93  F   UNL A   1      45.572  32.530  32.086  1.00  0.00    -0.206 F 
ATOM     94  C   UNL A   1      45.936  35.936  30.920  1.00  0.00     0.022 A 
BRANCH  91  95
ATOM     95  S   UNL A   1      45.344  37.262  28.539  1.00  0.00     0.124 S 
ATOM     96  O   UNL A   1      45.010  36.638  27.262  1.00  0.00    -0.237 OA
ATOM     97  O   UNL A   1      44.319  38.128  29.112  1.00  0.00    -0.237 OA
ATOM     98  O   UNL A   1      46.712  37.769  28.644  1.00  0.00    -0.744 OA
ENDBRANCH  91  95
ENDBRANCH  65  88
ENDBRANCH  39  40
ENDBRANCH  31  34
ENDBRANCH  29  30
ENDBRANCH  28  29
ENDBRANCH  27  28
ENDBRANCH   1  27
TORSDOF 19
ENDMDL
