MODEL 1
REMARK VINA RESULT:     -11.6      0.000      0.000
REMARK SMILES O=C(NCCCCCCNC(=O)c1cc(S[C@H]2CCO[C@@]3(CCOC3)C2)cs1)c1ccc(-c2c3nc(c(-c4cc(S(=O)(=O)[O-])ccc4F)c4ccc([nH]4)c(-c4cc(S(=O)(=O)[O-])ccc4F)c4nc(c(-c5cc(S(=O)(=O)[O-])ccc5F)c5ccc2[nH]5)C=C4)C=C3)cc1
REMARK SMILES IDX 6 1 5 2 4 3 3 4 1 5 2 6 29 8 30 9 91 10 31 11 90 12 32 13
REMARK SMILES IDX 33 14 34 15 84 16 35 17 89 18 83 19 85 20 36 21 88 22 82 23
REMARK SMILES IDX 81 24 37 26 69 27 49 28 68 29 50 30 53 31 67 32 86 33 51 34
REMARK SMILES IDX 52 35 66 37 87 38 54 39 38 40 39 41 47 42 40 43 46 44 48 45
REMARK SMILES IDX 45 46 41 47 42 48 43 49 44 50 70 51 71 52 79 53 72 54 78 55
REMARK SMILES IDX 80 56 77 57 73 58 74 59 75 60 76 61 55 62 56 63 64 64 57 65
REMARK SMILES IDX 63 66 65 67 62 68 58 69 59 70 60 71 61 72 7 73 8 74 9 75
REMARK SMILES IDX 10 76 11 77 12 79 13 80 14 81 28 82 15 83 27 84 16 85 17 86
REMARK SMILES IDX 18 87 26 88 19 89 21 90 20 91 22 92 25 93 23 94 24 95
REMARK H PARENT 3 7 85 25 53 36 10 78
REMARK Flexibility Score: inf
ROOT
ATOM      1  C   UNL A   1      31.289  31.062  25.726  1.00  0.00     0.002 C 
ENDROOT
BRANCH   1   2
ATOM      2  C   UNL A   1      31.278  32.016  26.922  1.00  0.00     0.021 C 
BRANCH   2   3
ATOM      3  C   UNL A   1      32.613  32.674  27.251  1.00  0.00     0.116 C 
BRANCH   3   4
ATOM      4  N   UNL A   1      32.472  34.064  27.650  1.00  0.00    -0.352 N 
ATOM      5  O   UNL A   1      32.802  35.896  28.916  1.00  0.00    -0.269 OA
ATOM      6  C   UNL A   1      33.156  34.760  28.617  1.00  0.00     0.251 C 
ATOM      7  H   UNL A   1      31.791  34.578  27.160  1.00  0.00     0.163 HD
BRANCH   6   8
ATOM      8  C   UNL A   1      34.304  34.133  29.312  1.00  0.00     0.039 A 
ATOM      9  C   UNL A   1      34.104  33.205  30.339  1.00  0.00     0.014 A 
ATOM     10  C   UNL A   1      35.600  34.465  28.910  1.00  0.00     0.014 A 
ATOM     11  C   UNL A   1      35.197  32.696  31.036  1.00  0.00     0.010 A 
ATOM     12  C   UNL A   1      36.698  33.901  29.567  1.00  0.00     0.010 A 
ATOM     13  C   UNL A   1      36.505  33.028  30.649  1.00  0.00    -0.014 A 
BRANCH  13  14
ATOM     14  C   UNL A   1      37.661  32.405  31.344  1.00  0.00     0.031 A 
ATOM     15  C   UNL A   1      38.412  31.261  30.722  1.00  0.00     0.074 A 
ATOM     16  C   UNL A   1      38.022  32.878  32.552  1.00  0.00     0.049 A 
ATOM     17  N   UNL A   1      39.423  30.582  31.199  1.00  0.00    -0.248 NA
ATOM     18  C   UNL A   1      37.959  30.816  29.398  1.00  0.00     0.031 C 
ATOM     19  C   UNL A   1      37.350  33.972  33.259  1.00  0.00     0.029 A 
ATOM     20  N   UNL A   1      39.030  32.503  33.402  1.00  0.00    -0.354 N 
ATOM     21  C   UNL A   1      39.721  29.617  30.243  1.00  0.00     0.074 A 
ATOM     22  C   UNL A   1      38.756  29.781  29.174  1.00  0.00     0.031 C 
ATOM     23  C   UNL A   1      37.973  34.188  34.426  1.00  0.00     0.029 A 
ATOM     24  C   UNL A   1      39.049  33.215  34.577  1.00  0.00     0.049 A 
ATOM     25  H   UNL A   1      39.678  31.793  33.189  1.00  0.00     0.167 HD
ATOM     26  C   UNL A   1      40.711  28.688  30.254  1.00  0.00     0.034 A 
ATOM     27  C   UNL A   1      39.822  33.081  35.671  1.00  0.00     0.034 A 
ATOM     28  C   UNL A   1      41.658  28.539  31.337  1.00  0.00     0.049 A 
ATOM     29  C   UNL A   1      40.891  32.025  35.679  1.00  0.00     0.074 A 
ATOM     30  C   UNL A   1      42.731  27.669  31.432  1.00  0.00     0.029 A 
ATOM     31  N   UNL A   1      41.636  29.265  32.522  1.00  0.00    -0.354 N 
ATOM     32  N   UNL A   1      41.185  31.145  34.750  1.00  0.00    -0.248 NA
ATOM     33  C   UNL A   1      41.733  31.945  36.878  1.00  0.00     0.031 C 
ATOM     34  C   UNL A   1      43.313  27.822  32.697  1.00  0.00     0.029 A 
ATOM     35  C   UNL A   1      42.650  28.838  33.367  1.00  0.00     0.049 A 
ATOM     36  H   UNL A   1      40.993  29.981  32.731  1.00  0.00     0.167 HD
ATOM     37  C   UNL A   1      42.258  30.414  35.248  1.00  0.00     0.074 A 
ATOM     38  C   UNL A   1      42.567  30.968  36.552  1.00  0.00     0.031 C 
ATOM     39  C   UNL A   1      42.928  29.380  34.678  1.00  0.00     0.034 A 
BRANCH  26  40
ATOM     40  C   UNL A   1      40.780  27.731  29.085  1.00  0.00     0.023 A 
ATOM     41  C   UNL A   1      41.723  27.882  28.053  1.00  0.00     0.031 A 
ATOM     42  C   UNL A   1      39.860  26.671  28.983  1.00  0.00     0.131 A 
ATOM     43  C   UNL A   1      41.676  27.041  26.929  1.00  0.00     0.055 A 
ATOM     44  C   UNL A   1      39.870  25.787  27.901  1.00  0.00     0.041 A 
ATOM     45  F   UNL A   1      38.924  26.485  29.926  1.00  0.00    -0.206 F 
ATOM     46  C   UNL A   1      40.771  25.980  26.858  1.00  0.00     0.022 A 
BRANCH  43  47
ATOM     47  S   UNL A   1      42.712  27.445  25.494  1.00  0.00     0.124 S 
ATOM     48  O   UNL A   1      43.980  27.794  26.129  1.00  0.00    -0.237 OA
ATOM     49  O   UNL A   1      42.701  26.202  24.731  1.00  0.00    -0.237 OA
ATOM     50  O   UNL A   1      42.011  28.566  24.869  1.00  0.00    -0.744 OA
ENDBRANCH  43  47
ENDBRANCH  26  40
BRANCH  27  51
ATOM     51  C   UNL A   1      39.573  33.943  36.859  1.00  0.00     0.023 A 
ATOM     52  C   UNL A   1      38.945  33.440  38.007  1.00  0.00     0.031 A 
ATOM     53  C   UNL A   1      39.980  35.289  36.860  1.00  0.00     0.131 A 
ATOM     54  C   UNL A   1      38.722  34.286  39.105  1.00  0.00     0.055 A 
ATOM     55  C   UNL A   1      39.796  36.115  37.970  1.00  0.00     0.041 A 
ATOM     56  F   UNL A   1      40.596  35.813  35.789  1.00  0.00    -0.206 F 
ATOM     57  C   UNL A   1      39.155  35.615  39.099  1.00  0.00     0.022 A 
BRANCH  54  58
ATOM     58  S   UNL A   1      37.814  33.636  40.533  1.00  0.00     0.124 S 
ATOM     59  O   UNL A   1      38.840  32.846  41.205  1.00  0.00    -0.237 OA
ATOM     60  O   UNL A   1      37.401  34.860  41.213  1.00  0.00    -0.237 OA
ATOM     61  O   UNL A   1      36.730  32.868  39.926  1.00  0.00    -0.744 OA
ENDBRANCH  54  58
ENDBRANCH  27  51
BRANCH  39  62
ATOM     62  C   UNL A   1      44.080  28.806  35.462  1.00  0.00     0.023 A 
ATOM     63  C   UNL A   1      43.907  27.718  36.336  1.00  0.00     0.031 A 
ATOM     64  C   UNL A   1      45.364  29.366  35.347  1.00  0.00     0.131 A 
ATOM     65  C   UNL A   1      44.991  27.256  37.098  1.00  0.00     0.055 A 
ATOM     66  C   UNL A   1      46.450  28.870  36.068  1.00  0.00     0.041 A 
ATOM     67  F   UNL A   1      45.583  30.409  34.529  1.00  0.00    -0.206 F 
ATOM     68  C   UNL A   1      46.265  27.816  36.958  1.00  0.00     0.022 A 
BRANCH  65  69
ATOM     69  S   UNL A   1      44.700  25.963  38.337  1.00  0.00     0.124 S 
ATOM     70  O   UNL A   1      43.868  26.658  39.312  1.00  0.00    -0.237 OA
ATOM     71  O   UNL A   1      44.037  24.924  37.554  1.00  0.00    -0.237 OA
ATOM     72  O   UNL A   1      46.044  25.623  38.799  1.00  0.00    -0.744 OA
ENDBRANCH  65  69
ENDBRANCH  39  62
ENDBRANCH  13  14
ENDBRANCH   6   8
ENDBRANCH   3   4
ENDBRANCH   2   3
ENDBRANCH   1   2
BRANCH   1  73
ATOM     73  C   UNL A   1      31.899  29.680  25.979  1.00  0.00     0.002 C 
BRANCH  73  74
ATOM     74  C   UNL A   1      33.429  29.625  26.032  1.00  0.00     0.021 C 
BRANCH  74  75
ATOM     75  C   UNL A   1      34.065  28.434  25.321  1.00  0.00     0.116 C 
BRANCH  75  76
ATOM     76  N   UNL A   1      34.227  28.676  23.897  1.00  0.00    -0.351 N 
ATOM     77  C   UNL A   1      33.749  27.948  22.831  1.00  0.00     0.261 C 
ATOM     78  H   UNL A   1      34.754  29.474  23.661  1.00  0.00     0.163 HD
ATOM     79  O   UNL A   1      34.198  28.219  21.715  1.00  0.00    -0.268 OA
BRANCH  77  80
ATOM     80  C   UNL A   1      32.731  26.944  23.068  1.00  0.00     0.093 A 
ATOM     81  C   UNL A   1      32.884  25.656  23.549  1.00  0.00     0.040 A 
ATOM     82  S   UNL A   1      31.081  27.311  22.812  1.00  0.00    -0.137 S 
ATOM     83  C   UNL A   1      31.655  24.953  23.670  1.00  0.00     0.019 A 
ATOM     84  C   UNL A   1      30.592  25.736  23.281  1.00  0.00     0.080 A 
BRANCH  83  85
ATOM     85  S   UNL A   1      31.459  23.293  24.244  1.00  0.00    -0.122 SA
BRANCH  85  86
ATOM     86  C   UNL A   1      32.873  23.053  25.378  1.00  0.00     0.057 C 
ATOM     87  C   UNL A   1      32.420  22.412  26.691  1.00  0.00     0.043 C 
ATOM     88  C   UNL A   1      33.966  22.175  24.749  1.00  0.00     0.053 C 
ATOM     89  C   UNL A   1      33.625  22.279  27.607  1.00  0.00     0.162 C 
ATOM     90  C   UNL A   1      35.121  21.953  25.759  1.00  0.00     0.095 C 
ATOM     91  O   UNL A   1      34.613  21.455  27.001  1.00  0.00    -0.372 OA
ATOM     92  C   UNL A   1      36.148  20.966  25.219  1.00  0.00     0.066 C 
ATOM     93  C   UNL A   1      36.014  23.185  25.916  1.00  0.00     0.195 C 
ATOM     94  C   UNL A   1      37.103  21.826  24.407  1.00  0.00     0.163 C 
ATOM     95  O   UNL A   1      36.837  23.198  24.750  1.00  0.00    -0.378 OA
ENDBRANCH  85  86
ENDBRANCH  83  85
ENDBRANCH  77  80
ENDBRANCH  75  76
ENDBRANCH  74  75
ENDBRANCH  73  74
ENDBRANCH   1  73
TORSDOF 18
ENDMDL
MODEL 2
REMARK VINA RESULT:     -11.6      1.565      2.126
REMARK SMILES O=C(NCCCCCCNC(=O)c1cc(S[C@H]2CCO[C@@]3(CCOC3)C2)cs1)c1ccc(-c2c3nc(c(-c4cc(S(=O)(=O)[O-])ccc4F)c4ccc([nH]4)c(-c4cc(S(=O)(=O)[O-])ccc4F)c4nc(c(-c5cc(S(=O)(=O)[O-])ccc5F)c5ccc2[nH]5)C=C4)C=C3)cc1
REMARK SMILES IDX 6 1 5 2 4 3 3 4 1 5 2 6 29 8 30 9 91 10 31 11 90 12 32 13
REMARK SMILES IDX 33 14 34 15 84 16 35 17 89 18 83 19 85 20 36 21 88 22 82 23
REMARK SMILES IDX 81 24 37 26 69 27 49 28 68 29 50 30 53 31 67 32 86 33 51 34
REMARK SMILES IDX 52 35 66 37 87 38 54 39 38 40 39 41 47 42 40 43 46 44 48 45
REMARK SMILES IDX 45 46 41 47 42 48 43 49 44 50 70 51 71 52 79 53 72 54 78 55
REMARK SMILES IDX 80 56 77 57 73 58 74 59 75 60 76 61 55 62 56 63 64 64 57 65
REMARK SMILES IDX 63 66 65 67 62 68 58 69 59 70 60 71 61 72 7 73 8 74 9 75
REMARK SMILES IDX 10 76 11 77 12 79 13 80 14 81 28 82 15 83 27 84 16 85 17 86
REMARK SMILES IDX 18 87 26 88 19 89 21 90 20 91 22 92 25 93 23 94 24 95
REMARK H PARENT 3 7 85 25 53 36 10 78
REMARK Flexibility Score: inf
ROOT
ATOM      1  C   UNL A   1      31.667  30.650  26.108  1.00  0.00     0.002 C 
ENDROOT
BRANCH   1   2
ATOM      2  C   UNL A   1      31.492  32.028  26.749  1.00  0.00     0.021 C 
BRANCH   2   3
ATOM      3  C   UNL A   1      32.775  32.699  27.229  1.00  0.00     0.116 C 
BRANCH   3   4
ATOM      4  N   UNL A   1      32.549  34.035  27.753  1.00  0.00    -0.352 N 
ATOM      5  O   UNL A   1      32.744  35.750  29.197  1.00  0.00    -0.269 OA
ATOM      6  C   UNL A   1      33.166  34.667  28.804  1.00  0.00     0.251 C 
ATOM      7  H   UNL A   1      31.856  34.559  27.291  1.00  0.00     0.163 HD
BRANCH   6   8
ATOM      8  C   UNL A   1      34.325  34.034  29.474  1.00  0.00     0.039 A 
ATOM      9  C   UNL A   1      34.145  33.153  30.545  1.00  0.00     0.014 A 
ATOM     10  C   UNL A   1      35.612  34.313  29.005  1.00  0.00     0.014 A 
ATOM     11  C   UNL A   1      35.253  32.640  31.215  1.00  0.00     0.010 A 
ATOM     12  C   UNL A   1      36.721  33.743  29.637  1.00  0.00     0.010 A 
ATOM     13  C   UNL A   1      36.552  32.919  30.761  1.00  0.00    -0.014 A 
BRANCH  13  14
ATOM     14  C   UNL A   1      37.718  32.289  31.430  1.00  0.00     0.031 A 
ATOM     15  C   UNL A   1      38.480  31.173  30.771  1.00  0.00     0.074 A 
ATOM     16  C   UNL A   1      38.080  32.731  32.650  1.00  0.00     0.049 A 
ATOM     17  N   UNL A   1      39.502  30.493  31.223  1.00  0.00    -0.248 NA
ATOM     18  C   UNL A   1      38.024  30.762  29.437  1.00  0.00     0.031 C 
ATOM     19  C   UNL A   1      37.400  33.796  33.392  1.00  0.00     0.029 A 
ATOM     20  N   UNL A   1      39.098  32.344  33.483  1.00  0.00    -0.354 N 
ATOM     21  C   UNL A   1      39.805  29.560  30.237  1.00  0.00     0.074 A 
ATOM     22  C   UNL A   1      38.832  29.744  29.178  1.00  0.00     0.031 C 
ATOM     23  C   UNL A   1      38.027  33.984  34.562  1.00  0.00     0.029 A 
ATOM     24  C   UNL A   1      39.115  33.021  34.679  1.00  0.00     0.049 A 
ATOM     25  H   UNL A   1      39.753  31.648  33.246  1.00  0.00     0.167 HD
ATOM     26  C   UNL A   1      40.806  28.643  30.216  1.00  0.00     0.034 A 
ATOM     27  C   UNL A   1      39.897  32.864  35.764  1.00  0.00     0.034 A 
ATOM     28  C   UNL A   1      41.762  28.474  31.288  1.00  0.00     0.049 A 
ATOM     29  C   UNL A   1      40.978  31.822  35.735  1.00  0.00     0.074 A 
ATOM     30  C   UNL A   1      42.846  27.615  31.352  1.00  0.00     0.029 A 
ATOM     31  N   UNL A   1      41.737  29.165  32.494  1.00  0.00    -0.354 N 
ATOM     32  N   UNL A   1      41.277  30.973  34.779  1.00  0.00    -0.248 NA
ATOM     33  C   UNL A   1      41.828  31.717  36.927  1.00  0.00     0.031 C 
ATOM     34  C   UNL A   1      43.432  27.737  32.618  1.00  0.00     0.029 A 
ATOM     35  C   UNL A   1      42.762  28.725  33.321  1.00  0.00     0.049 A 
ATOM     36  H   UNL A   1      41.087  29.866  32.728  1.00  0.00     0.167 HD
ATOM     37  C   UNL A   1      42.362  30.240  35.250  1.00  0.00     0.074 A 
ATOM     38  C   UNL A   1      42.672  30.760  36.568  1.00  0.00     0.031 C 
ATOM     39  C   UNL A   1      43.040  29.232  34.646  1.00  0.00     0.034 A 
BRANCH  26  40
ATOM     40  C   UNL A   1      40.880  27.722  29.019  1.00  0.00     0.023 A 
ATOM     41  C   UNL A   1      41.849  27.884  28.012  1.00  0.00     0.031 A 
ATOM     42  C   UNL A   1      39.940  26.686  28.863  1.00  0.00     0.131 A 
ATOM     43  C   UNL A   1      41.808  27.079  26.861  1.00  0.00     0.055 A 
ATOM     44  C   UNL A   1      39.954  25.837  27.755  1.00  0.00     0.041 A 
ATOM     45  F   UNL A   1      38.979  26.492  29.780  1.00  0.00    -0.206 F 
ATOM     46  C   UNL A   1      40.882  26.042  26.737  1.00  0.00     0.022 A 
BRANCH  43  47
ATOM     47  S   UNL A   1      42.884  27.505  25.462  1.00  0.00     0.124 S 
ATOM     48  O   UNL A   1      43.043  26.212  24.803  1.00  0.00    -0.237 OA
ATOM     49  O   UNL A   1      42.093  28.497  24.741  1.00  0.00    -0.237 OA
ATOM     50  O   UNL A   1      44.093  28.020  26.102  1.00  0.00    -0.744 OA
ENDBRANCH  43  47
ENDBRANCH  26  40
BRANCH  27  51
ATOM     51  C   UNL A   1      39.644  33.688  36.978  1.00  0.00     0.023 A 
ATOM     52  C   UNL A   1      38.992  33.155  38.100  1.00  0.00     0.031 A 
ATOM     53  C   UNL A   1      40.072  35.027  37.033  1.00  0.00     0.131 A 
ATOM     54  C   UNL A   1      38.766  33.966  39.223  1.00  0.00     0.055 A 
ATOM     55  C   UNL A   1      39.885  35.816  38.168  1.00  0.00     0.041 A 
ATOM     56  F   UNL A   1      40.711  35.578  35.988  1.00  0.00    -0.206 F 
ATOM     57  C   UNL A   1      39.220  35.287  39.269  1.00  0.00     0.022 A 
BRANCH  54  58
ATOM     58  S   UNL A   1      37.829  33.281  40.615  1.00  0.00     0.124 S 
ATOM     59  O   UNL A   1      38.513  32.013  40.842  1.00  0.00    -0.237 OA
ATOM     60  O   UNL A   1      38.016  34.303  41.640  1.00  0.00    -0.237 OA
ATOM     61  O   UNL A   1      36.470  33.172  40.089  1.00  0.00    -0.744 OA
ENDBRANCH  54  58
ENDBRANCH  27  51
BRANCH  39  62
ATOM     62  C   UNL A   1      44.204  28.649  35.406  1.00  0.00     0.023 A 
ATOM     63  C   UNL A   1      44.037  27.575  36.298  1.00  0.00     0.031 A 
ATOM     64  C   UNL A   1      45.493  29.188  35.250  1.00  0.00     0.131 A 
ATOM     65  C   UNL A   1      45.134  27.106  37.037  1.00  0.00     0.055 A 
ATOM     66  C   UNL A   1      46.590  28.682  35.948  1.00  0.00     0.041 A 
ATOM     67  F   UNL A   1      45.706  30.216  34.413  1.00  0.00    -0.206 F 
ATOM     68  C   UNL A   1      46.412  27.643  36.857  1.00  0.00     0.022 A 
BRANCH  65  69
ATOM     69  S   UNL A   1      44.856  25.832  38.299  1.00  0.00     0.124 S 
ATOM     70  O   UNL A   1      46.100  25.072  38.242  1.00  0.00    -0.237 OA
ATOM     71  O   UNL A   1      44.646  26.626  39.505  1.00  0.00    -0.237 OA
ATOM     72  O   UNL A   1      43.674  25.122  37.814  1.00  0.00    -0.744 OA
ENDBRANCH  65  69
ENDBRANCH  39  62
ENDBRANCH  13  14
ENDBRANCH   6   8
ENDBRANCH   3   4
ENDBRANCH   2   3
ENDBRANCH   1   2
BRANCH   1  73
ATOM     73  C   UNL A   1      32.136  29.532  27.043  1.00  0.00     0.002 C 
BRANCH  73  74
ATOM     74  C   UNL A   1      33.631  29.199  26.990  1.00  0.00     0.021 C 
BRANCH  74  75
ATOM     75  C   UNL A   1      33.978  27.848  26.369  1.00  0.00     0.116 C 
BRANCH  75  76
ATOM     76  N   UNL A   1      33.439  27.714  25.027  1.00  0.00    -0.351 N 
ATOM     77  C   UNL A   1      33.183  26.572  24.303  1.00  0.00     0.261 C 
ATOM     78  H   UNL A   1      33.228  28.560  24.569  1.00  0.00     0.163 HD
ATOM     79  O   UNL A   1      32.936  26.707  23.102  1.00  0.00    -0.268 OA
BRANCH  77  80
ATOM     80  C   UNL A   1      33.178  25.293  24.987  1.00  0.00     0.093 A 
ATOM     81  C   UNL A   1      34.105  24.270  24.909  1.00  0.00     0.040 A 
ATOM     82  S   UNL A   1      31.945  24.920  26.110  1.00  0.00    -0.137 S 
ATOM     83  C   UNL A   1      33.787  23.160  25.737  1.00  0.00     0.019 A 
ATOM     84  C   UNL A   1      32.619  23.377  26.433  1.00  0.00     0.080 A 
BRANCH  83  85
ATOM     85  S   UNL A   1      34.731  21.675  25.896  1.00  0.00    -0.122 SA
BRANCH  85  86
ATOM     86  C   UNL A   1      33.660  20.394  25.151  1.00  0.00     0.057 C 
ATOM     87  C   UNL A   1      33.023  20.899  23.856  1.00  0.00     0.043 C 
ATOM     88  C   UNL A   1      34.437  19.104  24.851  1.00  0.00     0.053 C 
ATOM     89  C   UNL A   1      32.111  19.814  23.308  1.00  0.00     0.162 C 
ATOM     90  C   UNL A   1      33.508  18.064  24.174  1.00  0.00     0.095 C 
ATOM     91  O   UNL A   1      32.862  18.637  23.033  1.00  0.00    -0.372 OA
ATOM     92  C   UNL A   1      34.284  16.831  23.729  1.00  0.00     0.066 C 
ATOM     93  C   UNL A   1      32.537  17.409  25.158  1.00  0.00     0.195 C 
ATOM     94  C   UNL A   1      34.296  15.933  24.956  1.00  0.00     0.163 C 
ATOM     95  O   UNL A   1      33.324  16.458  25.877  1.00  0.00    -0.378 OA
ENDBRANCH  85  86
ENDBRANCH  83  85
ENDBRANCH  77  80
ENDBRANCH  75  76
ENDBRANCH  74  75
ENDBRANCH  73  74
ENDBRANCH   1  73
TORSDOF 18
ENDMDL
MODEL 3
REMARK VINA RESULT:     -11.5      5.736     11.793
REMARK SMILES O=C(NCCCCCCNC(=O)c1cc(S[C@H]2CCO[C@@]3(CCOC3)C2)cs1)c1ccc(-c2c3nc(c(-c4cc(S(=O)(=O)[O-])ccc4F)c4ccc([nH]4)c(-c4cc(S(=O)(=O)[O-])ccc4F)c4nc(c(-c5cc(S(=O)(=O)[O-])ccc5F)c5ccc2[nH]5)C=C4)C=C3)cc1
REMARK SMILES IDX 6 1 5 2 4 3 3 4 1 5 2 6 29 8 30 9 91 10 31 11 90 12 32 13
REMARK SMILES IDX 33 14 34 15 84 16 35 17 89 18 83 19 85 20 36 21 88 22 82 23
REMARK SMILES IDX 81 24 37 26 69 27 49 28 68 29 50 30 53 31 67 32 86 33 51 34
REMARK SMILES IDX 52 35 66 37 87 38 54 39 38 40 39 41 47 42 40 43 46 44 48 45
REMARK SMILES IDX 45 46 41 47 42 48 43 49 44 50 70 51 71 52 79 53 72 54 78 55
REMARK SMILES IDX 80 56 77 57 73 58 74 59 75 60 76 61 55 62 56 63 64 64 57 65
REMARK SMILES IDX 63 66 65 67 62 68 58 69 59 70 60 71 61 72 7 73 8 74 9 75
REMARK SMILES IDX 10 76 11 77 12 79 13 80 14 81 28 82 15 83 27 84 16 85 17 86
REMARK SMILES IDX 18 87 26 88 19 89 21 90 20 91 22 92 25 93 23 94 24 95
REMARK H PARENT 3 7 85 25 53 36 10 78
REMARK Flexibility Score: inf
ROOT
ATOM      1  C   UNL A   1      37.722  21.568  24.979  1.00  0.00     0.002 C 
ENDROOT
BRANCH   1   2
ATOM      2  C   UNL A   1      38.567  20.294  25.018  1.00  0.00     0.021 C 
BRANCH   2   3
ATOM      3  C   UNL A   1      39.430  20.115  26.262  1.00  0.00     0.116 C 
BRANCH   3   4
ATOM      4  N   UNL A   1      40.553  19.218  26.044  1.00  0.00    -0.352 N 
ATOM      5  O   UNL A   1      42.690  18.639  25.641  1.00  0.00    -0.269 OA
ATOM      6  C   UNL A   1      41.893  19.510  25.976  1.00  0.00     0.251 C 
ATOM      7  H   UNL A   1      40.319  18.269  25.928  1.00  0.00     0.163 HD
BRANCH   6   8
ATOM      8  C   UNL A   1      42.371  20.876  26.288  1.00  0.00     0.039 A 
ATOM      9  C   UNL A   1      42.636  21.263  27.605  1.00  0.00     0.014 A 
ATOM     10  C   UNL A   1      42.579  21.775  25.238  1.00  0.00     0.014 A 
ATOM     11  C   UNL A   1      43.000  22.579  27.882  1.00  0.00     0.010 A 
ATOM     12  C   UNL A   1      43.010  23.077  25.513  1.00  0.00     0.010 A 
ATOM     13  C   UNL A   1      43.204  23.496  26.838  1.00  0.00    -0.014 A 
BRANCH  13  14
ATOM     14  C   UNL A   1      43.681  24.868  27.144  1.00  0.00     0.031 A 
ATOM     15  C   UNL A   1      42.747  25.905  27.703  1.00  0.00     0.074 A 
ATOM     16  C   UNL A   1      44.970  25.174  26.902  1.00  0.00     0.049 A 
ATOM     17  N   UNL A   1      42.987  27.157  28.001  1.00  0.00    -0.248 NA
ATOM     18  C   UNL A   1      41.362  25.483  27.947  1.00  0.00     0.031 C 
ATOM     19  C   UNL A   1      45.960  24.250  26.341  1.00  0.00     0.029 A 
ATOM     20  N   UNL A   1      45.669  26.338  27.088  1.00  0.00    -0.354 N 
ATOM     21  C   UNL A   1      41.780  27.680  28.454  1.00  0.00     0.074 A 
ATOM     22  C   UNL A   1      40.803  26.613  28.356  1.00  0.00     0.031 C 
ATOM     23  C   UNL A   1      47.139  24.879  26.242  1.00  0.00     0.029 A 
ATOM     24  C   UNL A   1      46.978  26.262  26.677  1.00  0.00     0.049 A 
ATOM     25  H   UNL A   1      45.271  27.150  27.478  1.00  0.00     0.167 HD
ATOM     26  C   UNL A   1      41.517  28.930  28.913  1.00  0.00     0.034 A 
ATOM     27  C   UNL A   1      47.937  27.206  26.623  1.00  0.00     0.034 A 
ATOM     28  C   UNL A   1      42.508  29.980  28.995  1.00  0.00     0.049 A 
ATOM     29  C   UNL A   1      47.618  28.593  27.105  1.00  0.00     0.074 A 
ATOM     30  C   UNL A   1      42.367  31.264  29.491  1.00  0.00     0.029 A 
ATOM     31  N   UNL A   1      43.821  29.873  28.552  1.00  0.00    -0.354 N 
ATOM     32  N   UNL A   1      46.481  29.062  27.567  1.00  0.00    -0.248 NA
ATOM     33  C   UNL A   1      48.707  29.575  27.064  1.00  0.00     0.031 C 
ATOM     34  C   UNL A   1      43.570  31.952  29.286  1.00  0.00     0.029 A 
ATOM     35  C   UNL A   1      44.488  31.077  28.728  1.00  0.00     0.049 A 
ATOM     36  H   UNL A   1      44.222  29.059  28.168  1.00  0.00     0.167 HD
ATOM     37  C   UNL A   1      46.724  30.394  27.884  1.00  0.00     0.074 A 
ATOM     38  C   UNL A   1      48.118  30.647  27.575  1.00  0.00     0.031 C 
ATOM     39  C   UNL A   1      45.871  31.323  28.387  1.00  0.00     0.034 A 
BRANCH  26  40
ATOM     40  C   UNL A   1      40.091  29.238  29.310  1.00  0.00     0.023 A 
ATOM     41  C   UNL A   1      39.689  29.299  30.657  1.00  0.00     0.031 A 
ATOM     42  C   UNL A   1      39.108  29.437  28.323  1.00  0.00     0.131 A 
ATOM     43  C   UNL A   1      38.332  29.472  30.978  1.00  0.00     0.055 A 
ATOM     44  C   UNL A   1      37.774  29.690  28.649  1.00  0.00     0.041 A 
ATOM     45  F   UNL A   1      39.425  29.373  27.020  1.00  0.00    -0.206 F 
ATOM     46  C   UNL A   1      37.377  29.692  29.983  1.00  0.00     0.022 A 
BRANCH  43  47
ATOM     47  S   UNL A   1      37.811  29.256  32.703  1.00  0.00     0.124 S 
ATOM     48  O   UNL A   1      37.731  27.802  32.811  1.00  0.00    -0.237 OA
ATOM     49  O   UNL A   1      38.893  29.893  33.447  1.00  0.00    -0.237 OA
ATOM     50  O   UNL A   1      36.524  29.947  32.763  1.00  0.00    -0.744 OA
ENDBRANCH  43  47
ENDBRANCH  26  40
BRANCH  27  51
ATOM     51  C   UNL A   1      49.268  26.872  26.047  1.00  0.00     0.023 A 
ATOM     52  C   UNL A   1      49.641  27.309  24.768  1.00  0.00     0.031 A 
ATOM     53  C   UNL A   1      50.196  26.116  26.787  1.00  0.00     0.131 A 
ATOM     54  C   UNL A   1      50.903  26.968  24.256  1.00  0.00     0.055 A 
ATOM     55  C   UNL A   1      51.465  25.816  26.292  1.00  0.00     0.041 A 
ATOM     56  F   UNL A   1      49.889  25.685  28.020  1.00  0.00    -0.206 F 
ATOM     57  C   UNL A   1      51.822  26.236  25.015  1.00  0.00     0.022 A 
BRANCH  54  58
ATOM     58  S   UNL A   1      51.316  27.458  22.561  1.00  0.00     0.124 S 
ATOM     59  O   UNL A   1      50.268  26.793  21.794  1.00  0.00    -0.237 OA
ATOM     60  O   UNL A   1      51.230  28.913  22.636  1.00  0.00    -0.237 OA
ATOM     61  O   UNL A   1      52.663  26.924  22.370  1.00  0.00    -0.744 OA
ENDBRANCH  54  58
ENDBRANCH  27  51
BRANCH  39  62
ATOM     62  C   UNL A   1      46.444  32.691  28.656  1.00  0.00     0.023 A 
ATOM     63  C   UNL A   1      46.412  33.708  27.685  1.00  0.00     0.031 A 
ATOM     64  C   UNL A   1      47.045  32.976  29.894  1.00  0.00     0.131 A 
ATOM     65  C   UNL A   1      47.015  34.946  27.951  1.00  0.00     0.055 A 
ATOM     66  C   UNL A   1      47.598  34.226  30.173  1.00  0.00     0.041 A 
ATOM     67  F   UNL A   1      47.106  32.039  30.855  1.00  0.00    -0.206 F 
ATOM     68  C   UNL A   1      47.595  35.216  29.195  1.00  0.00     0.022 A 
BRANCH  65  69
ATOM     69  S   UNL A   1      47.103  36.179  26.623  1.00  0.00     0.124 S 
ATOM     70  O   UNL A   1      46.077  35.704  25.701  1.00  0.00    -0.237 OA
ATOM     71  O   UNL A   1      46.805  37.421  27.328  1.00  0.00    -0.237 OA
ATOM     72  O   UNL A   1      48.476  36.060  26.135  1.00  0.00    -0.744 OA
ENDBRANCH  65  69
ENDBRANCH  39  62
ENDBRANCH  13  14
ENDBRANCH   6   8
ENDBRANCH   3   4
ENDBRANCH   2   3
ENDBRANCH   1   2
BRANCH   1  73
ATOM     73  C   UNL A   1      36.204  21.366  25.010  1.00  0.00     0.002 C 
BRANCH  73  74
ATOM     74  C   UNL A   1      35.435  22.234  26.011  1.00  0.00     0.021 C 
BRANCH  74  75
ATOM     75  C   UNL A   1      34.423  21.490  26.879  1.00  0.00     0.116 C 
BRANCH  75  76
ATOM     76  N   UNL A   1      33.745  20.438  26.140  1.00  0.00    -0.351 N 
ATOM     77  C   UNL A   1      32.607  20.513  25.368  1.00  0.00     0.261 C 
ATOM     78  H   UNL A   1      34.157  19.547  26.199  1.00  0.00     0.163 HD
ATOM     79  O   UNL A   1      32.091  19.449  25.018  1.00  0.00    -0.268 OA
BRANCH  77  80
ATOM     80  C   UNL A   1      32.105  21.817  24.982  1.00  0.00     0.093 A 
ATOM     81  C   UNL A   1      31.341  22.701  25.722  1.00  0.00     0.040 A 
ATOM     82  S   UNL A   1      32.501  22.476  23.455  1.00  0.00    -0.137 S 
ATOM     83  C   UNL A   1      31.043  23.904  25.025  1.00  0.00     0.019 A 
ATOM     84  C   UNL A   1      31.600  23.902  23.767  1.00  0.00     0.080 A 
BRANCH  83  85
ATOM     85  S   UNL A   1      30.092  25.257  25.646  1.00  0.00    -0.122 SA
BRANCH  85  86
ATOM     86  C   UNL A   1      30.773  26.709  24.768  1.00  0.00     0.057 C 
ATOM     87  C   UNL A   1      29.765  27.263  23.761  1.00  0.00     0.043 C 
ATOM     88  C   UNL A   1      31.169  27.831  25.740  1.00  0.00     0.053 C 
ATOM     89  C   UNL A   1      30.400  28.435  23.031  1.00  0.00     0.162 C 
ATOM     90  C   UNL A   1      31.692  29.060  24.955  1.00  0.00     0.095 C 
ATOM     91  O   UNL A   1      30.747  29.458  23.957  1.00  0.00    -0.372 OA
ATOM     92  C   UNL A   1      31.952  30.242  25.881  1.00  0.00     0.066 C 
ATOM     93  C   UNL A   1      33.105  28.855  24.407  1.00  0.00     0.195 C 
ATOM     94  C   UNL A   1      33.375  30.026  26.373  1.00  0.00     0.163 C 
ATOM     95  O   UNL A   1      33.968  29.020  25.533  1.00  0.00    -0.378 OA
ENDBRANCH  85  86
ENDBRANCH  83  85
ENDBRANCH  77  80
ENDBRANCH  75  76
ENDBRANCH  74  75
ENDBRANCH  73  74
ENDBRANCH   1  73
TORSDOF 18
ENDMDL
