MODEL 1
REMARK VINA RESULT:     -12.1      0.000      0.000
REMARK SMILES CCc1c(C)nn(CC(=O)N[C@H](C(=O)NCCCCCCNC(=O)c2ccc(-c3c4nc(c(-c5cc(S(=O)(=O)[O-])ccc5F)c5ccc([nH]5)c(-c5cc(S(=O)(=O)[O-])ccc5F)c5nc(c(-c6cc(S(=O)(=O)[O-])ccc6F)c6ccc3[nH]6)C=C5)C=C4)cc2)c2c(C)n[nH]c2C)c1C
REMARK SMILES IDX 18 1 17 2 16 3 15 4 13 5 14 6 12 8 11 9 9 10 10 11 8 13 7 14
REMARK SMILES IDX 3 15 4 16 95 17 5 18 6 19 96 20 2 21 1 22 88 23 89 24 93 25
REMARK SMILES IDX 90 26 91 27 92 28 94 29 19 31 20 32 21 33 22 34 23 35 24 37
REMARK SMILES IDX 25 38 26 39 87 40 27 41 86 42 28 43 29 44 30 45 80 46 31 47
REMARK SMILES IDX 85 48 79 49 81 50 32 51 84 52 78 53 77 54 33 56 65 57 45 58
REMARK SMILES IDX 64 59 46 60 49 61 63 62 82 63 47 64 48 65 62 67 83 68 50 69
REMARK SMILES IDX 34 70 35 71 43 72 36 73 42 74 44 75 41 76 37 77 38 78 39 79
REMARK SMILES IDX 40 80 66 81 67 82 75 83 68 84 74 85 76 86 73 87 69 88 70 89
REMARK SMILES IDX 71 90 72 91 51 92 52 93 60 94 53 95 59 96 61 97 58 98 54 99
REMARK SMILES IDX 55 100 56 101 57 102
REMARK H PARENT 15 7 11 12 92 30 22 36 81 55 49 66
REMARK Flexibility Score: inf
ROOT
ATOM      1  C   UNL A   1      37.526  22.146  25.497  1.00  0.00     0.002 C 
ENDROOT
BRANCH   1   2
ATOM      2  C   UNL A   1      37.124  23.367  24.670  1.00  0.00     0.021 C 
BRANCH   2   3
ATOM      3  C   UNL A   1      35.631  23.658  24.619  1.00  0.00     0.116 C 
BRANCH   3   4
ATOM      4  N   UNL A   1      34.938  23.225  23.417  1.00  0.00    -0.354 N 
ATOM      5  C   UNL A   1      33.813  23.762  22.831  1.00  0.00     0.247 C 
ATOM      6  O   UNL A   1      33.643  23.509  21.631  1.00  0.00    -0.272 OA
ATOM      7  H   UNL A   1      35.325  22.444  22.961  1.00  0.00     0.163 HD
BRANCH   5   8
ATOM      8  C   UNL A   1      32.757  24.634  23.599  1.00  0.00     0.206 C 
BRANCH   8   9
ATOM      9  N   UNL A   1      31.924  25.259  22.598  1.00  0.00    -0.339 N 
ATOM     10  C   UNL A   1      31.586  26.571  22.505  1.00  0.00     0.242 C 
ATOM     11  O   UNL A   1      30.490  26.835  22.007  1.00  0.00    -0.273 OA
ATOM     12  H   UNL A   1      31.559  24.665  21.902  1.00  0.00     0.164 HD
BRANCH  10  13
ATOM     13  C   UNL A   1      32.626  27.615  22.776  1.00  0.00     0.244 C 
BRANCH  13  14
ATOM     14  N   UNL A   1      32.488  28.514  23.945  1.00  0.00    -0.260 N 
ATOM     15  C   UNL A   1      32.272  29.956  25.736  1.00  0.00    -0.004 A 
ATOM     16  C   UNL A   1      33.420  29.125  25.790  1.00  0.00     0.063 A 
ATOM     17  C   UNL A   1      31.440  29.607  24.461  1.00  0.00     0.039 A 
ATOM     18  C   UNL A   1      34.528  29.047  26.786  1.00  0.00     0.069 C 
ATOM     19  N   UNL A   1      33.500  28.292  24.789  1.00  0.00    -0.177 NA
ATOM     20  C   UNL A   1      29.483  30.292  23.625  1.00  0.00     0.066 C 
BRANCH  15  21
ATOM     21  C   UNL A   1      32.081  31.011  26.847  1.00  0.00     0.036 C 
ATOM     22  C   UNL A   1      31.236  32.223  26.462  1.00  0.00     0.009 C 
ENDBRANCH  15  21
ENDBRANCH  13  14
ENDBRANCH  10  13
ENDBRANCH   8   9
BRANCH   8  23
ATOM     23  C   UNL A   1      32.009  23.916  24.685  1.00  0.00     0.027 A 
ATOM     24  C   UNL A   1      30.896  24.945  25.939  1.00  0.00     0.065 A 
ATOM     25  C   UNL A   1      31.767  22.147  25.119  1.00  0.00     0.038 A 
ATOM     26  C   UNL A   1      30.463  26.367  25.886  1.00  0.00     0.069 C 
ATOM     27  N   UNL A   1      30.071  23.855  27.000  1.00  0.00    -0.180 NA
ATOM     28  N   UNL A   1      30.637  22.124  26.602  1.00  0.00    -0.282 N 
ATOM     29  C   UNL A   1      32.082  20.789  24.567  1.00  0.00     0.066 C 
ATOM     30  H   UNL A   1      30.378  21.315  27.102  1.00  0.00     0.190 HD
ENDBRANCH   8  23
ENDBRANCH   5   8
ENDBRANCH   3   4
ENDBRANCH   2   3
ENDBRANCH   1   2
BRANCH   1  31
ATOM     31  C   UNL A   1      37.266  20.775  24.860  1.00  0.00     0.002 C 
BRANCH  31  32
ATOM     32  C   UNL A   1      38.319  19.690  25.109  1.00  0.00     0.021 C 
BRANCH  32  33
ATOM     33  C   UNL A   1      39.479  20.073  26.027  1.00  0.00     0.116 C 
BRANCH  33  34
ATOM     34  N   UNL A   1      40.563  19.106  25.986  1.00  0.00    -0.352 N 
ATOM     35  C   UNL A   1      41.922  19.297  26.057  1.00  0.00     0.251 C 
ATOM     36  H   UNL A   1      40.280  18.168  25.893  1.00  0.00     0.163 HD
ATOM     37  O   UNL A   1      42.673  18.353  25.825  1.00  0.00    -0.269 OA
BRANCH  35  38
ATOM     38  C   UNL A   1      42.487  20.629  26.381  1.00  0.00     0.039 A 
ATOM     39  C   UNL A   1      43.026  21.399  25.344  1.00  0.00     0.014 A 
ATOM     40  C   UNL A   1      42.525  21.112  27.692  1.00  0.00     0.014 A 
ATOM     41  C   UNL A   1      43.545  22.668  25.613  1.00  0.00     0.010 A 
ATOM     42  C   UNL A   1      42.985  22.404  27.949  1.00  0.00     0.010 A 
ATOM     43  C   UNL A   1      43.498  23.200  26.912  1.00  0.00    -0.014 A 
BRANCH  43  44
ATOM     44  C   UNL A   1      43.968  24.586  27.191  1.00  0.00     0.031 A 
ATOM     45  C   UNL A   1      43.014  25.628  27.714  1.00  0.00     0.074 A 
ATOM     46  C   UNL A   1      45.250  24.917  26.934  1.00  0.00     0.049 A 
ATOM     47  N   UNL A   1      43.231  26.892  27.976  1.00  0.00    -0.248 NA
ATOM     48  C   UNL A   1      41.629  25.195  27.955  1.00  0.00     0.031 C 
ATOM     49  C   UNL A   1      46.264  24.006  26.401  1.00  0.00     0.029 A 
ATOM     50  N   UNL A   1      45.921  26.107  27.080  1.00  0.00    -0.354 N 
ATOM     51  C   UNL A   1      42.011  27.409  28.401  1.00  0.00     0.074 A 
ATOM     52  C   UNL A   1      41.048  26.331  28.310  1.00  0.00     0.031 C 
ATOM     53  C   UNL A   1      47.432  24.658  26.298  1.00  0.00     0.029 A 
ATOM     54  C   UNL A   1      47.243  26.049  26.701  1.00  0.00     0.049 A 
ATOM     55  H   UNL A   1      45.495  26.925  27.424  1.00  0.00     0.167 HD
ATOM     56  C   UNL A   1      41.726  28.660  28.844  1.00  0.00     0.034 A 
ATOM     57  C   UNL A   1      48.191  27.006  26.667  1.00  0.00     0.034 A 
ATOM     58  C   UNL A   1      42.700  29.723  28.933  1.00  0.00     0.049 A 
ATOM     59  C   UNL A   1      47.835  28.402  27.117  1.00  0.00     0.074 A 
ATOM     60  C   UNL A   1      42.529  31.008  29.420  1.00  0.00     0.029 A 
ATOM     61  N   UNL A   1      44.022  29.635  28.513  1.00  0.00    -0.354 N 
ATOM     62  N   UNL A   1      46.689  28.858  27.569  1.00  0.00    -0.248 NA
ATOM     63  C   UNL A   1      48.904  29.409  27.060  1.00  0.00     0.031 C 
ATOM     64  C   UNL A   1      43.716  31.718  29.217  1.00  0.00     0.029 A 
ATOM     65  C   UNL A   1      44.662  30.853  28.690  1.00  0.00     0.049 A 
ATOM     66  H   UNL A   1      44.443  28.825  28.145  1.00  0.00     0.167 HD
ATOM     67  C   UNL A   1      46.913  30.197  27.885  1.00  0.00     0.074 A 
ATOM     68  C   UNL A   1      48.305  30.466  27.588  1.00  0.00     0.031 C 
ATOM     69  C   UNL A   1      46.048  31.118  28.380  1.00  0.00     0.034 A 
BRANCH  56  70
ATOM     70  C   UNL A   1      40.296  28.959  29.231  1.00  0.00     0.023 A 
ATOM     71  C   UNL A   1      39.875  28.968  30.572  1.00  0.00     0.031 A 
ATOM     72  C   UNL A   1      39.336  29.236  28.240  1.00  0.00     0.131 A 
ATOM     73  C   UNL A   1      38.522  29.180  30.882  1.00  0.00     0.055 A 
ATOM     74  C   UNL A   1      38.008  29.529  28.560  1.00  0.00     0.041 A 
ATOM     75  F   UNL A   1      39.670  29.222  26.939  1.00  0.00    -0.206 F 
ATOM     76  C   UNL A   1      37.592  29.488  29.887  1.00  0.00     0.022 A 
BRANCH  73  77
ATOM     77  S   UNL A   1      37.970  28.908  32.587  1.00  0.00     0.124 S 
ATOM     78  O   UNL A   1      38.112  27.460  32.716  1.00  0.00    -0.237 OA
ATOM     79  O   UNL A   1      38.911  29.714  33.356  1.00  0.00    -0.237 OA
ATOM     80  O   UNL A   1      36.592  29.393  32.583  1.00  0.00    -0.744 OA
ENDBRANCH  73  77
ENDBRANCH  56  70
BRANCH  57  81
ATOM     81  C   UNL A   1      49.568  26.697  26.179  1.00  0.00     0.023 A 
ATOM     82  C   UNL A   1      50.018  27.171  24.936  1.00  0.00     0.031 A 
ATOM     83  C   UNL A   1      50.434  25.870  26.918  1.00  0.00     0.131 A 
ATOM     84  C   UNL A   1      51.270  26.770  24.443  1.00  0.00     0.055 A 
ATOM     85  C   UNL A   1      51.704  25.527  26.454  1.00  0.00     0.041 A 
ATOM     86  F   UNL A   1      50.057  25.386  28.113  1.00  0.00    -0.206 F 
ATOM     87  C   UNL A   1      52.123  25.964  25.201  1.00  0.00     0.022 A 
BRANCH  84  88
ATOM     88  S   UNL A   1      51.720  27.225  22.746  1.00  0.00     0.124 S 
ATOM     89  O   UNL A   1      51.776  28.679  22.835  1.00  0.00    -0.237 OA
ATOM     90  O   UNL A   1      52.999  26.542  22.579  1.00  0.00    -0.237 OA
ATOM     91  O   UNL A   1      50.620  26.689  21.947  1.00  0.00    -0.744 OA
ENDBRANCH  84  88
ENDBRANCH  57  81
BRANCH  69  92
ATOM     92  C   UNL A   1      46.600  32.493  28.679  1.00  0.00     0.023 A 
ATOM     93  C   UNL A   1      46.571  33.529  27.728  1.00  0.00     0.031 A 
ATOM     94  C   UNL A   1      47.180  32.765  29.931  1.00  0.00     0.131 A 
ATOM     95  C   UNL A   1      47.167  34.764  28.020  1.00  0.00     0.055 A 
ATOM     96  C   UNL A   1      47.708  34.018  30.241  1.00  0.00     0.041 A 
ATOM     97  F   UNL A   1      47.242  31.813  30.877  1.00  0.00    -0.206 F 
ATOM     98  C   UNL A   1      47.717  35.023  29.279  1.00  0.00     0.022 A 
BRANCH  95  99
ATOM     99  S   UNL A   1      47.313  35.997  26.697  1.00  0.00     0.124 S 
ATOM    100  O   UNL A   1      46.743  37.184  27.324  1.00  0.00    -0.237 OA
ATOM    101  O   UNL A   1      48.753  36.031  26.460  1.00  0.00    -0.237 OA
ATOM    102  O   UNL A   1      46.520  35.428  25.608  1.00  0.00    -0.744 OA
ENDBRANCH  95  99
ENDBRANCH  69  92
ENDBRANCH  43  44
ENDBRANCH  35  38
ENDBRANCH  33  34
ENDBRANCH  32  33
ENDBRANCH  31  32
ENDBRANCH   1  31
TORSDOF 21
ENDMDL
MODEL 2
REMARK VINA RESULT:     -11.7      1.521      2.043
REMARK SMILES CCc1c(C)nn(CC(=O)N[C@H](C(=O)NCCCCCCNC(=O)c2ccc(-c3c4nc(c(-c5cc(S(=O)(=O)[O-])ccc5F)c5ccc([nH]5)c(-c5cc(S(=O)(=O)[O-])ccc5F)c5nc(c(-c6cc(S(=O)(=O)[O-])ccc6F)c6ccc3[nH]6)C=C5)C=C4)cc2)c2c(C)n[nH]c2C)c1C
REMARK SMILES IDX 18 1 17 2 16 3 15 4 13 5 14 6 12 8 11 9 9 10 10 11 8 13 7 14
REMARK SMILES IDX 3 15 4 16 95 17 5 18 6 19 96 20 2 21 1 22 88 23 89 24 93 25
REMARK SMILES IDX 90 26 91 27 92 28 94 29 19 31 20 32 21 33 22 34 23 35 24 37
REMARK SMILES IDX 25 38 26 39 87 40 27 41 86 42 28 43 29 44 30 45 80 46 31 47
REMARK SMILES IDX 85 48 79 49 81 50 32 51 84 52 78 53 77 54 33 56 65 57 45 58
REMARK SMILES IDX 64 59 46 60 49 61 63 62 82 63 47 64 48 65 62 67 83 68 50 69
REMARK SMILES IDX 34 70 35 71 43 72 36 73 42 74 44 75 41 76 37 77 38 78 39 79
REMARK SMILES IDX 40 80 66 81 67 82 75 83 68 84 74 85 76 86 73 87 69 88 70 89
REMARK SMILES IDX 71 90 72 91 51 92 52 93 60 94 53 95 59 96 61 97 58 98 54 99
REMARK SMILES IDX 55 100 56 101 57 102
REMARK H PARENT 15 7 11 12 92 30 22 36 81 55 49 66
REMARK Flexibility Score: inf
ROOT
ATOM      1  C   UNL A   1      37.616  21.547  24.569  1.00  0.00     0.002 C 
ENDROOT
BRANCH   1   2
ATOM      2  C   UNL A   1      36.636  22.349  23.713  1.00  0.00     0.021 C 
BRANCH   2   3
ATOM      3  C   UNL A   1      35.326  22.720  24.394  1.00  0.00     0.116 C 
BRANCH   3   4
ATOM      4  N   UNL A   1      34.141  22.028  23.916  1.00  0.00    -0.354 N 
ATOM      5  C   UNL A   1      33.009  22.559  23.338  1.00  0.00     0.247 C 
ATOM      6  O   UNL A   1      32.328  21.787  22.649  1.00  0.00    -0.272 OA
ATOM      7  H   UNL A   1      34.149  21.050  24.018  1.00  0.00     0.163 HD
BRANCH   5   8
ATOM      8  C   UNL A   1      32.543  24.046  23.527  1.00  0.00     0.206 C 
BRANCH   8   9
ATOM      9  N   UNL A   1      32.253  24.564  22.210  1.00  0.00    -0.339 N 
ATOM     10  C   UNL A   1      32.221  25.865  21.822  1.00  0.00     0.242 C 
ATOM     11  O   UNL A   1      31.443  26.161  20.913  1.00  0.00    -0.273 OA
ATOM     12  H   UNL A   1      32.056  23.896  21.513  1.00  0.00     0.164 HD
BRANCH  10  13
ATOM     13  C   UNL A   1      33.271  26.806  22.328  1.00  0.00     0.244 C 
BRANCH  13  14
ATOM     14  N   UNL A   1      32.935  27.801  23.372  1.00  0.00    -0.260 N 
ATOM     15  C   UNL A   1      32.420  29.390  24.967  1.00  0.00    -0.004 A 
ATOM     16  C   UNL A   1      33.449  28.491  25.348  1.00  0.00     0.063 A 
ATOM     17  C   UNL A   1      31.890  28.998  23.552  1.00  0.00     0.039 A 
ATOM     18  C   UNL A   1      34.277  28.418  26.587  1.00  0.00     0.069 C 
ATOM     19  N   UNL A   1      33.695  27.579  24.449  1.00  0.00    -0.177 NA
ATOM     20  C   UNL A   1      30.252  29.745  22.225  1.00  0.00     0.066 C 
BRANCH  15  21
ATOM     21  C   UNL A   1      32.059  30.540  25.933  1.00  0.00     0.036 C 
ATOM     22  C   UNL A   1      30.750  31.265  25.629  1.00  0.00     0.009 C 
ENDBRANCH  15  21
ENDBRANCH  13  14
ENDBRANCH  10  13
ENDBRANCH   8   9
BRANCH   8  23
ATOM     23  C   UNL A   1      31.453  24.247  24.540  1.00  0.00     0.027 A 
ATOM     24  C   UNL A   1      31.520  23.262  26.243  1.00  0.00     0.065 A 
ATOM     25  C   UNL A   1      29.993  25.357  24.648  1.00  0.00     0.038 A 
ATOM     26  C   UNL A   1      32.623  22.462  26.840  1.00  0.00     0.069 C 
ATOM     27  N   UNL A   1      30.212  23.774  27.252  1.00  0.00    -0.180 NA
ATOM     28  N   UNL A   1      29.184  24.995  26.288  1.00  0.00    -0.282 N 
ATOM     29  C   UNL A   1      29.382  26.505  23.902  1.00  0.00     0.066 C 
ATOM     30  H   UNL A   1      28.337  25.392  26.599  1.00  0.00     0.190 HD
ENDBRANCH   8  23
ENDBRANCH   5   8
ENDBRANCH   3   4
ENDBRANCH   2   3
ENDBRANCH   1   2
BRANCH   1  31
ATOM     31  C   UNL A   1      37.390  20.031  24.627  1.00  0.00     0.002 C 
BRANCH  31  32
ATOM     32  C   UNL A   1      38.453  19.205  25.358  1.00  0.00     0.021 C 
BRANCH  32  33
ATOM     33  C   UNL A   1      39.629  19.984  25.944  1.00  0.00     0.116 C 
BRANCH  33  34
ATOM     34  N   UNL A   1      40.841  19.185  26.022  1.00  0.00    -0.352 N 
ATOM     35  C   UNL A   1      42.152  19.578  26.146  1.00  0.00     0.251 C 
ATOM     36  H   UNL A   1      40.702  18.212  25.978  1.00  0.00     0.163 HD
ATOM     37  O   UNL A   1      43.043  18.742  26.016  1.00  0.00    -0.269 OA
BRANCH  35  38
ATOM     38  C   UNL A   1      42.500  20.995  26.407  1.00  0.00     0.039 A 
ATOM     39  C   UNL A   1      42.647  21.415  27.733  1.00  0.00     0.014 A 
ATOM     40  C   UNL A   1      42.645  21.920  25.369  1.00  0.00     0.014 A 
ATOM     41  C   UNL A   1      42.997  22.739  28.013  1.00  0.00     0.010 A 
ATOM     42  C   UNL A   1      43.057  23.224  25.646  1.00  0.00     0.010 A 
ATOM     43  C   UNL A   1      43.241  23.650  26.971  1.00  0.00    -0.014 A 
BRANCH  43  44
ATOM     44  C   UNL A   1      43.700  25.037  27.258  1.00  0.00     0.031 A 
ATOM     45  C   UNL A   1      42.737  26.071  27.781  1.00  0.00     0.074 A 
ATOM     46  C   UNL A   1      44.981  25.378  27.008  1.00  0.00     0.049 A 
ATOM     47  N   UNL A   1      42.944  27.336  28.049  1.00  0.00    -0.248 NA
ATOM     48  C   UNL A   1      41.354  25.628  28.014  1.00  0.00     0.031 C 
ATOM     49  C   UNL A   1      46.004  24.476  26.476  1.00  0.00     0.029 A 
ATOM     50  N   UNL A   1      45.643  26.572  27.162  1.00  0.00    -0.354 N 
ATOM     51  C   UNL A   1      41.720  27.843  28.470  1.00  0.00     0.074 A 
ATOM     52  C   UNL A   1      40.764  26.760  28.370  1.00  0.00     0.031 C 
ATOM     53  C   UNL A   1      47.168  25.136  26.381  1.00  0.00     0.029 A 
ATOM     54  C   UNL A   1      46.967  26.524  26.788  1.00  0.00     0.049 A 
ATOM     55  H   UNL A   1      45.211  27.386  27.507  1.00  0.00     0.167 HD
ATOM     56  C   UNL A   1      41.425  29.091  28.917  1.00  0.00     0.034 A 
ATOM     57  C   UNL A   1      47.910  27.487  26.763  1.00  0.00     0.034 A 
ATOM     58  C   UNL A   1      42.391  30.159  29.014  1.00  0.00     0.049 A 
ATOM     59  C   UNL A   1      47.543  28.879  27.217  1.00  0.00     0.074 A 
ATOM     60  C   UNL A   1      42.209  31.441  29.506  1.00  0.00     0.029 A 
ATOM     61  N   UNL A   1      43.716  30.081  28.601  1.00  0.00    -0.354 N 
ATOM     62  N   UNL A   1      46.392  29.326  27.666  1.00  0.00    -0.248 NA
ATOM     63  C   UNL A   1      48.605  29.893  27.168  1.00  0.00     0.031 C 
ATOM     64  C   UNL A   1      43.393  32.160  29.311  1.00  0.00     0.029 A 
ATOM     65  C   UNL A   1      44.346  31.303  28.785  1.00  0.00     0.049 A 
ATOM     66  H   UNL A   1      44.144  29.276  28.231  1.00  0.00     0.167 HD
ATOM     67  C   UNL A   1      46.606  30.665  27.987  1.00  0.00     0.074 A 
ATOM     68  C   UNL A   1      47.997  30.944  27.698  1.00  0.00     0.031 C 
ATOM     69  C   UNL A   1      45.732  31.578  28.483  1.00  0.00     0.034 A 
BRANCH  56  70
ATOM     70  C   UNL A   1      39.991  29.379  29.298  1.00  0.00     0.023 A 
ATOM     71  C   UNL A   1      39.573  29.421  30.640  1.00  0.00     0.031 A 
ATOM     72  C   UNL A   1      39.024  29.612  28.303  1.00  0.00     0.131 A 
ATOM     73  C   UNL A   1      38.217  29.621  30.947  1.00  0.00     0.055 A 
ATOM     74  C   UNL A   1      37.693  29.893  28.617  1.00  0.00     0.041 A 
ATOM     75  F   UNL A   1      39.356  29.563  27.002  1.00  0.00    -0.206 F 
ATOM     76  C   UNL A   1      37.280  29.885  29.946  1.00  0.00     0.022 A 
BRANCH  73  77
ATOM     77  S   UNL A   1      37.673  29.391  32.661  1.00  0.00     0.124 S 
ATOM     78  O   UNL A   1      36.365  30.040  32.645  1.00  0.00    -0.237 OA
ATOM     79  O   UNL A   1      37.666  27.939  32.798  1.00  0.00    -0.237 OA
ATOM     80  O   UNL A   1      38.695  30.086  33.441  1.00  0.00    -0.744 OA
ENDBRANCH  73  77
ENDBRANCH  56  70
BRANCH  57  81
ATOM     81  C   UNL A   1      49.291  27.189  26.280  1.00  0.00     0.023 A 
ATOM     82  C   UNL A   1      50.340  26.961  27.185  1.00  0.00     0.031 A 
ATOM     83  C   UNL A   1      49.598  27.191  24.907  1.00  0.00     0.131 A 
ATOM     84  C   UNL A   1      51.653  26.803  26.713  1.00  0.00     0.055 A 
ATOM     85  C   UNL A   1      50.894  26.966  24.439  1.00  0.00     0.041 A 
ATOM     86  F   UNL A   1      48.636  27.404  23.995  1.00  0.00    -0.206 F 
ATOM     87  C   UNL A   1      51.934  26.787  25.345  1.00  0.00     0.022 A 
BRANCH  84  88
ATOM     88  S   UNL A   1      53.006  26.729  27.919  1.00  0.00     0.124 S 
ATOM     89  O   UNL A   1      53.878  25.722  27.325  1.00  0.00    -0.237 OA
ATOM     90  O   UNL A   1      53.503  28.101  27.900  1.00  0.00    -0.237 OA
ATOM     91  O   UNL A   1      52.338  26.326  29.155  1.00  0.00    -0.744 OA
ENDBRANCH  84  88
ENDBRANCH  57  81
BRANCH  69  92
ATOM     92  C   UNL A   1      46.274  32.955  28.789  1.00  0.00     0.023 A 
ATOM     93  C   UNL A   1      46.264  33.988  27.835  1.00  0.00     0.031 A 
ATOM     94  C   UNL A   1      46.825  33.233  30.053  1.00  0.00     0.131 A 
ATOM     95  C   UNL A   1      46.851  35.226  28.136  1.00  0.00     0.055 A 
ATOM     96  C   UNL A   1      47.342  34.489  30.371  1.00  0.00     0.041 A 
ATOM     97  F   UNL A   1      46.868  32.285  31.004  1.00  0.00    -0.206 F 
ATOM     98  C   UNL A   1      47.371  35.490  29.406  1.00  0.00     0.022 A 
BRANCH  95  99
ATOM     99  S   UNL A   1      47.024  36.455  26.813  1.00  0.00     0.124 S 
ATOM    100  O   UNL A   1      47.687  35.683  25.767  1.00  0.00    -0.237 OA
ATOM    101  O   UNL A   1      45.637  36.826  26.549  1.00  0.00    -0.237 OA
ATOM    102  O   UNL A   1      47.839  37.504  27.422  1.00  0.00    -0.744 OA
ENDBRANCH  95  99
ENDBRANCH  69  92
ENDBRANCH  43  44
ENDBRANCH  35  38
ENDBRANCH  33  34
ENDBRANCH  32  33
ENDBRANCH  31  32
ENDBRANCH   1  31
TORSDOF 21
ENDMDL
MODEL 3
REMARK VINA RESULT:     -11.2      1.652      7.419
REMARK SMILES CCc1c(C)nn(CC(=O)N[C@H](C(=O)NCCCCCCNC(=O)c2ccc(-c3c4nc(c(-c5cc(S(=O)(=O)[O-])ccc5F)c5ccc([nH]5)c(-c5cc(S(=O)(=O)[O-])ccc5F)c5nc(c(-c6cc(S(=O)(=O)[O-])ccc6F)c6ccc3[nH]6)C=C5)C=C4)cc2)c2c(C)n[nH]c2C)c1C
REMARK SMILES IDX 18 1 17 2 16 3 15 4 13 5 14 6 12 8 11 9 9 10 10 11 8 13 7 14
REMARK SMILES IDX 3 15 4 16 95 17 5 18 6 19 96 20 2 21 1 22 88 23 89 24 93 25
REMARK SMILES IDX 90 26 91 27 92 28 94 29 19 31 20 32 21 33 22 34 23 35 24 37
REMARK SMILES IDX 25 38 26 39 87 40 27 41 86 42 28 43 29 44 30 45 80 46 31 47
REMARK SMILES IDX 85 48 79 49 81 50 32 51 84 52 78 53 77 54 33 56 65 57 45 58
REMARK SMILES IDX 64 59 46 60 49 61 63 62 82 63 47 64 48 65 62 67 83 68 50 69
REMARK SMILES IDX 34 70 35 71 43 72 36 73 42 74 44 75 41 76 37 77 38 78 39 79
REMARK SMILES IDX 40 80 66 81 67 82 75 83 68 84 74 85 76 86 73 87 69 88 70 89
REMARK SMILES IDX 71 90 72 91 51 92 52 93 60 94 53 95 59 96 61 97 58 98 54 99
REMARK SMILES IDX 55 100 56 101 57 102
REMARK H PARENT 15 7 11 12 92 30 22 36 81 55 49 66
REMARK Flexibility Score: inf
ROOT
ATOM      1  C   UNL A   1      37.570  21.626  24.843  1.00  0.00     0.002 C 
ENDROOT
BRANCH   1   2
ATOM      2  C   UNL A   1      36.331  22.425  24.441  1.00  0.00     0.021 C 
BRANCH   2   3
ATOM      3  C   UNL A   1      34.998  21.811  24.847  1.00  0.00     0.116 C 
BRANCH   3   4
ATOM      4  N   UNL A   1      33.996  21.714  23.799  1.00  0.00    -0.354 N 
ATOM      5  C   UNL A   1      33.294  22.726  23.183  1.00  0.00     0.247 C 
ATOM      6  O   UNL A   1      32.816  22.467  22.070  1.00  0.00    -0.272 OA
ATOM      7  H   UNL A   1      33.792  20.804  23.488  1.00  0.00     0.163 HD
BRANCH   5   8
ATOM      8  C   UNL A   1      33.059  24.143  23.818  1.00  0.00     0.206 C 
BRANCH   8   9
ATOM      9  N   UNL A   1      33.016  25.089  22.727  1.00  0.00    -0.339 N 
ATOM     10  C   UNL A   1      32.987  26.443  22.807  1.00  0.00     0.242 C 
ATOM     11  O   UNL A   1      32.397  27.048  21.910  1.00  0.00    -0.273 OA
ATOM     12  H   UNL A   1      33.008  24.706  21.819  1.00  0.00     0.164 HD
BRANCH  10  13
ATOM     13  C   UNL A   1      33.852  27.135  23.817  1.00  0.00     0.244 C 
BRANCH  13  14
ATOM     14  N   UNL A   1      33.283  28.197  24.678  1.00  0.00    -0.260 N 
ATOM     15  C   UNL A   1      32.398  29.887  25.981  1.00  0.00    -0.004 A 
ATOM     16  C   UNL A   1      33.577  29.298  26.507  1.00  0.00     0.063 A 
ATOM     17  C   UNL A   1      32.008  29.163  24.653  1.00  0.00     0.039 A 
ATOM     18  C   UNL A   1      34.360  29.606  27.739  1.00  0.00     0.069 C 
ATOM     19  N   UNL A   1      34.035  28.321  25.775  1.00  0.00    -0.177 NA
ATOM     20  C   UNL A   1      30.298  29.321  23.222  1.00  0.00     0.066 C 
BRANCH  15  21
ATOM     21  C   UNL A   1      31.776  31.080  26.738  1.00  0.00     0.036 C 
ATOM     22  C   UNL A   1      30.929  32.026  25.889  1.00  0.00     0.009 C 
ENDBRANCH  15  21
ENDBRANCH  13  14
ENDBRANCH  10  13
ENDBRANCH   8   9
BRANCH   8  23
ATOM     23  C   UNL A   1      31.903  24.226  24.774  1.00  0.00     0.027 A 
ATOM     24  C   UNL A   1      32.037  23.356  26.533  1.00  0.00     0.065 A 
ATOM     25  C   UNL A   1      30.288  25.102  24.757  1.00  0.00     0.038 A 
ATOM     26  C   UNL A   1      33.218  22.768  27.221  1.00  0.00     0.069 C 
ATOM     27  N   UNL A   1      30.618  23.712  27.457  1.00  0.00    -0.180 NA
ATOM     28  N   UNL A   1      29.465  24.708  26.382  1.00  0.00    -0.282 N 
ATOM     29  C   UNL A   1      29.547  26.101  23.920  1.00  0.00     0.066 C 
ATOM     30  H   UNL A   1      28.554  24.985  26.635  1.00  0.00     0.190 HD
ENDBRANCH   8  23
ENDBRANCH   5   8
ENDBRANCH   3   4
ENDBRANCH   2   3
ENDBRANCH   1   2
BRANCH   1  31
ATOM     31  C   UNL A   1      37.509  20.111  24.615  1.00  0.00     0.002 C 
BRANCH  31  32
ATOM     32  C   UNL A   1      38.500  19.255  25.411  1.00  0.00     0.021 C 
BRANCH  32  33
ATOM     33  C   UNL A   1      39.772  19.958  25.883  1.00  0.00     0.116 C 
BRANCH  33  34
ATOM     34  N   UNL A   1      40.861  19.028  26.131  1.00  0.00    -0.352 N 
ATOM     35  C   UNL A   1      42.181  19.271  26.427  1.00  0.00     0.251 C 
ATOM     36  H   UNL A   1      40.616  18.076  26.077  1.00  0.00     0.163 HD
ATOM     37  O   UNL A   1      42.977  18.336  26.426  1.00  0.00    -0.269 OA
BRANCH  35  38
ATOM     38  C   UNL A   1      42.654  20.645  26.721  1.00  0.00     0.039 A 
ATOM     39  C   UNL A   1      43.204  21.401  25.680  1.00  0.00     0.014 A 
ATOM     40  C   UNL A   1      42.596  21.183  28.010  1.00  0.00     0.014 A 
ATOM     41  C   UNL A   1      43.638  22.708  25.918  1.00  0.00     0.010 A 
ATOM     42  C   UNL A   1      42.970  22.509  28.232  1.00  0.00     0.010 A 
ATOM     43  C   UNL A   1      43.493  23.289  27.188  1.00  0.00    -0.014 A 
BRANCH  43  44
ATOM     44  C   UNL A   1      43.871  24.710  27.429  1.00  0.00     0.031 A 
ATOM     45  C   UNL A   1      45.304  25.155  27.298  1.00  0.00     0.074 A 
ATOM     46  C   UNL A   1      42.925  25.594  27.807  1.00  0.00     0.049 A 
ATOM     47  N   UNL A   1      45.827  26.337  27.507  1.00  0.00    -0.248 NA
ATOM     48  C   UNL A   1      46.281  24.131  26.898  1.00  0.00     0.031 C 
ATOM     49  C   UNL A   1      41.507  25.281  27.994  1.00  0.00     0.029 A 
ATOM     50  N   UNL A   1      43.008  26.932  28.104  1.00  0.00    -0.354 N 
ATOM     51  C   UNL A   1      47.192  26.198  27.276  1.00  0.00     0.074 A 
ATOM     52  C   UNL A   1      47.420  24.803  26.963  1.00  0.00     0.031 C 
ATOM     53  C   UNL A   1      40.851  26.399  28.341  1.00  0.00     0.029 A 
ATOM     54  C   UNL A   1      41.804  27.498  28.458  1.00  0.00     0.049 A 
ATOM     55  H   UNL A   1      43.851  27.440  28.069  1.00  0.00     0.167 HD
ATOM     56  C   UNL A   1      48.159  27.149  27.305  1.00  0.00     0.034 A 
ATOM     57  C   UNL A   1      41.502  28.754  28.845  1.00  0.00     0.034 A 
ATOM     58  C   UNL A   1      47.914  28.538  27.615  1.00  0.00     0.049 A 
ATOM     59  C   UNL A   1      42.606  29.781  28.917  1.00  0.00     0.074 A 
ATOM     60  C   UNL A   1      48.812  29.591  27.615  1.00  0.00     0.029 A 
ATOM     61  N   UNL A   1      46.687  29.068  27.995  1.00  0.00    -0.354 N 
ATOM     62  N   UNL A   1      43.883  29.643  28.640  1.00  0.00    -0.248 NA
ATOM     63  C   UNL A   1      42.225  31.133  29.345  1.00  0.00     0.031 C 
ATOM     64  C   UNL A   1      48.152  30.734  28.076  1.00  0.00     0.029 A 
ATOM     65  C   UNL A   1      46.816  30.421  28.274  1.00  0.00     0.049 A 
ATOM     66  H   UNL A   1      45.847  28.558  28.057  1.00  0.00     0.167 HD
ATOM     67  C   UNL A   1      44.448  30.903  28.826  1.00  0.00     0.074 A 
ATOM     68  C   UNL A   1      43.370  31.787  29.220  1.00  0.00     0.031 C 
ATOM     69  C   UNL A   1      45.739  31.295  28.679  1.00  0.00     0.034 A 
BRANCH  56  70
ATOM     70  C   UNL A   1      49.580  26.713  27.028  1.00  0.00     0.023 A 
ATOM     71  C   UNL A   1      50.561  26.693  28.036  1.00  0.00     0.031 A 
ATOM     72  C   UNL A   1      49.961  26.313  25.734  1.00  0.00     0.131 A 
ATOM     73  C   UNL A   1      51.885  26.349  27.719  1.00  0.00     0.055 A 
ATOM     74  C   UNL A   1      51.260  25.892  25.444  1.00  0.00     0.041 A 
ATOM     75  F   UNL A   1      49.075  26.330  24.724  1.00  0.00    -0.206 F 
ATOM     76  C   UNL A   1      52.235  25.921  26.436  1.00  0.00     0.022 A 
BRANCH  73  77
ATOM     77  S   UNL A   1      53.170  26.604  28.972  1.00  0.00     0.124 S 
ATOM     78  O   UNL A   1      54.295  25.873  28.395  1.00  0.00    -0.237 OA
ATOM     79  O   UNL A   1      53.299  28.056  29.002  1.00  0.00    -0.237 OA
ATOM     80  O   UNL A   1      52.599  26.003  30.176  1.00  0.00    -0.744 OA
ENDBRANCH  73  77
ENDBRANCH  56  70
BRANCH  57  81
ATOM     81  C   UNL A   1      40.102  29.122  29.211  1.00  0.00     0.023 A 
ATOM     82  C   UNL A   1      39.687  29.141  30.552  1.00  0.00     0.031 A 
ATOM     83  C   UNL A   1      39.139  29.399  28.222  1.00  0.00     0.131 A 
ATOM     84  C   UNL A   1      38.338  29.371  30.866  1.00  0.00     0.055 A 
ATOM     85  C   UNL A   1      37.814  29.693  28.544  1.00  0.00     0.041 A 
ATOM     86  F   UNL A   1      39.479  29.394  26.923  1.00  0.00    -0.206 F 
ATOM     87  C   UNL A   1      37.402  29.664  29.872  1.00  0.00     0.022 A 
BRANCH  84  88
ATOM     88  S   UNL A   1      37.801  29.171  32.587  1.00  0.00     0.124 S 
ATOM     89  O   UNL A   1      36.490  29.810  32.565  1.00  0.00    -0.237 OA
ATOM     90  O   UNL A   1      37.806  27.720  32.739  1.00  0.00    -0.237 OA
ATOM     91  O   UNL A   1      38.829  29.880  33.348  1.00  0.00    -0.744 OA
ENDBRANCH  84  88
ENDBRANCH  57  81
BRANCH  69  92
ATOM     92  C   UNL A   1      46.046  32.758  28.898  1.00  0.00     0.023 A 
ATOM     93  C   UNL A   1      45.978  33.697  27.854  1.00  0.00     0.031 A 
ATOM     94  C   UNL A   1      46.429  33.217  30.172  1.00  0.00     0.131 A 
ATOM     95  C   UNL A   1      46.349  35.031  28.086  1.00  0.00     0.055 A 
ATOM     96  C   UNL A   1      46.727  34.558  30.413  1.00  0.00     0.041 A 
ATOM     97  F   UNL A   1      46.517  32.365  31.207  1.00  0.00    -0.206 F 
ATOM     98  C   UNL A   1      46.702  35.471  29.364  1.00  0.00     0.022 A 
BRANCH  95  99
ATOM     99  S   UNL A   1      46.468  36.161  26.672  1.00  0.00     0.124 S 
ATOM    100  O   UNL A   1      46.315  35.251  25.542  1.00  0.00    -0.237 OA
ATOM    101  O   UNL A   1      45.355  37.075  26.909  1.00  0.00    -0.237 OA
ATOM    102  O   UNL A   1      47.797  36.754  26.817  1.00  0.00    -0.744 OA
ENDBRANCH  95  99
ENDBRANCH  69  92
ENDBRANCH  43  44
ENDBRANCH  35  38
ENDBRANCH  33  34
ENDBRANCH  32  33
ENDBRANCH  31  32
ENDBRANCH   1  31
TORSDOF 21
ENDMDL
