MODEL 1
REMARK VINA RESULT:     -13.7      0.000      0.000
REMARK SMILES C[C@]1(C(=O)NCCCCCCNC(=O)c2ccc(-c3c4nc(c(-c5cc(S(=O)(=O)[O-])ccc5F)c5ccc([nH]5)c(-c5cc(S(=O)(=O)[O-])ccc5F)c5nc(c(-c6cc(S(=O)(=O)[O-])ccc6F)c6ccc3[nH]6)C=C5)C=C4)cc2)[NH2+]C2(C(=O)c3ccccc3C2=O)[C@@H]2C(=O)N(c3ccccc3)C(=O)[C@H]21
REMARK SMILES IDX 9 1 8 2 7 3 6 4 5 5 3 6 4 7 2 9 1 10 78 11 102 12 79 13
REMARK SMILES IDX 90 16 100 17 80 18 88 19 91 20 93 21 101 22 81 23 82 24
REMARK SMILES IDX 87 25 89 26 92 27 83 28 86 29 84 30 85 31 94 32 95 33 99 34
REMARK SMILES IDX 96 35 98 36 97 37 10 38 11 39 12 40 13 41 14 43 15 44 16 45
REMARK SMILES IDX 77 46 17 47 76 48 18 49 19 50 20 51 70 52 21 53 75 54 69 55
REMARK SMILES IDX 71 56 22 57 74 58 68 59 67 60 23 62 55 63 35 64 54 65 36 66
REMARK SMILES IDX 39 67 53 68 72 69 37 70 38 71 52 73 73 74 40 75 24 76 25 77
REMARK SMILES IDX 33 78 26 79 32 80 34 81 31 82 27 83 28 84 29 85 30 86 56 87
REMARK SMILES IDX 57 88 65 89 58 90 64 91 66 92 63 93 59 94 60 95 61 96 62 97
REMARK SMILES IDX 41 98 42 99 50 100 43 101 49 102 51 103 48 104 44 105 45 106
REMARK SMILES IDX 46 107 47 108
REMARK H PARENT 5 8 78 14 78 15 12 42 71 61 39 72
REMARK Flexibility Score: inf
ROOT
ATOM      1  C   UNL A   1      34.929  33.923  29.355  1.00  0.00     0.002 C 
ENDROOT
BRANCH   1   2
ATOM      2  C   UNL A   1      34.154  33.072  28.341  1.00  0.00     0.002 C 
BRANCH   2   3
ATOM      3  C   UNL A   1      34.551  31.605  28.216  1.00  0.00     0.021 C 
BRANCH   3   4
ATOM      4  C   UNL A   1      33.723  30.752  27.265  1.00  0.00     0.116 C 
BRANCH   4   5
ATOM      5  N   UNL A   1      32.872  29.740  27.819  1.00  0.00    -0.351 N 
ATOM      6  C   UNL A   1      32.636  28.455  27.423  1.00  0.00     0.281 C 
ATOM      7  O   UNL A   1      31.832  27.854  28.155  1.00  0.00    -0.268 OA
ATOM      8  H   UNL A   1      32.374  30.019  28.622  1.00  0.00     0.163 HD
BRANCH   6   9
ATOM      9  C   UNL A   1      33.284  27.697  26.172  1.00  0.00     0.186 C 
ATOM     10  C   UNL A   1      34.687  28.334  25.983  1.00  0.00     0.091 C 
ATOM     11  N   UNL A   1      33.466  26.200  26.372  1.00  0.00    -0.314 N 
ATOM     12  C   UNL A   1      32.582  27.738  24.843  1.00  0.00     0.170 C 
ATOM     13  C   UNL A   1      32.593  25.449  25.360  1.00  0.00     0.236 C 
ATOM     14  H   UNL A   1      33.185  25.945  27.320  1.00  0.00     0.348 HD
ATOM     15  H   UNL A   1      34.444  25.951  26.234  1.00  0.00     0.348 HD
ATOM     16  C   UNL A   1      31.684  26.521  24.834  1.00  0.00     0.177 C 
ATOM     17  C   UNL A   1      31.648  28.792  24.373  1.00  0.00     0.244 C 
ATOM     18  C   UNL A   1      33.397  24.695  24.295  1.00  0.00     0.232 C 
ATOM     19  C   UNL A   1      31.897  24.290  26.105  1.00  0.00     0.232 C 
ATOM     20  C   UNL A   1      30.995  26.737  23.530  1.00  0.00     0.245 C 
ATOM     21  N   UNL A   1      30.815  28.123  23.474  1.00  0.00    -0.250 N 
ATOM     22  O   UNL A   1      31.676  29.962  24.705  1.00  0.00    -0.273 OA
ATOM     23  O   UNL A   1      34.215  25.176  23.531  1.00  0.00    -0.286 OA
ATOM     24  C   UNL A   1      33.066  23.260  24.380  1.00  0.00     0.036 A 
ATOM     25  C   UNL A   1      32.214  23.040  25.449  1.00  0.00     0.036 A 
ATOM     26  O   UNL A   1      31.208  24.295  27.108  1.00  0.00    -0.286 OA
ATOM     27  O   UNL A   1      30.558  25.847  22.821  1.00  0.00    -0.273 OA
ATOM     28  C   UNL A   1      33.488  22.195  23.607  1.00  0.00     0.013 A 
ATOM     29  C   UNL A   1      31.763  21.785  25.821  1.00  0.00     0.013 A 
ATOM     30  C   UNL A   1      33.030  20.910  23.950  1.00  0.00     0.001 A 
ATOM     31  C   UNL A   1      32.180  20.706  25.052  1.00  0.00     0.001 A 
BRANCH  21  32
ATOM     32  C   UNL A   1      29.766  28.790  22.814  1.00  0.00     0.052 A 
ATOM     33  C   UNL A   1      30.045  29.784  21.866  1.00  0.00     0.027 A 
ATOM     34  C   UNL A   1      28.443  28.578  23.217  1.00  0.00     0.027 A 
ATOM     35  C   UNL A   1      29.013  30.551  21.324  1.00  0.00     0.002 A 
ATOM     36  C   UNL A   1      27.421  29.386  22.714  1.00  0.00     0.002 A 
ATOM     37  C   UNL A   1      27.705  30.365  21.763  1.00  0.00     0.000 A 
ENDBRANCH  21  32
ENDBRANCH   6   9
ENDBRANCH   4   5
ENDBRANCH   3   4
ENDBRANCH   2   3
ENDBRANCH   1   2
BRANCH   1  38
ATOM     38  C   UNL A   1      34.450  33.919  30.811  1.00  0.00     0.021 C 
BRANCH  38  39
ATOM     39  C   UNL A   1      34.471  32.581  31.545  1.00  0.00     0.116 C 
BRANCH  39  40
ATOM     40  N   UNL A   1      35.076  32.652  32.864  1.00  0.00    -0.352 N 
ATOM     41  C   UNL A   1      36.289  32.193  33.320  1.00  0.00     0.251 C 
ATOM     42  H   UNL A   1      34.527  33.104  33.545  1.00  0.00     0.163 HD
ATOM     43  O   UNL A   1      36.553  32.271  34.518  1.00  0.00    -0.269 OA
BRANCH  41  44
ATOM     44  C   UNL A   1      37.256  31.567  32.390  1.00  0.00     0.039 A 
ATOM     45  C   UNL A   1      38.081  30.518  32.799  1.00  0.00     0.014 A 
ATOM     46  C   UNL A   1      37.340  32.045  31.078  1.00  0.00     0.014 A 
ATOM     47  C   UNL A   1      39.106  30.078  31.965  1.00  0.00     0.010 A 
ATOM     48  C   UNL A   1      38.315  31.541  30.211  1.00  0.00     0.010 A 
ATOM     49  C   UNL A   1      39.245  30.594  30.666  1.00  0.00    -0.014 A 
BRANCH  49  50
ATOM     50  C   UNL A   1      40.370  30.136  29.805  1.00  0.00     0.031 A 
ATOM     51  C   UNL A   1      41.605  30.985  29.636  1.00  0.00     0.074 A 
ATOM     52  C   UNL A   1      40.300  28.929  29.210  1.00  0.00     0.049 A 
ATOM     53  N   UNL A   1      42.691  30.729  28.953  1.00  0.00    -0.248 NA
ATOM     54  C   UNL A   1      41.623  32.290  30.316  1.00  0.00     0.031 C 
ATOM     55  C   UNL A   1      39.160  28.019  29.306  1.00  0.00     0.029 A 
ATOM     56  N   UNL A   1      41.203  28.249  28.431  1.00  0.00    -0.354 N 
ATOM     57  C   UNL A   1      43.511  31.842  29.105  1.00  0.00     0.074 A 
ATOM     58  C   UNL A   1      42.784  32.792  29.915  1.00  0.00     0.031 C 
ATOM     59  C   UNL A   1      39.450  26.881  28.660  1.00  0.00     0.029 A 
ATOM     60  C   UNL A   1      40.766  27.003  28.040  1.00  0.00     0.049 A 
ATOM     61  H   UNL A   1      42.080  28.617  28.174  1.00  0.00     0.167 HD
ATOM     62  C   UNL A   1      44.762  32.044  28.625  1.00  0.00     0.034 A 
ATOM     63  C   UNL A   1      41.348  26.067  27.262  1.00  0.00     0.034 A 
ATOM     64  C   UNL A   1      45.486  31.075  27.842  1.00  0.00     0.049 A 
ATOM     65  C   UNL A   1      42.727  26.330  26.713  1.00  0.00     0.074 A 
ATOM     66  C   UNL A   1      46.776  31.171  27.349  1.00  0.00     0.029 A 
ATOM     67  N   UNL A   1      44.996  29.843  27.435  1.00  0.00    -0.354 N 
ATOM     68  N   UNL A   1      43.510  27.364  26.916  1.00  0.00    -0.248 NA
ATOM     69  C   UNL A   1      43.307  25.307  25.832  1.00  0.00     0.031 C 
ATOM     70  C   UNL A   1      47.039  30.034  26.586  1.00  0.00     0.029 A 
ATOM     71  C   UNL A   1      45.947  29.185  26.671  1.00  0.00     0.049 A 
ATOM     72  H   UNL A   1      44.106  29.487  27.658  1.00  0.00     0.167 HD
ATOM     73  C   UNL A   1      44.681  27.104  26.208  1.00  0.00     0.074 A 
ATOM     74  C   UNL A   1      44.513  25.804  25.594  1.00  0.00     0.031 C 
ATOM     75  C   UNL A   1      45.787  27.879  26.075  1.00  0.00     0.034 A 
BRANCH  62  76
ATOM     76  C   UNL A   1      45.462  33.348  28.928  1.00  0.00     0.023 A 
ATOM     77  C   UNL A   1      45.223  34.476  28.120  1.00  0.00     0.031 A 
ATOM     78  C   UNL A   1      46.471  33.433  29.905  1.00  0.00     0.131 A 
ATOM     79  C   UNL A   1      46.012  35.624  28.272  1.00  0.00     0.055 A 
ATOM     80  C   UNL A   1      47.223  34.595  30.083  1.00  0.00     0.041 A 
ATOM     81  F   UNL A   1      46.741  32.384  30.700  1.00  0.00    -0.206 F 
ATOM     82  C   UNL A   1      47.006  35.691  29.254  1.00  0.00     0.022 A 
BRANCH  79  83
ATOM     83  S   UNL A   1      45.832  37.041  27.155  1.00  0.00     0.124 S 
ATOM     84  O   UNL A   1      46.781  36.708  26.094  1.00  0.00    -0.237 OA
ATOM     85  O   UNL A   1      44.423  36.955  26.780  1.00  0.00    -0.237 OA
ATOM     86  O   UNL A   1      46.199  38.187  27.978  1.00  0.00    -0.744 OA
ENDBRANCH  79  83
ENDBRANCH  62  76
BRANCH  63  87
ATOM     87  C   UNL A   1      40.630  24.781  27.010  1.00  0.00     0.023 A 
ATOM     88  C   UNL A   1      39.441  24.753  26.258  1.00  0.00     0.031 A 
ATOM     89  C   UNL A   1      41.061  23.586  27.610  1.00  0.00     0.131 A 
ATOM     90  C   UNL A   1      38.682  23.576  26.197  1.00  0.00     0.055 A 
ATOM     91  C   UNL A   1      40.343  22.396  27.478  1.00  0.00     0.041 A 
ATOM     92  F   UNL A   1      42.181  23.564  28.347  1.00  0.00    -0.206 F 
ATOM     93  C   UNL A   1      39.135  22.393  26.786  1.00  0.00     0.022 A 
BRANCH  90  94
ATOM     94  S   UNL A   1      37.015  23.584  25.483  1.00  0.00     0.124 S 
ATOM     95  O   UNL A   1      36.440  22.363  26.036  1.00  0.00    -0.237 OA
ATOM     96  O   UNL A   1      36.473  24.834  26.011  1.00  0.00    -0.237 OA
ATOM     97  O   UNL A   1      37.256  23.574  24.044  1.00  0.00    -0.744 OA
ENDBRANCH  90  94
ENDBRANCH  63  87
BRANCH  75  98
ATOM     98  C   UNL A   1      46.939  27.365  25.244  1.00  0.00     0.023 A 
ATOM     99  C   UNL A   1      47.149  27.873  23.947  1.00  0.00     0.031 A 
ATOM    100  C   UNL A   1      47.713  26.269  25.661  1.00  0.00     0.131 A 
ATOM    101  C   UNL A   1      48.072  27.253  23.095  1.00  0.00     0.055 A 
ATOM    102  C   UNL A   1      48.671  25.689  24.827  1.00  0.00     0.041 A 
ATOM    103  F   UNL A   1      47.544  25.740  26.884  1.00  0.00    -0.206 F 
ATOM    104  C   UNL A   1      48.840  26.170  23.532  1.00  0.00     0.022 A 
BRANCH 101 105
ATOM    105  S   UNL A   1      48.235  27.764  21.362  1.00  0.00     0.124 S 
ATOM    106  O   UNL A   1      48.735  26.543  20.734  1.00  0.00    -0.237 OA
ATOM    107  O   UNL A   1      46.862  28.125  21.017  1.00  0.00    -0.237 OA
ATOM    108  O   UNL A   1      49.183  28.871  21.408  1.00  0.00    -0.744 OA
ENDBRANCH 101 105
ENDBRANCH  75  98
ENDBRANCH  49  50
ENDBRANCH  41  44
ENDBRANCH  39  40
ENDBRANCH  38  39
ENDBRANCH   1  38
TORSDOF 17
ENDMDL
MODEL 2
REMARK VINA RESULT:     -13.1      5.117      7.414
REMARK SMILES C[C@]1(C(=O)NCCCCCCNC(=O)c2ccc(-c3c4nc(c(-c5cc(S(=O)(=O)[O-])ccc5F)c5ccc([nH]5)c(-c5cc(S(=O)(=O)[O-])ccc5F)c5nc(c(-c6cc(S(=O)(=O)[O-])ccc6F)c6ccc3[nH]6)C=C5)C=C4)cc2)[NH2+]C2(C(=O)c3ccccc3C2=O)[C@@H]2C(=O)N(c3ccccc3)C(=O)[C@H]21
REMARK SMILES IDX 9 1 8 2 7 3 6 4 5 5 3 6 4 7 2 9 1 10 78 11 102 12 79 13
REMARK SMILES IDX 90 16 100 17 80 18 88 19 91 20 93 21 101 22 81 23 82 24
REMARK SMILES IDX 87 25 89 26 92 27 83 28 86 29 84 30 85 31 94 32 95 33 99 34
REMARK SMILES IDX 96 35 98 36 97 37 10 38 11 39 12 40 13 41 14 43 15 44 16 45
REMARK SMILES IDX 77 46 17 47 76 48 18 49 19 50 20 51 70 52 21 53 75 54 69 55
REMARK SMILES IDX 71 56 22 57 74 58 68 59 67 60 23 62 55 63 35 64 54 65 36 66
REMARK SMILES IDX 39 67 53 68 72 69 37 70 38 71 52 73 73 74 40 75 24 76 25 77
REMARK SMILES IDX 33 78 26 79 32 80 34 81 31 82 27 83 28 84 29 85 30 86 56 87
REMARK SMILES IDX 57 88 65 89 58 90 64 91 66 92 63 93 59 94 60 95 61 96 62 97
REMARK SMILES IDX 41 98 42 99 50 100 43 101 49 102 51 103 48 104 44 105 45 106
REMARK SMILES IDX 46 107 47 108
REMARK H PARENT 5 8 78 14 78 15 12 42 71 61 39 72
REMARK Flexibility Score: inf
ROOT
ATOM      1  C   UNL A   1      33.253  33.433  28.215  1.00  0.00     0.002 C 
ENDROOT
BRANCH   1   2
ATOM      2  C   UNL A   1      34.655  32.845  28.424  1.00  0.00     0.002 C 
BRANCH   2   3
ATOM      3  C   UNL A   1      34.815  31.341  28.234  1.00  0.00     0.021 C 
BRANCH   3   4
ATOM      4  C   UNL A   1      33.833  30.663  27.289  1.00  0.00     0.116 C 
BRANCH   4   5
ATOM      5  N   UNL A   1      32.941  29.676  27.824  1.00  0.00    -0.351 N 
ATOM      6  C   UNL A   1      32.656  28.408  27.404  1.00  0.00     0.281 C 
ATOM      7  O   UNL A   1      31.826  27.827  28.123  1.00  0.00    -0.268 OA
ATOM      8  H   UNL A   1      32.452  29.960  28.629  1.00  0.00     0.163 HD
BRANCH   6   9
ATOM      9  C   UNL A   1      33.279  27.646  26.142  1.00  0.00     0.186 C 
ATOM     10  C   UNL A   1      34.690  28.261  25.942  1.00  0.00     0.091 C 
ATOM     11  N   UNL A   1      33.438  26.145  26.332  1.00  0.00    -0.314 N 
ATOM     12  C   UNL A   1      32.563  27.707  24.820  1.00  0.00     0.170 C 
ATOM     13  C   UNL A   1      32.543  25.415  25.325  1.00  0.00     0.236 C 
ATOM     14  H   UNL A   1      33.163  25.890  27.281  1.00  0.00     0.348 HD
ATOM     15  H   UNL A   1      34.411  25.882  26.182  1.00  0.00     0.348 HD
ATOM     16  C   UNL A   1      31.646  26.505  24.814  1.00  0.00     0.177 C 
ATOM     17  C   UNL A   1      31.642  28.779  24.366  1.00  0.00     0.244 C 
ATOM     18  C   UNL A   1      33.323  24.654  24.247  1.00  0.00     0.232 C 
ATOM     19  C   UNL A   1      31.836  24.263  26.070  1.00  0.00     0.232 C 
ATOM     20  C   UNL A   1      30.947  26.740  23.519  1.00  0.00     0.245 C 
ATOM     21  N   UNL A   1      30.790  28.130  23.473  1.00  0.00    -0.250 N 
ATOM     22  O   UNL A   1      31.693  29.946  24.705  1.00  0.00    -0.273 OA
ATOM     23  O   UNL A   1      34.141  25.127  23.477  1.00  0.00    -0.286 OA
ATOM     24  C   UNL A   1      32.969  23.224  24.327  1.00  0.00     0.036 A 
ATOM     25  C   UNL A   1      32.125  23.013  25.404  1.00  0.00     0.036 A 
ATOM     26  O   UNL A   1      31.157  24.274  27.080  1.00  0.00    -0.286 OA
ATOM     27  O   UNL A   1      30.489  25.862  22.809  1.00  0.00    -0.273 OA
ATOM     28  C   UNL A   1      33.365  22.158  23.543  1.00  0.00     0.013 A 
ATOM     29  C   UNL A   1      31.658  21.762  25.773  1.00  0.00     0.013 A 
ATOM     30  C   UNL A   1      32.891  20.878  23.883  1.00  0.00     0.001 A 
ATOM     31  C   UNL A   1      32.049  20.681  24.993  1.00  0.00     0.001 A 
BRANCH  21  32
ATOM     32  C   UNL A   1      29.745  28.817  22.827  1.00  0.00     0.052 A 
ATOM     33  C   UNL A   1      30.030  29.824  21.895  1.00  0.00     0.027 A 
ATOM     34  C   UNL A   1      28.421  28.610  23.231  1.00  0.00     0.027 A 
ATOM     35  C   UNL A   1      29.004  30.610  21.369  1.00  0.00     0.002 A 
ATOM     36  C   UNL A   1      27.406  29.437  22.746  1.00  0.00     0.002 A 
ATOM     37  C   UNL A   1      27.695  30.429  21.810  1.00  0.00     0.000 A 
ENDBRANCH  21  32
ENDBRANCH   6   9
ENDBRANCH   4   5
ENDBRANCH   3   4
ENDBRANCH   2   3
ENDBRANCH   1   2
BRANCH   1  38
ATOM     38  C   UNL A   1      33.123  34.954  28.087  1.00  0.00     0.021 C 
BRANCH  38  39
ATOM     39  C   UNL A   1      33.719  35.799  29.211  1.00  0.00     0.116 C 
BRANCH  39  40
ATOM     40  N   UNL A   1      32.979  35.709  30.458  1.00  0.00    -0.352 N 
ATOM     41  C   UNL A   1      33.244  35.006  31.610  1.00  0.00     0.251 C 
ATOM     42  H   UNL A   1      32.150  36.240  30.484  1.00  0.00     0.163 HD
ATOM     43  O   UNL A   1      32.413  34.994  32.515  1.00  0.00    -0.269 OA
BRANCH  41  44
ATOM     44  C   UNL A   1      34.499  34.231  31.748  1.00  0.00     0.039 A 
ATOM     45  C   UNL A   1      34.480  32.881  32.104  1.00  0.00     0.014 A 
ATOM     46  C   UNL A   1      35.720  34.872  31.518  1.00  0.00     0.014 A 
ATOM     47  C   UNL A   1      35.673  32.230  32.408  1.00  0.00     0.010 A 
ATOM     48  C   UNL A   1      36.921  34.190  31.742  1.00  0.00     0.010 A 
ATOM     49  C   UNL A   1      36.908  32.881  32.245  1.00  0.00    -0.014 A 
BRANCH  49  50
ATOM     50  C   UNL A   1      38.168  32.178  32.612  1.00  0.00     0.031 A 
ATOM     51  C   UNL A   1      38.848  32.456  33.929  1.00  0.00     0.074 A 
ATOM     52  C   UNL A   1      38.677  31.251  31.777  1.00  0.00     0.049 A 
ATOM     53  N   UNL A   1      39.931  31.913  34.425  1.00  0.00    -0.248 NA
ATOM     54  C   UNL A   1      38.239  33.474  34.799  1.00  0.00     0.031 C 
ATOM     55  C   UNL A   1      38.103  30.895  30.480  1.00  0.00     0.029 A 
ATOM     56  N   UNL A   1      39.769  30.427  31.895  1.00  0.00    -0.354 N 
ATOM     57  C   UNL A   1      40.143  32.534  35.652  1.00  0.00     0.074 A 
ATOM     58  C   UNL A   1      39.098  33.520  35.810  1.00  0.00     0.031 C 
ATOM     59  C   UNL A   1      38.813  29.892  29.946  1.00  0.00     0.029 A 
ATOM     60  C   UNL A   1      39.937  29.578  30.824  1.00  0.00     0.049 A 
ATOM     61  H   UNL A   1      40.376  30.443  32.670  1.00  0.00     0.167 HD
ATOM     62  C   UNL A   1      41.112  32.291  36.567  1.00  0.00     0.034 A 
ATOM     63  C   UNL A   1      40.890  28.658  30.567  1.00  0.00     0.034 A 
ATOM     64  C   UNL A   1      42.131  31.284  36.407  1.00  0.00     0.049 A 
ATOM     65  C   UNL A   1      41.976  28.430  31.588  1.00  0.00     0.074 A 
ATOM     66  C   UNL A   1      43.128  30.934  37.301  1.00  0.00     0.029 A 
ATOM     67  N   UNL A   1      42.291  30.472  35.294  1.00  0.00    -0.354 N 
ATOM     68  N   UNL A   1      42.126  28.986  32.767  1.00  0.00    -0.248 NA
ATOM     69  C   UNL A   1      43.022  27.455  31.249  1.00  0.00     0.031 C 
ATOM     70  C   UNL A   1      43.932  29.965  36.701  1.00  0.00     0.029 A 
ATOM     71  C   UNL A   1      43.389  29.645  35.466  1.00  0.00     0.049 A 
ATOM     72  H   UNL A   1      41.709  30.480  34.500  1.00  0.00     0.167 HD
ATOM     73  C   UNL A   1      43.268  28.410  33.320  1.00  0.00     0.074 A 
ATOM     74  C   UNL A   1      43.753  27.445  32.357  1.00  0.00     0.031 C 
ATOM     75  C   UNL A   1      43.860  28.667  34.513  1.00  0.00     0.034 A 
BRANCH  62  76
ATOM     76  C   UNL A   1      41.136  33.101  37.842  1.00  0.00     0.023 A 
ATOM     77  C   UNL A   1      40.382  32.679  38.954  1.00  0.00     0.031 A 
ATOM     78  C   UNL A   1      41.771  34.355  37.907  1.00  0.00     0.131 A 
ATOM     79  C   UNL A   1      40.243  33.524  40.064  1.00  0.00     0.055 A 
ATOM     80  C   UNL A   1      41.667  35.172  39.034  1.00  0.00     0.041 A 
ATOM     81  F   UNL A   1      42.500  34.804  36.872  1.00  0.00    -0.206 F 
ATOM     82  C   UNL A   1      40.888  34.764  40.112  1.00  0.00     0.022 A 
BRANCH  79  83
ATOM     83  S   UNL A   1      39.162  33.080  41.451  1.00  0.00     0.124 S 
ATOM     84  O   UNL A   1      40.049  33.275  42.596  1.00  0.00    -0.237 OA
ATOM     85  O   UNL A   1      38.085  34.059  41.322  1.00  0.00    -0.237 OA
ATOM     86  O   UNL A   1      38.793  31.696  41.180  1.00  0.00    -0.744 OA
ENDBRANCH  79  83
ENDBRANCH  62  76
BRANCH  63  87
ATOM     87  C   UNL A   1      40.812  27.862  29.306  1.00  0.00     0.023 A 
ATOM     88  C   UNL A   1      41.697  28.109  28.240  1.00  0.00     0.031 A 
ATOM     89  C   UNL A   1      39.784  26.926  29.107  1.00  0.00     0.131 A 
ATOM     90  C   UNL A   1      41.486  27.490  27.000  1.00  0.00     0.055 A 
ATOM     91  C   UNL A   1      39.626  26.252  27.895  1.00  0.00     0.041 A 
ATOM     92  F   UNL A   1      38.907  26.665  30.088  1.00  0.00    -0.206 F 
ATOM     93  C   UNL A   1      40.468  26.549  26.827  1.00  0.00     0.022 A 
BRANCH  90  94
ATOM     94  S   UNL A   1      42.428  28.001  25.536  1.00  0.00     0.124 S 
ATOM     95  O   UNL A   1      41.671  29.160  25.076  1.00  0.00    -0.237 OA
ATOM     96  O   UNL A   1      43.738  28.291  26.114  1.00  0.00    -0.237 OA
ATOM     97  O   UNL A   1      42.380  26.829  24.669  1.00  0.00    -0.744 OA
ENDBRANCH  90  94
ENDBRANCH  63  87
BRANCH  75  98
ATOM     98  C   UNL A   1      45.106  27.898  34.888  1.00  0.00     0.023 A 
ATOM     99  C   UNL A   1      44.997  26.708  35.632  1.00  0.00     0.031 A 
ATOM    100  C   UNL A   1      46.389  28.424  34.661  1.00  0.00     0.131 A 
ATOM    101  C   UNL A   1      46.146  26.111  36.167  1.00  0.00     0.055 A 
ATOM    102  C   UNL A   1      47.535  27.796  35.149  1.00  0.00     0.041 A 
ATOM    103  F   UNL A   1      46.546  29.564  33.967  1.00  0.00    -0.206 F 
ATOM    104  C   UNL A   1      47.415  26.643  35.921  1.00  0.00     0.022 A 
BRANCH 101 105
ATOM    105  S   UNL A   1      46.027  24.684  37.281  1.00  0.00     0.124 S 
ATOM    106  O   UNL A   1      47.191  24.876  38.142  1.00  0.00    -0.237 OA
ATOM    107  O   UNL A   1      44.732  24.902  37.923  1.00  0.00    -0.237 OA
ATOM    108  O   UNL A   1      46.098  23.532  36.388  1.00  0.00    -0.744 OA
ENDBRANCH 101 105
ENDBRANCH  75  98
ENDBRANCH  49  50
ENDBRANCH  41  44
ENDBRANCH  39  40
ENDBRANCH  38  39
ENDBRANCH   1  38
TORSDOF 17
ENDMDL
MODEL 3
REMARK VINA RESULT:     -12.9      6.136      8.204
REMARK SMILES C[C@]1(C(=O)NCCCCCCNC(=O)c2ccc(-c3c4nc(c(-c5cc(S(=O)(=O)[O-])ccc5F)c5ccc([nH]5)c(-c5cc(S(=O)(=O)[O-])ccc5F)c5nc(c(-c6cc(S(=O)(=O)[O-])ccc6F)c6ccc3[nH]6)C=C5)C=C4)cc2)[NH2+]C2(C(=O)c3ccccc3C2=O)[C@@H]2C(=O)N(c3ccccc3)C(=O)[C@H]21
REMARK SMILES IDX 9 1 8 2 7 3 6 4 5 5 3 6 4 7 2 9 1 10 78 11 102 12 79 13
REMARK SMILES IDX 90 16 100 17 80 18 88 19 91 20 93 21 101 22 81 23 82 24
REMARK SMILES IDX 87 25 89 26 92 27 83 28 86 29 84 30 85 31 94 32 95 33 99 34
REMARK SMILES IDX 96 35 98 36 97 37 10 38 11 39 12 40 13 41 14 43 15 44 16 45
REMARK SMILES IDX 77 46 17 47 76 48 18 49 19 50 20 51 70 52 21 53 75 54 69 55
REMARK SMILES IDX 71 56 22 57 74 58 68 59 67 60 23 62 55 63 35 64 54 65 36 66
REMARK SMILES IDX 39 67 53 68 72 69 37 70 38 71 52 73 73 74 40 75 24 76 25 77
REMARK SMILES IDX 33 78 26 79 32 80 34 81 31 82 27 83 28 84 29 85 30 86 56 87
REMARK SMILES IDX 57 88 65 89 58 90 64 91 66 92 63 93 59 94 60 95 61 96 62 97
REMARK SMILES IDX 41 98 42 99 50 100 43 101 49 102 51 103 48 104 44 105 45 106
REMARK SMILES IDX 46 107 47 108
REMARK H PARENT 5 8 78 14 78 15 12 42 71 61 39 72
REMARK Flexibility Score: inf
ROOT
ATOM      1  C   UNL A   1      36.721  31.932  28.509  1.00  0.00     0.002 C 
ENDROOT
BRANCH   1   2
ATOM      2  C   UNL A   1      35.450  32.436  27.811  1.00  0.00     0.002 C 
BRANCH   2   3
ATOM      3  C   UNL A   1      34.127  31.812  28.239  1.00  0.00     0.021 C 
BRANCH   3   4
ATOM      4  C   UNL A   1      33.506  30.804  27.282  1.00  0.00     0.116 C 
BRANCH   4   5
ATOM      5  N   UNL A   1      32.672  29.772  27.824  1.00  0.00    -0.351 N 
ATOM      6  C   UNL A   1      32.472  28.481  27.424  1.00  0.00     0.281 C 
ATOM      7  O   UNL A   1      31.672  27.861  28.144  1.00  0.00    -0.268 OA
ATOM      8  H   UNL A   1      32.156  30.038  28.619  1.00  0.00     0.163 HD
BRANCH   6   9
ATOM      9  C   UNL A   1      33.157  27.739  26.183  1.00  0.00     0.186 C 
ATOM     10  C   UNL A   1      34.557  28.392  26.031  1.00  0.00     0.091 C 
ATOM     11  N   UNL A   1      33.350  26.243  26.376  1.00  0.00    -0.314 N 
ATOM     12  C   UNL A   1      32.485  27.784  24.838  1.00  0.00     0.170 C 
ATOM     13  C   UNL A   1      32.509  25.491  25.339  1.00  0.00     0.236 C 
ATOM     14  H   UNL A   1      33.051  25.978  27.315  1.00  0.00     0.348 HD
ATOM     15  H   UNL A   1      34.334  26.006  26.258  1.00  0.00     0.348 HD
ATOM     16  C   UNL A   1      31.601  26.557  24.800  1.00  0.00     0.177 C 
ATOM     17  C   UNL A   1      31.551  28.831  24.354  1.00  0.00     0.244 C 
ATOM     18  C   UNL A   1      33.345  24.754  24.287  1.00  0.00     0.232 C 
ATOM     19  C   UNL A   1      31.809  24.319  26.058  1.00  0.00     0.232 C 
ATOM     20  C   UNL A   1      30.939  26.777  23.482  1.00  0.00     0.245 C 
ATOM     21  N   UNL A   1      30.747  28.161  23.432  1.00  0.00    -0.250 N 
ATOM     22  O   UNL A   1      31.559  29.999  24.696  1.00  0.00    -0.273 OA
ATOM     23  O   UNL A   1      34.175  25.249  23.545  1.00  0.00    -0.286 OA
ATOM     24  C   UNL A   1      33.027  23.314  24.353  1.00  0.00     0.036 A 
ATOM     25  C   UNL A   1      32.153  23.078  25.401  1.00  0.00     0.036 A 
ATOM     26  O   UNL A   1      31.096  24.309  27.045  1.00  0.00    -0.286 OA
ATOM     27  O   UNL A   1      30.529  25.888  22.756  1.00  0.00    -0.273 OA
ATOM     28  C   UNL A   1      33.478  22.260  23.582  1.00  0.00     0.013 A 
ATOM     29  C   UNL A   1      31.708  21.815  25.753  1.00  0.00     0.013 A 
ATOM     30  C   UNL A   1      33.026  20.968  23.904  1.00  0.00     0.001 A 
ATOM     31  C   UNL A   1      32.153  20.746  24.985  1.00  0.00     0.001 A 
BRANCH  21  32
ATOM     32  C   UNL A   1      29.706  28.822  22.753  1.00  0.00     0.052 A 
ATOM     33  C   UNL A   1      29.995  29.824  21.817  1.00  0.00     0.027 A 
ATOM     34  C   UNL A   1      28.376  28.595  23.126  1.00  0.00     0.027 A 
ATOM     35  C   UNL A   1      28.969  30.584  21.256  1.00  0.00     0.002 A 
ATOM     36  C   UNL A   1      27.358  29.397  22.606  1.00  0.00     0.002 A 
ATOM     37  C   UNL A   1      27.653  30.384  21.666  1.00  0.00     0.000 A 
ENDBRANCH  21  32
ENDBRANCH   6   9
ENDBRANCH   4   5
ENDBRANCH   3   4
ENDBRANCH   2   3
ENDBRANCH   1   2
BRANCH   1  38
ATOM     38  C   UNL A   1      37.086  30.452  28.355  1.00  0.00     0.021 C 
BRANCH  38  39
ATOM     39  C   UNL A   1      36.761  29.532  29.529  1.00  0.00     0.116 C 
BRANCH  39  40
ATOM     40  N   UNL A   1      36.266  30.237  30.699  1.00  0.00    -0.352 N 
ATOM     41  C   UNL A   1      36.801  30.372  31.959  1.00  0.00     0.251 C 
ATOM     42  H   UNL A   1      35.404  30.694  30.570  1.00  0.00     0.163 HD
ATOM     43  O   UNL A   1      36.148  30.932  32.836  1.00  0.00    -0.269 OA
BRANCH  41  44
ATOM     44  C   UNL A   1      38.134  29.808  32.275  1.00  0.00     0.039 A 
ATOM     45  C   UNL A   1      39.261  30.625  32.373  1.00  0.00     0.014 A 
ATOM     46  C   UNL A   1      38.256  28.429  32.475  1.00  0.00     0.014 A 
ATOM     47  C   UNL A   1      40.525  30.050  32.484  1.00  0.00     0.010 A 
ATOM     48  C   UNL A   1      39.518  27.860  32.673  1.00  0.00     0.010 A 
ATOM     49  C   UNL A   1      40.671  28.659  32.621  1.00  0.00    -0.014 A 
BRANCH  49  50
ATOM     50  C   UNL A   1      42.032  28.062  32.700  1.00  0.00     0.031 A 
ATOM     51  C   UNL A   1      42.808  27.746  31.446  1.00  0.00     0.074 A 
ATOM     52  C   UNL A   1      42.592  27.848  33.907  1.00  0.00     0.049 A 
ATOM     53  N   UNL A   1      44.016  27.256  31.329  1.00  0.00    -0.248 NA
ATOM     54  C   UNL A   1      42.144  28.008  30.160  1.00  0.00     0.031 C 
ATOM     55  C   UNL A   1      41.940  28.121  35.187  1.00  0.00     0.029 A 
ATOM     56  N   UNL A   1      43.833  27.378  34.260  1.00  0.00    -0.354 N 
ATOM     57  C   UNL A   1      44.249  27.134  29.963  1.00  0.00     0.074 A 
ATOM     58  C   UNL A   1      43.045  27.568  29.291  1.00  0.00     0.031 C 
ATOM     59  C   UNL A   1      42.800  27.865  36.181  1.00  0.00     0.029 A 
ATOM     60  C   UNL A   1      44.042  27.340  35.620  1.00  0.00     0.049 A 
ATOM     61  H   UNL A   1      44.509  27.092  33.603  1.00  0.00     0.167 HD
ATOM     62  C   UNL A   1      45.371  26.715  29.330  1.00  0.00     0.034 A 
ATOM     63  C   UNL A   1      45.105  26.923  36.339  1.00  0.00     0.034 A 
ATOM     64  C   UNL A   1      46.575  26.312  30.014  1.00  0.00     0.049 A 
ATOM     65  C   UNL A   1      46.329  26.429  35.611  1.00  0.00     0.074 A 
ATOM     66  C   UNL A   1      47.778  25.915  29.456  1.00  0.00     0.029 A 
ATOM     67  N   UNL A   1      46.734  26.252  31.390  1.00  0.00    -0.354 N 
ATOM     68  N   UNL A   1      46.552  26.377  34.318  1.00  0.00    -0.248 NA
ATOM     69  C   UNL A   1      47.446  25.938  36.430  1.00  0.00     0.031 C 
ATOM     70  C   UNL A   1      48.638  25.546  30.490  1.00  0.00     0.029 A 
ATOM     71  C   UNL A   1      48.005  25.793  31.699  1.00  0.00     0.049 A 
ATOM     72  H   UNL A   1      46.048  26.500  32.051  1.00  0.00     0.167 HD
ATOM     73  C   UNL A   1      47.841  25.871  34.171  1.00  0.00     0.074 A 
ATOM     74  C   UNL A   1      48.357  25.658  35.506  1.00  0.00     0.031 C 
ATOM     75  C   UNL A   1      48.526  25.601  33.032  1.00  0.00     0.034 A 
BRANCH  62  76
ATOM     76  C   UNL A   1      45.389  26.672  27.820  1.00  0.00     0.023 A 
ATOM     77  C   UNL A   1      45.376  25.431  27.154  1.00  0.00     0.031 A 
ATOM     78  C   UNL A   1      45.574  27.835  27.051  1.00  0.00     0.131 A 
ATOM     79  C   UNL A   1      45.591  25.379  25.771  1.00  0.00     0.055 A 
ATOM     80  C   UNL A   1      45.742  27.781  25.667  1.00  0.00     0.041 A 
ATOM     81  F   UNL A   1      45.597  29.044  27.639  1.00  0.00    -0.206 F 
ATOM     82  C   UNL A   1      45.766  26.548  25.023  1.00  0.00     0.022 A 
BRANCH  79  83
ATOM     83  S   UNL A   1      45.728  23.793  24.902  1.00  0.00     0.124 S 
ATOM     84  O   UNL A   1      44.377  23.625  24.370  1.00  0.00    -0.237 OA
ATOM     85  O   UNL A   1      46.758  24.079  23.906  1.00  0.00    -0.237 OA
ATOM     86  O   UNL A   1      46.105  22.850  25.948  1.00  0.00    -0.744 OA
ENDBRANCH  79  83
ENDBRANCH  62  76
BRANCH  63  87
ATOM     87  C   UNL A   1      45.054  27.008  37.829  1.00  0.00     0.023 A 
ATOM     88  C   UNL A   1      45.546  28.138  38.506  1.00  0.00     0.031 A 
ATOM     89  C   UNL A   1      44.617  25.916  38.598  1.00  0.00     0.131 A 
ATOM     90  C   UNL A   1      45.668  28.118  39.902  1.00  0.00     0.055 A 
ATOM     91  C   UNL A   1      44.665  25.933  39.994  1.00  0.00     0.041 A 
ATOM     92  F   UNL A   1      44.151  24.810  38.000  1.00  0.00    -0.206 F 
ATOM     93  C   UNL A   1      45.213  27.030  40.651  1.00  0.00     0.022 A 
BRANCH  90  94
ATOM     94  S   UNL A   1      46.559  29.436  40.775  1.00  0.00     0.124 S 
ATOM     95  O   UNL A   1      45.513  30.003  41.619  1.00  0.00    -0.237 OA
ATOM     96  O   UNL A   1      47.594  28.679  41.475  1.00  0.00    -0.237 OA
ATOM     97  O   UNL A   1      47.040  30.296  39.700  1.00  0.00    -0.744 OA
ENDBRANCH  90  94
ENDBRANCH  63  87
BRANCH  75  98
ATOM     98  C   UNL A   1      49.929  25.050  33.140  1.00  0.00     0.023 A 
ATOM     99  C   UNL A   1      50.153  23.667  32.997  1.00  0.00     0.031 A 
ATOM    100  C   UNL A   1      51.004  25.858  33.548  1.00  0.00     0.131 A 
ATOM    101  C   UNL A   1      51.406  23.126  33.310  1.00  0.00     0.055 A 
ATOM    102  C   UNL A   1      52.267  25.322  33.806  1.00  0.00     0.041 A 
ATOM    103  F   UNL A   1      50.840  27.181  33.710  1.00  0.00    -0.206 F 
ATOM    104  C   UNL A   1      52.467  23.948  33.704  1.00  0.00     0.022 A 
BRANCH 101 105
ATOM    105  S   UNL A   1      51.677  21.333  33.314  1.00  0.00     0.124 S 
ATOM    106  O   UNL A   1      52.364  21.134  34.588  1.00  0.00    -0.237 OA
ATOM    107  O   UNL A   1      50.312  20.815  33.255  1.00  0.00    -0.237 OA
ATOM    108  O   UNL A   1      52.490  21.095  32.126  1.00  0.00    -0.744 OA
ENDBRANCH 101 105
ENDBRANCH  75  98
ENDBRANCH  49  50
ENDBRANCH  41  44
ENDBRANCH  39  40
ENDBRANCH  38  39
ENDBRANCH   1  38
TORSDOF 17
ENDMDL
