MODEL 1
REMARK VINA RESULT:     -11.1      0.000      0.000
REMARK SMILES O=C(CCCNC(=O)[C@@H]1CCCN(S(=O)(=O)c2ccc(F)cc2)C1)NCCCCCCNC(=O)c1ccc(-c2c3nc(c(-c4cc(S(=O)(=O)[O-])ccc4F)c4ccc([nH]4)c(-c4cc(S(=O)(=O)[O-])ccc4F)c4nc(c(-c5cc(S(=O)(=O)[O-])ccc5F)c5ccc2[nH]5)C=C4)C=C3)cc1
REMARK SMILES IDX 27 1 26 2 25 3 1 4 2 5 3 7 4 8 5 9 6 10 7 11 8 13 9 14 10 15
REMARK SMILES IDX 24 16 11 17 13 18 12 19 14 20 15 21 16 22 17 23 18 24 23 25
REMARK SMILES IDX 19 26 22 27 20 28 21 29 28 30 29 31 30 32 31 33 32 34 33 35
REMARK SMILES IDX 34 37 35 38 36 39 97 40 37 41 96 42 38 43 39 44 40 45 90 46
REMARK SMILES IDX 41 47 95 48 89 49 91 50 42 51 94 52 88 53 87 54 43 56 75 57
REMARK SMILES IDX 55 58 74 59 56 60 59 61 73 62 92 63 57 64 58 65 72 67 93 68
REMARK SMILES IDX 60 69 44 70 45 71 53 72 46 73 52 74 54 75 51 76 47 77 48 78
REMARK SMILES IDX 49 79 50 80 76 81 77 82 85 83 78 84 84 85 86 86 83 87 79 88
REMARK SMILES IDX 80 89 81 90 82 91 61 92 62 93 70 94 63 95 69 96 71 97 68 98
REMARK SMILES IDX 64 99 65 100 66 101 67 102
REMARK H PARENT 25 6 6 12 32 36 91 55 59 66
REMARK Flexibility Score: inf
ROOT
ATOM      1  C   UNL A   1      31.818  29.462  25.186  1.00  0.00     0.021 C 
ENDROOT
BRANCH   1   2
ATOM      2  C   UNL A   1      33.106  29.089  24.453  1.00  0.00     0.116 C 
BRANCH   2   3
ATOM      3  N   UNL A   1      32.940  27.892  23.654  1.00  0.00    -0.356 N 
ATOM      4  O   UNL A   1      34.451  28.460  22.017  1.00  0.00    -0.275 OA
ATOM      5  C   UNL A   1      33.628  27.681  22.483  1.00  0.00     0.220 C 
ATOM      6  H   UNL A   1      32.308  27.203  23.961  1.00  0.00     0.163 HD
BRANCH   5   7
ATOM      7  C   UNL A   1      33.289  26.371  21.806  1.00  0.00     0.102 C 
BRANCH   7   8
ATOM      8  C   UNL A   1      32.739  25.328  22.776  1.00  0.00     0.031 C 
BRANCH   8   9
ATOM      9  C   UNL A   1      33.384  23.943  22.706  1.00  0.00     0.116 C 
BRANCH   9  10
ATOM     10  N   UNL A   1      34.838  23.991  22.704  1.00  0.00    -0.356 N 
ATOM     11  C   UNL A   1      35.729  23.431  23.575  1.00  0.00     0.224 C 
ATOM     12  H   UNL A   1      35.240  24.502  21.964  1.00  0.00     0.163 HD
ATOM     13  O   UNL A   1      36.915  23.449  23.251  1.00  0.00    -0.275 OA
BRANCH  11  14
ATOM     14  C   UNL A   1      35.237  22.909  24.920  1.00  0.00     0.093 C 
ATOM     15  C   UNL A   1      36.338  22.094  25.598  1.00  0.00     0.016 C 
ATOM     16  C   UNL A   1      33.926  22.128  24.801  1.00  0.00     0.116 C 
ATOM     17  C   UNL A   1      36.468  20.712  24.970  1.00  0.00     0.018 C 
ATOM     18  N   UNL A   1      34.078  20.725  24.297  1.00  0.00    -0.197 NA
ATOM     19  C   UNL A   1      35.141  19.964  25.004  1.00  0.00     0.102 C 
BRANCH  18  20
ATOM     20  S   UNL A   1      32.547  19.926  24.248  1.00  0.00     0.243 S 
ATOM     21  O   UNL A   1      31.774  20.406  25.375  1.00  0.00    -0.207 OA
ATOM     22  O   UNL A   1      32.028  20.035  22.900  1.00  0.00    -0.207 OA
BRANCH  20  23
ATOM     23  C   UNL A   1      32.920  18.210  24.540  1.00  0.00     0.082 A 
ATOM     24  C   UNL A   1      33.720  17.511  23.627  1.00  0.00     0.025 A 
ATOM     25  C   UNL A   1      32.529  17.612  25.745  1.00  0.00     0.025 A 
ATOM     26  C   UNL A   1      34.080  16.191  23.896  1.00  0.00     0.040 A 
ATOM     27  C   UNL A   1      32.913  16.296  26.017  1.00  0.00     0.040 A 
ATOM     28  C   UNL A   1      33.676  15.596  25.087  1.00  0.00     0.123 A 
ATOM     29  F   UNL A   1      34.043  14.335  25.349  1.00  0.00    -0.207 F 
ENDBRANCH  20  23
ENDBRANCH  18  20
ENDBRANCH  11  14
ENDBRANCH   9  10
ENDBRANCH   8   9
ENDBRANCH   7   8
ENDBRANCH   5   7
ENDBRANCH   2   3
ENDBRANCH   1   2
BRANCH   1  30
ATOM     30  C   UNL A   1      31.983  30.486  26.319  1.00  0.00     0.002 C 
BRANCH  30  31
ATOM     31  C   UNL A   1      30.899  31.565  26.397  1.00  0.00     0.002 C 
BRANCH  31  32
ATOM     32  C   UNL A   1      31.409  33.009  26.396  1.00  0.00     0.021 C 
BRANCH  32  33
ATOM     33  C   UNL A   1      32.609  33.285  27.301  1.00  0.00     0.116 C 
BRANCH  33  34
ATOM     34  N   UNL A   1      32.525  34.570  27.975  1.00  0.00    -0.352 N 
ATOM     35  C   UNL A   1      33.266  35.047  29.031  1.00  0.00     0.251 C 
ATOM     36  H   UNL A   1      31.842  35.186  27.626  1.00  0.00     0.163 HD
ATOM     37  O   UNL A   1      32.963  36.119  29.551  1.00  0.00    -0.269 OA
BRANCH  35  38
ATOM     38  C   UNL A   1      34.400  34.258  29.564  1.00  0.00     0.039 A 
ATOM     39  C   UNL A   1      35.681  34.503  29.063  1.00  0.00     0.014 A 
ATOM     40  C   UNL A   1      34.208  33.286  30.550  1.00  0.00     0.014 A 
ATOM     41  C   UNL A   1      36.780  33.829  29.605  1.00  0.00     0.010 A 
ATOM     42  C   UNL A   1      35.310  32.653  31.127  1.00  0.00     0.010 A 
ATOM     43  C   UNL A   1      36.609  32.930  30.670  1.00  0.00    -0.014 A 
BRANCH  43  44
ATOM     44  C   UNL A   1      37.777  32.301  31.341  1.00  0.00     0.031 A 
ATOM     45  C   UNL A   1      38.492  31.143  30.701  1.00  0.00     0.074 A 
ATOM     46  C   UNL A   1      38.165  32.745  32.555  1.00  0.00     0.049 A 
ATOM     47  N   UNL A   1      39.460  30.405  31.181  1.00  0.00    -0.248 NA
ATOM     48  C   UNL A   1      38.051  30.751  29.354  1.00  0.00     0.031 C 
ATOM     49  C   UNL A   1      37.546  33.853  33.286  1.00  0.00     0.029 A 
ATOM     50  N   UNL A   1      39.169  32.321  33.389  1.00  0.00    -0.354 N 
ATOM     51  C   UNL A   1      39.740  29.460  30.202  1.00  0.00     0.074 A 
ATOM     52  C   UNL A   1      38.814  29.694  29.114  1.00  0.00     0.031 C 
ATOM     53  C   UNL A   1      38.199  34.038  34.444  1.00  0.00     0.029 A 
ATOM     54  C   UNL A   1      39.253  33.034  34.563  1.00  0.00     0.049 A 
ATOM     55  H   UNL A   1      39.773  31.576  33.169  1.00  0.00     0.167 HD
ATOM     56  C   UNL A   1      40.692  28.496  30.205  1.00  0.00     0.034 A 
ATOM     57  C   UNL A   1      40.074  32.890  35.623  1.00  0.00     0.034 A 
ATOM     58  C   UNL A   1      41.625  28.280  31.283  1.00  0.00     0.049 A 
ATOM     59  C   UNL A   1      41.107  31.794  35.610  1.00  0.00     0.074 A 
ATOM     60  C   UNL A   1      42.638  27.339  31.366  1.00  0.00     0.029 A 
ATOM     61  N   UNL A   1      41.669  29.016  32.457  1.00  0.00    -0.354 N 
ATOM     62  N   UNL A   1      41.339  30.895  34.682  1.00  0.00    -0.248 NA
ATOM     63  C   UNL A   1      41.987  31.692  36.782  1.00  0.00     0.031 C 
ATOM     64  C   UNL A   1      43.265  27.478  32.608  1.00  0.00     0.029 A 
ATOM     65  C   UNL A   1      42.684  28.543  33.274  1.00  0.00     0.049 A 
ATOM     66  H   UNL A   1      41.069  29.765  32.677  1.00  0.00     0.167 HD
ATOM     67  C   UNL A   1      42.411  30.141  35.149  1.00  0.00     0.074 A 
ATOM     68  C   UNL A   1      42.780  30.687  36.437  1.00  0.00     0.031 C 
ATOM     69  C   UNL A   1      43.038  29.095  34.557  1.00  0.00     0.034 A 
BRANCH  56  70
ATOM     70  C   UNL A   1      40.771  27.584  29.012  1.00  0.00     0.023 A 
ATOM     71  C   UNL A   1      41.693  27.812  27.977  1.00  0.00     0.031 A 
ATOM     72  C   UNL A   1      39.951  26.445  28.934  1.00  0.00     0.131 A 
ATOM     73  C   UNL A   1      41.754  26.926  26.892  1.00  0.00     0.055 A 
ATOM     74  C   UNL A   1      40.055  25.538  27.879  1.00  0.00     0.041 A 
ATOM     75  F   UNL A   1      39.045  26.190  29.891  1.00  0.00    -0.206 F 
ATOM     76  C   UNL A   1      40.958  25.778  26.848  1.00  0.00     0.022 A 
BRANCH  73  77
ATOM     77  S   UNL A   1      42.860  27.314  25.509  1.00  0.00     0.124 S 
ATOM     78  O   UNL A   1      42.271  28.550  25.000  1.00  0.00    -0.237 OA
ATOM     79  O   UNL A   1      44.157  27.447  26.162  1.00  0.00    -0.237 OA
ATOM     80  O   UNL A   1      42.723  26.156  24.627  1.00  0.00    -0.744 OA
ENDBRANCH  73  77
ENDBRANCH  56  70
BRANCH  57  81
ATOM     81  C   UNL A   1      39.951  33.799  36.796  1.00  0.00     0.023 A 
ATOM     82  C   UNL A   1      39.293  33.384  37.963  1.00  0.00     0.031 A 
ATOM     83  C   UNL A   1      40.469  35.106  36.755  1.00  0.00     0.131 A 
ATOM     84  C   UNL A   1      39.139  34.278  39.034  1.00  0.00     0.055 A 
ATOM     85  C   UNL A   1      40.351  35.978  37.839  1.00  0.00     0.041 A 
ATOM     86  F   UNL A   1      41.114  35.547  35.663  1.00  0.00    -0.206 F 
ATOM     87  C   UNL A   1      39.675  35.568  38.984  1.00  0.00     0.022 A 
BRANCH  84  88
ATOM     88  S   UNL A   1      38.185  33.747  40.481  1.00  0.00     0.124 S 
ATOM     89  O   UNL A   1      37.048  33.079  39.858  1.00  0.00    -0.237 OA
ATOM     90  O   UNL A   1      39.137  32.884  41.174  1.00  0.00    -0.237 OA
ATOM     91  O   UNL A   1      37.876  35.002  41.164  1.00  0.00    -0.744 OA
ENDBRANCH  84  88
ENDBRANCH  57  81
BRANCH  69  92
ATOM     92  C   UNL A   1      44.222  28.503  35.272  1.00  0.00     0.023 A 
ATOM     93  C   UNL A   1      44.108  27.337  36.046  1.00  0.00     0.031 A 
ATOM     94  C   UNL A   1      45.490  29.096  35.140  1.00  0.00     0.131 A 
ATOM     95  C   UNL A   1      45.242  26.813  36.685  1.00  0.00     0.055 A 
ATOM     96  C   UNL A   1      46.621  28.549  35.744  1.00  0.00     0.041 A 
ATOM     97  F   UNL A   1      45.648  30.210  34.407  1.00  0.00    -0.206 F 
ATOM     98  C   UNL A   1      46.499  27.403  36.525  1.00  0.00     0.022 A 
BRANCH  95  99
ATOM     99  S   UNL A   1      45.051  25.361  37.753  1.00  0.00     0.124 S 
ATOM    100  O   UNL A   1      46.435  24.932  37.930  1.00  0.00    -0.237 OA
ATOM    101  O   UNL A   1      44.401  25.919  38.935  1.00  0.00    -0.237 OA
ATOM    102  O   UNL A   1      44.218  24.458  36.960  1.00  0.00    -0.744 OA
ENDBRANCH  95  99
ENDBRANCH  69  92
ENDBRANCH  43  44
ENDBRANCH  35  38
ENDBRANCH  33  34
ENDBRANCH  32  33
ENDBRANCH  31  32
ENDBRANCH  30  31
ENDBRANCH   1  30
TORSDOF 22
ENDMDL
MODEL 2
REMARK VINA RESULT:     -10.9      5.491     11.273
REMARK SMILES O=C(CCCNC(=O)[C@@H]1CCCN(S(=O)(=O)c2ccc(F)cc2)C1)NCCCCCCNC(=O)c1ccc(-c2c3nc(c(-c4cc(S(=O)(=O)[O-])ccc4F)c4ccc([nH]4)c(-c4cc(S(=O)(=O)[O-])ccc4F)c4nc(c(-c5cc(S(=O)(=O)[O-])ccc5F)c5ccc2[nH]5)C=C4)C=C3)cc1
REMARK SMILES IDX 27 1 26 2 25 3 1 4 2 5 3 7 4 8 5 9 6 10 7 11 8 13 9 14 10 15
REMARK SMILES IDX 24 16 11 17 13 18 12 19 14 20 15 21 16 22 17 23 18 24 23 25
REMARK SMILES IDX 19 26 22 27 20 28 21 29 28 30 29 31 30 32 31 33 32 34 33 35
REMARK SMILES IDX 34 37 35 38 36 39 97 40 37 41 96 42 38 43 39 44 40 45 90 46
REMARK SMILES IDX 41 47 95 48 89 49 91 50 42 51 94 52 88 53 87 54 43 56 75 57
REMARK SMILES IDX 55 58 74 59 56 60 59 61 73 62 92 63 57 64 58 65 72 67 93 68
REMARK SMILES IDX 60 69 44 70 45 71 53 72 46 73 52 74 54 75 51 76 47 77 48 78
REMARK SMILES IDX 49 79 50 80 76 81 77 82 85 83 78 84 84 85 86 86 83 87 79 88
REMARK SMILES IDX 80 89 81 90 82 91 61 92 62 93 70 94 63 95 69 96 71 97 68 98
REMARK SMILES IDX 64 99 65 100 66 101 67 102
REMARK H PARENT 25 6 6 12 32 36 91 55 59 66
REMARK Flexibility Score: inf
ROOT
ATOM      1  C   UNL A   1      43.887  23.054  29.265  1.00  0.00     0.021 C 
ENDROOT
BRANCH   1   2
ATOM      2  C   UNL A   1      42.555  22.691  28.610  1.00  0.00     0.116 C 
BRANCH   2   3
ATOM      3  N   UNL A   1      41.925  23.846  28.002  1.00  0.00    -0.356 N 
ATOM      4  O   UNL A   1      40.047  22.753  27.251  1.00  0.00    -0.275 OA
ATOM      5  C   UNL A   1      40.714  23.775  27.357  1.00  0.00     0.220 C 
ATOM      6  H   UNL A   1      42.384  24.715  28.052  1.00  0.00     0.163 HD
BRANCH   5   7
ATOM      7  C   UNL A   1      40.251  25.098  26.785  1.00  0.00     0.102 C 
BRANCH   7   8
ATOM      8  C   UNL A   1      39.277  25.832  27.704  1.00  0.00     0.031 C 
BRANCH   8   9
ATOM      9  C   UNL A   1      39.908  26.729  28.769  1.00  0.00     0.116 C 
BRANCH   9  10
ATOM     10  N   UNL A   1      38.944  27.238  29.731  1.00  0.00    -0.356 N 
ATOM     11  C   UNL A   1      38.330  28.457  29.788  1.00  0.00     0.224 C 
ATOM     12  H   UNL A   1      38.696  26.610  30.449  1.00  0.00     0.163 HD
ATOM     13  O   UNL A   1      37.405  28.581  30.587  1.00  0.00    -0.275 OA
BRANCH  11  14
ATOM     14  C   UNL A   1      38.871  29.608  28.947  1.00  0.00     0.093 C 
ATOM     15  C   UNL A   1      40.217  30.071  29.503  1.00  0.00     0.016 C 
ATOM     16  C   UNL A   1      37.870  30.759  28.817  1.00  0.00     0.116 C 
ATOM     17  C   UNL A   1      40.038  30.912  30.761  1.00  0.00     0.018 C 
ATOM     18  N   UNL A   1      37.788  31.654  30.016  1.00  0.00    -0.197 NA
ATOM     19  C   UNL A   1      39.119  32.100  30.503  1.00  0.00     0.102 C 
BRANCH  18  20
ATOM     20  S   UNL A   1      36.666  32.939  29.741  1.00  0.00     0.243 S 
ATOM     21  O   UNL A   1      37.405  34.037  29.151  1.00  0.00    -0.207 OA
ATOM     22  O   UNL A   1      35.508  32.387  29.071  1.00  0.00    -0.207 OA
BRANCH  20  23
ATOM     23  C   UNL A   1      36.150  33.448  31.367  1.00  0.00     0.082 A 
ATOM     24  C   UNL A   1      35.140  32.737  32.026  1.00  0.00     0.025 A 
ATOM     25  C   UNL A   1      36.851  34.465  32.030  1.00  0.00     0.025 A 
ATOM     26  C   UNL A   1      34.791  33.084  33.331  1.00  0.00     0.040 A 
ATOM     27  C   UNL A   1      36.511  34.791  33.345  1.00  0.00     0.040 A 
ATOM     28  C   UNL A   1      35.479  34.105  33.979  1.00  0.00     0.123 A 
ATOM     29  F   UNL A   1      35.155  34.419  35.240  1.00  0.00    -0.207 F 
ENDBRANCH  20  23
ENDBRANCH  18  20
ENDBRANCH  11  14
ENDBRANCH   9  10
ENDBRANCH   8   9
ENDBRANCH   7   8
ENDBRANCH   5   7
ENDBRANCH   2   3
ENDBRANCH   1   2
BRANCH   1  30
ATOM     30  C   UNL A   1      44.433  24.445  28.909  1.00  0.00     0.002 C 
BRANCH  30  31
ATOM     31  C   UNL A   1      45.919  24.497  28.543  1.00  0.00     0.002 C 
BRANCH  31  32
ATOM     32  C   UNL A   1      46.316  23.712  27.290  1.00  0.00     0.021 C 
BRANCH  32  33
ATOM     33  C   UNL A   1      45.531  24.051  26.023  1.00  0.00     0.116 C 
BRANCH  33  34
ATOM     34  N   UNL A   1      46.308  24.820  25.066  1.00  0.00    -0.352 N 
ATOM     35  C   UNL A   1      46.465  26.183  24.967  1.00  0.00     0.251 C 
ATOM     36  H   UNL A   1      46.791  24.290  24.392  1.00  0.00     0.163 HD
ATOM     37  O   UNL A   1      47.065  26.658  24.006  1.00  0.00    -0.269 OA
BRANCH  35  38
ATOM     38  C   UNL A   1      45.882  27.077  25.995  1.00  0.00     0.039 A 
ATOM     39  C   UNL A   1      44.498  27.267  26.010  1.00  0.00     0.014 A 
ATOM     40  C   UNL A   1      46.688  27.722  26.937  1.00  0.00     0.014 A 
ATOM     41  C   UNL A   1      43.915  28.041  27.018  1.00  0.00     0.010 A 
ATOM     42  C   UNL A   1      46.100  28.451  27.972  1.00  0.00     0.010 A 
ATOM     43  C   UNL A   1      44.706  28.604  28.031  1.00  0.00    -0.014 A 
BRANCH  43  44
ATOM     44  C   UNL A   1      44.091  29.324  29.178  1.00  0.00     0.031 A 
ATOM     45  C   UNL A   1      43.808  30.799  29.091  1.00  0.00     0.074 A 
ATOM     46  C   UNL A   1      43.831  28.654  30.320  1.00  0.00     0.049 A 
ATOM     47  N   UNL A   1      43.373  31.610  30.019  1.00  0.00    -0.248 NA
ATOM     48  C   UNL A   1      44.064  31.450  27.796  1.00  0.00     0.031 C 
ATOM     49  C   UNL A   1      44.071  27.225  30.534  1.00  0.00     0.029 A 
ATOM     50  N   UNL A   1      43.310  29.083  31.515  1.00  0.00    -0.354 N 
ATOM     51  C   UNL A   1      43.308  32.866  29.428  1.00  0.00     0.074 A 
ATOM     52  C   UNL A   1      43.784  32.716  28.069  1.00  0.00     0.031 C 
ATOM     53  C   UNL A   1      43.673  26.892  31.773  1.00  0.00     0.029 A 
ATOM     54  C   UNL A   1      43.195  28.088  32.460  1.00  0.00     0.049 A 
ATOM     55  H   UNL A   1      43.043  30.016  31.683  1.00  0.00     0.167 HD
ATOM     56  C   UNL A   1      42.877  34.033  29.966  1.00  0.00     0.034 A 
ATOM     57  C   UNL A   1      42.767  28.133  33.737  1.00  0.00     0.034 A 
ATOM     58  C   UNL A   1      42.385  34.172  31.313  1.00  0.00     0.049 A 
ATOM     59  C   UNL A   1      42.316  29.448  34.316  1.00  0.00     0.074 A 
ATOM     60  C   UNL A   1      41.908  35.312  31.940  1.00  0.00     0.029 A 
ATOM     61  N   UNL A   1      42.295  33.143  32.238  1.00  0.00    -0.354 N 
ATOM     62  N   UNL A   1      42.285  30.630  33.746  1.00  0.00    -0.248 NA
ATOM     63  C   UNL A   1      41.843  29.438  35.707  1.00  0.00     0.031 C 
ATOM     64  C   UNL A   1      41.571  34.982  33.255  1.00  0.00     0.029 A 
ATOM     65  C   UNL A   1      41.781  33.625  33.432  1.00  0.00     0.049 A 
ATOM     66  H   UNL A   1      42.556  32.210  32.071  1.00  0.00     0.167 HD
ATOM     67  C   UNL A   1      41.762  31.496  34.701  1.00  0.00     0.074 A 
ATOM     68  C   UNL A   1      41.493  30.705  35.882  1.00  0.00     0.031 C 
ATOM     69  C   UNL A   1      41.520  32.826  34.602  1.00  0.00     0.034 A 
BRANCH  56  70
ATOM     70  C   UNL A   1      42.928  35.264  29.103  1.00  0.00     0.023 A 
ATOM     71  C   UNL A   1      44.125  35.975  28.914  1.00  0.00     0.031 A 
ATOM     72  C   UNL A   1      41.779  35.701  28.422  1.00  0.00     0.131 A 
ATOM     73  C   UNL A   1      44.140  37.104  28.083  1.00  0.00     0.055 A 
ATOM     74  C   UNL A   1      41.813  36.792  27.553  1.00  0.00     0.041 A 
ATOM     75  F   UNL A   1      40.609  35.064  28.580  1.00  0.00    -0.206 F 
ATOM     76  C   UNL A   1      42.998  37.503  27.382  1.00  0.00     0.022 A 
BRANCH  73  77
ATOM     77  S   UNL A   1      45.664  38.077  27.959  1.00  0.00     0.124 S 
ATOM     78  O   UNL A   1      46.657  37.131  28.459  1.00  0.00    -0.237 OA
ATOM     79  O   UNL A   1      45.734  38.383  26.534  1.00  0.00    -0.237 OA
ATOM     80  O   UNL A   1      45.409  39.224  28.829  1.00  0.00    -0.744 OA
ENDBRANCH  73  77
ENDBRANCH  56  70
BRANCH  57  81
ATOM     81  C   UNL A   1      42.751  26.897  34.566  1.00  0.00     0.023 A 
ATOM     82  C   UNL A   1      43.929  26.404  35.148  1.00  0.00     0.031 A 
ATOM     83  C   UNL A   1      41.561  26.176  34.768  1.00  0.00     0.131 A 
ATOM     84  C   UNL A   1      43.900  25.206  35.878  1.00  0.00     0.055 A 
ATOM     85  C   UNL A   1      41.528  25.007  35.530  1.00  0.00     0.041 A 
ATOM     86  F   UNL A   1      40.406  26.611  34.238  1.00  0.00    -0.206 F 
ATOM     87  C   UNL A   1      42.705  24.511  36.083  1.00  0.00     0.022 A 
BRANCH  84  88
ATOM     88  S   UNL A   1      45.459  24.538  36.519  1.00  0.00     0.124 S 
ATOM     89  O   UNL A   1      45.504  23.227  35.881  1.00  0.00    -0.237 OA
ATOM     90  O   UNL A   1      46.429  25.519  36.041  1.00  0.00    -0.237 OA
ATOM     91  O   UNL A   1      45.253  24.523  37.966  1.00  0.00    -0.744 OA
ENDBRANCH  84  88
ENDBRANCH  57  81
BRANCH  69  92
ATOM     92  C   UNL A   1      40.886  33.503  35.787  1.00  0.00     0.023 A 
ATOM     93  C   UNL A   1      41.658  34.086  36.804  1.00  0.00     0.031 A 
ATOM     94  C   UNL A   1      39.486  33.598  35.872  1.00  0.00     0.131 A 
ATOM     95  C   UNL A   1      41.023  34.718  37.883  1.00  0.00     0.055 A 
ATOM     96  C   UNL A   1      38.861  34.263  36.926  1.00  0.00     0.041 A 
ATOM     97  F   UNL A   1      38.706  33.059  34.922  1.00  0.00    -0.206 F 
ATOM     98  C   UNL A   1      39.630  34.823  37.942  1.00  0.00     0.022 A 
BRANCH  95  99
ATOM     99  S   UNL A   1      42.040  35.382  39.229  1.00  0.00     0.124 S 
ATOM    100  O   UNL A   1      43.385  35.283  38.669  1.00  0.00    -0.237 OA
ATOM    101  O   UNL A   1      41.515  36.734  39.386  1.00  0.00    -0.237 OA
ATOM    102  O   UNL A   1      41.765  34.479  40.346  1.00  0.00    -0.744 OA
ENDBRANCH  95  99
ENDBRANCH  69  92
ENDBRANCH  43  44
ENDBRANCH  35  38
ENDBRANCH  33  34
ENDBRANCH  32  33
ENDBRANCH  31  32
ENDBRANCH  30  31
ENDBRANCH   1  30
TORSDOF 22
ENDMDL
MODEL 3
REMARK VINA RESULT:     -10.9      5.906      9.073
REMARK SMILES O=C(CCCNC(=O)[C@@H]1CCCN(S(=O)(=O)c2ccc(F)cc2)C1)NCCCCCCNC(=O)c1ccc(-c2c3nc(c(-c4cc(S(=O)(=O)[O-])ccc4F)c4ccc([nH]4)c(-c4cc(S(=O)(=O)[O-])ccc4F)c4nc(c(-c5cc(S(=O)(=O)[O-])ccc5F)c5ccc2[nH]5)C=C4)C=C3)cc1
REMARK SMILES IDX 27 1 26 2 25 3 1 4 2 5 3 7 4 8 5 9 6 10 7 11 8 13 9 14 10 15
REMARK SMILES IDX 24 16 11 17 13 18 12 19 14 20 15 21 16 22 17 23 18 24 23 25
REMARK SMILES IDX 19 26 22 27 20 28 21 29 28 30 29 31 30 32 31 33 32 34 33 35
REMARK SMILES IDX 34 37 35 38 36 39 97 40 37 41 96 42 38 43 39 44 40 45 90 46
REMARK SMILES IDX 41 47 95 48 89 49 91 50 42 51 94 52 88 53 87 54 43 56 75 57
REMARK SMILES IDX 55 58 74 59 56 60 59 61 73 62 92 63 57 64 58 65 72 67 93 68
REMARK SMILES IDX 60 69 44 70 45 71 53 72 46 73 52 74 54 75 51 76 47 77 48 78
REMARK SMILES IDX 49 79 50 80 76 81 77 82 85 83 78 84 84 85 86 86 83 87 79 88
REMARK SMILES IDX 80 89 81 90 82 91 61 92 62 93 70 94 63 95 69 96 71 97 68 98
REMARK SMILES IDX 64 99 65 100 66 101 67 102
REMARK H PARENT 25 6 6 12 32 36 91 55 59 66
REMARK Flexibility Score: inf
ROOT
ATOM      1  C   UNL A   1      38.832  29.606  28.056  1.00  0.00     0.021 C 
ENDROOT
BRANCH   1   2
ATOM      2  C   UNL A   1      37.739  29.436  29.111  1.00  0.00     0.116 C 
BRANCH   2   3
ATOM      3  N   UNL A   1      36.418  29.644  28.551  1.00  0.00    -0.356 N 
ATOM      4  O   UNL A   1      36.371  31.925  28.835  1.00  0.00    -0.275 OA
ATOM      5  C   UNL A   1      35.835  30.885  28.469  1.00  0.00     0.220 C 
ATOM      6  H   UNL A   1      35.920  28.864  28.217  1.00  0.00     0.163 HD
BRANCH   5   7
ATOM      7  C   UNL A   1      34.449  30.867  27.862  1.00  0.00     0.102 C 
BRANCH   7   8
ATOM      8  C   UNL A   1      34.107  29.531  27.206  1.00  0.00     0.031 C 
BRANCH   8   9
ATOM      9  C   UNL A   1      33.174  29.600  25.996  1.00  0.00     0.116 C 
BRANCH   9  10
ATOM     10  N   UNL A   1      32.247  28.482  25.927  1.00  0.00    -0.356 N 
ATOM     11  C   UNL A   1      32.468  27.189  25.543  1.00  0.00     0.224 C 
ATOM     12  H   UNL A   1      31.322  28.686  26.197  1.00  0.00     0.163 HD
ATOM     13  O   UNL A   1      31.567  26.380  25.756  1.00  0.00    -0.275 OA
BRANCH  11  14
ATOM     14  C   UNL A   1      33.750  26.837  24.799  1.00  0.00     0.093 C 
ATOM     15  C   UNL A   1      33.988  27.837  23.667  1.00  0.00     0.016 C 
ATOM     16  C   UNL A   1      33.762  25.388  24.304  1.00  0.00     0.116 C 
ATOM     17  C   UNL A   1      33.076  27.556  22.480  1.00  0.00     0.018 C 
ATOM     18  N   UNL A   1      32.958  25.145  23.063  1.00  0.00    -0.197 NA
ATOM     19  C   UNL A   1      33.243  26.126  21.983  1.00  0.00     0.102 C 
BRANCH  18  20
ATOM     20  S   UNL A   1      33.080  23.493  22.572  1.00  0.00     0.243 S 
ATOM     21  O   UNL A   1      31.873  22.823  23.010  1.00  0.00    -0.207 OA
ATOM     22  O   UNL A   1      33.472  23.468  21.179  1.00  0.00    -0.207 OA
BRANCH  20  23
ATOM     23  C   UNL A   1      34.437  22.836  23.520  1.00  0.00     0.082 A 
ATOM     24  C   UNL A   1      34.182  21.915  24.544  1.00  0.00     0.025 A 
ATOM     25  C   UNL A   1      35.753  23.136  23.146  1.00  0.00     0.025 A 
ATOM     26  C   UNL A   1      35.249  21.338  25.233  1.00  0.00     0.040 A 
ATOM     27  C   UNL A   1      36.816  22.537  23.826  1.00  0.00     0.040 A 
ATOM     28  C   UNL A   1      36.554  21.652  24.868  1.00  0.00     0.123 A 
ATOM     29  F   UNL A   1      37.575  21.078  25.519  1.00  0.00    -0.207 F 
ENDBRANCH  20  23
ENDBRANCH  18  20
ENDBRANCH  11  14
ENDBRANCH   9  10
ENDBRANCH   8   9
ENDBRANCH   7   8
ENDBRANCH   5   7
ENDBRANCH   2   3
ENDBRANCH   1   2
BRANCH   1  30
ATOM     30  C   UNL A   1      39.332  28.301  27.419  1.00  0.00     0.002 C 
BRANCH  30  31
ATOM     31  C   UNL A   1      39.745  27.202  28.402  1.00  0.00     0.002 C 
BRANCH  31  32
ATOM     32  C   UNL A   1      39.953  25.815  27.787  1.00  0.00     0.021 C 
BRANCH  32  33
ATOM     33  C   UNL A   1      41.350  25.219  27.960  1.00  0.00     0.116 C 
BRANCH  33  34
ATOM     34  N   UNL A   1      42.080  25.116  26.708  1.00  0.00    -0.352 N 
ATOM     35  C   UNL A   1      42.849  26.060  26.069  1.00  0.00     0.251 C 
ATOM     36  H   UNL A   1      42.016  24.245  26.253  1.00  0.00     0.163 HD
ATOM     37  O   UNL A   1      43.289  25.827  24.946  1.00  0.00    -0.269 OA
BRANCH  35  38
ATOM     38  C   UNL A   1      43.115  27.366  26.715  1.00  0.00     0.039 A 
ATOM     39  C   UNL A   1      42.509  28.510  26.188  1.00  0.00     0.014 A 
ATOM     40  C   UNL A   1      43.953  27.468  27.829  1.00  0.00     0.014 A 
ATOM     41  C   UNL A   1      42.680  29.742  26.827  1.00  0.00     0.010 A 
ATOM     42  C   UNL A   1      44.080  28.688  28.495  1.00  0.00     0.010 A 
ATOM     43  C   UNL A   1      43.431  29.834  28.009  1.00  0.00    -0.014 A 
BRANCH  43  44
ATOM     44  C   UNL A   1      43.519  31.110  28.768  1.00  0.00     0.031 A 
ATOM     45  C   UNL A   1      44.557  32.139  28.412  1.00  0.00     0.074 A 
ATOM     46  C   UNL A   1      42.691  31.319  29.813  1.00  0.00     0.049 A 
ATOM     47  N   UNL A   1      44.849  33.259  29.023  1.00  0.00    -0.248 NA
ATOM     48  C   UNL A   1      45.384  31.868  27.227  1.00  0.00     0.031 C 
ATOM     49  C   UNL A   1      41.652  30.393  30.265  1.00  0.00     0.029 A 
ATOM     50  N   UNL A   1      42.594  32.375  30.685  1.00  0.00    -0.354 N 
ATOM     51  C   UNL A   1      45.895  33.822  28.304  1.00  0.00     0.074 A 
ATOM     52  C   UNL A   1      46.212  32.903  27.231  1.00  0.00     0.031 C 
ATOM     53  C   UNL A   1      41.005  30.932  31.311  1.00  0.00     0.029 A 
ATOM     54  C   UNL A   1      41.611  32.219  31.636  1.00  0.00     0.049 A 
ATOM     55  H   UNL A   1      43.172  33.169  30.635  1.00  0.00     0.167 HD
ATOM     56  C   UNL A   1      46.523  35.005  28.511  1.00  0.00     0.034 A 
ATOM     57  C   UNL A   1      41.247  33.013  32.663  1.00  0.00     0.034 A 
ATOM     58  C   UNL A   1      46.190  35.926  29.568  1.00  0.00     0.049 A 
ATOM     59  C   UNL A   1      41.979  34.311  32.884  1.00  0.00     0.074 A 
ATOM     60  C   UNL A   1      46.760  37.159  29.845  1.00  0.00     0.029 A 
ATOM     61  N   UNL A   1      45.198  35.726  30.515  1.00  0.00    -0.354 N 
ATOM     62  N   UNL A   1      42.983  34.815  32.205  1.00  0.00    -0.248 NA
ATOM     63  C   UNL A   1      41.531  35.147  34.006  1.00  0.00     0.031 C 
ATOM     64  C   UNL A   1      46.141  37.682  30.983  1.00  0.00     0.029 A 
ATOM     65  C   UNL A   1      45.146  36.806  31.382  1.00  0.00     0.049 A 
ATOM     66  H   UNL A   1      44.615  34.934  30.563  1.00  0.00     0.167 HD
ATOM     67  C   UNL A   1      43.265  36.039  32.802  1.00  0.00     0.074 A 
ATOM     68  C   UNL A   1      42.330  36.199  33.894  1.00  0.00     0.031 C 
ATOM     69  C   UNL A   1      44.210  36.952  32.468  1.00  0.00     0.034 A 
BRANCH  56  70
ATOM     70  C   UNL A   1      47.650  35.373  27.584  1.00  0.00     0.023 A 
ATOM     71  C   UNL A   1      48.972  34.980  27.849  1.00  0.00     0.031 A 
ATOM     72  C   UNL A   1      47.390  36.080  26.397  1.00  0.00     0.131 A 
ATOM     73  C   UNL A   1      49.993  35.321  26.950  1.00  0.00     0.055 A 
ATOM     74  C   UNL A   1      48.401  36.368  25.480  1.00  0.00     0.041 A 
ATOM     75  F   UNL A   1      46.145  36.489  26.106  1.00  0.00    -0.206 F 
ATOM     76  C   UNL A   1      49.712  35.991  25.755  1.00  0.00     0.022 A 
BRANCH  73  77
ATOM     77  S   UNL A   1      51.706  34.915  27.378  1.00  0.00     0.124 S 
ATOM     78  O   UNL A   1      52.448  35.863  26.552  1.00  0.00    -0.237 OA
ATOM     79  O   UNL A   1      51.743  35.157  28.816  1.00  0.00    -0.237 OA
ATOM     80  O   UNL A   1      51.835  33.514  26.980  1.00  0.00    -0.744 OA
ENDBRANCH  73  77
ENDBRANCH  56  70
BRANCH  57  81
ATOM     81  C   UNL A   1      40.141  32.605  33.572  1.00  0.00     0.023 A 
ATOM     82  C   UNL A   1      38.864  33.174  33.455  1.00  0.00     0.031 A 
ATOM     83  C   UNL A   1      40.353  31.655  34.587  1.00  0.00     0.131 A 
ATOM     84  C   UNL A   1      37.853  32.815  34.359  1.00  0.00     0.055 A 
ATOM     85  C   UNL A   1      39.333  31.270  35.458  1.00  0.00     0.041 A 
ATOM     86  F   UNL A   1      41.556  31.076  34.734  1.00  0.00    -0.206 F 
ATOM     87  C   UNL A   1      38.076  31.858  35.352  1.00  0.00     0.022 A 
BRANCH  84  88
ATOM     88  S   UNL A   1      36.250  33.654  34.251  1.00  0.00     0.124 S 
ATOM     89  O   UNL A   1      36.626  34.939  33.672  1.00  0.00    -0.237 OA
ATOM     90  O   UNL A   1      35.494  32.756  33.385  1.00  0.00    -0.237 OA
ATOM     91  O   UNL A   1      35.798  33.704  35.640  1.00  0.00    -0.744 OA
ENDBRANCH  84  88
ENDBRANCH  57  81
BRANCH  69  92
ATOM     92  C   UNL A   1      44.249  38.230  33.260  1.00  0.00     0.023 A 
ATOM     93  C   UNL A   1      43.480  39.347  32.894  1.00  0.00     0.031 A 
ATOM     94  C   UNL A   1      45.038  38.313  34.420  1.00  0.00     0.131 A 
ATOM     95  C   UNL A   1      43.538  40.515  33.669  1.00  0.00     0.055 A 
ATOM     96  C   UNL A   1      45.061  39.461  35.210  1.00  0.00     0.041 A 
ATOM     97  F   UNL A   1      45.786  37.269  34.811  1.00  0.00    -0.206 F 
ATOM     98  C   UNL A   1      44.311  40.573  34.833  1.00  0.00     0.022 A 
BRANCH  95  99
ATOM     99  S   UNL A   1      42.608  41.972  33.125  1.00  0.00     0.124 S 
ATOM    100  O   UNL A   1      41.720  41.405  32.115  1.00  0.00    -0.237 OA
ATOM    101  O   UNL A   1      41.966  42.418  34.358  1.00  0.00    -0.237 OA
ATOM    102  O   UNL A   1      43.643  42.868  32.610  1.00  0.00    -0.744 OA
ENDBRANCH  95  99
ENDBRANCH  69  92
ENDBRANCH  43  44
ENDBRANCH  35  38
ENDBRANCH  33  34
ENDBRANCH  32  33
ENDBRANCH  31  32
ENDBRANCH  30  31
ENDBRANCH   1  30
TORSDOF 22
ENDMDL
