MODEL 1
REMARK VINA RESULT:      -9.2      0.000      0.000
REMARK SMILES COc1ccc(N2C(=O)/C(=C/c3c(C(=O)NCCCCCCNC(=O)c4ccc(-c5c6nc(c(-c7cc(S(=O)(=O)[O-])ccc7F)c7ccc([nH]7)c(-c7cc(S(=O)(=O)[O-])ccc7F)c7nc(c(-c8cc(S(=O)(=O)[O-])ccc8F)c8ccc5[nH]8)C=C7)C=C6)cc4)[nH]c4cc(OC)ccc34)SC2=S)cc1
REMARK SMILES IDX 19 1 18 2 17 3 16 4 14 5 15 6 13 8 12 9 97 10 89 11 90 12
REMARK SMILES IDX 96 13 91 15 95 16 92 17 11 18 7 19 8 20 99 21 9 22 10 23
REMARK SMILES IDX 98 24 100 25 6 26 3 27 4 28 102 29 5 30 101 31 2 32 1 33
REMARK SMILES IDX 93 34 94 35 20 36 21 37 22 38 23 39 24 40 25 42 26 43 27 44
REMARK SMILES IDX 88 45 28 46 87 47 29 48 30 49 31 50 81 51 32 52 86 53 80 54
REMARK SMILES IDX 82 55 33 56 85 57 79 58 78 59 34 61 66 62 46 63 65 64 47 65
REMARK SMILES IDX 50 66 64 67 83 68 48 69 49 70 63 72 84 73 51 74 35 75 36 76
REMARK SMILES IDX 44 77 37 78 43 79 45 80 42 81 38 82 39 83 40 84 41 85 67 86
REMARK SMILES IDX 68 87 76 88 69 89 75 90 77 91 74 92 70 93 71 94 72 95 73 96
REMARK SMILES IDX 52 97 53 98 61 99 54 100 60 101 62 102 59 103 55 104 56 105
REMARK SMILES IDX 57 106 58 107
REMARK H PARENT 16 7 89 14 23 41 82 60 50 71
REMARK Flexibility Score: inf
ROOT
ATOM      1  C   UNL A   1      38.606  31.956  36.000  1.00  0.00     0.002 C 
ENDROOT
BRANCH   1   2
ATOM      2  C   UNL A   1      37.542  32.067  34.907  1.00  0.00     0.021 C 
BRANCH   2   3
ATOM      3  C   UNL A   1      37.950  31.560  33.529  1.00  0.00     0.116 C 
BRANCH   3   4
ATOM      4  N   UNL A   1      38.822  32.465  32.797  1.00  0.00    -0.351 N 
ATOM      5  C   UNL A   1      38.498  33.195  31.682  1.00  0.00     0.268 C 
ATOM      6  O   UNL A   1      39.398  33.692  31.007  1.00  0.00    -0.268 OA
ATOM      7  H   UNL A   1      39.740  32.566  33.138  1.00  0.00     0.163 HD
BRANCH   5   8
ATOM      8  C   UNL A   1      37.117  33.216  31.278  1.00  0.00     0.112 A 
ATOM      9  C   UNL A   1      36.415  32.663  30.204  1.00  0.00     0.014 A 
ATOM     10  C   UNL A   1      35.221  33.486  30.077  1.00  0.00     0.008 A 
ATOM     11  N   UNL A   1      36.219  33.935  32.016  1.00  0.00    -0.350 N 
ATOM     12  C   UNL A   1      35.179  34.304  31.212  1.00  0.00     0.050 A 
ATOM     13  C   UNL A   1      34.194  33.703  29.123  1.00  0.00     0.015 A 
ATOM     14  H   UNL A   1      36.308  34.153  32.972  1.00  0.00     0.167 HD
ATOM     15  C   UNL A   1      34.249  35.325  31.421  1.00  0.00     0.073 A 
ATOM     16  C   UNL A   1      33.248  34.752  29.312  1.00  0.00     0.047 A 
ATOM     17  C   UNL A   1      33.289  35.562  30.445  1.00  0.00     0.120 A 
BRANCH   9  18
ATOM     18  C   UNL A   1      37.000  31.676  29.300  1.00  0.00     0.032 C 
ATOM     19  N   UNL A   1      38.739  28.440  29.572  1.00  0.00    -0.261 N 
ATOM     20  C   UNL A   1      38.341  29.551  28.815  1.00  0.00     0.270 C 
ATOM     21  C   UNL A   1      38.207  28.355  30.850  1.00  0.00     0.152 C 
ATOM     22  O   UNL A   1      38.723  29.864  27.695  1.00  0.00    -0.268 OA
ATOM     23  C   UNL A   1      37.375  30.410  29.612  1.00  0.00     0.081 C 
ATOM     24  S   UNL A   1      36.937  29.551  31.043  1.00  0.00    -0.054 SA
ATOM     25  S   UNL A   1      38.658  27.377  32.132  1.00  0.00    -0.051 S 
BRANCH  19  26
ATOM     26  C   UNL A   1      39.703  27.482  29.110  1.00  0.00     0.051 A 
ATOM     27  C   UNL A   1      41.633  25.910  27.775  1.00  0.00     0.119 A 
ATOM     28  C   UNL A   1      40.283  25.652  27.592  1.00  0.00     0.048 A 
ATOM     29  C   UNL A   1      42.035  26.931  28.629  1.00  0.00     0.048 A 
ATOM     30  C   UNL A   1      39.333  26.420  28.280  1.00  0.00     0.030 A 
ATOM     31  C   UNL A   1      41.074  27.715  29.289  1.00  0.00     0.030 A 
BRANCH  27  32
ATOM     32  O   UNL A   1      42.562  25.262  27.010  1.00  0.00    -0.497 OA
ATOM     33  C   UNL A   1      43.112  24.136  27.692  1.00  0.00     0.278 C 
ENDBRANCH  27  32
ENDBRANCH  19  26
ENDBRANCH   9  18
BRANCH  17  34
ATOM     34  O   UNL A   1      32.516  36.656  30.716  1.00  0.00    -0.497 OA
ATOM     35  C   UNL A   1      32.984  37.574  31.688  1.00  0.00     0.278 C 
ENDBRANCH  17  34
ENDBRANCH   5   8
ENDBRANCH   3   4
ENDBRANCH   2   3
ENDBRANCH   1   2
BRANCH   1  36
ATOM     36  C   UNL A   1      38.121  32.142  37.434  1.00  0.00     0.002 C 
BRANCH  36  37
ATOM     37  C   UNL A   1      37.975  33.577  37.933  1.00  0.00     0.021 C 
BRANCH  37  38
ATOM     38  C   UNL A   1      39.103  34.099  38.814  1.00  0.00     0.116 C 
BRANCH  38  39
ATOM     39  N   UNL A   1      39.380  35.526  38.697  1.00  0.00    -0.352 N 
ATOM     40  C   UNL A   1      40.137  36.222  37.773  1.00  0.00     0.251 C 
ATOM     41  H   UNL A   1      38.961  36.085  39.390  1.00  0.00     0.163 HD
ATOM     42  O   UNL A   1      40.236  37.443  37.878  1.00  0.00    -0.269 OA
BRANCH  40  43
ATOM     43  C   UNL A   1      40.882  35.515  36.700  1.00  0.00     0.039 A 
ATOM     44  C   UNL A   1      42.233  35.199  36.887  1.00  0.00     0.014 A 
ATOM     45  C   UNL A   1      40.257  35.150  35.512  1.00  0.00     0.014 A 
ATOM     46  C   UNL A   1      42.917  34.440  35.925  1.00  0.00     0.010 A 
ATOM     47  C   UNL A   1      40.885  34.271  34.640  1.00  0.00     0.010 A 
ATOM     48  C   UNL A   1      42.235  33.930  34.811  1.00  0.00    -0.014 A 
BRANCH  48  49
ATOM     49  C   UNL A   1      42.894  33.139  33.733  1.00  0.00     0.031 A 
ATOM     50  C   UNL A   1      43.106  33.800  32.389  1.00  0.00     0.074 A 
ATOM     51  C   UNL A   1      43.194  31.836  33.896  1.00  0.00     0.049 A 
ATOM     52  N   UNL A   1      43.374  33.266  31.226  1.00  0.00    -0.248 NA
ATOM     53  C   UNL A   1      42.911  35.259  32.346  1.00  0.00     0.031 C 
ATOM     54  C   UNL A   1      43.022  31.067  35.130  1.00  0.00     0.029 A 
ATOM     55  N   UNL A   1      43.691  30.917  33.003  1.00  0.00    -0.354 N 
ATOM     56  C   UNL A   1      43.313  34.313  30.310  1.00  0.00     0.074 A 
ATOM     57  C   UNL A   1      42.904  35.490  31.044  1.00  0.00     0.031 C 
ATOM     58  C   UNL A   1      43.429  29.803  34.921  1.00  0.00     0.029 A 
ATOM     59  C   UNL A   1      43.836  29.653  33.527  1.00  0.00     0.049 A 
ATOM     60  H   UNL A   1      43.923  31.142  32.074  1.00  0.00     0.167 HD
ATOM     61  C   UNL A   1      43.603  34.304  28.985  1.00  0.00     0.034 A 
ATOM     62  C   UNL A   1      44.232  28.503  32.942  1.00  0.00     0.034 A 
ATOM     63  C   UNL A   1      44.087  33.138  28.290  1.00  0.00     0.049 A 
ATOM     64  C   UNL A   1      44.584  28.521  31.472  1.00  0.00     0.074 A 
ATOM     65  C   UNL A   1      44.471  33.018  26.967  1.00  0.00     0.029 A 
ATOM     66  N   UNL A   1      44.278  31.893  28.875  1.00  0.00    -0.354 N 
ATOM     67  N   UNL A   1      44.522  29.518  30.618  1.00  0.00    -0.248 NA
ATOM     68  C   UNL A   1      45.069  27.262  30.892  1.00  0.00     0.031 C 
ATOM     69  C   UNL A   1      44.854  31.692  26.741  1.00  0.00     0.029 A 
ATOM     70  C   UNL A   1      44.773  31.001  27.939  1.00  0.00     0.049 A 
ATOM     71  H   UNL A   1      44.090  31.676  29.816  1.00  0.00     0.167 HD
ATOM     72  C   UNL A   1      45.000  29.012  29.411  1.00  0.00     0.074 A 
ATOM     73  C   UNL A   1      45.357  27.630  29.653  1.00  0.00     0.031 C 
ATOM     74  C   UNL A   1      45.136  29.630  28.210  1.00  0.00     0.034 A 
BRANCH  61  75
ATOM     75  C   UNL A   1      43.401  35.590  28.218  1.00  0.00     0.023 A 
ATOM     76  C   UNL A   1      44.481  36.426  27.881  1.00  0.00     0.031 A 
ATOM     77  C   UNL A   1      42.110  36.014  27.859  1.00  0.00     0.131 A 
ATOM     78  C   UNL A   1      44.243  37.680  27.298  1.00  0.00     0.055 A 
ATOM     79  C   UNL A   1      41.888  37.221  27.190  1.00  0.00     0.041 A 
ATOM     80  F   UNL A   1      41.035  35.272  28.169  1.00  0.00    -0.206 F 
ATOM     81  C   UNL A   1      42.957  38.071  26.924  1.00  0.00     0.022 A 
BRANCH  78  82
ATOM     82  S   UNL A   1      45.621  38.854  27.189  1.00  0.00     0.124 S 
ATOM     83  O   UNL A   1      46.243  38.697  28.502  1.00  0.00    -0.237 OA
ATOM     84  O   UNL A   1      46.384  38.342  26.057  1.00  0.00    -0.237 OA
ATOM     85  O   UNL A   1      44.960  40.138  26.968  1.00  0.00    -0.744 OA
ENDBRANCH  78  82
ENDBRANCH  61  75
BRANCH  62  86
ATOM     86  C   UNL A   1      44.326  27.235  33.725  1.00  0.00     0.023 A 
ATOM     87  C   UNL A   1      43.167  26.599  34.198  1.00  0.00     0.031 A 
ATOM     88  C   UNL A   1      45.569  26.675  34.068  1.00  0.00     0.131 A 
ATOM     89  C   UNL A   1      43.272  25.479  35.037  1.00  0.00     0.055 A 
ATOM     90  C   UNL A   1      45.668  25.525  34.856  1.00  0.00     0.041 A 
ATOM     91  F   UNL A   1      46.710  27.239  33.641  1.00  0.00    -0.206 F 
ATOM     92  C   UNL A   1      44.515  24.929  35.359  1.00  0.00     0.022 A 
BRANCH  89  93
ATOM     93  S   UNL A   1      41.761  24.813  35.788  1.00  0.00     0.124 S 
ATOM     94  O   UNL A   1      42.055  24.941  37.211  1.00  0.00    -0.237 OA
ATOM     95  O   UNL A   1      40.740  25.711  35.260  1.00  0.00    -0.237 OA
ATOM     96  O   UNL A   1      41.706  23.442  35.283  1.00  0.00    -0.744 OA
ENDBRANCH  89  93
ENDBRANCH  62  86
BRANCH  74  97
ATOM     97  C   UNL A   1      45.764  28.833  27.094  1.00  0.00     0.023 A 
ATOM     98  C   UNL A   1      47.156  28.681  26.984  1.00  0.00     0.031 A 
ATOM     99  C   UNL A   1      44.950  28.225  26.122  1.00  0.00     0.131 A 
ATOM    100  C   UNL A   1      47.697  27.987  25.891  1.00  0.00     0.055 A 
ATOM    101  C   UNL A   1      45.491  27.485  25.071  1.00  0.00     0.041 A 
ATOM    102  F   UNL A   1      43.614  28.339  26.181  1.00  0.00    -0.206 F 
ATOM    103  C   UNL A   1      46.873  27.374  24.943  1.00  0.00     0.022 A 
BRANCH 100 104
ATOM    104  S   UNL A   1      49.497  27.975  25.673  1.00  0.00     0.124 S 
ATOM    105  O   UNL A   1      49.636  27.474  24.310  1.00  0.00    -0.237 OA
ATOM    106  O   UNL A   1      49.844  29.378  25.875  1.00  0.00    -0.237 OA
ATOM    107  O   UNL A   1      49.963  27.066  26.719  1.00  0.00    -0.744 OA
ENDBRANCH 100 104
ENDBRANCH  74  97
ENDBRANCH  48  49
ENDBRANCH  40  43
ENDBRANCH  38  39
ENDBRANCH  37  38
ENDBRANCH  36  37
ENDBRANCH   1  36
TORSDOF 20
ENDMDL
MODEL 2
REMARK VINA RESULT:      -9.1      3.723      9.920
REMARK SMILES COc1ccc(N2C(=O)/C(=C/c3c(C(=O)NCCCCCCNC(=O)c4ccc(-c5c6nc(c(-c7cc(S(=O)(=O)[O-])ccc7F)c7ccc([nH]7)c(-c7cc(S(=O)(=O)[O-])ccc7F)c7nc(c(-c8cc(S(=O)(=O)[O-])ccc8F)c8ccc5[nH]8)C=C7)C=C6)cc4)[nH]c4cc(OC)ccc34)SC2=S)cc1
REMARK SMILES IDX 19 1 18 2 17 3 16 4 14 5 15 6 13 8 12 9 97 10 89 11 90 12
REMARK SMILES IDX 96 13 91 15 95 16 92 17 11 18 7 19 8 20 99 21 9 22 10 23
REMARK SMILES IDX 98 24 100 25 6 26 3 27 4 28 102 29 5 30 101 31 2 32 1 33
REMARK SMILES IDX 93 34 94 35 20 36 21 37 22 38 23 39 24 40 25 42 26 43 27 44
REMARK SMILES IDX 88 45 28 46 87 47 29 48 30 49 31 50 81 51 32 52 86 53 80 54
REMARK SMILES IDX 82 55 33 56 85 57 79 58 78 59 34 61 66 62 46 63 65 64 47 65
REMARK SMILES IDX 50 66 64 67 83 68 48 69 49 70 63 72 84 73 51 74 35 75 36 76
REMARK SMILES IDX 44 77 37 78 43 79 45 80 42 81 38 82 39 83 40 84 41 85 67 86
REMARK SMILES IDX 68 87 76 88 69 89 75 90 77 91 74 92 70 93 71 94 72 95 73 96
REMARK SMILES IDX 52 97 53 98 61 99 54 100 60 101 62 102 59 103 55 104 56 105
REMARK SMILES IDX 57 106 58 107
REMARK H PARENT 16 7 89 14 23 41 82 60 50 71
REMARK Flexibility Score: inf
ROOT
ATOM      1  C   UNL A   1      37.939  33.773  29.503  1.00  0.00     0.002 C 
ENDROOT
BRANCH   1   2
ATOM      2  C   UNL A   1      39.097  34.703  29.862  1.00  0.00     0.021 C 
BRANCH   2   3
ATOM      3  C   UNL A   1      40.428  34.023  30.160  1.00  0.00     0.116 C 
BRANCH   3   4
ATOM      4  N   UNL A   1      41.203  34.669  31.207  1.00  0.00    -0.351 N 
ATOM      5  C   UNL A   1      42.568  34.796  31.259  1.00  0.00     0.268 C 
ATOM      6  O   UNL A   1      43.103  35.107  32.322  1.00  0.00    -0.268 OA
ATOM      7  H   UNL A   1      40.697  35.057  31.957  1.00  0.00     0.163 HD
BRANCH   5   8
ATOM      8  C   UNL A   1      43.317  34.413  30.093  1.00  0.00     0.112 A 
ATOM      9  C   UNL A   1      43.601  35.038  28.876  1.00  0.00     0.014 A 
ATOM     10  C   UNL A   1      43.910  33.949  27.961  1.00  0.00     0.008 A 
ATOM     11  N   UNL A   1      43.887  33.170  30.047  1.00  0.00    -0.350 N 
ATOM     12  C   UNL A   1      44.022  32.792  28.741  1.00  0.00     0.050 A 
ATOM     13  C   UNL A   1      44.050  33.763  26.561  1.00  0.00     0.015 A 
ATOM     14  H   UNL A   1      44.155  32.635  30.828  1.00  0.00     0.167 HD
ATOM     15  C   UNL A   1      44.198  31.504  28.232  1.00  0.00     0.073 A 
ATOM     16  C   UNL A   1      44.213  32.454  26.024  1.00  0.00     0.047 A 
ATOM     17  C   UNL A   1      44.270  31.337  26.855  1.00  0.00     0.120 A 
BRANCH   9  18
ATOM     18  C   UNL A   1      43.317  36.449  28.626  1.00  0.00     0.032 C 
ATOM     19  N   UNL A   1      43.891  39.673  30.315  1.00  0.00    -0.261 N 
ATOM     20  C   UNL A   1      43.267  38.913  29.314  1.00  0.00     0.270 C 
ATOM     21  C   UNL A   1      44.868  39.020  31.051  1.00  0.00     0.152 C 
ATOM     22  O   UNL A   1      42.345  39.256  28.586  1.00  0.00    -0.268 OA
ATOM     23  C   UNL A   1      43.851  37.513  29.277  1.00  0.00     0.081 C 
ATOM     24  S   UNL A   1      45.239  37.476  30.303  1.00  0.00    -0.054 SA
ATOM     25  S   UNL A   1      45.605  39.472  32.484  1.00  0.00    -0.051 S 
BRANCH  19  26
ATOM     26  C   UNL A   1      43.501  41.017  30.634  1.00  0.00     0.051 A 
ATOM     27  C   UNL A   1      43.037  43.595  31.692  1.00  0.00     0.119 A 
ATOM     28  C   UNL A   1      42.188  42.549  32.020  1.00  0.00     0.048 A 
ATOM     29  C   UNL A   1      44.105  43.377  30.829  1.00  0.00     0.048 A 
ATOM     30  C   UNL A   1      42.410  41.279  31.468  1.00  0.00     0.030 A 
ATOM     31  C   UNL A   1      44.337  42.094  30.307  1.00  0.00     0.030 A 
BRANCH  27  32
ATOM     32  O   UNL A   1      42.913  44.799  32.325  1.00  0.00    -0.497 OA
ATOM     33  C   UNL A   1      44.129  45.184  32.966  1.00  0.00     0.278 C 
ENDBRANCH  27  32
ENDBRANCH  19  26
ENDBRANCH   9  18
BRANCH  17  34
ATOM     34  O   UNL A   1      44.328  30.023  26.481  1.00  0.00    -0.497 OA
ATOM     35  C   UNL A   1      43.175  29.225  26.689  1.00  0.00     0.278 C 
ENDBRANCH  17  34
ENDBRANCH   5   8
ENDBRANCH   3   4
ENDBRANCH   2   3
ENDBRANCH   1   2
BRANCH   1  36
ATOM     36  C   UNL A   1      36.781  33.723  30.495  1.00  0.00     0.002 C 
BRANCH  36  37
ATOM     37  C   UNL A   1      35.375  33.889  29.924  1.00  0.00     0.021 C 
BRANCH  37  38
ATOM     38  C   UNL A   1      35.261  33.868  28.405  1.00  0.00     0.116 C 
BRANCH  38  39
ATOM     39  N   UNL A   1      34.440  32.796  27.854  1.00  0.00    -0.352 N 
ATOM     40  C   UNL A   1      34.626  31.426  27.860  1.00  0.00     0.251 C 
ATOM     41  H   UNL A   1      33.618  33.097  27.403  1.00  0.00     0.163 HD
ATOM     42  O   UNL A   1      33.790  30.706  27.318  1.00  0.00    -0.269 OA
BRANCH  40  43
ATOM     43  C   UNL A   1      35.846  30.819  28.449  1.00  0.00     0.039 A 
ATOM     44  C   UNL A   1      35.751  30.092  29.642  1.00  0.00     0.014 A 
ATOM     45  C   UNL A   1      37.085  30.949  27.831  1.00  0.00     0.014 A 
ATOM     46  C   UNL A   1      36.876  29.426  30.152  1.00  0.00     0.010 A 
ATOM     47  C   UNL A   1      38.154  30.167  28.248  1.00  0.00     0.010 A 
ATOM     48  C   UNL A   1      38.080  29.421  29.434  1.00  0.00    -0.014 A 
BRANCH  48  49
ATOM     49  C   UNL A   1      39.326  28.762  29.918  1.00  0.00     0.031 A 
ATOM     50  C   UNL A   1      39.977  29.296  31.174  1.00  0.00     0.074 A 
ATOM     51  C   UNL A   1      39.934  27.791  29.207  1.00  0.00     0.049 A 
ATOM     52  N   UNL A   1      41.185  29.110  31.636  1.00  0.00    -0.248 NA
ATOM     53  C   UNL A   1      39.169  30.232  31.974  1.00  0.00     0.031 C 
ATOM     54  C   UNL A   1      39.430  27.197  27.968  1.00  0.00     0.029 A 
ATOM     55  N   UNL A   1      41.127  27.145  29.420  1.00  0.00    -0.354 N 
ATOM     56  C   UNL A   1      41.300  29.954  32.738  1.00  0.00     0.074 A 
ATOM     57  C   UNL A   1      40.068  30.707  32.821  1.00  0.00     0.031 C 
ATOM     58  C   UNL A   1      40.295  26.259  27.546  1.00  0.00     0.029 A 
ATOM     59  C   UNL A   1      41.443  26.224  28.447  1.00  0.00     0.049 A 
ATOM     60  H   UNL A   1      41.704  27.325  30.197  1.00  0.00     0.167 HD
ATOM     61  C   UNL A   1      42.324  30.069  33.620  1.00  0.00     0.034 A 
ATOM     62  C   UNL A   1      42.542  25.456  28.293  1.00  0.00     0.034 A 
ATOM     63  C   UNL A   1      43.509  29.251  33.567  1.00  0.00     0.049 A 
ATOM     64  C   UNL A   1      43.657  25.574  29.307  1.00  0.00     0.074 A 
ATOM     65  C   UNL A   1      44.585  29.231  34.435  1.00  0.00     0.029 A 
ATOM     66  N   UNL A   1      43.759  28.286  32.600  1.00  0.00    -0.354 N 
ATOM     67  N   UNL A   1      43.753  26.376  30.344  1.00  0.00    -0.248 NA
ATOM     68  C   UNL A   1      44.806  24.676  29.135  1.00  0.00     0.031 C 
ATOM     69  C   UNL A   1      45.505  28.286  33.970  1.00  0.00     0.029 A 
ATOM     70  C   UNL A   1      44.972  27.668  32.850  1.00  0.00     0.049 A 
ATOM     71  H   UNL A   1      43.162  28.073  31.847  1.00  0.00     0.167 HD
ATOM     72  C   UNL A   1      44.954  26.046  30.968  1.00  0.00     0.074 A 
ATOM     73  C   UNL A   1      45.538  24.967  30.199  1.00  0.00     0.031 C 
ATOM     74  C   UNL A   1      45.526  26.582  32.077  1.00  0.00     0.034 A 
BRANCH  61  75
ATOM     75  C   UNL A   1      42.195  31.113  34.706  1.00  0.00     0.023 A 
ATOM     76  C   UNL A   1      42.928  32.312  34.668  1.00  0.00     0.031 A 
ATOM     77  C   UNL A   1      41.366  30.888  35.818  1.00  0.00     0.131 A 
ATOM     78  C   UNL A   1      42.895  33.191  35.761  1.00  0.00     0.055 A 
ATOM     79  C   UNL A   1      41.262  31.814  36.860  1.00  0.00     0.041 A 
ATOM     80  F   UNL A   1      40.655  29.754  35.925  1.00  0.00    -0.206 F 
ATOM     81  C   UNL A   1      42.044  32.965  36.845  1.00  0.00     0.022 A 
BRANCH  78  82
ATOM     82  S   UNL A   1      44.099  34.545  35.815  1.00  0.00     0.124 S 
ATOM     83  O   UNL A   1      43.248  35.703  35.549  1.00  0.00    -0.237 OA
ATOM     84  O   UNL A   1      44.633  34.442  37.168  1.00  0.00    -0.237 OA
ATOM     85  O   UNL A   1      45.038  34.210  34.746  1.00  0.00    -0.744 OA
ENDBRANCH  78  82
ENDBRANCH  61  75
BRANCH  62  86
ATOM     86  C   UNL A   1      42.661  24.505  27.149  1.00  0.00     0.023 A 
ATOM     87  C   UNL A   1      42.105  23.217  27.228  1.00  0.00     0.031 A 
ATOM     88  C   UNL A   1      43.382  24.837  25.989  1.00  0.00     0.131 A 
ATOM     89  C   UNL A   1      42.330  22.289  26.200  1.00  0.00     0.055 A 
ATOM     90  C   UNL A   1      43.554  23.929  24.941  1.00  0.00     0.041 A 
ATOM     91  F   UNL A   1      43.932  26.055  25.857  1.00  0.00    -0.206 F 
ATOM     92  C   UNL A   1      43.040  22.640  25.050  1.00  0.00     0.022 A 
BRANCH  89  93
ATOM     93  S   UNL A   1      41.768  20.580  26.436  1.00  0.00     0.124 S 
ATOM     94  O   UNL A   1      42.514  19.877  25.398  1.00  0.00    -0.237 OA
ATOM     95  O   UNL A   1      42.177  20.314  27.812  1.00  0.00    -0.237 OA
ATOM     96  O   UNL A   1      40.326  20.664  26.220  1.00  0.00    -0.744 OA
ENDBRANCH  89  93
ENDBRANCH  62  86
BRANCH  74  97
ATOM     97  C   UNL A   1      46.808  25.954  32.560  1.00  0.00     0.023 A 
ATOM     98  C   UNL A   1      46.815  24.901  33.489  1.00  0.00     0.031 A 
ATOM     99  C   UNL A   1      48.044  26.428  32.085  1.00  0.00     0.131 A 
ATOM    100  C   UNL A   1      48.035  24.394  33.960  1.00  0.00     0.055 A 
ATOM    101  C   UNL A   1      49.253  25.880  32.511  1.00  0.00     0.041 A 
ATOM    102  F   UNL A   1      48.095  27.433  31.195  1.00  0.00    -0.206 F 
ATOM    103  C   UNL A   1      49.254  24.866  33.464  1.00  0.00     0.022 A 
BRANCH 100 104
ATOM    104  S   UNL A   1      48.010  23.173  35.300  1.00  0.00     0.124 S 
ATOM    105  O   UNL A   1      48.211  21.922  34.576  1.00  0.00    -0.237 OA
ATOM    106  O   UNL A   1      49.122  23.609  36.139  1.00  0.00    -0.237 OA
ATOM    107  O   UNL A   1      46.685  23.341  35.893  1.00  0.00    -0.744 OA
ENDBRANCH 100 104
ENDBRANCH  74  97
ENDBRANCH  48  49
ENDBRANCH  40  43
ENDBRANCH  38  39
ENDBRANCH  37  38
ENDBRANCH  36  37
ENDBRANCH   1  36
TORSDOF 20
ENDMDL
MODEL 3
REMARK VINA RESULT:      -8.9      3.665      9.750
REMARK SMILES COc1ccc(N2C(=O)/C(=C/c3c(C(=O)NCCCCCCNC(=O)c4ccc(-c5c6nc(c(-c7cc(S(=O)(=O)[O-])ccc7F)c7ccc([nH]7)c(-c7cc(S(=O)(=O)[O-])ccc7F)c7nc(c(-c8cc(S(=O)(=O)[O-])ccc8F)c8ccc5[nH]8)C=C7)C=C6)cc4)[nH]c4cc(OC)ccc34)SC2=S)cc1
REMARK SMILES IDX 19 1 18 2 17 3 16 4 14 5 15 6 13 8 12 9 97 10 89 11 90 12
REMARK SMILES IDX 96 13 91 15 95 16 92 17 11 18 7 19 8 20 99 21 9 22 10 23
REMARK SMILES IDX 98 24 100 25 6 26 3 27 4 28 102 29 5 30 101 31 2 32 1 33
REMARK SMILES IDX 93 34 94 35 20 36 21 37 22 38 23 39 24 40 25 42 26 43 27 44
REMARK SMILES IDX 88 45 28 46 87 47 29 48 30 49 31 50 81 51 32 52 86 53 80 54
REMARK SMILES IDX 82 55 33 56 85 57 79 58 78 59 34 61 66 62 46 63 65 64 47 65
REMARK SMILES IDX 50 66 64 67 83 68 48 69 49 70 63 72 84 73 51 74 35 75 36 76
REMARK SMILES IDX 44 77 37 78 43 79 45 80 42 81 38 82 39 83 40 84 41 85 67 86
REMARK SMILES IDX 68 87 76 88 69 89 75 90 77 91 74 92 70 93 71 94 72 95 73 96
REMARK SMILES IDX 52 97 53 98 61 99 54 100 60 101 62 102 59 103 55 104 56 105
REMARK SMILES IDX 57 106 58 107
REMARK H PARENT 16 7 89 14 23 41 82 60 50 71
REMARK Flexibility Score: inf
ROOT
ATOM      1  C   UNL A   1      37.532  33.245  29.517  1.00  0.00     0.002 C 
ENDROOT
BRANCH   1   2
ATOM      2  C   UNL A   1      38.687  34.247  29.535  1.00  0.00     0.021 C 
BRANCH   2   3
ATOM      3  C   UNL A   1      40.027  33.707  30.022  1.00  0.00     0.116 C 
BRANCH   3   4
ATOM      4  N   UNL A   1      40.641  34.506  31.072  1.00  0.00    -0.351 N 
ATOM      5  C   UNL A   1      41.982  34.712  31.268  1.00  0.00     0.268 C 
ATOM      6  O   UNL A   1      42.370  35.166  32.344  1.00  0.00    -0.268 OA
ATOM      7  H   UNL A   1      40.031  34.945  31.707  1.00  0.00     0.163 HD
BRANCH   5   8
ATOM      8  C   UNL A   1      42.884  34.245  30.249  1.00  0.00     0.112 A 
ATOM      9  C   UNL A   1      43.183  34.671  28.952  1.00  0.00     0.014 A 
ATOM     10  C   UNL A   1      43.732  33.495  28.292  1.00  0.00     0.008 A 
ATOM     11  N   UNL A   1      43.632  33.124  30.485  1.00  0.00    -0.350 N 
ATOM     12  C   UNL A   1      43.940  32.537  29.291  1.00  0.00     0.050 A 
ATOM     13  C   UNL A   1      44.025  33.077  26.968  1.00  0.00     0.015 A 
ATOM     14  H   UNL A   1      43.903  32.794  31.372  1.00  0.00     0.167 HD
ATOM     15  C   UNL A   1      44.349  31.222  29.059  1.00  0.00     0.073 A 
ATOM     16  C   UNL A   1      44.427  31.735  26.711  1.00  0.00     0.047 A 
ATOM     17  C   UNL A   1      44.571  30.816  27.749  1.00  0.00     0.120 A 
BRANCH   9  18
ATOM     18  C   UNL A   1      42.719  35.945  28.411  1.00  0.00     0.032 C 
ATOM     19  N   UNL A   1      44.219  39.058  27.131  1.00  0.00    -0.261 N 
ATOM     20  C   UNL A   1      43.102  38.332  27.572  1.00  0.00     0.270 C 
ATOM     21  C   UNL A   1      45.389  38.331  26.971  1.00  0.00     0.152 C 
ATOM     22  O   UNL A   1      41.990  38.768  27.838  1.00  0.00    -0.268 OA
ATOM     23  C   UNL A   1      43.465  36.870  27.756  1.00  0.00     0.081 C 
ATOM     24  S   UNL A   1      45.042  36.616  27.102  1.00  0.00    -0.054 SA
ATOM     25  S   UNL A   1      46.960  38.869  26.761  1.00  0.00    -0.051 S 
BRANCH  19  26
ATOM     26  C   UNL A   1      44.201  40.480  26.934  1.00  0.00     0.051 A 
ATOM     27  C   UNL A   1      44.668  43.213  26.399  1.00  0.00     0.119 A 
ATOM     28  C   UNL A   1      44.889  42.709  27.672  1.00  0.00     0.048 A 
ATOM     29  C   UNL A   1      44.200  42.376  25.393  1.00  0.00     0.048 A 
ATOM     30  C   UNL A   1      44.628  41.357  27.935  1.00  0.00     0.030 A 
ATOM     31  C   UNL A   1      43.972  41.016  25.660  1.00  0.00     0.030 A 
BRANCH  27  32
ATOM     32  O   UNL A   1      45.045  44.491  26.095  1.00  0.00    -0.497 OA
ATOM     33  C   UNL A   1      45.104  44.701  24.685  1.00  0.00     0.278 C 
ENDBRANCH  27  32
ENDBRANCH  19  26
ENDBRANCH   9  18
BRANCH  17  34
ATOM     34  O   UNL A   1      44.855  29.483  27.647  1.00  0.00    -0.497 OA
ATOM     35  C   UNL A   1      45.689  28.906  28.637  1.00  0.00     0.278 C 
ENDBRANCH  17  34
ENDBRANCH   5   8
ENDBRANCH   3   4
ENDBRANCH   2   3
ENDBRANCH   1   2
BRANCH   1  36
ATOM     36  C   UNL A   1      36.322  33.594  30.378  1.00  0.00     0.002 C 
BRANCH  36  37
ATOM     37  C   UNL A   1      34.958  33.569  29.694  1.00  0.00     0.021 C 
BRANCH  37  38
ATOM     38  C   UNL A   1      34.971  33.457  28.175  1.00  0.00     0.116 C 
BRANCH  38  39
ATOM     39  N   UNL A   1      34.200  32.349  27.622  1.00  0.00    -0.352 N 
ATOM     40  C   UNL A   1      34.448  30.989  27.627  1.00  0.00     0.251 C 
ATOM     41  H   UNL A   1      33.365  32.614  27.171  1.00  0.00     0.163 HD
ATOM     42  O   UNL A   1      33.646  30.232  27.084  1.00  0.00    -0.269 OA
BRANCH  40  43
ATOM     43  C   UNL A   1      35.694  30.438  28.216  1.00  0.00     0.039 A 
ATOM     44  C   UNL A   1      35.670  29.897  29.507  1.00  0.00     0.014 A 
ATOM     45  C   UNL A   1      36.889  30.437  27.502  1.00  0.00     0.014 A 
ATOM     46  C   UNL A   1      36.815  29.279  30.033  1.00  0.00     0.010 A 
ATOM     47  C   UNL A   1      37.968  29.692  27.957  1.00  0.00     0.010 A 
ATOM     48  C   UNL A   1      37.964  29.131  29.243  1.00  0.00    -0.014 A 
BRANCH  48  49
ATOM     49  C   UNL A   1      39.228  28.512  29.734  1.00  0.00     0.031 A 
ATOM     50  C   UNL A   1      39.875  29.091  30.972  1.00  0.00     0.074 A 
ATOM     51  C   UNL A   1      39.852  27.537  29.043  1.00  0.00     0.049 A 
ATOM     52  N   UNL A   1      41.091  28.943  31.429  1.00  0.00    -0.248 NA
ATOM     53  C   UNL A   1      39.052  30.029  31.755  1.00  0.00     0.031 C 
ATOM     54  C   UNL A   1      39.353  26.901  27.823  1.00  0.00     0.029 A 
ATOM     55  N   UNL A   1      41.061  26.923  29.263  1.00  0.00    -0.354 N 
ATOM     56  C   UNL A   1      41.193  29.817  32.509  1.00  0.00     0.074 A 
ATOM     57  C   UNL A   1      39.946  30.544  32.583  1.00  0.00     0.031 C 
ATOM     58  C   UNL A   1      40.236  25.972  27.417  1.00  0.00     0.029 A 
ATOM     59  C   UNL A   1      41.390  25.985  28.311  1.00  0.00     0.049 A 
ATOM     60  H   UNL A   1      41.639  27.134  30.031  1.00  0.00     0.167 HD
ATOM     61  C   UNL A   1      42.221  29.976  33.381  1.00  0.00     0.034 A 
ATOM     62  C   UNL A   1      42.505  25.238  28.168  1.00  0.00     0.034 A 
ATOM     63  C   UNL A   1      43.423  29.183  33.339  1.00  0.00     0.049 A 
ATOM     64  C   UNL A   1      43.624  25.406  29.170  1.00  0.00     0.074 A 
ATOM     65  C   UNL A   1      44.506  29.208  34.199  1.00  0.00     0.029 A 
ATOM     66  N   UNL A   1      43.688  28.200  32.394  1.00  0.00    -0.354 N 
ATOM     67  N   UNL A   1      43.709  26.235  30.186  1.00  0.00    -0.248 NA
ATOM     68  C   UNL A   1      44.792  24.529  29.012  1.00  0.00     0.031 C 
ATOM     69  C   UNL A   1      45.443  28.272  33.751  1.00  0.00     0.029 A 
ATOM     70  C   UNL A   1      44.917  27.615  32.651  1.00  0.00     0.049 A 
ATOM     71  H   UNL A   1      43.091  27.955  31.651  1.00  0.00     0.167 HD
ATOM     72  C   UNL A   1      44.921  25.947  30.809  1.00  0.00     0.074 A 
ATOM     73  C   UNL A   1      45.524  24.862  30.063  1.00  0.00     0.031 C 
ATOM     74  C   UNL A   1      45.489  26.523  31.900  1.00  0.00     0.034 A 
BRANCH  61  75
ATOM     75  C   UNL A   1      42.076  31.043  34.442  1.00  0.00     0.023 A 
ATOM     76  C   UNL A   1      42.800  32.247  34.381  1.00  0.00     0.031 A 
ATOM     77  C   UNL A   1      41.242  30.837  35.554  1.00  0.00     0.131 A 
ATOM     78  C   UNL A   1      42.752  33.150  35.454  1.00  0.00     0.055 A 
ATOM     79  C   UNL A   1      41.123  31.785  36.573  1.00  0.00     0.041 A 
ATOM     80  F   UNL A   1      40.540  29.700  35.682  1.00  0.00    -0.206 F 
ATOM     81  C   UNL A   1      41.896  32.942  36.536  1.00  0.00     0.022 A 
BRANCH  78  82
ATOM     82  S   UNL A   1      43.945  34.515  35.484  1.00  0.00     0.124 S 
ATOM     83  O   UNL A   1      44.823  34.160  34.370  1.00  0.00    -0.237 OA
ATOM     84  O   UNL A   1      43.096  35.683  35.280  1.00  0.00    -0.237 OA
ATOM     85  O   UNL A   1      44.554  34.408  36.808  1.00  0.00    -0.744 OA
ENDBRANCH  78  82
ENDBRANCH  61  75
BRANCH  62  86
ATOM     86  C   UNL A   1      42.637  24.262  27.046  1.00  0.00     0.023 A 
ATOM     87  C   UNL A   1      42.045  22.991  27.131  1.00  0.00     0.031 A 
ATOM     88  C   UNL A   1      43.406  24.552  25.906  1.00  0.00     0.131 A 
ATOM     89  C   UNL A   1      42.280  22.037  26.129  1.00  0.00     0.055 A 
ATOM     90  C   UNL A   1      43.589  23.619  24.882  1.00  0.00     0.041 A 
ATOM     91  F   UNL A   1      43.993  25.752  25.770  1.00  0.00    -0.206 F 
ATOM     92  C   UNL A   1      43.037  22.347  24.998  1.00  0.00     0.022 A 
BRANCH  89  93
ATOM     93  S   UNL A   1      41.665  20.348  26.377  1.00  0.00     0.124 S 
ATOM     94  O   UNL A   1      42.109  20.068  27.738  1.00  0.00    -0.237 OA
ATOM     95  O   UNL A   1      40.227  20.520  26.194  1.00  0.00    -0.237 OA
ATOM     96  O   UNL A   1      42.339  19.583  25.331  1.00  0.00    -0.744 OA
ENDBRANCH  89  93
ENDBRANCH  62  86
BRANCH  74  97
ATOM     97  C   UNL A   1      46.788  25.935  32.389  1.00  0.00     0.023 A 
ATOM     98  C   UNL A   1      48.017  26.248  31.785  1.00  0.00     0.031 A 
ATOM     99  C   UNL A   1      46.790  25.040  33.474  1.00  0.00     0.131 A 
ATOM    100  C   UNL A   1      49.192  25.624  32.232  1.00  0.00     0.055 A 
ATOM    101  C   UNL A   1      47.969  24.469  33.952  1.00  0.00     0.041 A 
ATOM    102  F   UNL A   1      45.643  24.707  34.087  1.00  0.00    -0.206 F 
ATOM    103  C   UNL A   1      49.178  24.750  33.322  1.00  0.00     0.022 A 
BRANCH 100 104
ATOM    104  S   UNL A   1      50.727  25.899  31.308  1.00  0.00     0.124 S 
ATOM    105  O   UNL A   1      51.741  25.474  32.268  1.00  0.00    -0.237 OA
ATOM    106  O   UNL A   1      50.550  25.037  30.144  1.00  0.00    -0.237 OA
ATOM    107  O   UNL A   1      50.705  27.333  31.024  1.00  0.00    -0.744 OA
ENDBRANCH 100 104
ENDBRANCH  74  97
ENDBRANCH  48  49
ENDBRANCH  40  43
ENDBRANCH  38  39
ENDBRANCH  37  38
ENDBRANCH  36  37
ENDBRANCH   1  36
TORSDOF 20
ENDMDL
