MODEL 1
REMARK VINA RESULT:     -13.2      0.000      0.000
REMARK SMILES COc1cc2c(cc1OC)-c1c(c(C(=O)Nc3ccc(C(=O)NCCCCCCNC(=O)c4ccc(-c5c6nc(c(-c7cc(S(=O)(=O)[O-])ccc7F)c7ccc([nH]7)c(-c7cc(S(=O)(=O)[O-])ccc7F)c7nc(c(-c8cc(S(=O)(=O)[O-])ccc8F)c8ccc5[nH]8)C=C7)C=C6)cc4)cc3)nn1-c1ccc(F)cc1)C2
REMARK SMILES IDX 26 1 25 2 24 3 23 4 21 5 22 6 20 8 17 9 18 10 97 11 19 12
REMARK SMILES IDX 96 13 16 14 14 15 15 16 13 18 3 19 4 20 8 21 5 22 7 23 6 24
REMARK SMILES IDX 107 25 11 26 12 27 99 28 98 29 2 30 1 31 9 32 10 33 100 34
REMARK SMILES IDX 101 35 106 36 102 37 105 38 103 39 104 40 27 41 28 42 29 43
REMARK SMILES IDX 30 44 31 45 32 47 33 48 34 49 95 50 35 51 94 52 36 53 37 54
REMARK SMILES IDX 38 55 88 56 39 57 93 58 87 59 89 60 40 61 92 62 86 63 85 64
REMARK SMILES IDX 41 66 73 67 53 68 72 69 54 70 57 71 71 72 90 73 55 74 56 75
REMARK SMILES IDX 70 77 91 78 58 79 42 80 43 81 51 82 44 83 50 84 52 85 49 86
REMARK SMILES IDX 45 87 46 88 47 89 48 90 74 91 75 92 83 93 76 94 82 95 84 96
REMARK SMILES IDX 81 97 77 98 78 99 79 100 80 101 59 102 60 103 68 104 61 105
REMARK SMILES IDX 67 106 69 107 66 108 62 109 63 110 64 111 65 112
REMARK H PARENT 23 7 16 17 30 46 89 65 57 76
REMARK Flexibility Score: inf
ROOT
ATOM      1  C   UNL A   1      32.466  29.764  27.089  1.00  0.00     0.002 C 
ENDROOT
BRANCH   1   2
ATOM      2  C   UNL A   1      31.732  29.915  25.758  1.00  0.00     0.021 C 
BRANCH   2   3
ATOM      3  C   UNL A   1      32.441  29.426  24.497  1.00  0.00     0.116 C 
BRANCH   3   4
ATOM      4  N   UNL A   1      31.696  29.585  23.262  1.00  0.00    -0.352 N 
ATOM      5  C   UNL A   1      30.676  28.843  22.700  1.00  0.00     0.251 C 
ATOM      6  O   UNL A   1      30.175  29.277  21.661  1.00  0.00    -0.269 OA
ATOM      7  H   UNL A   1      31.967  30.365  22.727  1.00  0.00     0.163 HD
BRANCH   5   8
ATOM      8  C   UNL A   1      30.282  27.473  23.170  1.00  0.00     0.039 A 
ATOM      9  C   UNL A   1      29.900  25.492  25.082  1.00  0.00     0.041 A 
ATOM     10  C   UNL A   1      31.141  25.608  24.475  1.00  0.00     0.027 A 
ATOM     11  C   UNL A   1      28.796  26.101  24.485  1.00  0.00     0.027 A 
ATOM     12  C   UNL A   1      31.328  26.596  23.500  1.00  0.00     0.016 A 
ATOM     13  C   UNL A   1      28.990  27.086  23.513  1.00  0.00     0.016 A 
BRANCH   9  14
ATOM     14  N   UNL A   1      29.694  24.793  26.267  1.00  0.00    -0.321 N 
ATOM     15  C   UNL A   1      30.116  23.556  26.714  1.00  0.00     0.276 C 
ATOM     16  O   UNL A   1      29.490  23.129  27.694  1.00  0.00    -0.267 OA
ATOM     17  H   UNL A   1      29.135  25.278  26.918  1.00  0.00     0.170 HD
BRANCH  15  18
ATOM     18  C   UNL A   1      31.323  22.830  26.205  1.00  0.00     0.155 A 
ATOM     19  C   UNL A   1      37.328  22.890  25.518  1.00  0.00     0.161 A 
ATOM     20  C   UNL A   1      36.364  23.654  26.213  1.00  0.00     0.055 A 
ATOM     21  C   UNL A   1      36.957  21.710  24.837  1.00  0.00     0.161 A 
ATOM     22  C   UNL A   1      35.044  23.213  26.239  1.00  0.00    -0.030 A 
ATOM     23  C   UNL A   1      35.615  21.309  24.845  1.00  0.00     0.061 A 
ATOM     24  C   UNL A   1      34.696  22.034  25.567  1.00  0.00     0.008 A 
ATOM     25  C   UNL A   1      33.814  23.930  26.830  1.00  0.00     0.076 C 
ATOM     26  C   UNL A   1      33.285  21.918  25.714  1.00  0.00     0.079 A 
ATOM     27  C   UNL A   1      32.735  23.011  26.330  1.00  0.00     0.016 A 
ATOM     28  N   UNL A   1      32.298  21.072  25.354  1.00  0.00    -0.232 N 
ATOM     29  N   UNL A   1      31.094  21.675  25.500  1.00  0.00    -0.162 NA
BRANCH  19  30
ATOM     30  O   UNL A   1      38.635  23.269  25.679  1.00  0.00    -0.493 OA
ATOM     31  C   UNL A   1      39.156  22.963  26.973  1.00  0.00     0.278 C 
ENDBRANCH  19  30
BRANCH  21  32
ATOM     32  O   UNL A   1      37.719  20.807  24.150  1.00  0.00    -0.493 OA
ATOM     33  C   UNL A   1      37.898  19.496  24.640  1.00  0.00     0.278 C 
ENDBRANCH  21  32
BRANCH  28  34
ATOM     34  C   UNL A   1      32.459  19.757  24.863  1.00  0.00     0.065 A 
ATOM     35  C   UNL A   1      32.354  19.507  23.493  1.00  0.00     0.031 A 
ATOM     36  C   UNL A   1      32.835  18.731  25.750  1.00  0.00     0.031 A 
ATOM     37  C   UNL A   1      32.744  18.257  23.004  1.00  0.00     0.041 A 
ATOM     38  C   UNL A   1      33.198  17.481  25.254  1.00  0.00     0.041 A 
ATOM     39  C   UNL A   1      33.175  17.265  23.884  1.00  0.00     0.123 A 
ATOM     40  F   UNL A   1      33.587  16.086  23.400  1.00  0.00    -0.207 F 
ENDBRANCH  28  34
ENDBRANCH  15  18
ENDBRANCH   9  14
ENDBRANCH   5   8
ENDBRANCH   3   4
ENDBRANCH   2   3
ENDBRANCH   1   2
BRANCH   1  41
ATOM     41  C   UNL A   1      33.427  28.582  27.215  1.00  0.00     0.002 C 
BRANCH  41  42
ATOM     42  C   UNL A   1      34.920  28.882  27.035  1.00  0.00     0.021 C 
BRANCH  42  43
ATOM     43  C   UNL A   1      35.466  30.064  27.838  1.00  0.00     0.116 C 
BRANCH  43  44
ATOM     44  N   UNL A   1      35.511  29.855  29.268  1.00  0.00    -0.352 N 
ATOM     45  C   UNL A   1      36.501  29.563  30.166  1.00  0.00     0.251 C 
ATOM     46  H   UNL A   1      34.627  29.943  29.692  1.00  0.00     0.163 HD
ATOM     47  O   UNL A   1      36.188  29.659  31.356  1.00  0.00    -0.269 OA
BRANCH  45  48
ATOM     48  C   UNL A   1      37.862  29.071  29.815  1.00  0.00     0.039 A 
ATOM     49  C   UNL A   1      38.497  27.974  30.390  1.00  0.00     0.014 A 
ATOM     50  C   UNL A   1      38.577  29.845  28.877  1.00  0.00     0.014 A 
ATOM     51  C   UNL A   1      39.845  27.738  30.142  1.00  0.00     0.010 A 
ATOM     52  C   UNL A   1      39.919  29.593  28.600  1.00  0.00     0.010 A 
ATOM     53  C   UNL A   1      40.567  28.571  29.280  1.00  0.00    -0.014 A 
BRANCH  53  54
ATOM     54  C   UNL A   1      41.971  28.236  29.050  1.00  0.00     0.031 A 
ATOM     55  C   UNL A   1      42.162  26.924  28.379  1.00  0.00     0.074 A 
ATOM     56  C   UNL A   1      43.017  29.025  29.369  1.00  0.00     0.049 A 
ATOM     57  N   UNL A   1      42.598  25.829  28.908  1.00  0.00    -0.248 NA
ATOM     58  C   UNL A   1      41.629  26.761  27.019  1.00  0.00     0.031 C 
ATOM     59  C   UNL A   1      42.982  30.438  29.758  1.00  0.00     0.029 A 
ATOM     60  N   UNL A   1      44.355  28.750  29.329  1.00  0.00    -0.354 N 
ATOM     61  C   UNL A   1      42.608  24.887  27.880  1.00  0.00     0.074 A 
ATOM     62  C   UNL A   1      41.834  25.459  26.808  1.00  0.00     0.031 C 
ATOM     63  C   UNL A   1      44.232  30.952  29.687  1.00  0.00     0.029 A 
ATOM     64  C   UNL A   1      45.167  29.873  29.416  1.00  0.00     0.049 A 
ATOM     65  H   UNL A   1      44.711  27.837  29.246  1.00  0.00     0.167 HD
ATOM     66  C   UNL A   1      43.461  23.824  27.910  1.00  0.00     0.034 A 
ATOM     67  C   UNL A   1      46.510  29.929  29.240  1.00  0.00     0.034 A 
ATOM     68  C   UNL A   1      44.065  23.693  29.208  1.00  0.00     0.049 A 
ATOM     69  C   UNL A   1      47.073  28.581  29.451  1.00  0.00     0.074 A 
ATOM     70  C   UNL A   1      43.698  23.200  30.438  1.00  0.00     0.029 A 
ATOM     71  N   UNL A   1      45.164  24.490  29.389  1.00  0.00    -0.354 N 
ATOM     72  N   UNL A   1      47.121  27.994  30.612  1.00  0.00    -0.248 NA
ATOM     73  C   UNL A   1      47.297  27.711  28.301  1.00  0.00     0.031 C 
ATOM     74  C   UNL A   1      44.505  23.885  31.391  1.00  0.00     0.029 A 
ATOM     75  C   UNL A   1      45.373  24.745  30.717  1.00  0.00     0.049 A 
ATOM     76  H   UNL A   1      45.730  24.834  28.661  1.00  0.00     0.167 HD
ATOM     77  C   UNL A   1      46.900  26.664  30.320  1.00  0.00     0.074 A 
ATOM     78  C   UNL A   1      47.221  26.522  28.905  1.00  0.00     0.031 C 
ATOM     79  C   UNL A   1      46.165  25.879  31.157  1.00  0.00     0.034 A 
BRANCH  66  80
ATOM     80  C   UNL A   1      44.098  23.197  26.686  1.00  0.00     0.023 A 
ATOM     81  C   UNL A   1      43.898  21.855  26.322  1.00  0.00     0.031 A 
ATOM     82  C   UNL A   1      44.716  24.009  25.709  1.00  0.00     0.131 A 
ATOM     83  C   UNL A   1      44.287  21.363  25.068  1.00  0.00     0.055 A 
ATOM     84  C   UNL A   1      45.048  23.536  24.433  1.00  0.00     0.041 A 
ATOM     85  F   UNL A   1      44.963  25.308  25.944  1.00  0.00    -0.206 F 
ATOM     86  C   UNL A   1      44.830  22.204  24.104  1.00  0.00     0.022 A 
BRANCH  83  87
ATOM     87  S   UNL A   1      44.059  19.609  24.667  1.00  0.00     0.124 S 
ATOM     88  O   UNL A   1      44.347  19.583  23.238  1.00  0.00    -0.237 OA
ATOM     89  O   UNL A   1      45.059  18.980  25.528  1.00  0.00    -0.237 OA
ATOM     90  O   UNL A   1      42.671  19.351  25.043  1.00  0.00    -0.744 OA
ENDBRANCH  83  87
ENDBRANCH  66  80
BRANCH  67  91
ATOM     91  C   UNL A   1      47.274  30.973  28.521  1.00  0.00     0.023 A 
ATOM     92  C   UNL A   1      48.059  31.870  29.265  1.00  0.00     0.031 A 
ATOM     93  C   UNL A   1      46.977  31.318  27.191  1.00  0.00     0.131 A 
ATOM     94  C   UNL A   1      48.454  33.093  28.712  1.00  0.00     0.055 A 
ATOM     95  C   UNL A   1      47.396  32.529  26.629  1.00  0.00     0.041 A 
ATOM     96  F   UNL A   1      46.205  30.520  26.436  1.00  0.00    -0.206 F 
ATOM     97  C   UNL A   1      48.122  33.435  27.399  1.00  0.00     0.022 A 
BRANCH  94  98
ATOM     98  S   UNL A   1      49.304  34.327  29.733  1.00  0.00     0.124 S 
ATOM     99  O   UNL A   1      48.200  34.924  30.477  1.00  0.00    -0.237 OA
ATOM    100  O   UNL A   1      50.213  33.493  30.510  1.00  0.00    -0.237 OA
ATOM    101  O   UNL A   1      49.934  35.208  28.749  1.00  0.00    -0.744 OA
ENDBRANCH  94  98
ENDBRANCH  67  91
BRANCH  79 102
ATOM    102  C   UNL A   1      46.021  26.307  32.592  1.00  0.00     0.023 A 
ATOM    103  C   UNL A   1      44.875  27.055  32.910  1.00  0.00     0.031 A 
ATOM    104  C   UNL A   1      47.002  26.156  33.588  1.00  0.00     0.131 A 
ATOM    105  C   UNL A   1      44.756  27.670  34.158  1.00  0.00     0.055 A 
ATOM    106  C   UNL A   1      46.841  26.704  34.865  1.00  0.00     0.041 A 
ATOM    107  F   UNL A   1      48.166  25.540  33.340  1.00  0.00    -0.206 F 
ATOM    108  C   UNL A   1      45.723  27.483  35.149  1.00  0.00     0.022 A 
BRANCH 105 109
ATOM    109  S   UNL A   1      43.426  28.861  34.454  1.00  0.00     0.124 S 
ATOM    110  O   UNL A   1      43.421  28.963  35.910  1.00  0.00    -0.237 OA
ATOM    111  O   UNL A   1      43.908  30.045  33.743  1.00  0.00    -0.237 OA
ATOM    112  O   UNL A   1      42.248  28.230  33.866  1.00  0.00    -0.744 OA
ENDBRANCH 105 109
ENDBRANCH  79 102
ENDBRANCH  53  54
ENDBRANCH  45  48
ENDBRANCH  43  44
ENDBRANCH  42  43
ENDBRANCH  41  42
ENDBRANCH   1  41
TORSDOF 21
ENDMDL
MODEL 2
REMARK VINA RESULT:     -13.2      2.388      6.522
REMARK SMILES COc1cc2c(cc1OC)-c1c(c(C(=O)Nc3ccc(C(=O)NCCCCCCNC(=O)c4ccc(-c5c6nc(c(-c7cc(S(=O)(=O)[O-])ccc7F)c7ccc([nH]7)c(-c7cc(S(=O)(=O)[O-])ccc7F)c7nc(c(-c8cc(S(=O)(=O)[O-])ccc8F)c8ccc5[nH]8)C=C7)C=C6)cc4)cc3)nn1-c1ccc(F)cc1)C2
REMARK SMILES IDX 26 1 25 2 24 3 23 4 21 5 22 6 20 8 17 9 18 10 97 11 19 12
REMARK SMILES IDX 96 13 16 14 14 15 15 16 13 18 3 19 4 20 8 21 5 22 7 23 6 24
REMARK SMILES IDX 107 25 11 26 12 27 99 28 98 29 2 30 1 31 9 32 10 33 100 34
REMARK SMILES IDX 101 35 106 36 102 37 105 38 103 39 104 40 27 41 28 42 29 43
REMARK SMILES IDX 30 44 31 45 32 47 33 48 34 49 95 50 35 51 94 52 36 53 37 54
REMARK SMILES IDX 38 55 88 56 39 57 93 58 87 59 89 60 40 61 92 62 86 63 85 64
REMARK SMILES IDX 41 66 73 67 53 68 72 69 54 70 57 71 71 72 90 73 55 74 56 75
REMARK SMILES IDX 70 77 91 78 58 79 42 80 43 81 51 82 44 83 50 84 52 85 49 86
REMARK SMILES IDX 45 87 46 88 47 89 48 90 74 91 75 92 83 93 76 94 82 95 84 96
REMARK SMILES IDX 81 97 77 98 78 99 79 100 80 101 59 102 60 103 68 104 61 105
REMARK SMILES IDX 67 106 69 107 66 108 62 109 63 110 64 111 65 112
REMARK H PARENT 23 7 16 17 30 46 89 65 57 76
REMARK Flexibility Score: inf
ROOT
ATOM      1  C   UNL A   1      32.584  29.933  27.059  1.00  0.00     0.002 C 
ENDROOT
BRANCH   1   2
ATOM      2  C   UNL A   1      31.804  29.510  25.816  1.00  0.00     0.021 C 
BRANCH   2   3
ATOM      3  C   UNL A   1      32.582  29.345  24.512  1.00  0.00     0.116 C 
BRANCH   3   4
ATOM      4  N   UNL A   1      31.817  29.562  23.298  1.00  0.00    -0.352 N 
ATOM      5  C   UNL A   1      30.756  28.874  22.743  1.00  0.00     0.251 C 
ATOM      6  O   UNL A   1      30.249  29.350  21.726  1.00  0.00    -0.269 OA
ATOM      7  H   UNL A   1      32.106  30.343  22.775  1.00  0.00     0.163 HD
BRANCH   5   8
ATOM      8  C   UNL A   1      30.318  27.509  23.192  1.00  0.00     0.039 A 
ATOM      9  C   UNL A   1      29.870  25.512  25.072  1.00  0.00     0.041 A 
ATOM     10  C   UNL A   1      31.116  25.599  24.471  1.00  0.00     0.027 A 
ATOM     11  C   UNL A   1      28.787  26.164  24.482  1.00  0.00     0.027 A 
ATOM     12  C   UNL A   1      31.336  26.595  23.511  1.00  0.00     0.016 A 
ATOM     13  C   UNL A   1      29.014  27.158  23.525  1.00  0.00     0.016 A 
BRANCH   9  14
ATOM     14  N   UNL A   1      29.639  24.802  26.246  1.00  0.00    -0.321 N 
ATOM     15  C   UNL A   1      30.056  23.563  26.693  1.00  0.00     0.276 C 
ATOM     16  O   UNL A   1      29.409  23.125  27.654  1.00  0.00    -0.267 OA
ATOM     17  H   UNL A   1      29.063  25.279  26.888  1.00  0.00     0.170 HD
BRANCH  15  18
ATOM     18  C   UNL A   1      31.278  22.847  26.207  1.00  0.00     0.155 A 
ATOM     19  C   UNL A   1      37.292  22.965  25.611  1.00  0.00     0.161 A 
ATOM     20  C   UNL A   1      36.310  23.723  26.286  1.00  0.00     0.055 A 
ATOM     21  C   UNL A   1      36.943  21.778  24.931  1.00  0.00     0.161 A 
ATOM     22  C   UNL A   1      34.993  23.269  26.295  1.00  0.00    -0.030 A 
ATOM     23  C   UNL A   1      35.606  21.363  24.921  1.00  0.00     0.061 A 
ATOM     24  C   UNL A   1      34.668  22.083  25.625  1.00  0.00     0.008 A 
ATOM     25  C   UNL A   1      33.748  23.977  26.863  1.00  0.00     0.076 C 
ATOM     26  C   UNL A   1      33.256  21.953  25.751  1.00  0.00     0.079 A 
ATOM     27  C   UNL A   1      32.686  23.044  26.352  1.00  0.00     0.016 A 
ATOM     28  N   UNL A   1      32.284  21.094  25.381  1.00  0.00    -0.232 N 
ATOM     29  N   UNL A   1      31.072  21.685  25.505  1.00  0.00    -0.162 NA
BRANCH  19  30
ATOM     30  O   UNL A   1      38.592  23.359  25.789  1.00  0.00    -0.493 OA
ATOM     31  C   UNL A   1      38.899  23.693  27.143  1.00  0.00     0.278 C 
ENDBRANCH  19  30
BRANCH  21  32
ATOM     32  O   UNL A   1      37.725  20.879  24.262  1.00  0.00    -0.493 OA
ATOM     33  C   UNL A   1      37.764  19.524  24.655  1.00  0.00     0.278 C 
ENDBRANCH  21  32
BRANCH  28  34
ATOM     34  C   UNL A   1      32.466  19.778  24.901  1.00  0.00     0.065 A 
ATOM     35  C   UNL A   1      32.407  19.523  23.529  1.00  0.00     0.031 A 
ATOM     36  C   UNL A   1      32.815  18.757  25.803  1.00  0.00     0.031 A 
ATOM     37  C   UNL A   1      32.818  18.273  23.058  1.00  0.00     0.041 A 
ATOM     38  C   UNL A   1      33.200  17.506  25.325  1.00  0.00     0.041 A 
ATOM     39  C   UNL A   1      33.223  17.285  23.955  1.00  0.00     0.123 A 
ATOM     40  F   UNL A   1      33.656  16.106  23.490  1.00  0.00    -0.207 F 
ENDBRANCH  28  34
ENDBRANCH  15  18
ENDBRANCH   9  14
ENDBRANCH   5   8
ENDBRANCH   3   4
ENDBRANCH   2   3
ENDBRANCH   1   2
BRANCH   1  41
ATOM     41  C   UNL A   1      33.677  28.980  27.545  1.00  0.00     0.002 C 
BRANCH  41  42
ATOM     42  C   UNL A   1      35.109  29.526  27.567  1.00  0.00     0.021 C 
BRANCH  42  43
ATOM     43  C   UNL A   1      35.244  31.048  27.624  1.00  0.00     0.116 C 
BRANCH  43  44
ATOM     44  N   UNL A   1      35.393  31.593  28.955  1.00  0.00    -0.352 N 
ATOM     45  C   UNL A   1      36.368  31.537  29.914  1.00  0.00     0.251 C 
ATOM     46  H   UNL A   1      34.615  32.126  29.237  1.00  0.00     0.163 HD
ATOM     47  O   UNL A   1      36.225  32.308  30.867  1.00  0.00    -0.269 OA
BRANCH  45  48
ATOM     48  C   UNL A   1      37.508  30.580  29.924  1.00  0.00     0.039 A 
ATOM     49  C   UNL A   1      37.444  29.252  30.339  1.00  0.00     0.014 A 
ATOM     50  C   UNL A   1      38.763  31.106  29.555  1.00  0.00     0.014 A 
ATOM     51  C   UNL A   1      38.611  28.516  30.511  1.00  0.00     0.010 A 
ATOM     52  C   UNL A   1      39.932  30.363  29.694  1.00  0.00     0.010 A 
ATOM     53  C   UNL A   1      39.859  29.084  30.229  1.00  0.00    -0.014 A 
BRANCH  53  54
ATOM     54  C   UNL A   1      41.033  28.233  30.407  1.00  0.00     0.031 A 
ATOM     55  C   UNL A   1      41.547  28.220  31.802  1.00  0.00     0.074 A 
ATOM     56  C   UNL A   1      41.606  27.492  29.437  1.00  0.00     0.049 A 
ATOM     57  N   UNL A   1      42.618  28.786  32.249  1.00  0.00    -0.248 NA
ATOM     58  C   UNL A   1      40.672  27.680  32.852  1.00  0.00     0.031 C 
ATOM     59  C   UNL A   1      41.059  27.178  28.114  1.00  0.00     0.029 A 
ATOM     60  N   UNL A   1      42.775  26.786  29.461  1.00  0.00    -0.354 N 
ATOM     61  C   UNL A   1      42.673  28.480  33.607  1.00  0.00     0.074 A 
ATOM     62  C   UNL A   1      41.371  27.967  33.952  1.00  0.00     0.031 C 
ATOM     63  C   UNL A   1      41.770  26.167  27.564  1.00  0.00     0.029 A 
ATOM     64  C   UNL A   1      42.914  25.884  28.414  1.00  0.00     0.049 A 
ATOM     65  H   UNL A   1      43.459  26.905  30.158  1.00  0.00     0.167 HD
ATOM     66  C   UNL A   1      43.862  28.444  34.272  1.00  0.00     0.034 A 
ATOM     67  C   UNL A   1      43.877  24.940  28.267  1.00  0.00     0.034 A 
ATOM     68  C   UNL A   1      44.908  29.025  33.475  1.00  0.00     0.049 A 
ATOM     69  C   UNL A   1      45.044  25.321  29.086  1.00  0.00     0.074 A 
ATOM     70  C   UNL A   1      45.335  30.292  33.152  1.00  0.00     0.029 A 
ATOM     71  N   UNL A   1      45.465  28.155  32.575  1.00  0.00    -0.354 N 
ATOM     72  N   UNL A   1      45.816  26.334  28.812  1.00  0.00    -0.248 NA
ATOM     73  C   UNL A   1      45.185  24.774  30.431  1.00  0.00     0.031 C 
ATOM     74  C   UNL A   1      46.017  30.170  31.907  1.00  0.00     0.029 A 
ATOM     75  C   UNL A   1      46.028  28.828  31.525  1.00  0.00     0.049 A 
ATOM     76  H   UNL A   1      45.463  27.175  32.672  1.00  0.00     0.167 HD
ATOM     77  C   UNL A   1      46.161  26.831  30.051  1.00  0.00     0.074 A 
ATOM     78  C   UNL A   1      45.928  25.736  30.984  1.00  0.00     0.031 C 
ATOM     79  C   UNL A   1      46.283  28.174  30.254  1.00  0.00     0.034 A 
BRANCH  66  80
ATOM     80  C   UNL A   1      44.184  27.498  35.411  1.00  0.00     0.023 A 
ATOM     81  C   UNL A   1      44.763  26.233  35.216  1.00  0.00     0.031 A 
ATOM     82  C   UNL A   1      44.153  27.955  36.748  1.00  0.00     0.131 A 
ATOM     83  C   UNL A   1      45.278  25.483  36.282  1.00  0.00     0.055 A 
ATOM     84  C   UNL A   1      44.722  27.235  37.806  1.00  0.00     0.041 A 
ATOM     85  F   UNL A   1      43.619  29.147  37.060  1.00  0.00    -0.206 F 
ATOM     86  C   UNL A   1      45.295  25.991  37.575  1.00  0.00     0.022 A 
BRANCH  83  87
ATOM     87  S   UNL A   1      45.965  23.830  35.984  1.00  0.00     0.124 S 
ATOM     88  O   UNL A   1      44.836  22.968  36.314  1.00  0.00    -0.237 OA
ATOM     89  O   UNL A   1      46.310  23.908  34.567  1.00  0.00    -0.237 OA
ATOM     90  O   UNL A   1      47.105  23.766  36.895  1.00  0.00    -0.744 OA
ENDBRANCH  83  87
ENDBRANCH  66  80
BRANCH  67  91
ATOM     91  C   UNL A   1      43.701  23.551  27.787  1.00  0.00     0.023 A 
ATOM     92  C   UNL A   1      44.466  23.111  26.694  1.00  0.00     0.031 A 
ATOM     93  C   UNL A   1      42.575  22.787  28.144  1.00  0.00     0.131 A 
ATOM     94  C   UNL A   1      44.063  21.996  25.951  1.00  0.00     0.055 A 
ATOM     95  C   UNL A   1      42.188  21.656  27.415  1.00  0.00     0.041 A 
ATOM     96  F   UNL A   1      41.784  23.171  29.157  1.00  0.00    -0.206 F 
ATOM     97  C   UNL A   1      42.924  21.267  26.298  1.00  0.00     0.022 A 
BRANCH  94  98
ATOM     98  S   UNL A   1      44.945  21.542  24.433  1.00  0.00     0.124 S 
ATOM     99  O   UNL A   1      44.476  20.179  24.201  1.00  0.00    -0.237 OA
ATOM    100  O   UNL A   1      44.457  22.546  23.495  1.00  0.00    -0.237 OA
ATOM    101  O   UNL A   1      46.354  21.655  24.810  1.00  0.00    -0.744 OA
ENDBRANCH  94  98
ENDBRANCH  67  91
BRANCH  79 102
ATOM    102  C   UNL A   1      46.528  29.056  29.061  1.00  0.00     0.023 A 
ATOM    103  C   UNL A   1      45.449  29.852  28.640  1.00  0.00     0.031 A 
ATOM    104  C   UNL A   1      47.678  29.030  28.252  1.00  0.00     0.131 A 
ATOM    105  C   UNL A   1      45.511  30.541  27.427  1.00  0.00     0.055 A 
ATOM    106  C   UNL A   1      47.767  29.788  27.079  1.00  0.00     0.041 A 
ATOM    107  F   UNL A   1      48.713  28.226  28.528  1.00  0.00    -0.206 F 
ATOM    108  C   UNL A   1      46.672  30.533  26.651  1.00  0.00     0.022 A 
BRANCH 105 109
ATOM    109  S   UNL A   1      44.022  31.322  26.756  1.00  0.00     0.124 S 
ATOM    110  O   UNL A   1      43.556  32.120  27.887  1.00  0.00    -0.237 OA
ATOM    111  O   UNL A   1      44.555  32.083  25.628  1.00  0.00    -0.237 OA
ATOM    112  O   UNL A   1      43.167  30.197  26.389  1.00  0.00    -0.744 OA
ENDBRANCH 105 109
ENDBRANCH  79 102
ENDBRANCH  53  54
ENDBRANCH  45  48
ENDBRANCH  43  44
ENDBRANCH  42  43
ENDBRANCH  41  42
ENDBRANCH   1  41
TORSDOF 21
ENDMDL
MODEL 3
REMARK VINA RESULT:     -13.1      2.535      3.002
REMARK SMILES COc1cc2c(cc1OC)-c1c(c(C(=O)Nc3ccc(C(=O)NCCCCCCNC(=O)c4ccc(-c5c6nc(c(-c7cc(S(=O)(=O)[O-])ccc7F)c7ccc([nH]7)c(-c7cc(S(=O)(=O)[O-])ccc7F)c7nc(c(-c8cc(S(=O)(=O)[O-])ccc8F)c8ccc5[nH]8)C=C7)C=C6)cc4)cc3)nn1-c1ccc(F)cc1)C2
REMARK SMILES IDX 26 1 25 2 24 3 23 4 21 5 22 6 20 8 17 9 18 10 97 11 19 12
REMARK SMILES IDX 96 13 16 14 14 15 15 16 13 18 3 19 4 20 8 21 5 22 7 23 6 24
REMARK SMILES IDX 107 25 11 26 12 27 99 28 98 29 2 30 1 31 9 32 10 33 100 34
REMARK SMILES IDX 101 35 106 36 102 37 105 38 103 39 104 40 27 41 28 42 29 43
REMARK SMILES IDX 30 44 31 45 32 47 33 48 34 49 95 50 35 51 94 52 36 53 37 54
REMARK SMILES IDX 38 55 88 56 39 57 93 58 87 59 89 60 40 61 92 62 86 63 85 64
REMARK SMILES IDX 41 66 73 67 53 68 72 69 54 70 57 71 71 72 90 73 55 74 56 75
REMARK SMILES IDX 70 77 91 78 58 79 42 80 43 81 51 82 44 83 50 84 52 85 49 86
REMARK SMILES IDX 45 87 46 88 47 89 48 90 74 91 75 92 83 93 76 94 82 95 84 96
REMARK SMILES IDX 81 97 77 98 78 99 79 100 80 101 59 102 60 103 68 104 61 105
REMARK SMILES IDX 67 106 69 107 66 108 62 109 63 110 64 111 65 112
REMARK H PARENT 23 7 16 17 30 46 89 65 57 76
REMARK Flexibility Score: inf
ROOT
ATOM      1  C   UNL A   1      32.813  29.933  27.143  1.00  0.00     0.002 C 
ENDROOT
BRANCH   1   2
ATOM      2  C   UNL A   1      31.968  29.921  25.871  1.00  0.00     0.021 C 
BRANCH   2   3
ATOM      3  C   UNL A   1      32.616  29.392  24.593  1.00  0.00     0.116 C 
BRANCH   3   4
ATOM      4  N   UNL A   1      31.847  29.585  23.378  1.00  0.00    -0.352 N 
ATOM      5  C   UNL A   1      30.819  28.855  22.813  1.00  0.00     0.251 C 
ATOM      6  O   UNL A   1      30.297  29.318  21.798  1.00  0.00    -0.269 OA
ATOM      7  H   UNL A   1      32.104  30.382  22.863  1.00  0.00     0.163 HD
BRANCH   5   8
ATOM      8  C   UNL A   1      30.440  27.469  23.248  1.00  0.00     0.039 A 
ATOM      9  C   UNL A   1      29.999  25.462  25.119  1.00  0.00     0.041 A 
ATOM     10  C   UNL A   1      31.272  25.622  24.596  1.00  0.00     0.027 A 
ATOM     11  C   UNL A   1      28.917  26.040  24.455  1.00  0.00     0.027 A 
ATOM     12  C   UNL A   1      31.491  26.623  23.641  1.00  0.00     0.016 A 
ATOM     13  C   UNL A   1      29.142  27.039  23.503  1.00  0.00     0.016 A 
BRANCH   9  14
ATOM     14  N   UNL A   1      29.739  24.748  26.284  1.00  0.00    -0.321 N 
ATOM     15  C   UNL A   1      30.121  23.495  26.724  1.00  0.00     0.276 C 
ATOM     16  O   UNL A   1      29.454  23.064  27.675  1.00  0.00    -0.267 OA
ATOM     17  H   UNL A   1      29.167  25.232  26.924  1.00  0.00     0.170 HD
BRANCH  15  18
ATOM     18  C   UNL A   1      31.332  22.754  26.245  1.00  0.00     0.155 A 
ATOM     19  C   UNL A   1      37.346  22.771  25.646  1.00  0.00     0.161 A 
ATOM     20  C   UNL A   1      36.377  23.551  26.314  1.00  0.00     0.055 A 
ATOM     21  C   UNL A   1      36.978  21.583  24.978  1.00  0.00     0.161 A 
ATOM     22  C   UNL A   1      35.053  23.118  26.328  1.00  0.00    -0.030 A 
ATOM     23  C   UNL A   1      35.635  21.189  24.973  1.00  0.00     0.061 A 
ATOM     24  C   UNL A   1      34.709  21.930  25.670  1.00  0.00     0.008 A 
ATOM     25  C   UNL A   1      33.820  23.851  26.890  1.00  0.00     0.076 C 
ATOM     26  C   UNL A   1      33.295  21.825  25.798  1.00  0.00     0.079 A 
ATOM     27  C   UNL A   1      32.743  22.930  26.388  1.00  0.00     0.016 A 
ATOM     28  N   UNL A   1      32.309  20.978  25.436  1.00  0.00    -0.232 N 
ATOM     29  N   UNL A   1      31.106  21.589  25.555  1.00  0.00    -0.162 NA
BRANCH  19  30
ATOM     30  O   UNL A   1      38.653  23.146  25.821  1.00  0.00    -0.493 OA
ATOM     31  C   UNL A   1      39.418  22.195  26.562  1.00  0.00     0.278 C 
ENDBRANCH  19  30
BRANCH  21  32
ATOM     32  O   UNL A   1      37.746  20.664  24.318  1.00  0.00    -0.493 OA
ATOM     33  C   UNL A   1      37.692  19.298  24.664  1.00  0.00     0.278 C 
ENDBRANCH  21  32
BRANCH  28  34
ATOM     34  C   UNL A   1      32.470  19.654  24.969  1.00  0.00     0.065 A 
ATOM     35  C   UNL A   1      32.446  19.392  23.597  1.00  0.00     0.031 A 
ATOM     36  C   UNL A   1      32.764  18.630  25.887  1.00  0.00     0.031 A 
ATOM     37  C   UNL A   1      32.837  18.129  23.146  1.00  0.00     0.041 A 
ATOM     38  C   UNL A   1      33.128  17.367  25.427  1.00  0.00     0.041 A 
ATOM     39  C   UNL A   1      33.187  17.136  24.060  1.00  0.00     0.123 A 
ATOM     40  F   UNL A   1      33.602  15.943  23.615  1.00  0.00    -0.207 F 
ENDBRANCH  28  34
ENDBRANCH  15  18
ENDBRANCH   9  14
ENDBRANCH   5   8
ENDBRANCH   3   4
ENDBRANCH   2   3
ENDBRANCH   1   2
BRANCH   1  41
ATOM     41  C   UNL A   1      33.886  28.851  27.268  1.00  0.00     0.002 C 
BRANCH  41  42
ATOM     42  C   UNL A   1      35.346  29.315  27.197  1.00  0.00     0.021 C 
BRANCH  42  43
ATOM     43  C   UNL A   1      35.692  30.560  28.016  1.00  0.00     0.116 C 
BRANCH  43  44
ATOM     44  N   UNL A   1      35.555  30.401  29.447  1.00  0.00    -0.352 N 
ATOM     45  C   UNL A   1      36.419  30.122  30.471  1.00  0.00     0.251 C 
ATOM     46  H   UNL A   1      34.628  30.519  29.755  1.00  0.00     0.163 HD
ATOM     47  O   UNL A   1      35.963  30.266  31.609  1.00  0.00    -0.269 OA
BRANCH  45  48
ATOM     48  C   UNL A   1      37.802  29.594  30.308  1.00  0.00     0.039 A 
ATOM     49  C   UNL A   1      38.205  28.290  30.579  1.00  0.00     0.014 A 
ATOM     50  C   UNL A   1      38.782  30.533  29.923  1.00  0.00     0.014 A 
ATOM     51  C   UNL A   1      39.557  27.966  30.599  1.00  0.00     0.010 A 
ATOM     52  C   UNL A   1      40.135  30.205  29.911  1.00  0.00     0.010 A 
ATOM     53  C   UNL A   1      40.525  28.933  30.306  1.00  0.00    -0.014 A 
BRANCH  53  54
ATOM     54  C   UNL A   1      41.922  28.503  30.320  1.00  0.00     0.031 A 
ATOM     55  C   UNL A   1      42.283  27.631  29.172  1.00  0.00     0.074 A 
ATOM     56  C   UNL A   1      42.834  28.866  31.246  1.00  0.00     0.049 A 
ATOM     57  N   UNL A   1      42.505  26.359  29.193  1.00  0.00    -0.248 NA
ATOM     58  C   UNL A   1      42.199  28.202  27.820  1.00  0.00     0.031 C 
ATOM     59  C   UNL A   1      42.712  29.927  32.250  1.00  0.00     0.029 A 
ATOM     60  N   UNL A   1      44.109  28.413  31.430  1.00  0.00    -0.354 N 
ATOM     61  C   UNL A   1      42.814  26.005  27.882  1.00  0.00     0.074 A 
ATOM     62  C   UNL A   1      42.429  27.127  27.065  1.00  0.00     0.031 C 
ATOM     63  C   UNL A   1      43.932  30.193  32.769  1.00  0.00     0.029 A 
ATOM     64  C   UNL A   1      44.880  29.213  32.264  1.00  0.00     0.049 A 
ATOM     65  H   UNL A   1      44.452  27.592  31.010  1.00  0.00     0.167 HD
ATOM     66  C   UNL A   1      43.589  24.916  27.612  1.00  0.00     0.034 A 
ATOM     67  C   UNL A   1      46.211  29.111  32.497  1.00  0.00     0.034 A 
ATOM     68  C   UNL A   1      43.752  24.104  28.787  1.00  0.00     0.049 A 
ATOM     69  C   UNL A   1      46.648  27.741  32.163  1.00  0.00     0.074 A 
ATOM     70  C   UNL A   1      43.007  23.176  29.475  1.00  0.00     0.029 A 
ATOM     71  N   UNL A   1      44.758  24.528  29.616  1.00  0.00    -0.354 N 
ATOM     72  N   UNL A   1      46.315  26.690  32.857  1.00  0.00    -0.248 NA
ATOM     73  C   UNL A   1      47.200  27.467  30.841  1.00  0.00     0.031 C 
ATOM     74  C   UNL A   1      43.490  23.200  30.815  1.00  0.00     0.029 A 
ATOM     75  C   UNL A   1      44.546  24.108  30.901  1.00  0.00     0.049 A 
ATOM     76  H   UNL A   1      45.532  25.062  29.326  1.00  0.00     0.167 HD
ATOM     77  C   UNL A   1      46.166  25.701  31.907  1.00  0.00     0.074 A 
ATOM     78  C   UNL A   1      46.911  26.167  30.745  1.00  0.00     0.031 C 
ATOM     79  C   UNL A   1      45.186  24.760  32.028  1.00  0.00     0.034 A 
BRANCH  66  80
ATOM     80  C   UNL A   1      44.562  24.817  26.455  1.00  0.00     0.023 A 
ATOM     81  C   UNL A   1      45.328  25.904  26.002  1.00  0.00     0.031 A 
ATOM     82  C   UNL A   1      44.936  23.553  25.944  1.00  0.00     0.131 A 
ATOM     83  C   UNL A   1      46.392  25.738  25.105  1.00  0.00     0.055 A 
ATOM     84  C   UNL A   1      46.038  23.376  25.097  1.00  0.00     0.041 A 
ATOM     85  F   UNL A   1      44.276  22.440  26.301  1.00  0.00    -0.206 F 
ATOM     86  C   UNL A   1      46.778  24.473  24.676  1.00  0.00     0.022 A 
BRANCH  83  87
ATOM     87  S   UNL A   1      47.313  27.181  24.507  1.00  0.00     0.124 S 
ATOM     88  O   UNL A   1      46.241  28.122  24.204  1.00  0.00    -0.237 OA
ATOM     89  O   UNL A   1      48.134  27.508  25.671  1.00  0.00    -0.237 OA
ATOM     90  O   UNL A   1      48.050  26.663  23.357  1.00  0.00    -0.744 OA
ENDBRANCH  83  87
ENDBRANCH  66  80
BRANCH  67  91
ATOM     91  C   UNL A   1      47.187  30.218  32.609  1.00  0.00     0.023 A 
ATOM     92  C   UNL A   1      47.690  30.552  33.878  1.00  0.00     0.031 A 
ATOM     93  C   UNL A   1      47.358  31.155  31.574  1.00  0.00     0.131 A 
ATOM     94  C   UNL A   1      48.265  31.807  34.104  1.00  0.00     0.055 A 
ATOM     95  C   UNL A   1      47.957  32.400  31.795  1.00  0.00     0.041 A 
ATOM     96  F   UNL A   1      46.872  30.911  30.347  1.00  0.00    -0.206 F 
ATOM     97  C   UNL A   1      48.397  32.740  33.073  1.00  0.00     0.022 A 
BRANCH  94  98
ATOM     98  S   UNL A   1      48.741  32.306  35.781  1.00  0.00     0.124 S 
ATOM     99  O   UNL A   1      50.078  32.852  35.571  1.00  0.00    -0.237 OA
ATOM    100  O   UNL A   1      47.706  33.279  36.106  1.00  0.00    -0.237 OA
ATOM    101  O   UNL A   1      48.696  31.053  36.535  1.00  0.00    -0.744 OA
ENDBRANCH  94  98
ENDBRANCH  67  91
BRANCH  79 102
ATOM    102  C   UNL A   1      44.610  24.503  33.393  1.00  0.00     0.023 A 
ATOM    103  C   UNL A   1      43.696  25.454  33.876  1.00  0.00     0.031 A 
ATOM    104  C   UNL A   1      45.026  23.489  34.275  1.00  0.00     0.131 A 
ATOM    105  C   UNL A   1      43.269  25.415  35.205  1.00  0.00     0.055 A 
ATOM    106  C   UNL A   1      44.532  23.404  35.581  1.00  0.00     0.041 A 
ATOM    107  F   UNL A   1      45.966  22.599  33.928  1.00  0.00    -0.206 F 
ATOM    108  C   UNL A   1      43.664  24.382  36.058  1.00  0.00     0.022 A 
BRANCH 105 109
ATOM    109  S   UNL A   1      42.327  26.799  35.892  1.00  0.00     0.124 S 
ATOM    110  O   UNL A   1      40.956  26.445  35.539  1.00  0.00    -0.237 OA
ATOM    111  O   UNL A   1      42.651  26.715  37.315  1.00  0.00    -0.237 OA
ATOM    112  O   UNL A   1      42.869  27.970  35.208  1.00  0.00    -0.744 OA
ENDBRANCH 105 109
ENDBRANCH  79 102
ENDBRANCH  53  54
ENDBRANCH  45  48
ENDBRANCH  43  44
ENDBRANCH  42  43
ENDBRANCH  41  42
ENDBRANCH   1  41
TORSDOF 21
ENDMDL
