MODEL 1
REMARK VINA RESULT:     -13.4      0.000      0.000
REMARK SMILES COc1cccc(-c2nn(-c3cc4c(cc3C(N)=O)OCO4)cc2C(=O)NCCCCCCNC(=O)c2ccc(-c3c4nc(c(-c5cc(S(=O)(=O)[O-])ccc5F)c5ccc([nH]5)c(-c5cc(S(=O)(=O)[O-])ccc5F)c5nc(c(-c6cc(S(=O)(=O)[O-])ccc6F)c6ccc3[nH]6)C=C5)C=C4)cc2)c1
REMARK SMILES IDX 31 1 30 2 29 3 28 4 27 5 25 6 26 7 24 9 8 10 9 11 10 12
REMARK SMILES IDX 23 13 7 14 3 15 4 16 100 17 5 18 6 19 2 20 1 21 11 22 12 23
REMARK SMILES IDX 16 24 13 25 15 26 14 27 22 28 20 29 21 30 17 31 18 32 19 33
REMARK SMILES IDX 32 36 33 37 34 38 35 39 36 41 37 42 38 43 99 44 39 45 98 46
REMARK SMILES IDX 40 47 41 48 42 49 92 50 43 51 97 52 91 53 93 54 44 55 96 56
REMARK SMILES IDX 90 57 89 58 45 60 77 61 57 62 76 63 58 64 61 65 75 66 94 67
REMARK SMILES IDX 59 68 60 69 74 71 95 72 62 73 46 74 47 75 55 76 48 77 54 78
REMARK SMILES IDX 56 79 53 80 49 81 50 82 51 83 52 84 78 85 79 86 87 87 80 88
REMARK SMILES IDX 86 89 88 90 85 91 81 92 82 93 83 94 84 95 63 96 64 97 72 98
REMARK SMILES IDX 65 99 71 100 73 101 70 102 66 103 67 104 68 105 69 106
REMARK H PARENT 27 8 18 34 18 35 34 40 93 59 61 70
REMARK Flexibility Score: inf
ROOT
ATOM      1  C   UNL A   1      33.372  31.181  27.681  1.00  0.00     0.002 C 
ENDROOT
BRANCH   1   2
ATOM      2  C   UNL A   1      32.364  30.759  26.597  1.00  0.00     0.002 C 
BRANCH   2   3
ATOM      3  C   UNL A   1      31.750  29.363  26.768  1.00  0.00     0.021 C 
BRANCH   3   4
ATOM      4  C   UNL A   1      32.687  28.237  26.341  1.00  0.00     0.116 C 
BRANCH   4   5
ATOM      5  N   UNL A   1      33.324  28.555  25.082  1.00  0.00    -0.352 N 
ATOM      6  C   UNL A   1      33.343  27.946  23.855  1.00  0.00     0.255 C 
ATOM      7  O   UNL A   1      33.985  28.540  22.987  1.00  0.00    -0.269 OA
ATOM      8  H   UNL A   1      33.855  29.383  25.113  1.00  0.00     0.163 HD
BRANCH   6   9
ATOM      9  C   UNL A   1      32.598  26.725  23.574  1.00  0.00     0.086 A 
ATOM     10  C   UNL A   1      31.215  26.612  23.191  1.00  0.00     0.106 A 
ATOM     11  N   UNL A   1      30.801  25.327  23.184  1.00  0.00    -0.167 NA
ATOM     12  N   UNL A   1      31.865  24.655  23.673  1.00  0.00    -0.239 N 
ATOM     13  C   UNL A   1      33.008  25.410  23.587  1.00  0.00     0.129 A 
BRANCH  10  14
ATOM     14  C   UNL A   1      30.306  27.708  22.858  1.00  0.00     0.007 A 
ATOM     15  C   UNL A   1      28.122  28.744  22.998  1.00  0.00     0.119 A 
ATOM     16  C   UNL A   1      28.628  29.895  22.392  1.00  0.00     0.046 A 
ATOM     17  C   UNL A   1      28.953  27.640  23.211  1.00  0.00     0.056 A 
ATOM     18  C   UNL A   1      29.969  29.960  22.018  1.00  0.00     0.005 A 
ATOM     19  C   UNL A   1      30.804  28.867  22.246  1.00  0.00     0.011 A 
BRANCH  15  20
ATOM     20  O   UNL A   1      26.788  28.769  23.309  1.00  0.00    -0.497 OA
ATOM     21  C   UNL A   1      26.339  27.609  24.005  1.00  0.00     0.278 C 
ENDBRANCH  15  20
ENDBRANCH  10  14
BRANCH  12  22
ATOM     22  C   UNL A   1      31.814  23.298  24.074  1.00  0.00     0.081 A 
ATOM     23  C   UNL A   1      32.030  22.316  23.091  1.00  0.00     0.079 A 
ATOM     24  C   UNL A   1      31.640  22.937  25.445  1.00  0.00     0.069 A 
ATOM     25  C   UNL A   1      32.156  21.009  23.515  1.00  0.00     0.167 A 
ATOM     26  C   UNL A   1      31.865  21.604  25.831  1.00  0.00     0.066 A 
ATOM     27  C   UNL A   1      32.104  20.674  24.847  1.00  0.00     0.166 A 
ATOM     28  O   UNL A   1      32.357  19.921  22.725  1.00  0.00    -0.454 OA
ATOM     29  O   UNL A   1      32.262  19.340  25.060  1.00  0.00    -0.454 OA
ATOM     30  C   UNL A   1      32.290  18.858  23.701  1.00  0.00     0.468 C 
BRANCH  24  31
ATOM     31  C   UNL A   1      31.030  23.874  26.455  1.00  0.00     0.251 C 
ATOM     32  N   UNL A   1      29.674  23.821  26.650  1.00  0.00    -0.366 N 
ATOM     33  O   UNL A   1      31.651  24.738  27.055  1.00  0.00    -0.269 OA
ATOM     34  H   UNL A   1      29.137  23.141  26.184  1.00  0.00     0.159 HD
ATOM     35  H   UNL A   1      29.239  24.464  27.255  1.00  0.00     0.159 HD
ENDBRANCH  24  31
ENDBRANCH  12  22
ENDBRANCH   6   9
ENDBRANCH   4   5
ENDBRANCH   3   4
ENDBRANCH   2   3
ENDBRANCH   1   2
BRANCH   1  36
ATOM     36  C   UNL A   1      34.856  30.927  27.375  1.00  0.00     0.021 C 
BRANCH  36  37
ATOM     37  C   UNL A   1      35.433  29.715  28.089  1.00  0.00     0.116 C 
BRANCH  37  38
ATOM     38  N   UNL A   1      35.639  29.954  29.518  1.00  0.00    -0.352 N 
ATOM     39  C   UNL A   1      36.651  29.470  30.334  1.00  0.00     0.251 C 
ATOM     40  H   UNL A   1      34.973  30.532  29.956  1.00  0.00     0.163 HD
ATOM     41  O   UNL A   1      36.500  29.406  31.540  1.00  0.00    -0.269 OA
BRANCH  39  42
ATOM     42  C   UNL A   1      37.906  29.032  29.692  1.00  0.00     0.039 A 
ATOM     43  C   UNL A   1      38.489  29.734  28.635  1.00  0.00     0.014 A 
ATOM     44  C   UNL A   1      38.528  27.911  30.227  1.00  0.00     0.014 A 
ATOM     45  C   UNL A   1      39.751  29.342  28.190  1.00  0.00     0.010 A 
ATOM     46  C   UNL A   1      39.841  27.666  29.936  1.00  0.00     0.010 A 
ATOM     47  C   UNL A   1      40.434  28.318  28.866  1.00  0.00    -0.014 A 
BRANCH  47  48
ATOM     48  C   UNL A   1      41.795  27.928  28.515  1.00  0.00     0.031 A 
ATOM     49  C   UNL A   1      41.927  26.689  27.715  1.00  0.00     0.074 A 
ATOM     50  C   UNL A   1      42.868  28.717  28.739  1.00  0.00     0.049 A 
ATOM     51  N   UNL A   1      42.335  25.542  28.139  1.00  0.00    -0.248 NA
ATOM     52  C   UNL A   1      41.439  26.665  26.329  1.00  0.00     0.031 C 
ATOM     53  C   UNL A   1      42.916  30.075  29.299  1.00  0.00     0.029 A 
ATOM     54  N   UNL A   1      44.167  28.490  28.407  1.00  0.00    -0.354 N 
ATOM     55  C   UNL A   1      42.383  24.705  27.032  1.00  0.00     0.074 A 
ATOM     56  C   UNL A   1      41.647  25.386  25.998  1.00  0.00     0.031 C 
ATOM     57  C   UNL A   1      44.123  30.629  29.052  1.00  0.00     0.029 A 
ATOM     58  C   UNL A   1      44.989  29.607  28.495  1.00  0.00     0.049 A 
ATOM     59  H   UNL A   1      44.498  27.606  28.127  1.00  0.00     0.167 HD
ATOM     60  C   UNL A   1      43.208  23.621  27.013  1.00  0.00     0.034 A 
ATOM     61  C   UNL A   1      46.299  29.694  28.153  1.00  0.00     0.034 A 
ATOM     62  C   UNL A   1      43.762  23.368  28.326  1.00  0.00     0.049 A 
ATOM     63  C   UNL A   1      46.850  28.319  28.263  1.00  0.00     0.074 A 
ATOM     64  C   UNL A   1      43.224  23.087  29.567  1.00  0.00     0.029 A 
ATOM     65  N   UNL A   1      45.048  23.802  28.574  1.00  0.00    -0.354 N 
ATOM     66  N   UNL A   1      46.926  27.683  29.402  1.00  0.00    -0.248 NA
ATOM     67  C   UNL A   1      46.827  27.463  27.087  1.00  0.00     0.031 C 
ATOM     68  C   UNL A   1      44.002  23.857  30.483  1.00  0.00     0.029 A 
ATOM     69  C   UNL A   1      45.022  24.488  29.765  1.00  0.00     0.049 A 
ATOM     70  H   UNL A   1      45.836  23.651  28.005  1.00  0.00     0.167 HD
ATOM     71  C   UNL A   1      46.496  26.395  29.125  1.00  0.00     0.074 A 
ATOM     72  C   UNL A   1      46.563  26.285  27.667  1.00  0.00     0.031 C 
ATOM     73  C   UNL A   1      45.857  25.638  30.068  1.00  0.00     0.034 A 
BRANCH  60  74
ATOM     74  C   UNL A   1      43.794  22.971  25.784  1.00  0.00     0.023 A 
ATOM     75  C   UNL A   1      43.765  21.564  25.720  1.00  0.00     0.031 A 
ATOM     76  C   UNL A   1      44.614  23.617  24.834  1.00  0.00     0.131 A 
ATOM     77  C   UNL A   1      44.586  20.864  24.821  1.00  0.00     0.055 A 
ATOM     78  C   UNL A   1      45.376  22.917  23.893  1.00  0.00     0.041 A 
ATOM     79  F   UNL A   1      44.802  24.942  24.826  1.00  0.00    -0.206 F 
ATOM     80  C   UNL A   1      45.391  21.532  23.903  1.00  0.00     0.022 A 
BRANCH  77  81
ATOM     81  S   UNL A   1      44.721  19.066  25.002  1.00  0.00     0.124 S 
ATOM     82  O   UNL A   1      43.520  18.753  25.771  1.00  0.00    -0.237 OA
ATOM     83  O   UNL A   1      44.729  18.624  23.612  1.00  0.00    -0.237 OA
ATOM     84  O   UNL A   1      45.981  18.893  25.719  1.00  0.00    -0.744 OA
ENDBRANCH  77  81
ENDBRANCH  60  74
BRANCH  61  85
ATOM     85  C   UNL A   1      46.970  30.837  27.481  1.00  0.00     0.023 A 
ATOM     86  C   UNL A   1      46.271  31.936  26.943  1.00  0.00     0.031 A 
ATOM     87  C   UNL A   1      48.377  30.962  27.572  1.00  0.00     0.131 A 
ATOM     88  C   UNL A   1      46.975  33.092  26.527  1.00  0.00     0.055 A 
ATOM     89  C   UNL A   1      49.066  32.103  27.157  1.00  0.00     0.041 A 
ATOM     90  F   UNL A   1      49.124  30.007  28.149  1.00  0.00    -0.206 F 
ATOM     91  C   UNL A   1      48.365  33.180  26.641  1.00  0.00     0.022 A 
BRANCH  88  92
ATOM     92  S   UNL A   1      46.073  34.553  25.917  1.00  0.00     0.124 S 
ATOM     93  O   UNL A   1      45.300  34.003  24.810  1.00  0.00    -0.237 OA
ATOM     94  O   UNL A   1      45.317  34.968  27.094  1.00  0.00    -0.237 OA
ATOM     95  O   UNL A   1      47.140  35.475  25.524  1.00  0.00    -0.744 OA
ENDBRANCH  88  92
ENDBRANCH  61  85
BRANCH  73  96
ATOM     96  C   UNL A   1      45.831  26.148  31.498  1.00  0.00     0.023 A 
ATOM     97  C   UNL A   1      44.722  26.784  32.103  1.00  0.00     0.031 A 
ATOM     98  C   UNL A   1      46.937  25.862  32.317  1.00  0.00     0.131 A 
ATOM     99  C   UNL A   1      44.756  27.127  33.469  1.00  0.00     0.055 A 
ATOM    100  C   UNL A   1      46.961  26.182  33.676  1.00  0.00     0.041 A 
ATOM    101  F   UNL A   1      48.011  25.230  31.815  1.00  0.00    -0.206 F 
ATOM    102  C   UNL A   1      45.871  26.823  34.256  1.00  0.00     0.022 A 
BRANCH  99 103
ATOM    103  S   UNL A   1      43.349  27.990  34.244  1.00  0.00     0.124 S 
ATOM    104  O   UNL A   1      42.528  28.390  33.106  1.00  0.00    -0.237 OA
ATOM    105  O   UNL A   1      42.781  26.961  35.110  1.00  0.00    -0.237 OA
ATOM    106  O   UNL A   1      43.982  29.102  34.958  1.00  0.00    -0.744 OA
ENDBRANCH  99 103
ENDBRANCH  73  96
ENDBRANCH  47  48
ENDBRANCH  39  42
ENDBRANCH  37  38
ENDBRANCH  36  37
ENDBRANCH   1  36
TORSDOF 20
ENDMDL
MODEL 2
REMARK VINA RESULT:     -13.3      1.354      2.124
REMARK SMILES COc1cccc(-c2nn(-c3cc4c(cc3C(N)=O)OCO4)cc2C(=O)NCCCCCCNC(=O)c2ccc(-c3c4nc(c(-c5cc(S(=O)(=O)[O-])ccc5F)c5ccc([nH]5)c(-c5cc(S(=O)(=O)[O-])ccc5F)c5nc(c(-c6cc(S(=O)(=O)[O-])ccc6F)c6ccc3[nH]6)C=C5)C=C4)cc2)c1
REMARK SMILES IDX 31 1 30 2 29 3 28 4 27 5 25 6 26 7 24 9 8 10 9 11 10 12
REMARK SMILES IDX 23 13 7 14 3 15 4 16 100 17 5 18 6 19 2 20 1 21 11 22 12 23
REMARK SMILES IDX 16 24 13 25 15 26 14 27 22 28 20 29 21 30 17 31 18 32 19 33
REMARK SMILES IDX 32 36 33 37 34 38 35 39 36 41 37 42 38 43 99 44 39 45 98 46
REMARK SMILES IDX 40 47 41 48 42 49 92 50 43 51 97 52 91 53 93 54 44 55 96 56
REMARK SMILES IDX 90 57 89 58 45 60 77 61 57 62 76 63 58 64 61 65 75 66 94 67
REMARK SMILES IDX 59 68 60 69 74 71 95 72 62 73 46 74 47 75 55 76 48 77 54 78
REMARK SMILES IDX 56 79 53 80 49 81 50 82 51 83 52 84 78 85 79 86 87 87 80 88
REMARK SMILES IDX 86 89 88 90 85 91 81 92 82 93 83 94 84 95 63 96 64 97 72 98
REMARK SMILES IDX 65 99 71 100 73 101 70 102 66 103 67 104 68 105 69 106
REMARK H PARENT 27 8 18 34 18 35 34 40 93 59 61 70
REMARK Flexibility Score: inf
ROOT
ATOM      1  C   UNL A   1      33.747  30.106  26.661  1.00  0.00     0.002 C 
ENDROOT
BRANCH   1   2
ATOM      2  C   UNL A   1      32.218  30.171  26.833  1.00  0.00     0.002 C 
BRANCH   2   3
ATOM      3  C   UNL A   1      31.434  28.985  26.257  1.00  0.00     0.021 C 
BRANCH   3   4
ATOM      4  C   UNL A   1      31.774  27.656  26.926  1.00  0.00     0.116 C 
BRANCH   4   5
ATOM      5  N   UNL A   1      30.662  26.736  26.825  1.00  0.00    -0.352 N 
ATOM      6  C   UNL A   1      30.545  25.444  26.385  1.00  0.00     0.255 C 
ATOM      7  O   UNL A   1      29.416  24.961  26.481  1.00  0.00    -0.269 OA
ATOM      8  H   UNL A   1      29.811  27.119  27.140  1.00  0.00     0.163 HD
BRANCH   6   9
ATOM      9  C   UNL A   1      31.685  24.673  25.907  1.00  0.00     0.086 A 
ATOM     10  C   UNL A   1      32.548  24.982  24.797  1.00  0.00     0.106 A 
ATOM     11  N   UNL A   1      33.392  23.964  24.521  1.00  0.00    -0.167 NA
ATOM     12  N   UNL A   1      32.985  22.987  25.359  1.00  0.00    -0.239 N 
ATOM     13  C   UNL A   1      32.225  23.498  26.382  1.00  0.00     0.129 A 
BRANCH  10  14
ATOM     14  C   UNL A   1      32.551  26.212  24.006  1.00  0.00     0.007 A 
ATOM     15  C   UNL A   1      31.383  27.846  22.655  1.00  0.00     0.119 A 
ATOM     16  C   UNL A   1      32.515  28.664  22.663  1.00  0.00     0.046 A 
ATOM     17  C   UNL A   1      31.406  26.609  23.306  1.00  0.00     0.056 A 
ATOM     18  C   UNL A   1      33.665  28.264  23.341  1.00  0.00     0.005 A 
ATOM     19  C   UNL A   1      33.685  27.038  24.006  1.00  0.00     0.011 A 
BRANCH  15  20
ATOM     20  O   UNL A   1      30.311  28.317  21.945  1.00  0.00    -0.497 OA
ATOM     21  C   UNL A   1      30.163  29.733  21.999  1.00  0.00     0.278 C 
ENDBRANCH  15  20
ENDBRANCH  10  14
BRANCH  12  22
ATOM     22  C   UNL A   1      33.423  21.644  25.262  1.00  0.00     0.081 A 
ATOM     23  C   UNL A   1      32.443  20.636  25.234  1.00  0.00     0.079 A 
ATOM     24  C   UNL A   1      34.807  21.326  25.107  1.00  0.00     0.069 A 
ATOM     25  C   UNL A   1      32.862  19.350  24.962  1.00  0.00     0.167 A 
ATOM     26  C   UNL A   1      35.167  20.016  24.746  1.00  0.00     0.066 A 
ATOM     27  C   UNL A   1      34.179  19.060  24.697  1.00  0.00     0.166 A 
ATOM     28  O   UNL A   1      32.076  18.243  24.900  1.00  0.00    -0.454 OA
ATOM     29  O   UNL A   1      34.386  17.741  24.441  1.00  0.00    -0.454 OA
ATOM     30  C   UNL A   1      33.069  17.213  24.700  1.00  0.00     0.468 C 
BRANCH  24  31
ATOM     31  C   UNL A   1      35.903  22.276  25.512  1.00  0.00     0.251 C 
ATOM     32  N   UNL A   1      35.822  22.872  26.743  1.00  0.00    -0.366 N 
ATOM     33  O   UNL A   1      36.823  22.617  24.782  1.00  0.00    -0.269 OA
ATOM     34  H   UNL A   1      35.096  22.626  27.361  1.00  0.00     0.159 HD
ATOM     35  H   UNL A   1      36.489  23.545  27.009  1.00  0.00     0.159 HD
ENDBRANCH  24  31
ENDBRANCH  12  22
ENDBRANCH   6   9
ENDBRANCH   4   5
ENDBRANCH   3   4
ENDBRANCH   2   3
ENDBRANCH   1   2
BRANCH   1  36
ATOM     36  C   UNL A   1      34.592  30.688  27.804  1.00  0.00     0.021 C 
BRANCH  36  37
ATOM     37  C   UNL A   1      35.600  29.708  28.383  1.00  0.00     0.116 C 
BRANCH  37  38
ATOM     38  N   UNL A   1      35.814  29.909  29.817  1.00  0.00    -0.352 N 
ATOM     39  C   UNL A   1      36.833  29.409  30.614  1.00  0.00     0.251 C 
ATOM     40  H   UNL A   1      35.148  30.473  30.275  1.00  0.00     0.163 HD
ATOM     41  O   UNL A   1      36.691  29.312  31.819  1.00  0.00    -0.269 OA
BRANCH  39  42
ATOM     42  C   UNL A   1      38.087  28.994  29.953  1.00  0.00     0.039 A 
ATOM     43  C   UNL A   1      38.700  29.765  28.963  1.00  0.00     0.014 A 
ATOM     44  C   UNL A   1      38.675  27.818  30.401  1.00  0.00     0.014 A 
ATOM     45  C   UNL A   1      39.958  29.380  28.501  1.00  0.00     0.010 A 
ATOM     46  C   UNL A   1      39.985  27.566  30.106  1.00  0.00     0.010 A 
ATOM     47  C   UNL A   1      40.608  28.287  29.099  1.00  0.00    -0.014 A 
BRANCH  47  48
ATOM     48  C   UNL A   1      41.964  27.894  28.734  1.00  0.00     0.031 A 
ATOM     49  C   UNL A   1      42.083  26.665  27.915  1.00  0.00     0.074 A 
ATOM     50  C   UNL A   1      43.044  28.674  28.961  1.00  0.00     0.049 A 
ATOM     51  N   UNL A   1      42.486  25.510  28.321  1.00  0.00    -0.248 NA
ATOM     52  C   UNL A   1      41.584  26.664  26.533  1.00  0.00     0.031 C 
ATOM     53  C   UNL A   1      43.104  30.023  29.539  1.00  0.00     0.029 A 
ATOM     54  N   UNL A   1      44.339  28.443  28.617  1.00  0.00    -0.354 N 
ATOM     55  C   UNL A   1      42.521  24.688  27.202  1.00  0.00     0.074 A 
ATOM     56  C   UNL A   1      41.782  25.388  26.183  1.00  0.00     0.031 C 
ATOM     57  C   UNL A   1      44.312  30.573  29.291  1.00  0.00     0.029 A 
ATOM     58  C   UNL A   1      45.168  29.554  28.714  1.00  0.00     0.049 A 
ATOM     59  H   UNL A   1      44.662  27.561  28.322  1.00  0.00     0.167 HD
ATOM     60  C   UNL A   1      43.340  23.600  27.162  1.00  0.00     0.034 A 
ATOM     61  C   UNL A   1      46.476  29.637  28.364  1.00  0.00     0.034 A 
ATOM     62  C   UNL A   1      43.902  23.325  28.467  1.00  0.00     0.049 A 
ATOM     63  C   UNL A   1      47.019  28.258  28.451  1.00  0.00     0.074 A 
ATOM     64  C   UNL A   1      43.370  23.031  29.708  1.00  0.00     0.029 A 
ATOM     65  N   UNL A   1      45.192  23.748  28.712  1.00  0.00    -0.354 N 
ATOM     66  N   UNL A   1      47.100  27.606  29.580  1.00  0.00    -0.248 NA
ATOM     67  C   UNL A   1      46.983  27.418  27.263  1.00  0.00     0.031 C 
ATOM     68  C   UNL A   1      44.159  23.783  30.629  1.00  0.00     0.029 A 
ATOM     69  C   UNL A   1      45.179  24.418  29.913  1.00  0.00     0.049 A 
ATOM     70  H   UNL A   1      45.975  23.600  28.135  1.00  0.00     0.167 HD
ATOM     71  C   UNL A   1      46.660  26.324  29.289  1.00  0.00     0.074 A 
ATOM     72  C   UNL A   1      46.716  26.234  27.829  1.00  0.00     0.031 C 
ATOM     73  C   UNL A   1      46.023  25.558  30.225  1.00  0.00     0.034 A 
BRANCH  60  74
ATOM     74  C   UNL A   1      43.913  22.964  25.920  1.00  0.00     0.023 A 
ATOM     75  C   UNL A   1      43.787  21.567  25.792  1.00  0.00     0.031 A 
ATOM     76  C   UNL A   1      44.802  23.589  25.020  1.00  0.00     0.131 A 
ATOM     77  C   UNL A   1      44.581  20.849  24.883  1.00  0.00     0.055 A 
ATOM     78  C   UNL A   1      45.539  22.878  24.069  1.00  0.00     0.041 A 
ATOM     79  F   UNL A   1      45.083  24.897  25.078  1.00  0.00    -0.206 F 
ATOM     80  C   UNL A   1      45.457  21.497  24.017  1.00  0.00     0.022 A 
BRANCH  77  81
ATOM     81  S   UNL A   1      44.585  19.039  24.986  1.00  0.00     0.124 S 
ATOM     82  O   UNL A   1      43.442  18.789  25.859  1.00  0.00    -0.237 OA
ATOM     83  O   UNL A   1      44.422  18.659  23.587  1.00  0.00    -0.237 OA
ATOM     84  O   UNL A   1      45.890  18.737  25.568  1.00  0.00    -0.744 OA
ENDBRANCH  77  81
ENDBRANCH  60  74
BRANCH  61  85
ATOM     85  C   UNL A   1      47.150  30.785  27.703  1.00  0.00     0.023 A 
ATOM     86  C   UNL A   1      46.451  31.812  27.036  1.00  0.00     0.031 A 
ATOM     87  C   UNL A   1      48.530  31.001  27.931  1.00  0.00     0.131 A 
ATOM     88  C   UNL A   1      47.129  32.988  26.632  1.00  0.00     0.055 A 
ATOM     89  C   UNL A   1      49.194  32.161  27.528  1.00  0.00     0.041 A 
ATOM     90  F   UNL A   1      49.264  30.123  28.634  1.00  0.00    -0.206 F 
ATOM     91  C   UNL A   1      48.492  33.166  26.883  1.00  0.00     0.022 A 
BRANCH  88  92
ATOM     92  S   UNL A   1      46.216  34.359  25.853  1.00  0.00     0.124 S 
ATOM     93  O   UNL A   1      45.203  33.657  25.075  1.00  0.00    -0.237 OA
ATOM     94  O   UNL A   1      45.740  35.114  27.008  1.00  0.00    -0.237 OA
ATOM     95  O   UNL A   1      47.238  35.042  25.059  1.00  0.00    -0.744 OA
ENDBRANCH  88  92
ENDBRANCH  61  85
BRANCH  73  96
ATOM     96  C   UNL A   1      46.010  26.048  31.663  1.00  0.00     0.023 A 
ATOM     97  C   UNL A   1      44.899  26.656  32.294  1.00  0.00     0.031 A 
ATOM     98  C   UNL A   1      47.134  25.772  32.461  1.00  0.00     0.131 A 
ATOM     99  C   UNL A   1      44.948  26.982  33.664  1.00  0.00     0.055 A 
ATOM    100  C   UNL A   1      47.173  26.073  33.823  1.00  0.00     0.041 A 
ATOM    101  F   UNL A   1      48.210  25.166  31.933  1.00  0.00    -0.206 F 
ATOM    102  C   UNL A   1      46.081  26.687  34.428  1.00  0.00     0.022 A 
BRANCH  99 103
ATOM    103  S   UNL A   1      43.539  27.808  34.472  1.00  0.00     0.124 S 
ATOM    104  O   UNL A   1      43.536  27.239  35.815  1.00  0.00    -0.237 OA
ATOM    105  O   UNL A   1      43.898  29.220  34.376  1.00  0.00    -0.237 OA
ATOM    106  O   UNL A   1      42.395  27.416  33.644  1.00  0.00    -0.744 OA
ENDBRANCH  99 103
ENDBRANCH  73  96
ENDBRANCH  47  48
ENDBRANCH  39  42
ENDBRANCH  37  38
ENDBRANCH  36  37
ENDBRANCH   1  36
TORSDOF 20
ENDMDL
MODEL 3
REMARK VINA RESULT:     -12.6      3.668      9.174
REMARK SMILES COc1cccc(-c2nn(-c3cc4c(cc3C(N)=O)OCO4)cc2C(=O)NCCCCCCNC(=O)c2ccc(-c3c4nc(c(-c5cc(S(=O)(=O)[O-])ccc5F)c5ccc([nH]5)c(-c5cc(S(=O)(=O)[O-])ccc5F)c5nc(c(-c6cc(S(=O)(=O)[O-])ccc6F)c6ccc3[nH]6)C=C5)C=C4)cc2)c1
REMARK SMILES IDX 31 1 30 2 29 3 28 4 27 5 25 6 26 7 24 9 8 10 9 11 10 12
REMARK SMILES IDX 23 13 7 14 3 15 4 16 100 17 5 18 6 19 2 20 1 21 11 22 12 23
REMARK SMILES IDX 16 24 13 25 15 26 14 27 22 28 20 29 21 30 17 31 18 32 19 33
REMARK SMILES IDX 32 36 33 37 34 38 35 39 36 41 37 42 38 43 99 44 39 45 98 46
REMARK SMILES IDX 40 47 41 48 42 49 92 50 43 51 97 52 91 53 93 54 44 55 96 56
REMARK SMILES IDX 90 57 89 58 45 60 77 61 57 62 76 63 58 64 61 65 75 66 94 67
REMARK SMILES IDX 59 68 60 69 74 71 95 72 62 73 46 74 47 75 55 76 48 77 54 78
REMARK SMILES IDX 56 79 53 80 49 81 50 82 51 83 52 84 78 85 79 86 87 87 80 88
REMARK SMILES IDX 86 89 88 90 85 91 81 92 82 93 83 94 84 95 63 96 64 97 72 98
REMARK SMILES IDX 65 99 71 100 73 101 70 102 66 103 67 104 68 105 69 106
REMARK H PARENT 27 8 18 34 18 35 34 40 93 59 61 70
REMARK Flexibility Score: inf
ROOT
ATOM      1  C   UNL A   1      38.624  23.464  26.499  1.00  0.00     0.002 C 
ENDROOT
BRANCH   1   2
ATOM      2  C   UNL A   1      37.588  23.497  25.362  1.00  0.00     0.002 C 
BRANCH   2   3
ATOM      3  C   UNL A   1      37.395  22.179  24.600  1.00  0.00     0.021 C 
BRANCH   3   4
ATOM      4  C   UNL A   1      35.939  21.727  24.538  1.00  0.00     0.116 C 
BRANCH   4   5
ATOM      5  N   UNL A   1      35.372  21.655  25.867  1.00  0.00    -0.352 N 
ATOM      6  C   UNL A   1      34.129  21.925  26.377  1.00  0.00     0.255 C 
ATOM      7  O   UNL A   1      34.003  21.711  27.584  1.00  0.00    -0.269 OA
ATOM      8  H   UNL A   1      36.013  21.347  26.547  1.00  0.00     0.163 HD
BRANCH   6   9
ATOM      9  C   UNL A   1      33.018  22.361  25.543  1.00  0.00     0.086 A 
ATOM     10  C   UNL A   1      32.314  21.593  24.549  1.00  0.00     0.106 A 
ATOM     11  N   UNL A   1      31.458  22.358  23.838  1.00  0.00    -0.167 NA
ATOM     12  N   UNL A   1      31.707  23.606  24.291  1.00  0.00    -0.239 N 
ATOM     13  C   UNL A   1      32.362  23.572  25.497  1.00  0.00     0.129 A 
BRANCH  10  14
ATOM     14  C   UNL A   1      32.472  20.166  24.272  1.00  0.00     0.007 A 
ATOM     15  C   UNL A   1      32.660  17.882  25.049  1.00  0.00     0.119 A 
ATOM     16  C   UNL A   1      32.572  17.424  23.734  1.00  0.00     0.046 A 
ATOM     17  C   UNL A   1      32.634  19.253  25.320  1.00  0.00     0.056 A 
ATOM     18  C   UNL A   1      32.432  18.331  22.684  1.00  0.00     0.005 A 
ATOM     19  C   UNL A   1      32.388  19.698  22.952  1.00  0.00     0.011 A 
BRANCH  15  20
ATOM     20  O   UNL A   1      32.817  16.916  26.009  1.00  0.00    -0.497 OA
ATOM     21  C   UNL A   1      32.584  15.593  25.534  1.00  0.00     0.278 C 
ENDBRANCH  15  20
ENDBRANCH  10  14
BRANCH  12  22
ATOM     22  C   UNL A   1      31.215  24.776  23.664  1.00  0.00     0.081 A 
ATOM     23  C   UNL A   1      29.956  25.256  24.071  1.00  0.00     0.079 A 
ATOM     24  C   UNL A   1      32.004  25.498  22.717  1.00  0.00     0.069 A 
ATOM     25  C   UNL A   1      29.561  26.487  23.590  1.00  0.00     0.167 A 
ATOM     26  C   UNL A   1      31.592  26.784  22.329  1.00  0.00     0.066 A 
ATOM     27  C   UNL A   1      30.369  27.237  22.769  1.00  0.00     0.166 A 
ATOM     28  O   UNL A   1      28.385  27.116  23.855  1.00  0.00    -0.454 OA
ATOM     29  O   UNL A   1      29.807  28.422  22.415  1.00  0.00    -0.454 OA
ATOM     30  C   UNL A   1      28.497  28.277  23.003  1.00  0.00     0.468 C 
BRANCH  24  31
ATOM     31  C   UNL A   1      33.143  24.861  21.965  1.00  0.00     0.251 C 
ATOM     32  N   UNL A   1      32.843  24.057  20.897  1.00  0.00    -0.366 N 
ATOM     33  O   UNL A   1      34.317  24.947  22.293  1.00  0.00    -0.269 OA
ATOM     34  H   UNL A   1      31.909  23.959  20.601  1.00  0.00     0.159 HD
ATOM     35  H   UNL A   1      33.562  23.576  20.426  1.00  0.00     0.159 HD
ENDBRANCH  24  31
ENDBRANCH  12  22
ENDBRANCH   6   9
ENDBRANCH   4   5
ENDBRANCH   3   4
ENDBRANCH   2   3
ENDBRANCH   1   2
BRANCH   1  36
ATOM     36  C   UNL A   1      39.621  22.295  26.488  1.00  0.00     0.021 C 
BRANCH  36  37
ATOM     37  C   UNL A   1      41.075  22.725  26.596  1.00  0.00     0.116 C 
BRANCH  37  38
ATOM     38  N   UNL A   1      41.681  22.333  27.869  1.00  0.00    -0.352 N 
ATOM     39  C   UNL A   1      42.380  23.123  28.769  1.00  0.00     0.251 C 
ATOM     40  H   UNL A   1      41.580  21.385  28.117  1.00  0.00     0.163 HD
ATOM     41  O   UNL A   1      43.155  22.624  29.564  1.00  0.00    -0.269 OA
BRANCH  39  42
ATOM     42  C   UNL A   1      42.157  24.582  28.725  1.00  0.00     0.039 A 
ATOM     43  C   UNL A   1      40.923  25.139  28.385  1.00  0.00     0.014 A 
ATOM     44  C   UNL A   1      43.222  25.392  29.099  1.00  0.00     0.014 A 
ATOM     45  C   UNL A   1      40.754  26.518  28.519  1.00  0.00     0.010 A 
ATOM     46  C   UNL A   1      42.991  26.698  29.430  1.00  0.00     0.010 A 
ATOM     47  C   UNL A   1      41.790  27.290  29.069  1.00  0.00    -0.014 A 
BRANCH  47  48
ATOM     48  C   UNL A   1      41.642  28.718  29.328  1.00  0.00     0.031 A 
ATOM     49  C   UNL A   1      42.599  29.605  28.627  1.00  0.00     0.074 A 
ATOM     50  C   UNL A   1      40.603  29.237  30.016  1.00  0.00     0.049 A 
ATOM     51  N   UNL A   1      43.609  30.211  29.152  1.00  0.00    -0.248 NA
ATOM     52  C   UNL A   1      42.523  29.743  27.166  1.00  0.00     0.031 C 
ATOM     53  C   UNL A   1      39.433  28.551  30.581  1.00  0.00     0.029 A 
ATOM     54  N   UNL A   1      40.328  30.545  30.270  1.00  0.00    -0.354 N 
ATOM     55  C   UNL A   1      44.163  30.997  28.150  1.00  0.00     0.074 A 
ATOM     56  C   UNL A   1      43.579  30.526  26.920  1.00  0.00     0.031 C 
ATOM     57  C   UNL A   1      38.480  29.455  30.895  1.00  0.00     0.029 A 
ATOM     58  C   UNL A   1      39.041  30.783  30.736  1.00  0.00     0.049 A 
ATOM     59  H   UNL A   1      40.987  31.263  30.135  1.00  0.00     0.167 HD
ATOM     60  C   UNL A   1      44.894  32.105  28.457  1.00  0.00     0.034 A 
ATOM     61  C   UNL A   1      38.470  31.986  30.995  1.00  0.00     0.034 A 
ATOM     62  C   UNL A   1      45.193  32.153  29.873  1.00  0.00     0.049 A 
ATOM     63  C   UNL A   1      39.584  32.921  31.292  1.00  0.00     0.074 A 
ATOM     64  C   UNL A   1      45.859  31.321  30.751  1.00  0.00     0.029 A 
ATOM     65  N   UNL A   1      44.417  32.975  30.664  1.00  0.00    -0.354 N 
ATOM     66  N   UNL A   1      40.361  32.779  32.333  1.00  0.00    -0.248 NA
ATOM     67  C   UNL A   1      40.167  33.682  30.197  1.00  0.00     0.031 C 
ATOM     68  C   UNL A   1      45.062  31.330  31.935  1.00  0.00     0.029 A 
ATOM     69  C   UNL A   1      44.011  32.232  31.747  1.00  0.00     0.049 A 
ATOM     70  H   UNL A   1      44.194  33.917  30.486  1.00  0.00     0.167 HD
ATOM     71  C   UNL A   1      41.644  33.008  31.861  1.00  0.00     0.074 A 
ATOM     72  C   UNL A   1      41.452  33.674  30.571  1.00  0.00     0.031 C 
ATOM     73  C   UNL A   1      42.729  32.386  32.413  1.00  0.00     0.034 A 
BRANCH  60  74
ATOM     74  C   UNL A   1      45.077  33.320  27.583  1.00  0.00     0.023 A 
ATOM     75  C   UNL A   1      46.371  33.572  27.087  1.00  0.00     0.031 A 
ATOM     76  C   UNL A   1      44.147  34.373  27.446  1.00  0.00     0.131 A 
ATOM     77  C   UNL A   1      46.719  34.836  26.583  1.00  0.00     0.055 A 
ATOM     78  C   UNL A   1      44.479  35.606  26.878  1.00  0.00     0.041 A 
ATOM     79  F   UNL A   1      42.905  34.305  27.942  1.00  0.00    -0.206 F 
ATOM     80  C   UNL A   1      45.779  35.856  26.472  1.00  0.00     0.022 A 
BRANCH  77  81
ATOM     81  S   UNL A   1      48.468  35.177  26.250  1.00  0.00     0.124 S 
ATOM     82  O   UNL A   1      48.470  36.633  26.136  1.00  0.00    -0.237 OA
ATOM     83  O   UNL A   1      49.113  34.623  27.436  1.00  0.00    -0.237 OA
ATOM     84  O   UNL A   1      48.722  34.456  25.006  1.00  0.00    -0.744 OA
ENDBRANCH  77  81
ENDBRANCH  60  74
BRANCH  61  85
ATOM     85  C   UNL A   1      37.066  32.386  30.712  1.00  0.00     0.023 A 
ATOM     86  C   UNL A   1      36.224  32.982  31.671  1.00  0.00     0.031 A 
ATOM     87  C   UNL A   1      36.606  32.388  29.374  1.00  0.00     0.131 A 
ATOM     88  C   UNL A   1      34.987  33.547  31.278  1.00  0.00     0.055 A 
ATOM     89  C   UNL A   1      35.383  32.943  28.992  1.00  0.00     0.041 A 
ATOM     90  F   UNL A   1      37.373  31.923  28.374  1.00  0.00    -0.206 F 
ATOM     91  C   UNL A   1      34.571  33.536  29.944  1.00  0.00     0.022 A 
BRANCH  88  92
ATOM     92  S   UNL A   1      33.933  34.403  32.495  1.00  0.00     0.124 S 
ATOM     93  O   UNL A   1      34.895  35.226  33.217  1.00  0.00    -0.237 OA
ATOM     94  O   UNL A   1      32.984  35.111  31.643  1.00  0.00    -0.237 OA
ATOM     95  O   UNL A   1      33.353  33.308  33.274  1.00  0.00    -0.744 OA
ENDBRANCH  88  92
ENDBRANCH  61  85
BRANCH  73  96
ATOM     96  C   UNL A   1      42.531  31.615  33.707  1.00  0.00     0.023 A 
ATOM     97  C   UNL A   1      42.249  30.231  33.781  1.00  0.00     0.031 A 
ATOM     98  C   UNL A   1      42.762  32.292  34.916  1.00  0.00     0.131 A 
ATOM     99  C   UNL A   1      42.187  29.583  35.030  1.00  0.00     0.055 A 
ATOM    100  C   UNL A   1      42.724  31.645  36.152  1.00  0.00     0.041 A 
ATOM    101  F   UNL A   1      43.067  33.601  34.916  1.00  0.00    -0.206 F 
ATOM    102  C   UNL A   1      42.428  30.287  36.214  1.00  0.00     0.022 A 
BRANCH  99 103
ATOM    103  S   UNL A   1      41.778  27.809  35.136  1.00  0.00     0.124 S 
ATOM    104  O   UNL A   1      40.658  27.664  34.213  1.00  0.00    -0.237 OA
ATOM    105  O   UNL A   1      43.026  27.169  34.730  1.00  0.00    -0.237 OA
ATOM    106  O   UNL A   1      41.431  27.623  36.547  1.00  0.00    -0.744 OA
ENDBRANCH  99 103
ENDBRANCH  73  96
ENDBRANCH  47  48
ENDBRANCH  39  42
ENDBRANCH  37  38
ENDBRANCH  36  37
ENDBRANCH   1  36
TORSDOF 20
ENDMDL
