MODEL 1
REMARK VINA RESULT:     -12.4      0.000      0.000
REMARK SMILES O=C(NCCCCCCNC(=O)[C@@H]1CC2(CCN(C(=O)C3(c4ccccc4F)CC3)CC2)C[NH2+]1)c1ccc(-c2c3nc(c(-c4cc(S(=O)(=O)[O-])ccc4F)c4ccc([nH]4)c(-c4cc(S(=O)(=O)[O-])ccc4F)c4nc(c(-c5cc(S(=O)(=O)[O-])ccc5F)c5ccc2[nH]5)C=C4)C=C3)cc1
REMARK SMILES IDX 6 1 5 2 4 3 3 4 1 5 2 6 35 8 36 9 97 10 37 11 96 12 38 13
REMARK SMILES IDX 39 14 40 15 90 16 41 17 95 18 89 19 91 20 42 21 94 22 88 23
REMARK SMILES IDX 87 24 43 26 75 27 55 28 74 29 56 30 59 31 73 32 92 33 57 34
REMARK SMILES IDX 58 35 72 37 93 38 60 39 44 40 45 41 53 42 46 43 52 44 54 45
REMARK SMILES IDX 51 46 47 47 48 48 49 49 50 50 76 51 77 52 85 53 78 54 84 55
REMARK SMILES IDX 86 56 83 57 79 58 80 59 81 60 82 61 61 62 62 63 70 64 63 65
REMARK SMILES IDX 69 66 71 67 68 68 64 69 65 70 66 71 67 72 7 73 8 74 9 75
REMARK SMILES IDX 10 76 11 77 12 79 13 80 14 81 34 82 15 83 33 84 16 87 32 88
REMARK SMILES IDX 17 89 31 90 18 91 19 92 20 93 21 94 29 95 30 96 22 97 23 98
REMARK SMILES IDX 27 99 24 100 26 101 28 102 25 103
REMARK H PARENT 3 7 91 25 59 36 10 78 34 85 34 86
REMARK Flexibility Score: inf
ROOT
ATOM      1  C   UNL A   1      31.804  29.902  26.605  1.00  0.00     0.002 C 
ENDROOT
BRANCH   1   2
ATOM      2  C   UNL A   1      31.673  31.424  26.656  1.00  0.00     0.021 C 
BRANCH   2   3
ATOM      3  C   UNL A   1      32.913  32.179  27.112  1.00  0.00     0.116 C 
BRANCH   3   4
ATOM      4  N   UNL A   1      32.635  33.552  27.500  1.00  0.00    -0.352 N 
ATOM      5  O   UNL A   1      32.800  35.420  28.754  1.00  0.00    -0.269 OA
ATOM      6  C   UNL A   1      33.241  34.309  28.474  1.00  0.00     0.251 C 
ATOM      7  H   UNL A   1      31.916  33.999  26.997  1.00  0.00     0.163 HD
BRANCH   6   8
ATOM      8  C   UNL A   1      34.405  33.762  29.205  1.00  0.00     0.039 A 
ATOM      9  C   UNL A   1      35.704  34.150  28.869  1.00  0.00     0.014 A 
ATOM     10  C   UNL A   1      34.193  32.832  30.228  1.00  0.00     0.014 A 
ATOM     11  C   UNL A   1      36.789  33.501  29.449  1.00  0.00     0.010 A 
ATOM     12  C   UNL A   1      35.288  32.244  30.870  1.00  0.00     0.010 A 
ATOM     13  C   UNL A   1      36.596  32.548  30.463  1.00  0.00    -0.014 A 
BRANCH  13  14
ATOM     14  C   UNL A   1      37.782  31.921  31.104  1.00  0.00     0.031 A 
ATOM     15  C   UNL A   1      38.218  32.319  32.489  1.00  0.00     0.074 A 
ATOM     16  C   UNL A   1      38.431  30.940  30.445  1.00  0.00     0.049 A 
ATOM     17  N   UNL A   1      39.217  31.857  33.198  1.00  0.00    -0.248 NA
ATOM     18  C   UNL A   1      37.443  33.371  33.164  1.00  0.00     0.031 C 
ATOM     19  C   UNL A   1      38.092  30.467  29.099  1.00  0.00     0.029 A 
ATOM     20  N   UNL A   1      39.483  30.145  30.818  1.00  0.00    -0.354 N 
ATOM     21  C   UNL A   1      39.201  32.568  34.393  1.00  0.00     0.074 A 
ATOM     22  C   UNL A   1      38.106  33.511  34.305  1.00  0.00     0.031 C 
ATOM     23  C   UNL A   1      38.875  29.425  28.788  1.00  0.00     0.029 A 
ATOM     24  C   UNL A   1      39.820  29.199  29.877  1.00  0.00     0.049 A 
ATOM     25  H   UNL A   1      39.953  30.240  31.678  1.00  0.00     0.167 HD
ATOM     26  C   UNL A   1      40.019  32.438  35.465  1.00  0.00     0.034 A 
ATOM     27  C   UNL A   1      40.791  28.265  29.875  1.00  0.00     0.034 A 
ATOM     28  C   UNL A   1      41.092  31.479  35.550  1.00  0.00     0.049 A 
ATOM     29  C   UNL A   1      41.709  28.172  31.060  1.00  0.00     0.074 A 
ATOM     30  C   UNL A   1      41.957  31.249  36.607  1.00  0.00     0.029 A 
ATOM     31  N   UNL A   1      41.447  30.591  34.546  1.00  0.00    -0.354 N 
ATOM     32  N   UNL A   1      41.688  28.871  32.171  1.00  0.00    -0.248 NA
ATOM     33  C   UNL A   1      42.788  27.179  30.989  1.00  0.00     0.031 C 
ATOM     34  C   UNL A   1      42.867  30.261  36.221  1.00  0.00     0.029 A 
ATOM     35  C   UNL A   1      42.534  29.832  34.947  1.00  0.00     0.049 A 
ATOM     36  H   UNL A   1      40.993  30.511  33.675  1.00  0.00     0.167 HD
ATOM     37  C   UNL A   1      42.751  28.400  32.932  1.00  0.00     0.074 A 
ATOM     38  C   UNL A   1      43.383  27.348  32.163  1.00  0.00     0.031 C 
ATOM     39  C   UNL A   1      43.165  28.803  34.157  1.00  0.00     0.034 A 
BRANCH  26  40
ATOM     40  C   UNL A   1      39.812  33.369  36.630  1.00  0.00     0.023 A 
ATOM     41  C   UNL A   1      39.191  32.940  37.814  1.00  0.00     0.031 A 
ATOM     42  C   UNL A   1      40.291  34.690  36.571  1.00  0.00     0.131 A 
ATOM     43  C   UNL A   1      39.039  33.834  38.885  1.00  0.00     0.055 A 
ATOM     44  C   UNL A   1      40.186  35.558  37.659  1.00  0.00     0.041 A 
ATOM     45  F   UNL A   1      40.881  35.152  35.458  1.00  0.00    -0.206 F 
ATOM     46  C   UNL A   1      39.554  35.133  38.823  1.00  0.00     0.022 A 
BRANCH  43  47
ATOM     47  S   UNL A   1      38.114  33.294  40.348  1.00  0.00     0.124 S 
ATOM     48  O   UNL A   1      38.231  34.462  41.217  1.00  0.00    -0.237 OA
ATOM     49  O   UNL A   1      36.785  33.034  39.807  1.00  0.00    -0.237 OA
ATOM     50  O   UNL A   1      38.846  32.111  40.797  1.00  0.00    -0.744 OA
ENDBRANCH  43  47
ENDBRANCH  26  40
BRANCH  27  51
ATOM     51  C   UNL A   1      40.963  27.380  28.692  1.00  0.00     0.023 A 
ATOM     52  C   UNL A   1      41.965  27.625  27.742  1.00  0.00     0.031 A 
ATOM     53  C   UNL A   1      40.131  26.261  28.507  1.00  0.00     0.131 A 
ATOM     54  C   UNL A   1      42.100  26.770  26.637  1.00  0.00     0.055 A 
ATOM     55  C   UNL A   1      40.295  25.391  27.429  1.00  0.00     0.041 A 
ATOM     56  F   UNL A   1      39.163  25.981  29.395  1.00  0.00    -0.206 F 
ATOM     57  C   UNL A   1      41.282  25.647  26.483  1.00  0.00     0.022 A 
BRANCH  54  58
ATOM     58  S   UNL A   1      43.350  27.158  25.382  1.00  0.00     0.124 S 
ATOM     59  O   UNL A   1      42.600  28.022  24.476  1.00  0.00    -0.237 OA
ATOM     60  O   UNL A   1      44.388  27.807  26.175  1.00  0.00    -0.237 OA
ATOM     61  O   UNL A   1      43.710  25.849  24.843  1.00  0.00    -0.744 OA
ENDBRANCH  54  58
ENDBRANCH  27  51
BRANCH  39  62
ATOM     62  C   UNL A   1      44.353  28.099  34.749  1.00  0.00     0.023 A 
ATOM     63  C   UNL A   1      44.195  26.978  35.580  1.00  0.00     0.031 A 
ATOM     64  C   UNL A   1      45.656  28.524  34.438  1.00  0.00     0.131 A 
ATOM     65  C   UNL A   1      45.326  26.330  36.095  1.00  0.00     0.055 A 
ATOM     66  C   UNL A   1      46.778  27.850  34.918  1.00  0.00     0.041 A 
ATOM     67  F   UNL A   1      45.855  29.588  33.644  1.00  0.00    -0.206 F 
ATOM     68  C   UNL A   1      46.617  26.748  35.755  1.00  0.00     0.022 A 
BRANCH  65  69
ATOM     69  S   UNL A   1      45.095  24.934  37.228  1.00  0.00     0.124 S 
ATOM     70  O   UNL A   1      46.289  25.023  38.063  1.00  0.00    -0.237 OA
ATOM     71  O   UNL A   1      43.833  25.263  37.884  1.00  0.00    -0.237 OA
ATOM     72  O   UNL A   1      45.043  23.775  36.338  1.00  0.00    -0.744 OA
ENDBRANCH  65  69
ENDBRANCH  39  62
ENDBRANCH  13  14
ENDBRANCH   6   8
ENDBRANCH   3   4
ENDBRANCH   2   3
ENDBRANCH   1   2
BRANCH   1  73
ATOM     73  C   UNL A   1      33.058  29.353  25.920  1.00  0.00     0.002 C 
BRANCH  73  74
ATOM     74  C   UNL A   1      33.216  29.674  24.432  1.00  0.00     0.021 C 
BRANCH  74  75
ATOM     75  C   UNL A   1      33.199  28.470  23.499  1.00  0.00     0.116 C 
BRANCH  75  76
ATOM     76  N   UNL A   1      31.987  28.411  22.714  1.00  0.00    -0.351 N 
ATOM     77  C   UNL A   1      30.746  27.913  22.935  1.00  0.00     0.278 C 
ATOM     78  H   UNL A   1      32.083  28.824  21.825  1.00  0.00     0.163 HD
ATOM     79  O   UNL A   1      29.948  28.082  21.998  1.00  0.00    -0.268 OA
BRANCH  77  80
ATOM     80  C   UNL A   1      30.272  27.147  24.190  1.00  0.00     0.273 C 
ATOM     81  C   UNL A   1      31.426  26.317  24.756  1.00  0.00     0.088 C 
ATOM     82  N   UNL A   1      29.278  26.086  24.062  1.00  0.00    -0.336 N 
ATOM     83  C   UNL A   1      31.347  24.968  23.991  1.00  0.00     0.029 C 
ATOM     84  C   UNL A   1      29.921  24.956  23.414  1.00  0.00     0.268 C 
ATOM     85  H   UNL A   1      28.492  26.410  23.497  1.00  0.00     0.346 HD
ATOM     86  H   UNL A   1      28.921  25.816  24.980  1.00  0.00     0.346 HD
ATOM     87  C   UNL A   1      31.544  23.770  24.933  1.00  0.00     0.034 C 
ATOM     88  C   UNL A   1      32.396  24.881  22.864  1.00  0.00     0.034 C 
ATOM     89  C   UNL A   1      32.978  23.647  25.433  1.00  0.00     0.120 C 
ATOM     90  C   UNL A   1      33.816  24.751  23.411  1.00  0.00     0.120 C 
ATOM     91  N   UNL A   1      33.931  23.616  24.334  1.00  0.00    -0.342 N 
ATOM     92  C   UNL A   1      34.953  22.694  24.076  1.00  0.00     0.233 C 
ATOM     93  O   UNL A   1      35.656  22.856  23.073  1.00  0.00    -0.274 OA
BRANCH  92  94
ATOM     94  C   UNL A   1      35.294  21.471  24.935  1.00  0.00     0.077 C 
ATOM     95  C   UNL A   1      36.588  21.081  25.648  1.00  0.00     0.023 C 
ATOM     96  C   UNL A   1      35.521  21.782  26.419  1.00  0.00     0.023 C 
BRANCH  94  97
ATOM     97  C   UNL A   1      34.469  20.227  24.539  1.00  0.00     0.003 A 
ATOM     98  C   UNL A   1      33.092  20.335  24.260  1.00  0.00     0.008 A 
ATOM     99  C   UNL A   1      35.024  18.938  24.517  1.00  0.00     0.127 A 
ATOM    100  C   UNL A   1      32.314  19.210  23.980  1.00  0.00     0.001 A 
ATOM    101  C   UNL A   1      34.254  17.808  24.251  1.00  0.00     0.039 A 
ATOM    102  F   UNL A   1      36.331  18.773  24.769  1.00  0.00    -0.207 F 
ATOM    103  C   UNL A   1      32.895  17.943  23.984  1.00  0.00     0.003 A 
ENDBRANCH  94  97
ENDBRANCH  92  94
ENDBRANCH  77  80
ENDBRANCH  75  76
ENDBRANCH  74  75
ENDBRANCH  73  74
ENDBRANCH   1  73
TORSDOF 18
ENDMDL
MODEL 2
REMARK VINA RESULT:     -12.3      5.428      9.986
REMARK SMILES O=C(NCCCCCCNC(=O)[C@@H]1CC2(CCN(C(=O)C3(c4ccccc4F)CC3)CC2)C[NH2+]1)c1ccc(-c2c3nc(c(-c4cc(S(=O)(=O)[O-])ccc4F)c4ccc([nH]4)c(-c4cc(S(=O)(=O)[O-])ccc4F)c4nc(c(-c5cc(S(=O)(=O)[O-])ccc5F)c5ccc2[nH]5)C=C4)C=C3)cc1
REMARK SMILES IDX 6 1 5 2 4 3 3 4 1 5 2 6 35 8 36 9 97 10 37 11 96 12 38 13
REMARK SMILES IDX 39 14 40 15 90 16 41 17 95 18 89 19 91 20 42 21 94 22 88 23
REMARK SMILES IDX 87 24 43 26 75 27 55 28 74 29 56 30 59 31 73 32 92 33 57 34
REMARK SMILES IDX 58 35 72 37 93 38 60 39 44 40 45 41 53 42 46 43 52 44 54 45
REMARK SMILES IDX 51 46 47 47 48 48 49 49 50 50 76 51 77 52 85 53 78 54 84 55
REMARK SMILES IDX 86 56 83 57 79 58 80 59 81 60 82 61 61 62 62 63 70 64 63 65
REMARK SMILES IDX 69 66 71 67 68 68 64 69 65 70 66 71 67 72 7 73 8 74 9 75
REMARK SMILES IDX 10 76 11 77 12 79 13 80 14 81 34 82 15 83 33 84 16 87 32 88
REMARK SMILES IDX 17 89 31 90 18 91 19 92 20 93 21 94 29 95 30 96 22 97 23 98
REMARK SMILES IDX 27 99 24 100 26 101 28 102 25 103
REMARK H PARENT 3 7 91 25 59 36 10 78 34 85 34 86
REMARK Flexibility Score: inf
ROOT
ATOM      1  C   UNL A   1      39.132  21.847  26.043  1.00  0.00     0.002 C 
ENDROOT
BRANCH   1   2
ATOM      2  C   UNL A   1      39.590  20.474  25.552  1.00  0.00     0.021 C 
BRANCH   2   3
ATOM      3  C   UNL A   1      40.296  19.605  26.583  1.00  0.00     0.116 C 
BRANCH   3   4
ATOM      4  N   UNL A   1      41.498  18.972  26.068  1.00  0.00    -0.352 N 
ATOM      5  O   UNL A   1      43.587  18.882  25.219  1.00  0.00    -0.269 OA
ATOM      6  C   UNL A   1      42.708  19.547  25.760  1.00  0.00     0.251 C 
ATOM      7  H   UNL A   1      41.437  18.001  25.919  1.00  0.00     0.163 HD
BRANCH   6   8
ATOM      8  C   UNL A   1      42.931  20.980  26.055  1.00  0.00     0.039 A 
ATOM      9  C   UNL A   1      43.029  21.913  25.020  1.00  0.00     0.014 A 
ATOM     10  C   UNL A   1      43.065  21.390  27.385  1.00  0.00     0.014 A 
ATOM     11  C   UNL A   1      43.407  23.220  25.306  1.00  0.00     0.010 A 
ATOM     12  C   UNL A   1      43.360  22.727  27.673  1.00  0.00     0.010 A 
ATOM     13  C   UNL A   1      43.567  23.647  26.635  1.00  0.00    -0.014 A 
BRANCH  13  14
ATOM     14  C   UNL A   1      43.910  25.069  26.904  1.00  0.00     0.031 A 
ATOM     15  C   UNL A   1      42.894  26.016  27.485  1.00  0.00     0.074 A 
ATOM     16  C   UNL A   1      45.171  25.485  26.674  1.00  0.00     0.049 A 
ATOM     17  N   UNL A   1      43.037  27.280  27.797  1.00  0.00    -0.248 NA
ATOM     18  C   UNL A   1      41.548  25.485  27.745  1.00  0.00     0.031 C 
ATOM     19  C   UNL A   1      46.242  24.651  26.118  1.00  0.00     0.029 A 
ATOM     20  N   UNL A   1      45.780  26.692  26.902  1.00  0.00    -0.354 N 
ATOM     21  C   UNL A   1      41.800  27.699  28.275  1.00  0.00     0.074 A 
ATOM     22  C   UNL A   1      40.910  26.561  28.189  1.00  0.00     0.031 C 
ATOM     23  C   UNL A   1      47.385  25.350  26.110  1.00  0.00     0.029 A 
ATOM     24  C   UNL A   1      47.119  26.702  26.590  1.00  0.00     0.049 A 
ATOM     25  H   UNL A   1      45.304  27.478  27.256  1.00  0.00     0.167 HD
ATOM     26  C   UNL A   1      41.446  28.919  28.748  1.00  0.00     0.034 A 
ATOM     27  C   UNL A   1      48.033  27.689  26.661  1.00  0.00     0.034 A 
ATOM     28  C   UNL A   1      42.348  30.038  28.849  1.00  0.00     0.049 A 
ATOM     29  C   UNL A   1      47.601  29.042  27.150  1.00  0.00     0.074 A 
ATOM     30  C   UNL A   1      42.092  31.306  29.344  1.00  0.00     0.029 A 
ATOM     31  N   UNL A   1      43.677  30.028  28.453  1.00  0.00    -0.354 N 
ATOM     32  N   UNL A   1      46.419  29.422  27.576  1.00  0.00    -0.248 NA
ATOM     33  C   UNL A   1      48.617  30.103  27.156  1.00  0.00     0.031 C 
ATOM     34  C   UNL A   1      43.248  32.076  29.197  1.00  0.00     0.029 A 
ATOM     35  C   UNL A   1      44.244  31.274  28.665  1.00  0.00     0.049 A 
ATOM     36  H   UNL A   1      44.148  29.250  28.074  1.00  0.00     0.167 HD
ATOM     37  C   UNL A   1      46.551  30.767  27.901  1.00  0.00     0.074 A 
ATOM     38  C   UNL A   1      47.928  31.128  27.639  1.00  0.00     0.031 C 
ATOM     39  C   UNL A   1      45.613  31.623  28.376  1.00  0.00     0.034 A 
BRANCH  26  40
ATOM     40  C   UNL A   1      40.016  29.125  29.170  1.00  0.00     0.023 A 
ATOM     41  C   UNL A   1      39.644  29.152  30.523  1.00  0.00     0.031 A 
ATOM     42  C   UNL A   1      39.020  29.350  28.202  1.00  0.00     0.131 A 
ATOM     43  C   UNL A   1      38.303  29.371  30.874  1.00  0.00     0.055 A 
ATOM     44  C   UNL A   1      37.698  29.621  28.559  1.00  0.00     0.041 A 
ATOM     45  F   UNL A   1      39.321  29.321  26.895  1.00  0.00    -0.206 F 
ATOM     46  C   UNL A   1      37.333  29.630  29.901  1.00  0.00     0.022 A 
BRANCH  43  47
ATOM     47  S   UNL A   1      37.830  29.266  32.621  1.00  0.00     0.124 S 
ATOM     48  O   UNL A   1      38.936  29.969  33.267  1.00  0.00    -0.237 OA
ATOM     49  O   UNL A   1      36.542  29.949  32.645  1.00  0.00    -0.237 OA
ATOM     50  O   UNL A   1      37.778  27.828  32.876  1.00  0.00    -0.744 OA
ENDBRANCH  43  47
ENDBRANCH  26  40
BRANCH  27  51
ATOM     51  C   UNL A   1      49.430  27.438  26.217  1.00  0.00     0.023 A 
ATOM     52  C   UNL A   1      49.847  27.756  24.916  1.00  0.00     0.031 A 
ATOM     53  C   UNL A   1      50.376  26.887  27.101  1.00  0.00     0.131 A 
ATOM     54  C   UNL A   1      51.173  27.505  24.529  1.00  0.00     0.055 A 
ATOM     55  C   UNL A   1      51.702  26.677  26.725  1.00  0.00     0.041 A 
ATOM     56  F   UNL A   1      50.026  26.574  28.360  1.00  0.00    -0.206 F 
ATOM     57  C   UNL A   1      52.106  26.982  25.429  1.00  0.00     0.022 A 
BRANCH  54  58
ATOM     58  S   UNL A   1      51.661  27.848  22.817  1.00  0.00     0.124 S 
ATOM     59  O   UNL A   1      51.508  29.298  22.750  1.00  0.00    -0.237 OA
ATOM     60  O   UNL A   1      53.031  27.346  22.784  1.00  0.00    -0.237 OA
ATOM     61  O   UNL A   1      50.701  27.081  22.028  1.00  0.00    -0.744 OA
ENDBRANCH  54  58
ENDBRANCH  27  51
BRANCH  39  62
ATOM     62  C   UNL A   1      46.048  33.034  28.651  1.00  0.00     0.023 A 
ATOM     63  C   UNL A   1      46.029  34.011  27.642  1.00  0.00     0.031 A 
ATOM     64  C   UNL A   1      46.437  33.416  29.946  1.00  0.00     0.131 A 
ATOM     65  C   UNL A   1      46.417  35.325  27.940  1.00  0.00     0.055 A 
ATOM     66  C   UNL A   1      46.782  34.733  30.247  1.00  0.00     0.041 A 
ATOM     67  F   UNL A   1      46.466  32.517  30.942  1.00  0.00    -0.206 F 
ATOM     68  C   UNL A   1      46.777  35.696  29.240  1.00  0.00     0.022 A 
BRANCH  65  69
ATOM     69  S   UNL A   1      46.459  36.549  26.604  1.00  0.00     0.124 S 
ATOM     70  O   UNL A   1      45.259  37.333  26.877  1.00  0.00    -0.237 OA
ATOM     71  O   UNL A   1      47.731  37.229  26.834  1.00  0.00    -0.237 OA
ATOM     72  O   UNL A   1      46.407  35.734  25.391  1.00  0.00    -0.744 OA
ENDBRANCH  65  69
ENDBRANCH  39  62
ENDBRANCH  13  14
ENDBRANCH   6   8
ENDBRANCH   3   4
ENDBRANCH   2   3
ENDBRANCH   1   2
BRANCH   1  73
ATOM     73  C   UNL A   1      37.838  22.389  25.429  1.00  0.00     0.002 C 
BRANCH  73  74
ATOM     74  C   UNL A   1      37.001  21.395  24.620  1.00  0.00     0.021 C 
BRANCH  74  75
ATOM     75  C   UNL A   1      36.112  20.472  25.442  1.00  0.00     0.116 C 
BRANCH  75  76
ATOM     76  N   UNL A   1      35.140  19.786  24.619  1.00  0.00    -0.351 N 
ATOM     77  C   UNL A   1      33.802  19.591  24.708  1.00  0.00     0.278 C 
ATOM     78  H   UNL A   1      35.537  19.369  23.820  1.00  0.00     0.163 HD
ATOM     79  O   UNL A   1      33.311  18.950  23.765  1.00  0.00    -0.268 OA
BRANCH  77  80
ATOM     80  C   UNL A   1      32.880  20.050  25.859  1.00  0.00     0.273 C 
ATOM     81  C   UNL A   1      31.984  21.194  25.379  1.00  0.00     0.088 C 
ATOM     82  N   UNL A   1      33.452  20.695  27.037  1.00  0.00    -0.336 N 
ATOM     83  C   UNL A   1      32.821  22.477  25.636  1.00  0.00     0.029 C 
ATOM     84  C   UNL A   1      33.893  22.022  26.641  1.00  0.00     0.268 C 
ATOM     85  H   UNL A   1      34.246  20.153  27.380  1.00  0.00     0.346 HD
ATOM     86  H   UNL A   1      32.760  20.756  27.784  1.00  0.00     0.346 HD
ATOM     87  C   UNL A   1      31.967  23.598  26.248  1.00  0.00     0.034 C 
ATOM     88  C   UNL A   1      33.473  23.009  24.343  1.00  0.00     0.034 C 
ATOM     89  C   UNL A   1      30.974  24.187  25.253  1.00  0.00     0.120 C 
ATOM     90  C   UNL A   1      32.442  23.596  23.381  1.00  0.00     0.120 C 
ATOM     91  N   UNL A   1      31.631  24.631  24.033  1.00  0.00    -0.342 N 
ATOM     92  C   UNL A   1      31.553  25.871  23.388  1.00  0.00     0.233 C 
ATOM     93  O   UNL A   1      32.201  26.039  22.349  1.00  0.00    -0.274 OA
BRANCH  92  94
ATOM     94  C   UNL A   1      30.723  27.073  23.853  1.00  0.00     0.077 C 
ATOM     95  C   UNL A   1      29.753  27.972  23.090  1.00  0.00     0.023 C 
ATOM     96  C   UNL A   1      29.210  26.827  23.877  1.00  0.00     0.023 C 
BRANCH  94  97
ATOM     97  C   UNL A   1      31.386  27.825  25.029  1.00  0.00     0.003 A 
ATOM     98  C   UNL A   1      31.112  27.461  26.362  1.00  0.00     0.008 A 
ATOM     99  C   UNL A   1      32.217  28.938  24.829  1.00  0.00     0.127 A 
ATOM    100  C   UNL A   1      31.640  28.180  27.437  1.00  0.00     0.001 A 
ATOM    101  C   UNL A   1      32.737  29.670  25.894  1.00  0.00     0.039 A 
ATOM    102  F   UNL A   1      32.518  29.328  23.582  1.00  0.00    -0.207 F 
ATOM    103  C   UNL A   1      32.446  29.292  27.202  1.00  0.00     0.003 A 
ENDBRANCH  94  97
ENDBRANCH  92  94
ENDBRANCH  77  80
ENDBRANCH  75  76
ENDBRANCH  74  75
ENDBRANCH  73  74
ENDBRANCH   1  73
TORSDOF 18
ENDMDL
MODEL 3
REMARK VINA RESULT:     -12.3      5.356     11.276
REMARK SMILES O=C(NCCCCCCNC(=O)[C@@H]1CC2(CCN(C(=O)C3(c4ccccc4F)CC3)CC2)C[NH2+]1)c1ccc(-c2c3nc(c(-c4cc(S(=O)(=O)[O-])ccc4F)c4ccc([nH]4)c(-c4cc(S(=O)(=O)[O-])ccc4F)c4nc(c(-c5cc(S(=O)(=O)[O-])ccc5F)c5ccc2[nH]5)C=C4)C=C3)cc1
REMARK SMILES IDX 6 1 5 2 4 3 3 4 1 5 2 6 35 8 36 9 97 10 37 11 96 12 38 13
REMARK SMILES IDX 39 14 40 15 90 16 41 17 95 18 89 19 91 20 42 21 94 22 88 23
REMARK SMILES IDX 87 24 43 26 75 27 55 28 74 29 56 30 59 31 73 32 92 33 57 34
REMARK SMILES IDX 58 35 72 37 93 38 60 39 44 40 45 41 53 42 46 43 52 44 54 45
REMARK SMILES IDX 51 46 47 47 48 48 49 49 50 50 76 51 77 52 85 53 78 54 84 55
REMARK SMILES IDX 86 56 83 57 79 58 80 59 81 60 82 61 61 62 62 63 70 64 63 65
REMARK SMILES IDX 69 66 71 67 68 68 64 69 65 70 66 71 67 72 7 73 8 74 9 75
REMARK SMILES IDX 10 76 11 77 12 79 13 80 14 81 34 82 15 83 33 84 16 87 32 88
REMARK SMILES IDX 17 89 31 90 18 91 19 92 20 93 21 94 29 95 30 96 22 97 23 98
REMARK SMILES IDX 27 99 24 100 26 101 28 102 25 103
REMARK H PARENT 3 7 91 25 59 36 10 78 34 85 34 86
REMARK Flexibility Score: inf
ROOT
ATOM      1  C   UNL A   1      38.947  21.869  26.127  1.00  0.00     0.002 C 
ENDROOT
BRANCH   1   2
ATOM      2  C   UNL A   1      39.508  20.538  25.628  1.00  0.00     0.021 C 
BRANCH   2   3
ATOM      3  C   UNL A   1      40.360  19.764  26.624  1.00  0.00     0.116 C 
BRANCH   3   4
ATOM      4  N   UNL A   1      41.560  19.200  26.032  1.00  0.00    -0.352 N 
ATOM      5  O   UNL A   1      43.630  19.222  25.133  1.00  0.00    -0.269 OA
ATOM      6  C   UNL A   1      42.752  19.823  25.747  1.00  0.00     0.251 C 
ATOM      7  H   UNL A   1      41.514  18.244  25.805  1.00  0.00     0.163 HD
BRANCH   6   8
ATOM      8  C   UNL A   1      42.956  21.231  26.155  1.00  0.00     0.039 A 
ATOM      9  C   UNL A   1      43.007  22.249  25.200  1.00  0.00     0.014 A 
ATOM     10  C   UNL A   1      43.120  21.531  27.511  1.00  0.00     0.014 A 
ATOM     11  C   UNL A   1      43.368  23.536  25.584  1.00  0.00     0.010 A 
ATOM     12  C   UNL A   1      43.397  22.845  27.903  1.00  0.00     0.010 A 
ATOM     13  C   UNL A   1      43.557  23.853  26.940  1.00  0.00    -0.014 A 
BRANCH  13  14
ATOM     14  C   UNL A   1      43.880  25.254  27.319  1.00  0.00     0.031 A 
ATOM     15  C   UNL A   1      45.267  25.809  27.132  1.00  0.00     0.074 A 
ATOM     16  C   UNL A   1      42.891  26.045  27.780  1.00  0.00     0.049 A 
ATOM     17  N   UNL A   1      45.710  27.013  27.393  1.00  0.00    -0.248 NA
ATOM     18  C   UNL A   1      46.290  24.901  26.590  1.00  0.00     0.031 C 
ATOM     19  C   UNL A   1      41.505  25.616  27.996  1.00  0.00     0.029 A 
ATOM     20  N   UNL A   1      42.880  27.372  28.122  1.00  0.00    -0.354 N 
ATOM     21  C   UNL A   1      47.061  27.005  27.063  1.00  0.00     0.074 A 
ATOM     22  C   UNL A   1      47.373  25.668  26.605  1.00  0.00     0.031 C 
ATOM     23  C   UNL A   1      40.770  26.672  28.368  1.00  0.00     0.029 A 
ATOM     24  C   UNL A   1      41.639  27.837  28.490  1.00  0.00     0.049 A 
ATOM     25  H   UNL A   1      43.685  27.940  28.105  1.00  0.00     0.167 HD
ATOM     26  C   UNL A   1      47.954  28.023  27.130  1.00  0.00     0.034 A 
ATOM     27  C   UNL A   1      41.241  29.058  28.900  1.00  0.00     0.034 A 
ATOM     28  C   UNL A   1      47.626  29.356  27.567  1.00  0.00     0.049 A 
ATOM     29  C   UNL A   1      42.261  30.155  29.003  1.00  0.00     0.074 A 
ATOM     30  C   UNL A   1      48.454  30.464  27.640  1.00  0.00     0.029 A 
ATOM     31  N   UNL A   1      46.375  29.766  28.002  1.00  0.00    -0.354 N 
ATOM     32  N   UNL A   1      43.540  30.118  28.706  1.00  0.00    -0.248 NA
ATOM     33  C   UNL A   1      41.794  31.452  29.508  1.00  0.00     0.031 C 
ATOM     34  C   UNL A   1      47.717  31.527  28.169  1.00  0.00     0.029 A 
ATOM     35  C   UNL A   1      46.415  31.101  28.371  1.00  0.00     0.049 A 
ATOM     36  H   UNL A   1      45.574  29.193  28.044  1.00  0.00     0.167 HD
ATOM     37  C   UNL A   1      44.029  31.388  28.989  1.00  0.00     0.074 A 
ATOM     38  C   UNL A   1      42.907  32.172  29.463  1.00  0.00     0.031 C 
ATOM     39  C   UNL A   1      45.293  31.860  28.865  1.00  0.00     0.034 A 
BRANCH  26  40
ATOM     40  C   UNL A   1      49.381  27.736  26.748  1.00  0.00     0.023 A 
ATOM     41  C   UNL A   1      49.865  28.000  25.457  1.00  0.00     0.031 A 
ATOM     42  C   UNL A   1      50.283  27.243  27.708  1.00  0.00     0.131 A 
ATOM     43  C   UNL A   1      51.210  27.740  25.149  1.00  0.00     0.055 A 
ATOM     44  C   UNL A   1      51.631  27.039  27.412  1.00  0.00     0.041 A 
ATOM     45  F   UNL A   1      49.868  26.964  28.953  1.00  0.00    -0.206 F 
ATOM     46  C   UNL A   1      52.101  27.284  26.125  1.00  0.00     0.022 A 
BRANCH  43  47
ATOM     47  S   UNL A   1      51.771  27.961  23.440  1.00  0.00     0.124 S 
ATOM     48  O   UNL A   1      53.160  27.517  23.528  1.00  0.00    -0.237 OA
ATOM     49  O   UNL A   1      50.871  27.090  22.692  1.00  0.00    -0.237 OA
ATOM     50  O   UNL A   1      51.593  29.392  23.202  1.00  0.00    -0.744 OA
ENDBRANCH  43  47
ENDBRANCH  26  40
BRANCH  27  51
ATOM     51  C   UNL A   1      39.821  29.284  29.280  1.00  0.00     0.023 A 
ATOM     52  C   UNL A   1      39.432  29.351  30.626  1.00  0.00     0.031 A 
ATOM     53  C   UNL A   1      38.833  29.453  28.293  1.00  0.00     0.131 A 
ATOM     54  C   UNL A   1      38.084  29.566  30.950  1.00  0.00     0.055 A 
ATOM     55  C   UNL A   1      37.501  29.706  28.621  1.00  0.00     0.041 A 
ATOM     56  F   UNL A   1      39.159  29.406  26.991  1.00  0.00    -0.206 F 
ATOM     57  C   UNL A   1      37.119  29.758  29.957  1.00  0.00     0.022 A 
BRANCH  54  58
ATOM     58  S   UNL A   1      37.596  29.564  32.697  1.00  0.00     0.124 S 
ATOM     59  O   UNL A   1      38.713  30.270  33.316  1.00  0.00    -0.237 OA
ATOM     60  O   UNL A   1      36.326  30.281  32.660  1.00  0.00    -0.237 OA
ATOM     61  O   UNL A   1      37.497  28.144  33.021  1.00  0.00    -0.744 OA
ENDBRANCH  54  58
ENDBRANCH  27  51
BRANCH  39  62
ATOM     62  C   UNL A   1      45.531  33.295  29.240  1.00  0.00     0.023 A 
ATOM     63  C   UNL A   1      45.264  34.338  28.337  1.00  0.00     0.031 A 
ATOM     64  C   UNL A   1      45.983  33.625  30.530  1.00  0.00     0.131 A 
ATOM     65  C   UNL A   1      45.475  35.667  28.729  1.00  0.00     0.055 A 
ATOM     66  C   UNL A   1      46.150  34.950  30.928  1.00  0.00     0.041 A 
ATOM     67  F   UNL A   1      46.246  32.662  31.426  1.00  0.00    -0.206 F 
ATOM     68  C   UNL A   1      45.899  35.980  30.024  1.00  0.00     0.022 A 
BRANCH  65  69
ATOM     69  S   UNL A   1      45.198  36.989  27.521  1.00  0.00     0.124 S 
ATOM     70  O   UNL A   1      43.867  36.663  27.018  1.00  0.00    -0.237 OA
ATOM     71  O   UNL A   1      45.292  38.194  28.340  1.00  0.00    -0.237 OA
ATOM     72  O   UNL A   1      46.287  36.810  26.561  1.00  0.00    -0.744 OA
ENDBRANCH  65  69
ENDBRANCH  39  62
ENDBRANCH  13  14
ENDBRANCH   6   8
ENDBRANCH   3   4
ENDBRANCH   2   3
ENDBRANCH   1   2
BRANCH   1  73
ATOM     73  C   UNL A   1      37.807  22.475  25.303  1.00  0.00     0.002 C 
BRANCH  73  74
ATOM     74  C   UNL A   1      36.922  21.488  24.538  1.00  0.00     0.021 C 
BRANCH  74  75
ATOM     75  C   UNL A   1      36.119  20.526  25.403  1.00  0.00     0.116 C 
BRANCH  75  76
ATOM     76  N   UNL A   1      35.150  19.784  24.629  1.00  0.00    -0.351 N 
ATOM     77  C   UNL A   1      33.823  19.546  24.761  1.00  0.00     0.278 C 
ATOM     78  H   UNL A   1      35.538  19.359  23.830  1.00  0.00     0.163 HD
ATOM     79  O   UNL A   1      33.327  18.862  23.851  1.00  0.00    -0.268 OA
BRANCH  77  80
ATOM     80  C   UNL A   1      32.917  20.005  25.927  1.00  0.00     0.273 C 
ATOM     81  C   UNL A   1      31.987  21.122  25.449  1.00  0.00     0.088 C 
ATOM     82  N   UNL A   1      33.503  20.682  27.080  1.00  0.00    -0.336 N 
ATOM     83  C   UNL A   1      32.803  22.426  25.665  1.00  0.00     0.029 C 
ATOM     84  C   UNL A   1      33.906  22.011  26.652  1.00  0.00     0.268 C 
ATOM     85  H   UNL A   1      34.316  20.162  27.413  1.00  0.00     0.346 HD
ATOM     86  H   UNL A   1      32.827  20.741  27.842  1.00  0.00     0.346 HD
ATOM     87  C   UNL A   1      31.939  23.539  26.278  1.00  0.00     0.034 C 
ATOM     88  C   UNL A   1      33.413  22.950  24.348  1.00  0.00     0.034 C 
ATOM     89  C   UNL A   1      30.911  24.091  25.298  1.00  0.00     0.120 C 
ATOM     90  C   UNL A   1      32.348  23.499  23.402  1.00  0.00     0.120 C 
ATOM     91  N   UNL A   1      31.530  24.528  24.055  1.00  0.00    -0.342 N 
ATOM     92  C   UNL A   1      31.412  25.755  23.392  1.00  0.00     0.233 C 
ATOM     93  O   UNL A   1      32.032  25.919  22.336  1.00  0.00    -0.274 OA
BRANCH  92  94
ATOM     94  C   UNL A   1      30.568  26.947  23.857  1.00  0.00     0.077 C 
ATOM     95  C   UNL A   1      29.558  27.810  23.103  1.00  0.00     0.023 C 
ATOM     96  C   UNL A   1      29.061  26.669  23.925  1.00  0.00     0.023 C 
BRANCH  94  97
ATOM     97  C   UNL A   1      31.244  27.735  25.000  1.00  0.00     0.003 A 
ATOM     98  C   UNL A   1      31.023  27.383  26.347  1.00  0.00     0.008 A 
ATOM     99  C   UNL A   1      32.035  28.870  24.759  1.00  0.00     0.127 A 
ATOM    100  C   UNL A   1      31.562  28.134  27.394  1.00  0.00     0.001 A 
ATOM    101  C   UNL A   1      32.566  29.633  25.797  1.00  0.00     0.039 A 
ATOM    102  F   UNL A   1      32.285  29.250  23.497  1.00  0.00    -0.207 F 
ATOM    103  C   UNL A   1      32.327  29.265  27.119  1.00  0.00     0.003 A 
ENDBRANCH  94  97
ENDBRANCH  92  94
ENDBRANCH  77  80
ENDBRANCH  75  76
ENDBRANCH  74  75
ENDBRANCH  73  74
ENDBRANCH   1  73
TORSDOF 18
ENDMDL
