MODEL 1
REMARK VINA RESULT:      -9.8      0.000      0.000
REMARK SMILES CC[C@@H](Sc1nnc2ccc3ccccc3n12)C(=O)Nc1cccc(C(=O)NCCCCCCNC(=O)c2ccc(-c3c4nc(c(-c5cc(S(=O)(=O)[O-])ccc5F)c5ccc([nH]5)c(-c5cc(S(=O)(=O)[O-])ccc5F)c5nc(c(-c6cc(S(=O)(=O)[O-])ccc6F)c6ccc3[nH]6)C=C5)C=C4)cc2)c1
REMARK SMILES IDX 31 1 30 2 29 3 28 4 26 5 27 6 25 8 21 9 22 10 101 11 23 12
REMARK SMILES IDX 24 13 20 14 18 15 19 16 3 18 2 19 1 20 4 21 5 22 6 23 17 24
REMARK SMILES IDX 7 25 8 26 16 27 9 28 11 29 15 30 10 31 12 32 14 33 13 34
REMARK SMILES IDX 32 35 33 36 34 37 35 38 36 39 37 41 38 42 39 43 100 44 40 45
REMARK SMILES IDX 99 46 41 47 42 48 43 49 93 50 44 51 98 52 92 53 94 54 45 55
REMARK SMILES IDX 97 56 91 57 90 58 46 60 78 61 58 62 77 63 59 64 62 65 76 66
REMARK SMILES IDX 95 67 60 68 61 69 75 71 96 72 63 73 47 74 48 75 56 76 49 77
REMARK SMILES IDX 55 78 57 79 54 80 50 81 51 82 52 83 53 84 79 85 80 86 88 87
REMARK SMILES IDX 81 88 87 89 89 90 86 91 82 92 83 93 84 94 85 95 64 96 65 97
REMARK SMILES IDX 73 98 66 99 72 100 74 101 71 102 67 103 68 104 69 105 70 106
REMARK H PARENT 28 7 20 17 35 40 94 59 62 70
REMARK Flexibility Score: inf
ROOT
ATOM      1  C   UNL A   1      45.362  25.510  25.168  1.00  0.00     0.002 C 
ENDROOT
BRANCH   1   2
ATOM      2  C   UNL A   1      45.759  26.975  25.272  1.00  0.00     0.021 C 
BRANCH   2   3
ATOM      3  C   UNL A   1      47.132  27.279  25.840  1.00  0.00     0.116 C 
BRANCH   3   4
ATOM      4  N   UNL A   1      47.912  26.129  26.226  1.00  0.00    -0.352 N 
ATOM      5  C   UNL A   1      47.885  25.361  27.367  1.00  0.00     0.251 C 
ATOM      6  O   UNL A   1      48.652  24.395  27.404  1.00  0.00    -0.269 OA
ATOM      7  H   UNL A   1      48.578  25.846  25.559  1.00  0.00     0.163 HD
BRANCH   5   8
ATOM      8  C   UNL A   1      47.056  25.661  28.587  1.00  0.00     0.041 A 
ATOM      9  C   UNL A   1      46.814  26.478  30.857  1.00  0.00     0.041 A 
ATOM     10  C   UNL A   1      45.675  25.715  31.044  1.00  0.00     0.026 A 
ATOM     11  C   UNL A   1      47.377  26.583  29.585  1.00  0.00     0.040 A 
ATOM     12  C   UNL A   1      45.195  24.942  29.992  1.00  0.00     0.003 A 
ATOM     13  C   UNL A   1      45.924  24.861  28.800  1.00  0.00     0.014 A 
BRANCH   9  14
ATOM     14  N   UNL A   1      47.456  27.148  31.905  1.00  0.00    -0.325 N 
ATOM     15  C   UNL A   1      48.429  26.678  32.757  1.00  0.00     0.237 C 
ATOM     16  O   UNL A   1      48.946  27.517  33.509  1.00  0.00    -0.273 OA
ATOM     17  H   UNL A   1      47.173  28.079  32.054  1.00  0.00     0.169 HD
BRANCH  15  18
ATOM     18  C   UNL A   1      48.925  25.211  32.813  1.00  0.00     0.144 C 
BRANCH  18  19
ATOM     19  C   UNL A   1      50.082  24.961  31.839  1.00  0.00     0.021 C 
ATOM     20  C   UNL A   1      51.415  24.627  32.495  1.00  0.00     0.005 C 
ENDBRANCH  18  19
BRANCH  18  21
ATOM     21  S   UNL A   1      49.246  24.733  34.560  1.00  0.00    -0.072 SA
BRANCH  21  22
ATOM     22  C   UNL A   1      48.715  23.087  34.628  1.00  0.00     0.196 A 
ATOM     23  N   UNL A   1      49.555  22.077  34.681  1.00  0.00    -0.122 NA
ATOM     24  N   UNL A   1      47.408  22.619  34.634  1.00  0.00    -0.270 N 
ATOM     25  N   UNL A   1      48.828  20.914  34.722  1.00  0.00    -0.129 NA
ATOM     26  C   UNL A   1      47.554  21.234  34.707  1.00  0.00     0.161 A 
ATOM     27  C   UNL A   1      46.129  23.249  34.666  1.00  0.00     0.057 A 
ATOM     28  C   UNL A   1      46.406  20.408  34.785  1.00  0.00     0.050 A 
ATOM     29  C   UNL A   1      45.013  22.404  34.844  1.00  0.00    -0.001 A 
ATOM     30  C   UNL A   1      45.931  24.622  34.563  1.00  0.00     0.027 A 
ATOM     31  C   UNL A   1      45.184  20.948  34.867  1.00  0.00     0.014 A 
ATOM     32  C   UNL A   1      43.733  22.952  34.988  1.00  0.00     0.010 A 
ATOM     33  C   UNL A   1      44.646  25.155  34.698  1.00  0.00     0.002 A 
ATOM     34  C   UNL A   1      43.553  24.331  34.931  1.00  0.00     0.001 A 
ENDBRANCH  21  22
ENDBRANCH  18  21
ENDBRANCH  15  18
ENDBRANCH   9  14
ENDBRANCH   5   8
ENDBRANCH   3   4
ENDBRANCH   2   3
ENDBRANCH   1   2
BRANCH   1  35
ATOM     35  C   UNL A   1      43.875  25.190  25.337  1.00  0.00     0.002 C 
BRANCH  35  36
ATOM     36  C   UNL A   1      43.382  23.859  24.753  1.00  0.00     0.021 C 
BRANCH  36  37
ATOM     37  C   UNL A   1      43.282  22.702  25.745  1.00  0.00     0.116 C 
BRANCH  37  38
ATOM     38  N   UNL A   1      41.955  22.150  25.876  1.00  0.00    -0.352 N 
ATOM     39  C   UNL A   1      40.772  22.600  26.387  1.00  0.00     0.251 C 
ATOM     40  H   UNL A   1      41.888  21.237  25.512  1.00  0.00     0.163 HD
ATOM     41  O   UNL A   1      39.803  21.854  26.228  1.00  0.00    -0.269 OA
BRANCH  39  42
ATOM     42  C   UNL A   1      40.612  23.848  27.174  1.00  0.00     0.039 A 
ATOM     43  C   UNL A   1      39.581  24.778  27.025  1.00  0.00     0.014 A 
ATOM     44  C   UNL A   1      41.641  24.117  28.095  1.00  0.00     0.014 A 
ATOM     45  C   UNL A   1      39.654  26.008  27.660  1.00  0.00     0.010 A 
ATOM     46  C   UNL A   1      41.703  25.333  28.758  1.00  0.00     0.010 A 
ATOM     47  C   UNL A   1      40.743  26.299  28.481  1.00  0.00    -0.014 A 
BRANCH  47  48
ATOM     48  C   UNL A   1      40.782  27.611  29.108  1.00  0.00     0.031 A 
ATOM     49  C   UNL A   1      41.766  28.548  28.493  1.00  0.00     0.074 A 
ATOM     50  C   UNL A   1      39.924  27.963  30.086  1.00  0.00     0.049 A 
ATOM     51  N   UNL A   1      42.815  29.078  29.034  1.00  0.00    -0.248 NA
ATOM     52  C   UNL A   1      41.660  28.784  27.044  1.00  0.00     0.031 C 
ATOM     53  C   UNL A   1      38.728  27.245  30.536  1.00  0.00     0.029 A 
ATOM     54  N   UNL A   1      39.865  29.113  30.808  1.00  0.00    -0.354 N 
ATOM     55  C   UNL A   1      43.391  29.882  28.047  1.00  0.00     0.074 A 
ATOM     56  C   UNL A   1      42.748  29.519  26.811  1.00  0.00     0.031 C 
ATOM     57  C   UNL A   1      37.934  28.096  31.224  1.00  0.00     0.029 A 
ATOM     58  C   UNL A   1      38.627  29.364  31.380  1.00  0.00     0.049 A 
ATOM     59  H   UNL A   1      40.636  29.716  30.916  1.00  0.00     0.167 HD
ATOM     60  C   UNL A   1      44.207  30.931  28.358  1.00  0.00     0.034 A 
ATOM     61  C   UNL A   1      38.169  30.570  31.809  1.00  0.00     0.034 A 
ATOM     62  C   UNL A   1      44.660  30.845  29.718  1.00  0.00     0.049 A 
ATOM     63  C   UNL A   1      39.342  31.470  31.970  1.00  0.00     0.074 A 
ATOM     64  C   UNL A   1      45.418  29.936  30.428  1.00  0.00     0.029 A 
ATOM     65  N   UNL A   1      44.006  31.608  30.656  1.00  0.00    -0.354 N 
ATOM     66  N   UNL A   1      40.254  31.320  32.889  1.00  0.00    -0.248 NA
ATOM     67  C   UNL A   1      39.749  32.240  30.799  1.00  0.00     0.031 C 
ATOM     68  C   UNL A   1      44.797  29.866  31.705  1.00  0.00     0.029 A 
ATOM     69  C   UNL A   1      43.758  30.800  31.735  1.00  0.00     0.049 A 
ATOM     70  H   UNL A   1      43.761  32.558  30.570  1.00  0.00     0.167 HD
ATOM     71  C   UNL A   1      41.450  31.555  32.225  1.00  0.00     0.074 A 
ATOM     72  C   UNL A   1      41.073  32.188  30.962  1.00  0.00     0.031 C 
ATOM     73  C   UNL A   1      42.611  30.946  32.604  1.00  0.00     0.034 A 
BRANCH  60  74
ATOM     74  C   UNL A   1      44.310  32.203  27.547  1.00  0.00     0.023 A 
ATOM     75  C   UNL A   1      43.658  33.398  27.901  1.00  0.00     0.031 A 
ATOM     76  C   UNL A   1      45.267  32.315  26.515  1.00  0.00     0.131 A 
ATOM     77  C   UNL A   1      43.951  34.615  27.272  1.00  0.00     0.055 A 
ATOM     78  C   UNL A   1      45.610  33.541  25.931  1.00  0.00     0.041 A 
ATOM     79  F   UNL A   1      45.950  31.242  26.083  1.00  0.00    -0.206 F 
ATOM     80  C   UNL A   1      44.953  34.702  26.313  1.00  0.00     0.022 A 
BRANCH  77  81
ATOM     81  S   UNL A   1      43.039  36.119  27.713  1.00  0.00     0.124 S 
ATOM     82  O   UNL A   1      43.695  37.123  26.890  1.00  0.00    -0.237 OA
ATOM     83  O   UNL A   1      41.678  35.764  27.325  1.00  0.00    -0.237 OA
ATOM     84  O   UNL A   1      43.256  36.237  29.158  1.00  0.00    -0.744 OA
ENDBRANCH  77  81
ENDBRANCH  60  74
BRANCH  61  85
ATOM     85  C   UNL A   1      36.822  31.121  31.501  1.00  0.00     0.023 A 
ATOM     86  C   UNL A   1      36.407  31.235  30.161  1.00  0.00     0.031 A 
ATOM     87  C   UNL A   1      36.086  31.838  32.461  1.00  0.00     0.131 A 
ATOM     88  C   UNL A   1      35.350  32.079  29.804  1.00  0.00     0.055 A 
ATOM     89  C   UNL A   1      35.012  32.666  32.106  1.00  0.00     0.041 A 
ATOM     90  F   UNL A   1      36.445  31.810  33.754  1.00  0.00    -0.206 F 
ATOM     91  C   UNL A   1      34.650  32.804  30.768  1.00  0.00     0.022 A 
BRANCH  88  92
ATOM     92  S   UNL A   1      34.948  32.327  28.053  1.00  0.00     0.124 S 
ATOM     93  O   UNL A   1      33.641  32.977  28.122  1.00  0.00    -0.237 OA
ATOM     94  O   UNL A   1      36.051  33.172  27.613  1.00  0.00    -0.237 OA
ATOM     95  O   UNL A   1      34.932  30.969  27.512  1.00  0.00    -0.744 OA
ENDBRANCH  88  92
ENDBRANCH  61  85
BRANCH  73  96
ATOM     96  C   UNL A   1      42.663  30.161  33.894  1.00  0.00     0.023 A 
ATOM     97  C   UNL A   1      43.294  30.791  34.980  1.00  0.00     0.031 A 
ATOM     98  C   UNL A   1      42.377  28.788  34.016  1.00  0.00     0.131 A 
ATOM     99  C   UNL A   1      43.678  30.055  36.103  1.00  0.00     0.055 A 
ATOM    100  C   UNL A   1      42.690  28.071  35.176  1.00  0.00     0.041 A 
ATOM    101  F   UNL A   1      41.882  28.078  32.994  1.00  0.00    -0.206 F 
ATOM    102  C   UNL A   1      43.365  28.699  36.218  1.00  0.00     0.022 A 
BRANCH  99 103
ATOM    103  S   UNL A   1      44.766  30.805  37.341  1.00  0.00     0.124 S 
ATOM    104  O   UNL A   1      45.716  31.538  36.510  1.00  0.00    -0.237 OA
ATOM    105  O   UNL A   1      43.838  31.633  38.111  1.00  0.00    -0.237 OA
ATOM    106  O   UNL A   1      45.318  29.665  38.067  1.00  0.00    -0.744 OA
ENDBRANCH  99 103
ENDBRANCH  73  96
ENDBRANCH  47  48
ENDBRANCH  39  42
ENDBRANCH  37  38
ENDBRANCH  36  37
ENDBRANCH  35  36
ENDBRANCH   1  35
TORSDOF 21
ENDMDL
MODEL 2
REMARK VINA RESULT:      -9.7      3.381     10.982
REMARK SMILES CC[C@@H](Sc1nnc2ccc3ccccc3n12)C(=O)Nc1cccc(C(=O)NCCCCCCNC(=O)c2ccc(-c3c4nc(c(-c5cc(S(=O)(=O)[O-])ccc5F)c5ccc([nH]5)c(-c5cc(S(=O)(=O)[O-])ccc5F)c5nc(c(-c6cc(S(=O)(=O)[O-])ccc6F)c6ccc3[nH]6)C=C5)C=C4)cc2)c1
REMARK SMILES IDX 31 1 30 2 29 3 28 4 26 5 27 6 25 8 21 9 22 10 101 11 23 12
REMARK SMILES IDX 24 13 20 14 18 15 19 16 3 18 2 19 1 20 4 21 5 22 6 23 17 24
REMARK SMILES IDX 7 25 8 26 16 27 9 28 11 29 15 30 10 31 12 32 14 33 13 34
REMARK SMILES IDX 32 35 33 36 34 37 35 38 36 39 37 41 38 42 39 43 100 44 40 45
REMARK SMILES IDX 99 46 41 47 42 48 43 49 93 50 44 51 98 52 92 53 94 54 45 55
REMARK SMILES IDX 97 56 91 57 90 58 46 60 78 61 58 62 77 63 59 64 62 65 76 66
REMARK SMILES IDX 95 67 60 68 61 69 75 71 96 72 63 73 47 74 48 75 56 76 49 77
REMARK SMILES IDX 55 78 57 79 54 80 50 81 51 82 52 83 53 84 79 85 80 86 88 87
REMARK SMILES IDX 81 88 87 89 89 90 86 91 82 92 83 93 84 94 85 95 64 96 65 97
REMARK SMILES IDX 73 98 66 99 72 100 74 101 71 102 67 103 68 104 69 105 70 106
REMARK H PARENT 28 7 20 17 35 40 94 59 62 70
REMARK Flexibility Score: inf
ROOT
ATOM      1  C   UNL A   1      41.253  23.895  28.260  1.00  0.00     0.002 C 
ENDROOT
BRANCH   1   2
ATOM      2  C   UNL A   1      39.902  23.767  27.570  1.00  0.00     0.021 C 
BRANCH   2   3
ATOM      3  C   UNL A   1      39.373  24.996  26.858  1.00  0.00     0.116 C 
BRANCH   3   4
ATOM      4  N   UNL A   1      40.356  26.003  26.544  1.00  0.00    -0.352 N 
ATOM      5  C   UNL A   1      40.580  27.247  27.089  1.00  0.00     0.251 C 
ATOM      6  O   UNL A   1      41.537  27.884  26.641  1.00  0.00    -0.269 OA
ATOM      7  H   UNL A   1      40.970  25.761  25.815  1.00  0.00     0.163 HD
BRANCH   5   8
ATOM      8  C   UNL A   1      39.702  27.906  28.119  1.00  0.00     0.041 A 
ATOM      9  C   UNL A   1      38.845  29.869  29.253  1.00  0.00     0.041 A 
ATOM     10  C   UNL A   1      38.520  29.121  30.371  1.00  0.00     0.026 A 
ATOM     11  C   UNL A   1      39.256  29.228  28.085  1.00  0.00     0.040 A 
ATOM     12  C   UNL A   1      38.753  27.750  30.361  1.00  0.00     0.003 A 
ATOM     13  C   UNL A   1      39.407  27.163  29.272  1.00  0.00     0.014 A 
BRANCH   9  14
ATOM     14  N   UNL A   1      38.802  31.269  29.242  1.00  0.00    -0.325 N 
ATOM     15  C   UNL A   1      37.700  32.094  29.211  1.00  0.00     0.237 C 
ATOM     16  O   UNL A   1      37.922  33.304  29.360  1.00  0.00    -0.273 OA
ATOM     17  H   UNL A   1      39.674  31.723  29.257  1.00  0.00     0.169 HD
BRANCH  15  18
ATOM     18  C   UNL A   1      36.238  31.615  29.036  1.00  0.00     0.144 C 
BRANCH  18  19
ATOM     19  C   UNL A   1      36.058  30.780  27.762  1.00  0.00     0.021 C 
ATOM     20  C   UNL A   1      35.377  29.434  27.966  1.00  0.00     0.005 C 
ENDBRANCH  18  19
BRANCH  18  21
ATOM     21  S   UNL A   1      35.655  30.821  30.589  1.00  0.00    -0.072 SA
BRANCH  21  22
ATOM     22  C   UNL A   1      35.187  32.164  31.574  1.00  0.00     0.196 A 
ATOM     23  N   UNL A   1      34.178  32.949  31.262  1.00  0.00    -0.122 NA
ATOM     24  N   UNL A   1      35.769  32.588  32.760  1.00  0.00    -0.270 N 
ATOM     25  N   UNL A   1      34.067  33.912  32.232  1.00  0.00    -0.129 NA
ATOM     26  C   UNL A   1      35.002  33.692  33.129  1.00  0.00     0.161 A 
ATOM     27  C   UNL A   1      36.818  32.085  33.585  1.00  0.00     0.057 A 
ATOM     28  C   UNL A   1      35.277  34.369  34.342  1.00  0.00     0.050 A 
ATOM     29  C   UNL A   1      37.001  32.721  34.832  1.00  0.00    -0.001 A 
ATOM     30  C   UNL A   1      37.631  31.009  33.247  1.00  0.00     0.027 A 
ATOM     31  C   UNL A   1      36.218  33.911  35.177  1.00  0.00     0.014 A 
ATOM     32  C   UNL A   1      37.940  32.223  35.743  1.00  0.00     0.010 A 
ATOM     33  C   UNL A   1      38.574  30.529  34.161  1.00  0.00     0.002 A 
ATOM     34  C   UNL A   1      38.715  31.116  35.412  1.00  0.00     0.001 A 
ENDBRANCH  21  22
ENDBRANCH  18  21
ENDBRANCH  15  18
ENDBRANCH   9  14
ENDBRANCH   5   8
ENDBRANCH   3   4
ENDBRANCH   2   3
ENDBRANCH   1   2
BRANCH   1  35
ATOM     35  C   UNL A   1      42.363  22.963  27.771  1.00  0.00     0.002 C 
BRANCH  35  36
ATOM     36  C   UNL A   1      41.969  21.901  26.734  1.00  0.00     0.021 C 
BRANCH  36  37
ATOM     37  C   UNL A   1      43.124  21.076  26.167  1.00  0.00     0.116 C 
BRANCH  37  38
ATOM     38  N   UNL A   1      43.487  21.422  24.814  1.00  0.00    -0.352 N 
ATOM     39  C   UNL A   1      44.251  22.397  24.242  1.00  0.00     0.251 C 
ATOM     40  H   UNL A   1      43.090  20.813  24.149  1.00  0.00     0.163 HD
ATOM     41  O   UNL A   1      44.407  22.308  23.022  1.00  0.00    -0.269 OA
BRANCH  39  42
ATOM     42  C   UNL A   1      44.810  23.566  24.967  1.00  0.00     0.039 A 
ATOM     43  C   UNL A   1      46.045  23.607  25.616  1.00  0.00     0.014 A 
ATOM     44  C   UNL A   1      43.968  24.690  25.040  1.00  0.00     0.014 A 
ATOM     45  C   UNL A   1      46.365  24.674  26.441  1.00  0.00     0.010 A 
ATOM     46  C   UNL A   1      44.296  25.775  25.837  1.00  0.00     0.010 A 
ATOM     47  C   UNL A   1      45.463  25.728  26.589  1.00  0.00    -0.014 A 
BRANCH  47  48
ATOM     48  C   UNL A   1      45.838  26.814  27.482  1.00  0.00     0.031 A 
ATOM     49  C   UNL A   1      45.167  26.763  28.812  1.00  0.00     0.074 A 
ATOM     50  C   UNL A   1      46.786  27.714  27.156  1.00  0.00     0.049 A 
ATOM     51  N   UNL A   1      44.340  27.615  29.327  1.00  0.00    -0.248 NA
ATOM     52  C   UNL A   1      45.302  25.522  29.591  1.00  0.00     0.031 C 
ATOM     53  C   UNL A   1      47.721  27.669  26.028  1.00  0.00     0.029 A 
ATOM     54  N   UNL A   1      47.207  28.809  27.842  1.00  0.00    -0.354 N 
ATOM     55  C   UNL A   1      44.008  27.115  30.588  1.00  0.00     0.074 A 
ATOM     56  C   UNL A   1      44.481  25.756  30.615  1.00  0.00     0.031 C 
ATOM     57  C   UNL A   1      48.752  28.508  26.273  1.00  0.00     0.029 A 
ATOM     58  C   UNL A   1      48.478  29.245  27.496  1.00  0.00     0.049 A 
ATOM     59  H   UNL A   1      46.657  29.255  28.525  1.00  0.00     0.167 HD
ATOM     60  C   UNL A   1      43.555  27.925  31.589  1.00  0.00     0.034 A 
ATOM     61  C   UNL A   1      49.289  30.037  28.247  1.00  0.00     0.034 A 
ATOM     62  C   UNL A   1      43.132  29.196  31.069  1.00  0.00     0.049 A 
ATOM     63  C   UNL A   1      48.446  30.705  29.274  1.00  0.00     0.074 A 
ATOM     64  C   UNL A   1      42.153  29.600  30.184  1.00  0.00     0.029 A 
ATOM     65  N   UNL A   1      44.009  30.250  31.172  1.00  0.00    -0.354 N 
ATOM     66  N   UNL A   1      47.554  31.617  29.003  1.00  0.00    -0.248 NA
ATOM     67  C   UNL A   1      48.261  29.999  30.537  1.00  0.00     0.031 C 
ATOM     68  C   UNL A   1      42.757  30.643  29.429  1.00  0.00     0.029 A 
ATOM     69  C   UNL A   1      44.029  30.880  29.955  1.00  0.00     0.049 A 
ATOM     70  H   UNL A   1      44.527  30.504  31.970  1.00  0.00     0.167 HD
ATOM     71  C   UNL A   1      46.469  31.280  29.798  1.00  0.00     0.074 A 
ATOM     72  C   UNL A   1      46.987  30.321  30.774  1.00  0.00     0.031 C 
ATOM     73  C   UNL A   1      45.188  31.559  29.418  1.00  0.00     0.034 A 
BRANCH  60  74
ATOM     74  C   UNL A   1      43.820  27.698  33.060  1.00  0.00     0.023 A 
ATOM     75  C   UNL A   1      42.800  27.464  34.000  1.00  0.00     0.031 A 
ATOM     76  C   UNL A   1      45.136  27.473  33.521  1.00  0.00     0.131 A 
ATOM     77  C   UNL A   1      43.079  27.029  35.302  1.00  0.00     0.055 A 
ATOM     78  C   UNL A   1      45.414  26.975  34.800  1.00  0.00     0.041 A 
ATOM     79  F   UNL A   1      46.194  27.669  32.719  1.00  0.00    -0.206 F 
ATOM     80  C   UNL A   1      44.381  26.745  35.698  1.00  0.00     0.022 A 
BRANCH  77  81
ATOM     81  S   UNL A   1      41.739  26.803  36.502  1.00  0.00     0.124 S 
ATOM     82  O   UNL A   1      40.941  25.763  35.875  1.00  0.00    -0.237 OA
ATOM     83  O   UNL A   1      42.478  26.409  37.698  1.00  0.00    -0.237 OA
ATOM     84  O   UNL A   1      41.119  28.130  36.573  1.00  0.00    -0.744 OA
ENDBRANCH  77  81
ENDBRANCH  60  74
BRANCH  61  85
ATOM     85  C   UNL A   1      50.731  29.772  28.498  1.00  0.00     0.023 A 
ATOM     86  C   UNL A   1      51.143  28.487  28.899  1.00  0.00     0.031 A 
ATOM     87  C   UNL A   1      51.648  30.823  28.678  1.00  0.00     0.131 A 
ATOM     88  C   UNL A   1      52.386  28.288  29.509  1.00  0.00     0.055 A 
ATOM     89  C   UNL A   1      52.903  30.619  29.269  1.00  0.00     0.041 A 
ATOM     90  F   UNL A   1      51.312  32.081  28.355  1.00  0.00    -0.206 F 
ATOM     91  C   UNL A   1      53.271  29.348  29.704  1.00  0.00     0.022 A 
BRANCH  88  92
ATOM     92  S   UNL A   1      52.817  26.651  30.160  1.00  0.00     0.124 S 
ATOM     93  O   UNL A   1      53.932  26.258  29.301  1.00  0.00    -0.237 OA
ATOM     94  O   UNL A   1      53.164  26.964  31.541  1.00  0.00    -0.237 OA
ATOM     95  O   UNL A   1      51.591  25.877  29.971  1.00  0.00    -0.744 OA
ENDBRANCH  88  92
ENDBRANCH  61  85
BRANCH  73  96
ATOM     96  C   UNL A   1      44.935  32.434  28.213  1.00  0.00     0.023 A 
ATOM     97  C   UNL A   1      44.494  33.743  28.478  1.00  0.00     0.031 A 
ATOM     98  C   UNL A   1      44.850  31.976  26.886  1.00  0.00     0.131 A 
ATOM     99  C   UNL A   1      43.932  34.521  27.463  1.00  0.00     0.055 A 
ATOM    100  C   UNL A   1      44.362  32.789  25.856  1.00  0.00     0.041 A 
ATOM    101  F   UNL A   1      45.139  30.710  26.557  1.00  0.00    -0.206 F 
ATOM    102  C   UNL A   1      43.878  34.060  26.146  1.00  0.00     0.022 A 
BRANCH  99 103
ATOM    103  S   UNL A   1      43.082  36.065  27.881  1.00  0.00     0.124 S 
ATOM    104  O   UNL A   1      41.853  35.580  28.500  1.00  0.00    -0.237 OA
ATOM    105  O   UNL A   1      44.031  36.708  28.789  1.00  0.00    -0.237 OA
ATOM    106  O   UNL A   1      42.913  36.736  26.595  1.00  0.00    -0.744 OA
ENDBRANCH  99 103
ENDBRANCH  73  96
ENDBRANCH  47  48
ENDBRANCH  39  42
ENDBRANCH  37  38
ENDBRANCH  36  37
ENDBRANCH  35  36
ENDBRANCH   1  35
TORSDOF 21
ENDMDL
MODEL 3
REMARK VINA RESULT:      -9.5      3.831     11.551
REMARK SMILES CC[C@@H](Sc1nnc2ccc3ccccc3n12)C(=O)Nc1cccc(C(=O)NCCCCCCNC(=O)c2ccc(-c3c4nc(c(-c5cc(S(=O)(=O)[O-])ccc5F)c5ccc([nH]5)c(-c5cc(S(=O)(=O)[O-])ccc5F)c5nc(c(-c6cc(S(=O)(=O)[O-])ccc6F)c6ccc3[nH]6)C=C5)C=C4)cc2)c1
REMARK SMILES IDX 31 1 30 2 29 3 28 4 26 5 27 6 25 8 21 9 22 10 101 11 23 12
REMARK SMILES IDX 24 13 20 14 18 15 19 16 3 18 2 19 1 20 4 21 5 22 6 23 17 24
REMARK SMILES IDX 7 25 8 26 16 27 9 28 11 29 15 30 10 31 12 32 14 33 13 34
REMARK SMILES IDX 32 35 33 36 34 37 35 38 36 39 37 41 38 42 39 43 100 44 40 45
REMARK SMILES IDX 99 46 41 47 42 48 43 49 93 50 44 51 98 52 92 53 94 54 45 55
REMARK SMILES IDX 97 56 91 57 90 58 46 60 78 61 58 62 77 63 59 64 62 65 76 66
REMARK SMILES IDX 95 67 60 68 61 69 75 71 96 72 63 73 47 74 48 75 56 76 49 77
REMARK SMILES IDX 55 78 57 79 54 80 50 81 51 82 52 83 53 84 79 85 80 86 88 87
REMARK SMILES IDX 81 88 87 89 89 90 86 91 82 92 83 93 84 94 85 95 64 96 65 97
REMARK SMILES IDX 73 98 66 99 72 100 74 101 71 102 67 103 68 104 69 105 70 106
REMARK H PARENT 28 7 20 17 35 40 94 59 62 70
REMARK Flexibility Score: inf
ROOT
ATOM      1  C   UNL A   1      37.079  30.973  32.899  1.00  0.00     0.002 C 
ENDROOT
BRANCH   1   2
ATOM      2  C   UNL A   1      38.504  31.358  33.265  1.00  0.00     0.021 C 
BRANCH   2   3
ATOM      3  C   UNL A   1      38.844  32.836  33.254  1.00  0.00     0.116 C 
BRANCH   3   4
ATOM      4  N   UNL A   1      39.572  33.314  34.403  1.00  0.00    -0.352 N 
ATOM      5  C   UNL A   1      40.879  33.720  34.539  1.00  0.00     0.251 C 
ATOM      6  O   UNL A   1      41.221  34.126  35.653  1.00  0.00    -0.269 OA
ATOM      7  H   UNL A   1      39.044  33.356  35.233  1.00  0.00     0.163 HD
BRANCH   5   8
ATOM      8  C   UNL A   1      41.926  33.625  33.461  1.00  0.00     0.041 A 
ATOM      9  C   UNL A   1      44.066  34.239  32.502  1.00  0.00     0.041 A 
ATOM     10  C   UNL A   1      43.629  33.904  31.232  1.00  0.00     0.026 A 
ATOM     11  C   UNL A   1      43.281  33.923  33.610  1.00  0.00     0.040 A 
ATOM     12  C   UNL A   1      42.345  33.394  31.069  1.00  0.00     0.003 A 
ATOM     13  C   UNL A   1      41.479  33.327  32.165  1.00  0.00     0.014 A 
BRANCH   9  14
ATOM     14  N   UNL A   1      45.272  34.911  32.733  1.00  0.00    -0.325 N 
ATOM     15  C   UNL A   1      45.508  36.267  32.760  1.00  0.00     0.237 C 
ATOM     16  O   UNL A   1      46.637  36.616  33.137  1.00  0.00    -0.273 OA
ATOM     17  H   UNL A   1      46.055  34.339  32.898  1.00  0.00     0.169 HD
BRANCH  15  18
ATOM     18  C   UNL A   1      44.472  37.356  32.385  1.00  0.00     0.144 C 
BRANCH  18  19
ATOM     19  C   UNL A   1      43.484  37.622  33.527  1.00  0.00     0.021 C 
ATOM     20  C   UNL A   1      44.016  37.319  34.921  1.00  0.00     0.005 C 
ENDBRANCH  18  19
BRANCH  18  21
ATOM     21  S   UNL A   1      45.341  38.839  31.731  1.00  0.00    -0.072 SA
BRANCH  21  22
ATOM     22  C   UNL A   1      44.046  39.887  31.264  1.00  0.00     0.196 A 
ATOM     23  N   UNL A   1      43.745  40.979  31.934  1.00  0.00    -0.122 NA
ATOM     24  N   UNL A   1      43.186  39.741  30.184  1.00  0.00    -0.270 N 
ATOM     25  N   UNL A   1      42.679  41.582  31.318  1.00  0.00    -0.129 NA
ATOM     26  C   UNL A   1      42.354  40.857  30.271  1.00  0.00     0.161 A 
ATOM     27  C   UNL A   1      43.097  38.813  29.106  1.00  0.00     0.057 A 
ATOM     28  C   UNL A   1      41.362  41.075  29.285  1.00  0.00     0.050 A 
ATOM     29  C   UNL A   1      42.166  39.113  28.088  1.00  0.00    -0.001 A 
ATOM     30  C   UNL A   1      43.881  37.670  28.991  1.00  0.00     0.027 A 
ATOM     31  C   UNL A   1      41.266  40.262  28.226  1.00  0.00     0.014 A 
ATOM     32  C   UNL A   1      42.089  38.307  26.946  1.00  0.00     0.010 A 
ATOM     33  C   UNL A   1      43.786  36.867  27.851  1.00  0.00     0.002 A 
ATOM     34  C   UNL A   1      42.913  37.192  26.821  1.00  0.00     0.001 A 
ENDBRANCH  21  22
ENDBRANCH  18  21
ENDBRANCH  15  18
ENDBRANCH   9  14
ENDBRANCH   5   8
ENDBRANCH   3   4
ENDBRANCH   2   3
ENDBRANCH   1   2
BRANCH   1  35
ATOM     35  C   UNL A   1      36.047  32.102  32.882  1.00  0.00     0.002 C 
BRANCH  35  36
ATOM     36  C   UNL A   1      35.078  32.137  31.691  1.00  0.00     0.021 C 
BRANCH  36  37
ATOM     37  C   UNL A   1      34.985  33.475  30.959  1.00  0.00     0.116 C 
BRANCH  37  38
ATOM     38  N   UNL A   1      35.065  33.368  29.522  1.00  0.00    -0.352 N 
ATOM     39  C   UNL A   1      35.827  32.644  28.652  1.00  0.00     0.251 C 
ATOM     40  H   UNL A   1      34.420  33.954  29.063  1.00  0.00     0.163 HD
ATOM     41  O   UNL A   1      35.531  32.755  27.461  1.00  0.00    -0.269 OA
BRANCH  39  42
ATOM     42  C   UNL A   1      37.007  31.830  29.039  1.00  0.00     0.039 A 
ATOM     43  C   UNL A   1      38.201  32.325  29.565  1.00  0.00     0.014 A 
ATOM     44  C   UNL A   1      36.900  30.451  28.779  1.00  0.00     0.014 A 
ATOM     45  C   UNL A   1      39.308  31.498  29.683  1.00  0.00     0.010 A 
ATOM     46  C   UNL A   1      37.993  29.612  28.925  1.00  0.00     0.010 A 
ATOM     47  C   UNL A   1      39.211  30.157  29.310  1.00  0.00    -0.014 A 
BRANCH  47  48
ATOM     48  C   UNL A   1      40.407  29.337  29.434  1.00  0.00     0.031 A 
ATOM     49  C   UNL A   1      40.724  28.936  30.835  1.00  0.00     0.074 A 
ATOM     50  C   UNL A   1      41.092  28.902  28.358  1.00  0.00     0.049 A 
ATOM     51  N   UNL A   1      41.762  29.245  31.543  1.00  0.00    -0.248 NA
ATOM     52  C   UNL A   1      39.669  28.248  31.597  1.00  0.00     0.031 C 
ATOM     53  C   UNL A   1      40.692  28.968  26.950  1.00  0.00     0.029 A 
ATOM     54  N   UNL A   1      42.247  28.188  28.303  1.00  0.00    -0.354 N 
ATOM     55  C   UNL A   1      41.586  28.617  32.778  1.00  0.00     0.074 A 
ATOM     56  C   UNL A   1      40.215  28.179  32.811  1.00  0.00     0.031 C 
ATOM     57  C   UNL A   1      41.429  28.084  26.239  1.00  0.00     0.029 A 
ATOM     58  C   UNL A   1      42.437  27.504  27.111  1.00  0.00     0.049 A 
ATOM     59  H   UNL A   1      42.892  28.158  29.046  1.00  0.00     0.167 HD
ATOM     60  C   UNL A   1      42.640  28.322  33.593  1.00  0.00     0.034 A 
ATOM     61  C   UNL A   1      43.263  26.442  26.916  1.00  0.00     0.034 A 
ATOM     62  C   UNL A   1      43.814  29.050  33.199  1.00  0.00     0.049 A 
ATOM     63  C   UNL A   1      44.234  26.409  28.043  1.00  0.00     0.074 A 
ATOM     64  C   UNL A   1      44.139  30.389  33.122  1.00  0.00     0.029 A 
ATOM     65  N   UNL A   1      44.748  28.388  32.438  1.00  0.00    -0.354 N 
ATOM     66  N   UNL A   1      45.171  27.297  28.222  1.00  0.00    -0.248 NA
ATOM     67  C   UNL A   1      43.841  25.661  29.231  1.00  0.00     0.031 C 
ATOM     68  C   UNL A   1      44.916  30.504  31.936  1.00  0.00     0.029 A 
ATOM     69  C   UNL A   1      45.098  29.224  31.410  1.00  0.00     0.049 A 
ATOM     70  H   UNL A   1      45.100  27.482  32.600  1.00  0.00     0.167 HD
ATOM     71  C   UNL A   1      45.149  27.547  29.586  1.00  0.00     0.074 A 
ATOM     72  C   UNL A   1      44.362  26.458  30.166  1.00  0.00     0.031 C 
ATOM     73  C   UNL A   1      45.498  28.763  30.098  1.00  0.00     0.034 A 
BRANCH  60  74
ATOM     74  C   UNL A   1      42.699  27.126  34.517  1.00  0.00     0.023 A 
ATOM     75  C   UNL A   1      43.359  25.929  34.186  1.00  0.00     0.031 A 
ATOM     76  C   UNL A   1      42.289  27.244  35.863  1.00  0.00     0.131 A 
ATOM     77  C   UNL A   1      43.598  24.929  35.138  1.00  0.00     0.055 A 
ATOM     78  C   UNL A   1      42.586  26.276  36.831  1.00  0.00     0.041 A 
ATOM     79  F   UNL A   1      41.643  28.337  36.297  1.00  0.00    -0.206 F 
ATOM     80  C   UNL A   1      43.249  25.112  36.471  1.00  0.00     0.022 A 
BRANCH  77  81
ATOM     81  S   UNL A   1      44.394  23.373  34.656  1.00  0.00     0.124 S 
ATOM     82  O   UNL A   1      44.438  22.650  35.917  1.00  0.00    -0.237 OA
ATOM     83  O   UNL A   1      43.459  22.861  33.658  1.00  0.00    -0.237 OA
ATOM     84  O   UNL A   1      45.689  23.804  34.121  1.00  0.00    -0.744 OA
ENDBRANCH  77  81
ENDBRANCH  60  74
BRANCH  61  85
ATOM     85  C   UNL A   1      42.880  25.193  26.203  1.00  0.00     0.023 A 
ATOM     86  C   UNL A   1      41.733  24.485  26.607  1.00  0.00     0.031 A 
ATOM     87  C   UNL A   1      43.790  24.516  25.372  1.00  0.00     0.131 A 
ATOM     88  C   UNL A   1      41.550  23.146  26.247  1.00  0.00     0.055 A 
ATOM     89  C   UNL A   1      43.595  23.181  24.992  1.00  0.00     0.041 A 
ATOM     90  F   UNL A   1      44.925  25.113  24.977  1.00  0.00    -0.206 F 
ATOM     91  C   UNL A   1      42.478  22.483  25.444  1.00  0.00     0.022 A 
BRANCH  88  92
ATOM     92  S   UNL A   1      40.145  22.217  26.919  1.00  0.00     0.124 S 
ATOM     93  O   UNL A   1      39.201  23.282  27.257  1.00  0.00    -0.237 OA
ATOM     94  O   UNL A   1      39.773  21.381  25.784  1.00  0.00    -0.237 OA
ATOM     95  O   UNL A   1      40.717  21.516  28.066  1.00  0.00    -0.744 OA
ENDBRANCH  88  92
ENDBRANCH  61  85
BRANCH  73  96
ATOM     96  C   UNL A   1      46.122  29.806  29.200  1.00  0.00     0.023 A 
ATOM     97  C   UNL A   1      45.232  30.662  28.529  1.00  0.00     0.031 A 
ATOM     98  C   UNL A   1      47.467  29.815  28.787  1.00  0.00     0.131 A 
ATOM     99  C   UNL A   1      45.666  31.435  27.450  1.00  0.00     0.055 A 
ATOM    100  C   UNL A   1      47.916  30.652  27.758  1.00  0.00     0.041 A 
ATOM    101  F   UNL A   1      48.364  28.955  29.287  1.00  0.00    -0.206 F 
ATOM    102  C   UNL A   1      47.010  31.450  27.069  1.00  0.00     0.022 A 
BRANCH  99 103
ATOM    103  S   UNL A   1      44.454  32.279  26.403  1.00  0.00     0.124 S 
ATOM    104  O   UNL A   1      45.253  32.631  25.233  1.00  0.00    -0.237 OA
ATOM    105  O   UNL A   1      43.450  31.237  26.186  1.00  0.00    -0.237 OA
ATOM    106  O   UNL A   1      44.004  33.404  27.216  1.00  0.00    -0.744 OA
ENDBRANCH  99 103
ENDBRANCH  73  96
ENDBRANCH  47  48
ENDBRANCH  39  42
ENDBRANCH  37  38
ENDBRANCH  36  37
ENDBRANCH  35  36
ENDBRANCH   1  35
TORSDOF 21
ENDMDL
