MODEL 1
REMARK VINA RESULT:     -10.9      0.000      0.000
REMARK SMILES CC[C@](C)(NS(=O)(=O)c1ccc(OC)c(F)c1)C(=O)NCCCCCCNC(=O)c1ccc(-c2c3nc(c(-c4cc(S(=O)(=O)[O-])ccc4F)c4ccc([nH]4)c(-c4cc(S(=O)(=O)[O-])ccc4F)c4nc(c(-c5cc(S(=O)(=O)[O-])ccc5F)c5ccc2[nH]5)C=C4)C=C3)cc1
REMARK SMILES IDX 23 1 22 2 21 3 20 4 18 5 19 6 3 8 4 9 2 10 1 11 5 12 6 14
REMARK SMILES IDX 7 15 8 16 9 17 10 18 17 19 11 20 15 21 12 22 16 23 13 24
REMARK SMILES IDX 14 25 24 26 25 27 26 28 27 29 28 30 29 32 30 33 31 34 92 35
REMARK SMILES IDX 32 36 91 37 33 38 34 39 35 40 85 41 36 42 90 43 84 44 86 45
REMARK SMILES IDX 37 46 89 47 83 48 82 49 38 51 70 52 50 53 69 54 51 55 54 56
REMARK SMILES IDX 68 57 87 58 52 59 53 60 67 62 88 63 55 64 39 65 40 66 48 67
REMARK SMILES IDX 41 68 47 69 49 70 46 71 42 72 43 73 44 74 45 75 71 76 72 77
REMARK SMILES IDX 80 78 73 79 79 80 81 81 78 82 74 83 75 84 76 85 77 86 56 87
REMARK SMILES IDX 57 88 65 89 58 90 64 91 66 92 63 93 59 94 60 95 61 96 62 97
REMARK H PARENT 20 7 5 13 27 31 86 50 54 61
REMARK Flexibility Score: inf
ROOT
ATOM      1  C   UNL A   1      30.547  27.634  24.709  1.00  0.00     0.002 C 
ENDROOT
BRANCH   1   2
ATOM      2  C   UNL A   1      30.136  26.433  23.850  1.00  0.00     0.021 C 
BRANCH   2   3
ATOM      3  C   UNL A   1      31.170  25.320  23.735  1.00  0.00     0.116 C 
BRANCH   3   4
ATOM      4  N   UNL A   1      32.430  25.642  24.386  1.00  0.00    -0.354 N 
ATOM      5  C   UNL A   1      33.280  24.990  25.214  1.00  0.00     0.241 C 
ATOM      6  O   UNL A   1      34.352  25.591  25.397  1.00  0.00    -0.273 OA
ATOM      7  H   UNL A   1      32.738  26.552  24.176  1.00  0.00     0.163 HD
BRANCH   5   8
ATOM      8  C   UNL A   1      33.000  23.661  25.971  1.00  0.00     0.108 C 
ATOM      9  C   UNL A   1      31.748  23.951  26.866  1.00  0.00     0.040 C 
BRANCH   8  10
ATOM     10  C   UNL A   1      34.107  23.158  26.922  1.00  0.00     0.030 C 
ATOM     11  C   UNL A   1      33.809  21.817  27.591  1.00  0.00     0.006 C 
ENDBRANCH   8  10
BRANCH   8  12
ATOM     12  N   UNL A   1      32.509  22.560  25.098  1.00  0.00    -0.196 NA
ATOM     13  H   UNL A   1      31.638  22.914  24.701  1.00  0.00     0.142 HD
BRANCH  12  14
ATOM     14  S   UNL A   1      33.291  21.838  23.822  1.00  0.00     0.241 S 
ATOM     15  O   UNL A   1      32.506  22.080  22.634  1.00  0.00    -0.207 OA
ATOM     16  O   UNL A   1      34.659  22.289  23.923  1.00  0.00    -0.207 OA
BRANCH  14  17
ATOM     17  C   UNL A   1      33.325  20.095  24.138  1.00  0.00     0.085 A 
ATOM     18  C   UNL A   1      32.219  19.283  23.894  1.00  0.00     0.026 A 
ATOM     19  C   UNL A   1      34.536  19.525  24.542  1.00  0.00     0.065 A 
ATOM     20  C   UNL A   1      32.368  17.893  23.908  1.00  0.00     0.051 A 
ATOM     21  C   UNL A   1      34.667  18.139  24.568  1.00  0.00     0.166 A 
ATOM     22  C   UNL A   1      33.606  17.310  24.198  1.00  0.00     0.154 A 
ATOM     23  F   UNL A   1      35.861  17.632  24.906  1.00  0.00    -0.203 F 
BRANCH  22  24
ATOM     24  O   UNL A   1      33.641  15.947  24.073  1.00  0.00    -0.494 OA
ATOM     25  C   UNL A   1      33.384  15.204  25.263  1.00  0.00     0.278 C 
ENDBRANCH  22  24
ENDBRANCH  14  17
ENDBRANCH  12  14
ENDBRANCH   8  12
ENDBRANCH   5   8
ENDBRANCH   3   4
ENDBRANCH   2   3
ENDBRANCH   1   2
BRANCH   1  26
ATOM     26  C   UNL A   1      31.108  28.822  23.927  1.00  0.00     0.002 C 
BRANCH  26  27
ATOM     27  C   UNL A   1      32.633  28.855  23.786  1.00  0.00     0.021 C 
BRANCH  27  28
ATOM     28  C   UNL A   1      33.393  29.398  24.993  1.00  0.00     0.116 C 
BRANCH  28  29
ATOM     29  N   UNL A   1      32.697  30.506  25.630  1.00  0.00    -0.352 N 
ATOM     30  C   UNL A   1      33.011  31.147  26.804  1.00  0.00     0.251 C 
ATOM     31  H   UNL A   1      31.900  30.839  25.158  1.00  0.00     0.163 HD
ATOM     32  O   UNL A   1      32.229  31.942  27.310  1.00  0.00    -0.269 OA
BRANCH  30  33
ATOM     33  C   UNL A   1      34.300  30.835  27.455  1.00  0.00     0.039 A 
ATOM     34  C   UNL A   1      35.235  31.854  27.641  1.00  0.00     0.014 A 
ATOM     35  C   UNL A   1      34.546  29.544  27.933  1.00  0.00     0.014 A 
ATOM     36  C   UNL A   1      36.399  31.593  28.369  1.00  0.00     0.010 A 
ATOM     37  C   UNL A   1      35.676  29.303  28.709  1.00  0.00     0.010 A 
ATOM     38  C   UNL A   1      36.612  30.324  28.935  1.00  0.00    -0.014 A 
BRANCH  38  39
ATOM     39  C   UNL A   1      37.818  30.041  29.753  1.00  0.00     0.031 A 
ATOM     40  C   UNL A   1      38.904  29.161  29.203  1.00  0.00     0.074 A 
ATOM     41  C   UNL A   1      37.907  30.520  31.009  1.00  0.00     0.049 A 
ATOM     42  N   UNL A   1      39.991  28.723  29.786  1.00  0.00    -0.248 NA
ATOM     43  C   UNL A   1      38.728  28.686  27.823  1.00  0.00     0.031 C 
ATOM     44  C   UNL A   1      36.899  31.352  31.672  1.00  0.00     0.029 A 
ATOM     45  N   UNL A   1      38.890  30.372  31.955  1.00  0.00    -0.354 N 
ATOM     46  C   UNL A   1      40.614  27.903  28.854  1.00  0.00     0.074 A 
ATOM     47  C   UNL A   1      39.759  27.866  27.686  1.00  0.00     0.031 C 
ATOM     48  C   UNL A   1      37.330  31.663  32.905  1.00  0.00     0.029 A 
ATOM     49  C   UNL A   1      38.624  31.027  33.133  1.00  0.00     0.049 A 
ATOM     50  H   UNL A   1      39.707  29.847  31.802  1.00  0.00     0.167 HD
ATOM     51  C   UNL A   1      41.801  27.256  28.954  1.00  0.00     0.034 A 
ATOM     52  C   UNL A   1      39.339  31.102  34.273  1.00  0.00     0.034 A 
ATOM     53  C   UNL A   1      42.661  27.327  30.108  1.00  0.00     0.049 A 
ATOM     54  C   UNL A   1      40.654  30.379  34.367  1.00  0.00     0.074 A 
ATOM     55  C   UNL A   1      43.917  26.774  30.283  1.00  0.00     0.029 A 
ATOM     56  N   UNL A   1      42.351  27.990  31.288  1.00  0.00    -0.354 N 
ATOM     57  N   UNL A   1      41.242  29.622  33.469  1.00  0.00    -0.248 NA
ATOM     58  C   UNL A   1      41.399  30.515  35.624  1.00  0.00     0.031 C 
ATOM     59  C   UNL A   1      44.345  27.060  31.584  1.00  0.00     0.029 A 
ATOM     60  C   UNL A   1      43.380  27.838  32.203  1.00  0.00     0.049 A 
ATOM     61  H   UNL A   1      41.521  28.494  31.450  1.00  0.00     0.167 HD
ATOM     62  C   UNL A   1      42.432  29.200  34.050  1.00  0.00     0.074 A 
ATOM     63  C   UNL A   1      42.481  29.789  35.375  1.00  0.00     0.031 C 
ATOM     64  C   UNL A   1      43.399  28.405  33.530  1.00  0.00     0.034 A 
BRANCH  51  65
ATOM     65  C   UNL A   1      42.219  26.402  27.785  1.00  0.00     0.023 A 
ATOM     66  C   UNL A   1      41.764  25.080  27.641  1.00  0.00     0.031 A 
ATOM     67  C   UNL A   1      43.113  26.903  26.823  1.00  0.00     0.131 A 
ATOM     68  C   UNL A   1      42.264  24.279  26.604  1.00  0.00     0.055 A 
ATOM     69  C   UNL A   1      43.549  26.123  25.750  1.00  0.00     0.041 A 
ATOM     70  F   UNL A   1      43.594  28.151  26.922  1.00  0.00    -0.206 F 
ATOM     71  C   UNL A   1      43.135  24.798  25.644  1.00  0.00     0.022 A 
BRANCH  68  72
ATOM     72  S   UNL A   1      41.852  22.513  26.599  1.00  0.00     0.124 S 
ATOM     73  O   UNL A   1      42.407  22.086  25.317  1.00  0.00    -0.237 OA
ATOM     74  O   UNL A   1      42.542  22.024  27.787  1.00  0.00    -0.237 OA
ATOM     75  O   UNL A   1      40.393  22.501  26.677  1.00  0.00    -0.744 OA
ENDBRANCH  68  72
ENDBRANCH  51  65
BRANCH  52  76
ATOM     76  C   UNL A   1      38.815  31.893  35.416  1.00  0.00     0.023 A 
ATOM     77  C   UNL A   1      38.183  31.261  36.497  1.00  0.00     0.031 A 
ATOM     78  C   UNL A   1      38.974  33.289  35.459  1.00  0.00     0.131 A 
ATOM     79  C   UNL A   1      37.721  32.028  37.578  1.00  0.00     0.055 A 
ATOM     80  C   UNL A   1      38.534  34.044  36.545  1.00  0.00     0.041 A 
ATOM     81  F   UNL A   1      39.589  33.931  34.453  1.00  0.00    -0.206 F 
ATOM     82  C   UNL A   1      37.902  33.414  37.613  1.00  0.00     0.022 A 
BRANCH  79  83
ATOM     83  S   UNL A   1      36.895  31.189  38.958  1.00  0.00     0.124 S 
ATOM     84  O   UNL A   1      35.625  31.906  39.022  1.00  0.00    -0.237 OA
ATOM     85  O   UNL A   1      36.831  29.810  38.488  1.00  0.00    -0.237 OA
ATOM     86  O   UNL A   1      37.800  31.417  40.082  1.00  0.00    -0.744 OA
ENDBRANCH  79  83
ENDBRANCH  52  76
BRANCH  64  87
ATOM     87  C   UNL A   1      44.603  28.134  34.389  1.00  0.00     0.023 A 
ATOM     88  C   UNL A   1      44.656  27.021  35.245  1.00  0.00     0.031 A 
ATOM     89  C   UNL A   1      45.726  28.976  34.317  1.00  0.00     0.131 A 
ATOM     90  C   UNL A   1      45.805  26.791  36.016  1.00  0.00     0.055 A 
ATOM     91  C   UNL A   1      46.881  28.722  35.057  1.00  0.00     0.041 A 
ATOM     92  F   UNL A   1      45.722  30.051  33.512  1.00  0.00    -0.206 F 
ATOM     93  C   UNL A   1      46.924  27.626  35.914  1.00  0.00     0.022 A 
BRANCH  90  94
ATOM     94  S   UNL A   1      45.820  25.394  37.172  1.00  0.00     0.124 S 
ATOM     95  O   UNL A   1      45.305  24.311  36.341  1.00  0.00    -0.237 OA
ATOM     96  O   UNL A   1      47.230  25.301  37.540  1.00  0.00    -0.237 OA
ATOM     97  O   UNL A   1      44.930  25.829  38.246  1.00  0.00    -0.744 OA
ENDBRANCH  90  94
ENDBRANCH  64  87
ENDBRANCH  38  39
ENDBRANCH  30  33
ENDBRANCH  28  29
ENDBRANCH  27  28
ENDBRANCH  26  27
ENDBRANCH   1  26
TORSDOF 21
ENDMDL
MODEL 2
REMARK VINA RESULT:     -10.9      2.301      3.131
REMARK SMILES CC[C@](C)(NS(=O)(=O)c1ccc(OC)c(F)c1)C(=O)NCCCCCCNC(=O)c1ccc(-c2c3nc(c(-c4cc(S(=O)(=O)[O-])ccc4F)c4ccc([nH]4)c(-c4cc(S(=O)(=O)[O-])ccc4F)c4nc(c(-c5cc(S(=O)(=O)[O-])ccc5F)c5ccc2[nH]5)C=C4)C=C3)cc1
REMARK SMILES IDX 23 1 22 2 21 3 20 4 18 5 19 6 3 8 4 9 2 10 1 11 5 12 6 14
REMARK SMILES IDX 7 15 8 16 9 17 10 18 17 19 11 20 15 21 12 22 16 23 13 24
REMARK SMILES IDX 14 25 24 26 25 27 26 28 27 29 28 30 29 32 30 33 31 34 92 35
REMARK SMILES IDX 32 36 91 37 33 38 34 39 35 40 85 41 36 42 90 43 84 44 86 45
REMARK SMILES IDX 37 46 89 47 83 48 82 49 38 51 70 52 50 53 69 54 51 55 54 56
REMARK SMILES IDX 68 57 87 58 52 59 53 60 67 62 88 63 55 64 39 65 40 66 48 67
REMARK SMILES IDX 41 68 47 69 49 70 46 71 42 72 43 73 44 74 45 75 71 76 72 77
REMARK SMILES IDX 80 78 73 79 79 80 81 81 78 82 74 83 75 84 76 85 77 86 56 87
REMARK SMILES IDX 57 88 65 89 58 90 64 91 66 92 63 93 59 94 60 95 61 96 62 97
REMARK H PARENT 20 7 5 13 27 31 86 50 54 61
REMARK Flexibility Score: inf
ROOT
ATOM      1  C   UNL A   1      32.075  29.690  25.119  1.00  0.00     0.002 C 
ENDROOT
BRANCH   1   2
ATOM      2  C   UNL A   1      33.437  29.219  24.600  1.00  0.00     0.021 C 
BRANCH   2   3
ATOM      3  C   UNL A   1      33.470  27.812  24.015  1.00  0.00     0.116 C 
BRANCH   3   4
ATOM      4  N   UNL A   1      33.438  26.772  25.032  1.00  0.00    -0.354 N 
ATOM      5  C   UNL A   1      32.807  25.584  25.173  1.00  0.00     0.241 C 
ATOM      6  O   UNL A   1      33.208  24.920  26.145  1.00  0.00    -0.273 OA
ATOM      7  H   UNL A   1      34.014  26.983  25.801  1.00  0.00     0.163 HD
BRANCH   5   8
ATOM      8  C   UNL A   1      31.629  25.050  24.309  1.00  0.00     0.108 C 
ATOM      9  C   UNL A   1      30.748  26.306  23.990  1.00  0.00     0.040 C 
BRANCH   8  10
ATOM     10  C   UNL A   1      30.693  24.019  24.973  1.00  0.00     0.030 C 
ATOM     11  C   UNL A   1      30.402  24.283  26.450  1.00  0.00     0.006 C 
ENDBRANCH   8  10
BRANCH   8  12
ATOM     12  N   UNL A   1      32.033  24.602  22.948  1.00  0.00    -0.196 NA
ATOM     13  H   UNL A   1      32.087  25.460  22.398  1.00  0.00     0.142 HD
BRANCH  12  14
ATOM     14  S   UNL A   1      33.385  23.740  22.513  1.00  0.00     0.241 S 
ATOM     15  O   UNL A   1      33.276  23.434  21.106  1.00  0.00    -0.207 OA
ATOM     16  O   UNL A   1      34.495  24.504  23.032  1.00  0.00    -0.207 OA
BRANCH  14  17
ATOM     17  C   UNL A   1      33.364  22.223  23.430  1.00  0.00     0.085 A 
ATOM     18  C   UNL A   1      32.370  21.266  23.242  1.00  0.00     0.026 A 
ATOM     19  C   UNL A   1      34.440  21.957  24.282  1.00  0.00     0.065 A 
ATOM     20  C   UNL A   1      32.532  19.988  23.787  1.00  0.00     0.051 A 
ATOM     21  C   UNL A   1      34.582  20.686  24.832  1.00  0.00     0.166 A 
ATOM     22  C   UNL A   1      33.663  19.672  24.546  1.00  0.00     0.154 A 
ATOM     23  F   UNL A   1      35.658  20.453  25.597  1.00  0.00    -0.203 F 
BRANCH  22  24
ATOM     24  O   UNL A   1      33.750  18.362  24.928  1.00  0.00    -0.494 OA
ATOM     25  C   UNL A   1      34.804  17.605  24.336  1.00  0.00     0.278 C 
ENDBRANCH  22  24
ENDBRANCH  14  17
ENDBRANCH  12  14
ENDBRANCH   8  12
ENDBRANCH   5   8
ENDBRANCH   3   4
ENDBRANCH   2   3
ENDBRANCH   1   2
BRANCH   1  26
ATOM     26  C   UNL A   1      32.057  30.111  26.588  1.00  0.00     0.002 C 
BRANCH  26  27
ATOM     27  C   UNL A   1      31.779  31.596  26.843  1.00  0.00     0.021 C 
BRANCH  27  28
ATOM     28  C   UNL A   1      32.968  32.412  27.343  1.00  0.00     0.116 C 
BRANCH  28  29
ATOM     29  N   UNL A   1      32.622  33.807  27.571  1.00  0.00    -0.352 N 
ATOM     30  C   UNL A   1      33.108  34.659  28.533  1.00  0.00     0.251 C 
ATOM     31  H   UNL A   1      31.954  34.189  26.957  1.00  0.00     0.163 HD
ATOM     32  O   UNL A   1      32.589  35.753  28.719  1.00  0.00    -0.269 OA
BRANCH  30  33
ATOM     33  C   UNL A   1      34.253  34.215  29.355  1.00  0.00     0.039 A 
ATOM     34  C   UNL A   1      34.015  33.467  30.509  1.00  0.00     0.014 A 
ATOM     35  C   UNL A   1      35.559  34.492  28.941  1.00  0.00     0.014 A 
ATOM     36  C   UNL A   1      35.096  32.938  31.219  1.00  0.00     0.010 A 
ATOM     37  C   UNL A   1      36.631  33.913  29.614  1.00  0.00     0.010 A 
ATOM     38  C   UNL A   1      36.410  33.131  30.757  1.00  0.00    -0.014 A 
BRANCH  38  39
ATOM     39  C   UNL A   1      37.568  32.535  31.469  1.00  0.00     0.031 A 
ATOM     40  C   UNL A   1      38.329  31.401  30.840  1.00  0.00     0.074 A 
ATOM     41  C   UNL A   1      37.897  32.967  32.702  1.00  0.00     0.049 A 
ATOM     42  N   UNL A   1      39.310  30.688  31.331  1.00  0.00    -0.248 NA
ATOM     43  C   UNL A   1      37.905  30.996  29.491  1.00  0.00     0.031 C 
ATOM     44  C   UNL A   1      37.211  34.033  33.436  1.00  0.00     0.029 A 
ATOM     45  N   UNL A   1      38.890  32.560  33.557  1.00  0.00    -0.354 N 
ATOM     46  C   UNL A   1      39.605  29.736  30.363  1.00  0.00     0.074 A 
ATOM     47  C   UNL A   1      38.666  29.933  29.278  1.00  0.00     0.031 C 
ATOM     48  C   UNL A   1      37.821  34.213  34.619  1.00  0.00     0.029 A 
ATOM     49  C   UNL A   1      38.917  33.256  34.741  1.00  0.00     0.049 A 
ATOM     50  H   UNL A   1      39.522  31.837  33.342  1.00  0.00     0.167 HD
ATOM     51  C   UNL A   1      40.583  28.798  30.367  1.00  0.00     0.034 A 
ATOM     52  C   UNL A   1      39.729  33.134  35.809  1.00  0.00     0.034 A 
ATOM     53  C   UNL A   1      41.534  28.633  31.437  1.00  0.00     0.049 A 
ATOM     54  C   UNL A   1      40.809  32.087  35.798  1.00  0.00     0.074 A 
ATOM     55  C   UNL A   1      42.610  27.766  31.509  1.00  0.00     0.029 A 
ATOM     56  N   UNL A   1      41.521  29.349  32.627  1.00  0.00    -0.354 N 
ATOM     57  N   UNL A   1      41.090  31.206  34.867  1.00  0.00    -0.248 NA
ATOM     58  C   UNL A   1      41.677  32.016  36.980  1.00  0.00     0.031 C 
ATOM     59  C   UNL A   1      43.218  27.923  32.759  1.00  0.00     0.029 A 
ATOM     60  C   UNL A   1      42.554  28.926  33.448  1.00  0.00     0.049 A 
ATOM     61  H   UNL A   1      40.873  30.054  32.853  1.00  0.00     0.167 HD
ATOM     62  C   UNL A   1      42.175  30.481  35.346  1.00  0.00     0.074 A 
ATOM     63  C   UNL A   1      42.501  31.029  36.649  1.00  0.00     0.031 C 
ATOM     64  C   UNL A   1      42.845  29.461  34.756  1.00  0.00     0.034 A 
BRANCH  51  65
ATOM     65  C   UNL A   1      40.650  27.869  29.183  1.00  0.00     0.023 A 
ATOM     66  C   UNL A   1      41.563  28.077  28.136  1.00  0.00     0.031 A 
ATOM     67  C   UNL A   1      39.764  26.782  29.083  1.00  0.00     0.131 A 
ATOM     68  C   UNL A   1      41.519  27.258  26.998  1.00  0.00     0.055 A 
ATOM     69  C   UNL A   1      39.776  25.925  27.980  1.00  0.00     0.041 A 
ATOM     70  F   UNL A   1      38.859  26.546  30.045  1.00  0.00    -0.206 F 
ATOM     71  C   UNL A   1      40.648  26.170  26.923  1.00  0.00     0.022 A 
BRANCH  68  72
ATOM     72  S   UNL A   1      42.534  27.711  25.566  1.00  0.00     0.124 S 
ATOM     73  O   UNL A   1      42.289  26.588  24.665  1.00  0.00    -0.237 OA
ATOM     74  O   UNL A   1      41.959  28.989  25.161  1.00  0.00    -0.237 OA
ATOM     75  O   UNL A   1      43.887  27.783  26.112  1.00  0.00    -0.744 OA
ENDBRANCH  68  72
ENDBRANCH  51  65
BRANCH  52  76
ATOM     76  C   UNL A   1      39.541  34.029  36.980  1.00  0.00     0.023 A 
ATOM     77  C   UNL A   1      38.904  33.569  38.142  1.00  0.00     0.031 A 
ATOM     78  C   UNL A   1      40.030  35.347  36.963  1.00  0.00     0.131 A 
ATOM     79  C   UNL A   1      38.763  34.428  39.243  1.00  0.00     0.055 A 
ATOM     80  C   UNL A   1      39.908  36.189  38.069  1.00  0.00     0.041 A 
ATOM     81  F   UNL A   1      40.662  35.821  35.877  1.00  0.00    -0.206 F 
ATOM     82  C   UNL A   1      39.270  35.730  39.217  1.00  0.00     0.022 A 
BRANCH  79  83
ATOM     83  S   UNL A   1      37.924  33.814  40.730  1.00  0.00     0.124 S 
ATOM     84  O   UNL A   1      36.816  33.059  40.154  1.00  0.00    -0.237 OA
ATOM     85  O   UNL A   1      38.971  33.029  41.374  1.00  0.00    -0.237 OA
ATOM     86  O   UNL A   1      37.548  35.038  41.435  1.00  0.00    -0.744 OA
ENDBRANCH  79  83
ENDBRANCH  52  76
BRANCH  64  87
ATOM     87  C   UNL A   1      44.009  28.877  35.508  1.00  0.00     0.023 A 
ATOM     88  C   UNL A   1      43.840  27.805  36.401  1.00  0.00     0.031 A 
ATOM     89  C   UNL A   1      45.307  29.370  35.293  1.00  0.00     0.131 A 
ATOM     90  C   UNL A   1      44.954  27.274  37.068  1.00  0.00     0.055 A 
ATOM     91  C   UNL A   1      46.417  28.814  35.930  1.00  0.00     0.041 A 
ATOM     92  F   UNL A   1      45.518  30.392  34.447  1.00  0.00    -0.206 F 
ATOM     93  C   UNL A   1      46.243  27.762  36.826  1.00  0.00     0.022 A 
BRANCH  90  94
ATOM     94  S   UNL A   1      44.701  25.946  38.275  1.00  0.00     0.124 S 
ATOM     95  O   UNL A   1      44.126  24.892  37.447  1.00  0.00    -0.237 OA
ATOM     96  O   UNL A   1      46.054  25.702  38.769  1.00  0.00    -0.237 OA
ATOM     97  O   UNL A   1      43.786  26.537  39.250  1.00  0.00    -0.744 OA
ENDBRANCH  90  94
ENDBRANCH  64  87
ENDBRANCH  38  39
ENDBRANCH  30  33
ENDBRANCH  28  29
ENDBRANCH  27  28
ENDBRANCH  26  27
ENDBRANCH   1  26
TORSDOF 21
ENDMDL
MODEL 3
REMARK VINA RESULT:     -10.6      5.621     10.339
REMARK SMILES CC[C@](C)(NS(=O)(=O)c1ccc(OC)c(F)c1)C(=O)NCCCCCCNC(=O)c1ccc(-c2c3nc(c(-c4cc(S(=O)(=O)[O-])ccc4F)c4ccc([nH]4)c(-c4cc(S(=O)(=O)[O-])ccc4F)c4nc(c(-c5cc(S(=O)(=O)[O-])ccc5F)c5ccc2[nH]5)C=C4)C=C3)cc1
REMARK SMILES IDX 23 1 22 2 21 3 20 4 18 5 19 6 3 8 4 9 2 10 1 11 5 12 6 14
REMARK SMILES IDX 7 15 8 16 9 17 10 18 17 19 11 20 15 21 12 22 16 23 13 24
REMARK SMILES IDX 14 25 24 26 25 27 26 28 27 29 28 30 29 32 30 33 31 34 92 35
REMARK SMILES IDX 32 36 91 37 33 38 34 39 35 40 85 41 36 42 90 43 84 44 86 45
REMARK SMILES IDX 37 46 89 47 83 48 82 49 38 51 70 52 50 53 69 54 51 55 54 56
REMARK SMILES IDX 68 57 87 58 52 59 53 60 67 62 88 63 55 64 39 65 40 66 48 67
REMARK SMILES IDX 41 68 47 69 49 70 46 71 42 72 43 73 44 74 45 75 71 76 72 77
REMARK SMILES IDX 80 78 73 79 79 80 81 81 78 82 74 83 75 84 76 85 77 86 56 87
REMARK SMILES IDX 57 88 65 89 58 90 64 91 66 92 63 93 59 94 60 95 61 96 62 97
REMARK H PARENT 20 7 5 13 27 31 86 50 54 61
REMARK Flexibility Score: inf
ROOT
ATOM      1  C   UNL A   1      36.039  22.188  24.331  1.00  0.00     0.002 C 
ENDROOT
BRANCH   1   2
ATOM      2  C   UNL A   1      35.549  23.379  25.161  1.00  0.00     0.021 C 
BRANCH   2   3
ATOM      3  C   UNL A   1      34.746  24.428  24.401  1.00  0.00     0.116 C 
BRANCH   3   4
ATOM      4  N   UNL A   1      34.235  25.485  25.259  1.00  0.00    -0.354 N 
ATOM      5  C   UNL A   1      33.009  25.978  25.551  1.00  0.00     0.241 C 
ATOM      6  O   UNL A   1      33.012  26.791  26.492  1.00  0.00    -0.273 OA
ATOM      7  H   UNL A   1      34.951  25.955  25.743  1.00  0.00     0.163 HD
BRANCH   5   8
ATOM      8  C   UNL A   1      31.684  25.682  24.791  1.00  0.00     0.108 C 
ATOM      9  C   UNL A   1      32.016  25.911  23.278  1.00  0.00     0.040 C 
BRANCH   8  10
ATOM     10  C   UNL A   1      30.481  26.591  25.116  1.00  0.00     0.030 C 
ATOM     11  C   UNL A   1      29.291  26.434  24.168  1.00  0.00     0.006 C 
ENDBRANCH   8  10
BRANCH   8  12
ATOM     12  N   UNL A   1      31.287  24.248  24.808  1.00  0.00    -0.196 NA
ATOM     13  H   UNL A   1      31.721  23.849  23.975  1.00  0.00     0.142 HD
BRANCH  12  14
ATOM     14  S   UNL A   1      31.556  23.123  26.001  1.00  0.00     0.241 S 
ATOM     15  O   UNL A   1      32.527  23.678  26.915  1.00  0.00    -0.207 OA
ATOM     16  O   UNL A   1      30.240  22.734  26.449  1.00  0.00    -0.207 OA
BRANCH  14  17
ATOM     17  C   UNL A   1      32.254  21.688  25.230  1.00  0.00     0.085 A 
ATOM     18  C   UNL A   1      32.896  20.697  25.969  1.00  0.00     0.026 A 
ATOM     19  C   UNL A   1      32.051  21.517  23.858  1.00  0.00     0.065 A 
ATOM     20  C   UNL A   1      33.198  19.473  25.364  1.00  0.00     0.051 A 
ATOM     21  C   UNL A   1      32.372  20.300  23.263  1.00  0.00     0.166 A 
ATOM     22  C   UNL A   1      32.893  19.246  24.018  1.00  0.00     0.154 A 
ATOM     23  F   UNL A   1      32.109  20.155  21.956  1.00  0.00    -0.203 F 
BRANCH  22  24
ATOM     24  O   UNL A   1      33.142  17.974  23.581  1.00  0.00    -0.494 OA
ATOM     25  C   UNL A   1      33.477  17.020  24.587  1.00  0.00     0.278 C 
ENDBRANCH  22  24
ENDBRANCH  14  17
ENDBRANCH  12  14
ENDBRANCH   8  12
ENDBRANCH   5   8
ENDBRANCH   3   4
ENDBRANCH   2   3
ENDBRANCH   1   2
BRANCH   1  26
ATOM     26  C   UNL A   1      36.644  21.043  25.143  1.00  0.00     0.002 C 
BRANCH  26  27
ATOM     27  C   UNL A   1      38.121  20.748  24.864  1.00  0.00     0.021 C 
BRANCH  27  28
ATOM     28  C   UNL A   1      39.030  20.723  26.091  1.00  0.00     0.116 C 
BRANCH  28  29
ATOM     29  N   UNL A   1      39.922  19.573  26.092  1.00  0.00    -0.352 N 
ATOM     30  C   UNL A   1      41.295  19.561  26.133  1.00  0.00     0.251 C 
ATOM     31  H   UNL A   1      39.485  18.691  26.059  1.00  0.00     0.163 HD
ATOM     32  O   UNL A   1      41.916  18.522  25.942  1.00  0.00    -0.269 OA
BRANCH  30  33
ATOM     33  C   UNL A   1      42.005  20.832  26.384  1.00  0.00     0.039 A 
ATOM     34  C   UNL A   1      42.140  21.755  25.347  1.00  0.00     0.014 A 
ATOM     35  C   UNL A   1      42.478  21.125  27.667  1.00  0.00     0.014 A 
ATOM     36  C   UNL A   1      42.697  23.009  25.612  1.00  0.00     0.010 A 
ATOM     37  C   UNL A   1      42.975  22.395  27.942  1.00  0.00     0.010 A 
ATOM     38  C   UNL A   1      43.089  23.348  26.919  1.00  0.00    -0.014 A 
BRANCH  38  39
ATOM     39  C   UNL A   1      43.635  24.693  27.231  1.00  0.00     0.031 A 
ATOM     40  C   UNL A   1      42.727  25.763  27.767  1.00  0.00     0.074 A 
ATOM     41  C   UNL A   1      44.929  24.970  26.975  1.00  0.00     0.049 A 
ATOM     42  N   UNL A   1      42.986  27.021  28.020  1.00  0.00    -0.248 NA
ATOM     43  C   UNL A   1      41.332  25.373  28.021  1.00  0.00     0.031 C 
ATOM     44  C   UNL A   1      45.902  24.029  26.417  1.00  0.00     0.029 A 
ATOM     45  N   UNL A   1      45.646  26.128  27.147  1.00  0.00    -0.354 N 
ATOM     46  C   UNL A   1      41.784  27.576  28.439  1.00  0.00     0.074 A 
ATOM     47  C   UNL A   1      40.785  26.530  28.359  1.00  0.00     0.031 C 
ATOM     48  C   UNL A   1      47.095  24.639  26.319  1.00  0.00     0.029 A 
ATOM     49  C   UNL A   1      46.964  26.020  26.774  1.00  0.00     0.049 A 
ATOM     50  H   UNL A   1      45.252  26.956  27.503  1.00  0.00     0.167 HD
ATOM     51  C   UNL A   1      41.538  28.837  28.872  1.00  0.00     0.034 A 
ATOM     52  C   UNL A   1      47.955  26.932  26.790  1.00  0.00     0.034 A 
ATOM     53  C   UNL A   1      42.546  29.860  28.980  1.00  0.00     0.049 A 
ATOM     54  C   UNL A   1      47.666  28.326  27.273  1.00  0.00     0.074 A 
ATOM     55  C   UNL A   1      42.421  31.146  29.478  1.00  0.00     0.029 A 
ATOM     56  N   UNL A   1      43.868  29.717  28.580  1.00  0.00    -0.354 N 
ATOM     57  N   UNL A   1      46.527  28.833  27.687  1.00  0.00    -0.248 NA
ATOM     58  C   UNL A   1      48.789  29.271  27.289  1.00  0.00     0.031 C 
ATOM     59  C   UNL A   1      43.652  31.794  29.334  1.00  0.00     0.029 A 
ATOM     60  C   UNL A   1      44.561  30.897  28.795  1.00  0.00     0.049 A 
ATOM     61  H   UNL A   1      44.256  28.896  28.199  1.00  0.00     0.167 HD
ATOM     62  C   UNL A   1      46.800  30.154  28.022  1.00  0.00     0.074 A 
ATOM     63  C   UNL A   1      48.212  30.367  27.765  1.00  0.00     0.031 C 
ATOM     64  C   UNL A   1      45.960  31.101  28.506  1.00  0.00     0.034 A 
BRANCH  51  65
ATOM     65  C   UNL A   1      40.116  29.174  29.238  1.00  0.00     0.023 A 
ATOM     66  C   UNL A   1      39.698  29.241  30.578  1.00  0.00     0.031 A 
ATOM     67  C   UNL A   1      39.157  29.393  28.233  1.00  0.00     0.131 A 
ATOM     68  C   UNL A   1      38.342  29.445  30.877  1.00  0.00     0.055 A 
ATOM     69  C   UNL A   1      37.823  29.670  28.540  1.00  0.00     0.041 A 
ATOM     70  F   UNL A   1      39.497  29.323  26.938  1.00  0.00    -0.206 F 
ATOM     71  C   UNL A   1      37.407  29.682  29.869  1.00  0.00     0.022 A 
BRANCH  68  72
ATOM     72  S   UNL A   1      37.801  29.273  32.599  1.00  0.00     0.124 S 
ATOM     73  O   UNL A   1      37.724  27.821  32.738  1.00  0.00    -0.237 OA
ATOM     74  O   UNL A   1      38.874  29.928  33.336  1.00  0.00    -0.237 OA
ATOM     75  O   UNL A   1      36.515  29.966  32.625  1.00  0.00    -0.744 OA
ENDBRANCH  68  72
ENDBRANCH  51  65
BRANCH  52  76
ATOM     76  C   UNL A   1      49.313  26.548  26.326  1.00  0.00     0.023 A 
ATOM     77  C   UNL A   1      49.821  27.030  25.111  1.00  0.00     0.031 A 
ATOM     78  C   UNL A   1      50.135  25.722  27.113  1.00  0.00     0.131 A 
ATOM     79  C   UNL A   1      51.117  26.673  24.708  1.00  0.00     0.055 A 
ATOM     80  C   UNL A   1      51.431  25.389  26.719  1.00  0.00     0.041 A 
ATOM     81  F   UNL A   1      49.694  25.253  28.291  1.00  0.00    -0.206 F 
ATOM     82  C   UNL A   1      51.928  25.864  25.510  1.00  0.00     0.022 A 
BRANCH  79  83
ATOM     83  S   UNL A   1      51.746  27.298  23.125  1.00  0.00     0.124 S 
ATOM     84  O   UNL A   1      50.512  27.488  22.371  1.00  0.00    -0.237 OA
ATOM     85  O   UNL A   1      52.446  28.512  23.529  1.00  0.00    -0.237 OA
ATOM     86  O   UNL A   1      52.609  26.216  22.654  1.00  0.00    -0.744 OA
ENDBRANCH  79  83
ENDBRANCH  52  76
BRANCH  64  87
ATOM     87  C   UNL A   1      46.546  32.454  28.805  1.00  0.00     0.023 A 
ATOM     88  C   UNL A   1      46.485  33.500  27.870  1.00  0.00     0.031 A 
ATOM     89  C   UNL A   1      47.133  32.708  30.056  1.00  0.00     0.131 A 
ATOM     90  C   UNL A   1      47.026  34.754  28.194  1.00  0.00     0.055 A 
ATOM     91  C   UNL A   1      47.634  33.966  30.388  1.00  0.00     0.041 A 
ATOM     92  F   UNL A   1      47.212  31.738  30.982  1.00  0.00    -0.206 F 
ATOM     93  C   UNL A   1      47.585  34.997  29.453  1.00  0.00     0.022 A 
BRANCH  90  94
ATOM     94  S   UNL A   1      47.008  36.066  26.943  1.00  0.00     0.124 S 
ATOM     95  O   UNL A   1      45.998  36.975  27.475  1.00  0.00    -0.237 OA
ATOM     96  O   UNL A   1      48.384  36.554  26.973  1.00  0.00    -0.237 OA
ATOM     97  O   UNL A   1      46.628  35.366  25.717  1.00  0.00    -0.744 OA
ENDBRANCH  90  94
ENDBRANCH  64  87
ENDBRANCH  38  39
ENDBRANCH  30  33
ENDBRANCH  28  29
ENDBRANCH  27  28
ENDBRANCH  26  27
ENDBRANCH   1  26
TORSDOF 21
ENDMDL
