MODEL 1
REMARK VINA RESULT:     -11.3      0.000      0.000
REMARK SMILES C[C@@H]1[C@@H](C(=O)NCCCCCCNC(=O)c2ccc(-c3c4nc(c(-c5cc(S(=O)(=O)[O-])ccc5F)c5ccc([nH]5)c(-c5cc(S(=O)(=O)[O-])ccc5F)c5nc(c(-c6cc(S(=O)(=O)[O-])ccc6F)c6ccc3[nH]6)C=C5)C=C4)cc2)CCN1C(=O)CN1C(=O)CNC1=O
REMARK SMILES IDX 9 1 8 2 7 3 6 4 4 5 5 6 3 8 1 9 2 10 81 11 79 12 80 13 82 14
REMARK SMILES IDX 83 15 84 16 85 17 86 18 90 19 87 20 88 21 89 22 91 23 10 25
REMARK SMILES IDX 11 26 12 27 13 28 14 29 15 31 16 32 17 33 78 34 18 35 77 36
REMARK SMILES IDX 19 37 20 38 21 39 71 40 22 41 76 42 70 43 72 44 23 45 75 46
REMARK SMILES IDX 69 47 68 48 24 50 56 51 36 52 55 53 37 54 40 55 54 56 73 57
REMARK SMILES IDX 38 58 39 59 53 61 74 62 41 63 25 64 26 65 34 66 27 67 33 68
REMARK SMILES IDX 35 69 32 70 28 71 29 72 30 73 31 74 57 75 58 76 66 77 59 78
REMARK SMILES IDX 65 79 67 80 64 81 60 82 61 83 62 84 63 85 42 86 43 87 51 88
REMARK SMILES IDX 44 89 50 90 52 91 49 92 45 93 46 94 47 95 48 96
REMARK H PARENT 6 7 89 24 13 30 72 49 40 60
REMARK Flexibility Score: inf
ROOT
ATOM      1  C   UNL A   1      34.287  22.507  23.623  1.00  0.00     0.002 C 
ENDROOT
BRANCH   1   2
ATOM      2  C   UNL A   1      33.781  21.349  24.492  1.00  0.00     0.021 C 
BRANCH   2   3
ATOM      3  C   UNL A   1      32.277  21.334  24.751  1.00  0.00     0.116 C 
BRANCH   3   4
ATOM      4  N   UNL A   1      31.958  21.808  26.079  1.00  0.00    -0.356 N 
ATOM      5  C   UNL A   1      31.416  22.987  26.477  1.00  0.00     0.225 C 
ATOM      6  O   UNL A   1      31.621  23.317  27.650  1.00  0.00    -0.275 OA
ATOM      7  H   UNL A   1      32.166  21.179  26.807  1.00  0.00     0.163 HD
BRANCH   5   8
ATOM      8  C   UNL A   1      30.748  23.947  25.488  1.00  0.00     0.102 C 
ATOM      9  C   UNL A   1      31.331  24.764  23.155  1.00  0.00     0.032 C 
ATOM     10  C   UNL A   1      31.831  24.601  24.591  1.00  0.00     0.094 C 
ATOM     11  N   UNL A   1      32.092  25.909  25.218  1.00  0.00    -0.338 N 
ATOM     12  C   UNL A   1      30.007  25.177  26.027  1.00  0.00     0.037 C 
ATOM     13  C   UNL A   1      31.083  26.229  26.204  1.00  0.00     0.121 C 
BRANCH  11  14
ATOM     14  C   UNL A   1      33.259  26.661  25.200  1.00  0.00     0.243 C 
ATOM     15  O   UNL A   1      34.218  26.398  25.929  1.00  0.00    -0.273 OA
BRANCH  14  16
ATOM     16  C   UNL A   1      33.354  27.785  24.179  1.00  0.00     0.230 C 
BRANCH  16  17
ATOM     17  N   UNL A   1      32.571  28.969  24.478  1.00  0.00    -0.253 N 
ATOM     18  C   UNL A   1      32.811  29.740  25.581  1.00  0.00     0.250 C 
ATOM     19  C   UNL A   1      31.367  29.300  23.932  1.00  0.00     0.325 C 
ATOM     20  O   UNL A   1      33.792  29.683  26.311  1.00  0.00    -0.272 OA
ATOM     21  C   UNL A   1      31.625  30.664  25.801  1.00  0.00     0.218 C 
ATOM     22  N   UNL A   1      30.784  30.271  24.715  1.00  0.00    -0.329 N 
ATOM     23  O   UNL A   1      30.850  28.868  22.920  1.00  0.00    -0.248 OA
ATOM     24  H   UNL A   1      29.893  30.652  24.545  1.00  0.00     0.165 HD
ENDBRANCH  16  17
ENDBRANCH  14  16
ENDBRANCH  11  14
ENDBRANCH   5   8
ENDBRANCH   3   4
ENDBRANCH   2   3
ENDBRANCH   1   2
BRANCH   1  25
ATOM     25  C   UNL A   1      35.803  22.720  23.603  1.00  0.00     0.002 C 
BRANCH  25  26
ATOM     26  C   UNL A   1      36.357  23.694  24.645  1.00  0.00     0.021 C 
BRANCH  26  27
ATOM     27  C   UNL A   1      36.564  23.121  26.044  1.00  0.00     0.116 C 
BRANCH  27  28
ATOM     28  N   UNL A   1      37.712  22.241  26.130  1.00  0.00    -0.352 N 
ATOM     29  C   UNL A   1      39.022  22.534  26.415  1.00  0.00     0.251 C 
ATOM     30  H   UNL A   1      37.524  21.289  25.957  1.00  0.00     0.163 HD
ATOM     31  O   UNL A   1      39.873  21.656  26.296  1.00  0.00    -0.269 OA
BRANCH  29  32
ATOM     32  C   UNL A   1      39.419  23.901  26.829  1.00  0.00     0.039 A 
ATOM     33  C   UNL A   1      39.192  24.288  28.153  1.00  0.00     0.014 A 
ATOM     34  C   UNL A   1      39.983  24.809  25.928  1.00  0.00     0.014 A 
ATOM     35  C   UNL A   1      39.575  25.561  28.583  1.00  0.00     0.010 A 
ATOM     36  C   UNL A   1      40.431  26.052  26.376  1.00  0.00     0.010 A 
ATOM     37  C   UNL A   1      40.224  26.446  27.707  1.00  0.00    -0.014 A 
BRANCH  37  38
ATOM     38  C   UNL A   1      40.672  27.787  28.173  1.00  0.00     0.031 A 
ATOM     39  C   UNL A   1      42.132  28.154  28.140  1.00  0.00     0.074 A 
ATOM     40  C   UNL A   1      39.767  28.663  28.651  1.00  0.00     0.049 A 
ATOM     41  N   UNL A   1      42.717  29.261  28.524  1.00  0.00    -0.248 NA
ATOM     42  C   UNL A   1      43.059  27.131  27.635  1.00  0.00     0.031 C 
ATOM     43  C   UNL A   1      38.329  28.411  28.769  1.00  0.00     0.029 A 
ATOM     44  N   UNL A   1      39.917  29.942  29.128  1.00  0.00    -0.354 N 
ATOM     45  C   UNL A   1      44.078  29.067  28.312  1.00  0.00     0.074 A 
ATOM     46  C   UNL A   1      44.235  27.711  27.830  1.00  0.00     0.031 C 
ATOM     47  C   UNL A   1      37.727  29.509  29.253  1.00  0.00     0.029 A 
ATOM     48  C   UNL A   1      38.736  30.528  29.523  1.00  0.00     0.049 A 
ATOM     49  H   UNL A   1      40.788  30.397  29.182  1.00  0.00     0.167 HD
ATOM     50  C   UNL A   1      45.099  29.944  28.478  1.00  0.00     0.034 A 
ATOM     51  C   UNL A   1      38.493  31.746  30.049  1.00  0.00     0.034 A 
ATOM     52  C   UNL A   1      44.925  31.297  28.951  1.00  0.00     0.049 A 
ATOM     53  C   UNL A   1      39.649  32.695  30.252  1.00  0.00     0.074 A 
ATOM     54  C   UNL A   1      45.882  32.286  29.106  1.00  0.00     0.029 A 
ATOM     55  N   UNL A   1      43.717  31.852  29.354  1.00  0.00    -0.354 N 
ATOM     56  N   UNL A   1      40.923  32.513  29.994  1.00  0.00    -0.248 NA
ATOM     57  C   UNL A   1      39.330  34.016  30.807  1.00  0.00     0.031 C 
ATOM     58  C   UNL A   1      45.267  33.410  29.668  1.00  0.00     0.029 A 
ATOM     59  C   UNL A   1      43.910  33.154  29.790  1.00  0.00     0.049 A 
ATOM     60  H   UNL A   1      42.849  31.387  29.333  1.00  0.00     0.167 HD
ATOM     61  C   UNL A   1      41.552  33.710  30.328  1.00  0.00     0.074 A 
ATOM     62  C   UNL A   1      40.514  34.610  30.785  1.00  0.00     0.031 C 
ATOM     63  C   UNL A   1      42.868  34.037  30.261  1.00  0.00     0.034 A 
BRANCH  50  64
ATOM     64  C   UNL A   1      46.495  29.454  28.168  1.00  0.00     0.023 A 
ATOM     65  C   UNL A   1      46.874  29.078  26.867  1.00  0.00     0.031 A 
ATOM     66  C   UNL A   1      47.456  29.341  29.189  1.00  0.00     0.131 A 
ATOM     67  C   UNL A   1      48.146  28.533  26.636  1.00  0.00     0.055 A 
ATOM     68  C   UNL A   1      48.748  28.877  28.937  1.00  0.00     0.041 A 
ATOM     69  F   UNL A   1      47.149  29.665  30.454  1.00  0.00    -0.206 F 
ATOM     70  C   UNL A   1      49.095  28.454  27.657  1.00  0.00     0.022 A 
BRANCH  67  71
ATOM     71  S   UNL A   1      48.490  27.791  25.017  1.00  0.00     0.124 S 
ATOM     72  O   UNL A   1      48.375  26.365  25.317  1.00  0.00    -0.237 OA
ATOM     73  O   UNL A   1      47.438  28.356  24.181  1.00  0.00    -0.237 OA
ATOM     74  O   UNL A   1      49.844  28.248  24.712  1.00  0.00    -0.744 OA
ENDBRANCH  67  71
ENDBRANCH  50  64
BRANCH  51  75
ATOM     75  C   UNL A   1      37.108  32.144  30.430  1.00  0.00     0.023 A 
ATOM     76  C   UNL A   1      36.232  32.712  29.491  1.00  0.00     0.031 A 
ATOM     77  C   UNL A   1      36.654  32.009  31.755  1.00  0.00     0.131 A 
ATOM     78  C   UNL A   1      34.968  33.168  29.897  1.00  0.00     0.055 A 
ATOM     79  C   UNL A   1      35.374  32.413  32.142  1.00  0.00     0.041 A 
ATOM     80  F   UNL A   1      37.448  31.470  32.693  1.00  0.00    -0.206 F 
ATOM     81  C   UNL A   1      34.529  33.010  31.213  1.00  0.00     0.022 A 
BRANCH  78  82
ATOM     82  S   UNL A   1      33.940  34.060  28.698  1.00  0.00     0.124 S 
ATOM     83  O   UNL A   1      33.498  32.979  27.825  1.00  0.00    -0.237 OA
ATOM     84  O   UNL A   1      32.919  34.651  29.557  1.00  0.00    -0.237 OA
ATOM     85  O   UNL A   1      34.870  35.012  28.093  1.00  0.00    -0.744 OA
ENDBRANCH  78  82
ENDBRANCH  51  75
BRANCH  63  86
ATOM     86  C   UNL A   1      43.244  35.444  30.660  1.00  0.00     0.023 A 
ATOM     87  C   UNL A   1      43.302  36.489  29.720  1.00  0.00     0.031 A 
ATOM     88  C   UNL A   1      43.567  35.739  31.996  1.00  0.00     0.131 A 
ATOM     89  C   UNL A   1      43.733  37.763  30.117  1.00  0.00     0.055 A 
ATOM     90  C   UNL A   1      43.933  37.025  32.397  1.00  0.00     0.041 A 
ATOM     91  F   UNL A   1      43.532  34.781  32.936  1.00  0.00    -0.206 F 
ATOM     92  C   UNL A   1      44.032  38.042  31.453  1.00  0.00     0.022 A 
BRANCH  89  93
ATOM     93  S   UNL A   1      43.995  39.029  28.844  1.00  0.00     0.124 S 
ATOM     94  O   UNL A   1      43.493  38.363  27.647  1.00  0.00    -0.237 OA
ATOM     95  O   UNL A   1      43.192  40.141  29.340  1.00  0.00    -0.237 OA
ATOM     96  O   UNL A   1      45.440  39.249  28.872  1.00  0.00    -0.744 OA
ENDBRANCH  89  93
ENDBRANCH  63  86
ENDBRANCH  37  38
ENDBRANCH  29  32
ENDBRANCH  27  28
ENDBRANCH  26  27
ENDBRANCH  25  26
ENDBRANCH   1  25
TORSDOF 19
ENDMDL
MODEL 2
REMARK VINA RESULT:     -11.2      4.926     10.022
REMARK SMILES C[C@@H]1[C@@H](C(=O)NCCCCCCNC(=O)c2ccc(-c3c4nc(c(-c5cc(S(=O)(=O)[O-])ccc5F)c5ccc([nH]5)c(-c5cc(S(=O)(=O)[O-])ccc5F)c5nc(c(-c6cc(S(=O)(=O)[O-])ccc6F)c6ccc3[nH]6)C=C5)C=C4)cc2)CCN1C(=O)CN1C(=O)CNC1=O
REMARK SMILES IDX 9 1 8 2 7 3 6 4 4 5 5 6 3 8 1 9 2 10 81 11 79 12 80 13 82 14
REMARK SMILES IDX 83 15 84 16 85 17 86 18 90 19 87 20 88 21 89 22 91 23 10 25
REMARK SMILES IDX 11 26 12 27 13 28 14 29 15 31 16 32 17 33 78 34 18 35 77 36
REMARK SMILES IDX 19 37 20 38 21 39 71 40 22 41 76 42 70 43 72 44 23 45 75 46
REMARK SMILES IDX 69 47 68 48 24 50 56 51 36 52 55 53 37 54 40 55 54 56 73 57
REMARK SMILES IDX 38 58 39 59 53 61 74 62 41 63 25 64 26 65 34 66 27 67 33 68
REMARK SMILES IDX 35 69 32 70 28 71 29 72 30 73 31 74 57 75 58 76 66 77 59 78
REMARK SMILES IDX 65 79 67 80 64 81 60 82 61 83 62 84 63 85 42 86 43 87 51 88
REMARK SMILES IDX 44 89 50 90 52 91 49 92 45 93 46 94 47 95 48 96
REMARK H PARENT 6 7 89 24 13 30 72 49 40 60
REMARK Flexibility Score: inf
ROOT
ATOM      1  C   UNL A   1      33.115  29.193  25.729  1.00  0.00     0.002 C 
ENDROOT
BRANCH   1   2
ATOM      2  C   UNL A   1      33.679  28.929  24.328  1.00  0.00     0.021 C 
BRANCH   2   3
ATOM      3  C   UNL A   1      32.681  29.077  23.182  1.00  0.00     0.116 C 
BRANCH   3   4
ATOM      4  N   UNL A   1      32.921  28.109  22.135  1.00  0.00    -0.356 N 
ATOM      5  C   UNL A   1      32.923  26.753  22.187  1.00  0.00     0.225 C 
ATOM      6  O   UNL A   1      33.546  26.172  21.291  1.00  0.00    -0.275 OA
ATOM      7  H   UNL A   1      33.111  28.492  21.249  1.00  0.00     0.163 HD
BRANCH   5   8
ATOM      8  C   UNL A   1      32.350  25.985  23.382  1.00  0.00     0.102 C 
ATOM      9  C   UNL A   1      33.312  25.198  25.597  1.00  0.00     0.032 C 
ATOM     10  C   UNL A   1      33.486  25.191  24.078  1.00  0.00     0.094 C 
ATOM     11  N   UNL A   1      33.372  23.826  23.533  1.00  0.00    -0.338 N 
ATOM     12  C   UNL A   1      31.310  24.886  23.134  1.00  0.00     0.037 C 
ATOM     13  C   UNL A   1      32.124  23.646  22.825  1.00  0.00     0.121 C 
BRANCH  11  14
ATOM     14  C   UNL A   1      34.368  22.874  23.366  1.00  0.00     0.243 C 
ATOM     15  O   UNL A   1      35.421  23.125  22.773  1.00  0.00    -0.273 OA
BRANCH  14  16
ATOM     16  C   UNL A   1      34.158  21.516  24.018  1.00  0.00     0.230 C 
BRANCH  16  17
ATOM     17  N   UNL A   1      34.188  21.506  25.468  1.00  0.00    -0.253 N 
ATOM     18  C   UNL A   1      33.054  21.637  26.219  1.00  0.00     0.250 C 
ATOM     19  C   UNL A   1      35.288  21.675  26.254  1.00  0.00     0.325 C 
ATOM     20  O   UNL A   1      31.900  21.563  25.818  1.00  0.00    -0.272 OA
ATOM     21  C   UNL A   1      33.448  21.950  27.653  1.00  0.00     0.218 C 
ATOM     22  N   UNL A   1      34.872  21.967  27.533  1.00  0.00    -0.329 N 
ATOM     23  O   UNL A   1      36.461  21.575  25.947  1.00  0.00    -0.248 OA
ATOM     24  H   UNL A   1      35.484  22.163  28.278  1.00  0.00     0.165 HD
ENDBRANCH  16  17
ENDBRANCH  14  16
ENDBRANCH  11  14
ENDBRANCH   5   8
ENDBRANCH   3   4
ENDBRANCH   2   3
ENDBRANCH   1   2
BRANCH   1  25
ATOM     25  C   UNL A   1      31.714  29.807  25.785  1.00  0.00     0.002 C 
BRANCH  25  26
ATOM     26  C   UNL A   1      31.611  31.188  26.436  1.00  0.00     0.021 C 
BRANCH  26  27
ATOM     27  C   UNL A   1      32.826  31.631  27.246  1.00  0.00     0.116 C 
BRANCH  27  28
ATOM     28  N   UNL A   1      32.846  33.058  27.500  1.00  0.00    -0.352 N 
ATOM     29  C   UNL A   1      33.709  33.800  28.267  1.00  0.00     0.251 C 
ATOM     30  H   UNL A   1      32.132  33.572  27.056  1.00  0.00     0.163 HD
ATOM     31  O   UNL A   1      33.464  34.988  28.466  1.00  0.00    -0.269 OA
BRANCH  29  32
ATOM     32  C   UNL A   1      34.906  33.176  28.878  1.00  0.00     0.039 A 
ATOM     33  C   UNL A   1      34.720  32.140  29.799  1.00  0.00     0.014 A 
ATOM     34  C   UNL A   1      36.200  33.614  28.578  1.00  0.00     0.014 A 
ATOM     35  C   UNL A   1      35.827  31.513  30.377  1.00  0.00     0.010 A 
ATOM     36  C   UNL A   1      37.305  32.940  29.101  1.00  0.00     0.010 A 
ATOM     37  C   UNL A   1      37.131  31.887  30.012  1.00  0.00    -0.014 A 
BRANCH  37  38
ATOM     38  C   UNL A   1      38.313  31.193  30.594  1.00  0.00     0.031 A 
ATOM     39  C   UNL A   1      38.817  31.571  31.962  1.00  0.00     0.074 A 
ATOM     40  C   UNL A   1      38.948  30.245  29.878  1.00  0.00     0.049 A 
ATOM     41  N   UNL A   1      39.843  31.099  32.625  1.00  0.00    -0.248 NA
ATOM     42  C   UNL A   1      38.089  32.637  32.664  1.00  0.00     0.031 C 
ATOM     43  C   UNL A   1      38.578  29.819  28.527  1.00  0.00     0.029 A 
ATOM     44  N   UNL A   1      40.038  29.467  30.182  1.00  0.00    -0.354 N 
ATOM     45  C   UNL A   1      39.886  31.813  33.818  1.00  0.00     0.074 A 
ATOM     46  C   UNL A   1      38.824  32.795  33.755  1.00  0.00     0.031 C 
ATOM     47  C   UNL A   1      39.404  28.836  28.133  1.00  0.00     0.029 A 
ATOM     48  C   UNL A   1      40.391  28.591  29.181  1.00  0.00     0.049 A 
ATOM     49  H   UNL A   1      40.521  29.529  31.037  1.00  0.00     0.167 HD
ATOM     50  C   UNL A   1      40.716  31.649  34.879  1.00  0.00     0.034 A 
ATOM     51  C   UNL A   1      41.397  27.696  29.111  1.00  0.00     0.034 A 
ATOM     52  C   UNL A   1      41.765  30.658  34.931  1.00  0.00     0.049 A 
ATOM     53  C   UNL A   1      42.325  27.552  30.292  1.00  0.00     0.074 A 
ATOM     54  C   UNL A   1      42.628  30.370  35.975  1.00  0.00     0.029 A 
ATOM     55  N   UNL A   1      42.101  29.798  33.894  1.00  0.00    -0.354 N 
ATOM     56  N   UNL A   1      42.316  28.198  31.435  1.00  0.00    -0.248 NA
ATOM     57  C   UNL A   1      43.391  26.549  30.176  1.00  0.00     0.031 C 
ATOM     58  C   UNL A   1      43.529  29.390  35.544  1.00  0.00     0.029 A 
ATOM     59  C   UNL A   1      43.179  29.006  34.259  1.00  0.00     0.049 A 
ATOM     60  H   UNL A   1      41.641  29.757  33.025  1.00  0.00     0.167 HD
ATOM     61  C   UNL A   1      43.358  27.657  32.184  1.00  0.00     0.074 A 
ATOM     62  C   UNL A   1      43.958  26.619  31.371  1.00  0.00     0.031 C 
ATOM     63  C   UNL A   1      43.780  27.985  33.432  1.00  0.00     0.034 A 
BRANCH  50  64
ATOM     64  C   UNL A   1      40.533  32.579  36.056  1.00  0.00     0.023 A 
ATOM     65  C   UNL A   1      39.607  32.306  37.077  1.00  0.00     0.031 A 
ATOM     66  C   UNL A   1      41.280  33.768  36.149  1.00  0.00     0.131 A 
ATOM     67  C   UNL A   1      39.393  33.242  38.100  1.00  0.00     0.055 A 
ATOM     68  C   UNL A   1      41.122  34.656  37.215  1.00  0.00     0.041 A 
ATOM     69  F   UNL A   1      42.166  34.095  35.196  1.00  0.00    -0.206 F 
ATOM     70  C   UNL A   1      40.163  34.403  38.191  1.00  0.00     0.022 A 
BRANCH  67  71
ATOM     71  S   UNL A   1      37.991  32.992  39.225  1.00  0.00     0.124 S 
ATOM     72  O   UNL A   1      38.425  31.815  39.976  1.00  0.00    -0.237 OA
ATOM     73  O   UNL A   1      37.954  34.246  39.967  1.00  0.00    -0.237 OA
ATOM     74  O   UNL A   1      36.864  32.765  38.323  1.00  0.00    -0.744 OA
ENDBRANCH  67  71
ENDBRANCH  50  64
BRANCH  51  75
ATOM     75  C   UNL A   1      41.593  26.871  27.885  1.00  0.00     0.023 A 
ATOM     76  C   UNL A   1      41.152  25.539  27.830  1.00  0.00     0.031 A 
ATOM     77  C   UNL A   1      42.270  27.386  26.765  1.00  0.00     0.131 A 
ATOM     78  C   UNL A   1      41.435  24.752  26.703  1.00  0.00     0.055 A 
ATOM     79  C   UNL A   1      42.500  26.617  25.622  1.00  0.00     0.041 A 
ATOM     80  F   UNL A   1      42.710  28.654  26.762  1.00  0.00    -0.206 F 
ATOM     81  C   UNL A   1      42.094  25.287  25.593  1.00  0.00     0.022 A 
BRANCH  78  82
ATOM     82  S   UNL A   1      41.012  22.989  26.744  1.00  0.00     0.124 S 
ATOM     83  O   UNL A   1      39.573  23.024  26.513  1.00  0.00    -0.237 OA
ATOM     84  O   UNL A   1      41.825  22.458  25.654  1.00  0.00    -0.237 OA
ATOM     85  O   UNL A   1      41.422  22.572  28.084  1.00  0.00    -0.744 OA
ENDBRANCH  78  82
ENDBRANCH  51  75
BRANCH  63  86
ATOM     86  C   UNL A   1      44.925  27.181  34.001  1.00  0.00     0.023 A 
ATOM     87  C   UNL A   1      44.706  26.025  34.771  1.00  0.00     0.031 A 
ATOM     88  C   UNL A   1      46.253  27.588  33.784  1.00  0.00     0.131 A 
ATOM     89  C   UNL A   1      45.793  25.352  35.347  1.00  0.00     0.055 A 
ATOM     90  C   UNL A   1      47.334  26.878  34.306  1.00  0.00     0.041 A 
ATOM     91  F   UNL A   1      46.523  28.686  33.059  1.00  0.00    -0.206 F 
ATOM     92  C   UNL A   1      47.108  25.761  35.106  1.00  0.00     0.022 A 
BRANCH  89  93
ATOM     93  S   UNL A   1      45.463  23.992  36.501  1.00  0.00     0.124 S 
ATOM     94  O   UNL A   1      44.748  23.043  35.654  1.00  0.00    -0.237 OA
ATOM     95  O   UNL A   1      46.807  23.596  36.909  1.00  0.00    -0.237 OA
ATOM     96  O   UNL A   1      44.659  24.619  37.548  1.00  0.00    -0.744 OA
ENDBRANCH  89  93
ENDBRANCH  63  86
ENDBRANCH  37  38
ENDBRANCH  29  32
ENDBRANCH  27  28
ENDBRANCH  26  27
ENDBRANCH  25  26
ENDBRANCH   1  25
TORSDOF 19
ENDMDL
MODEL 3
REMARK VINA RESULT:     -11.1      3.718      9.310
REMARK SMILES C[C@@H]1[C@@H](C(=O)NCCCCCCNC(=O)c2ccc(-c3c4nc(c(-c5cc(S(=O)(=O)[O-])ccc5F)c5ccc([nH]5)c(-c5cc(S(=O)(=O)[O-])ccc5F)c5nc(c(-c6cc(S(=O)(=O)[O-])ccc6F)c6ccc3[nH]6)C=C5)C=C4)cc2)CCN1C(=O)CN1C(=O)CNC1=O
REMARK SMILES IDX 9 1 8 2 7 3 6 4 4 5 5 6 3 8 1 9 2 10 81 11 79 12 80 13 82 14
REMARK SMILES IDX 83 15 84 16 85 17 86 18 90 19 87 20 88 21 89 22 91 23 10 25
REMARK SMILES IDX 11 26 12 27 13 28 14 29 15 31 16 32 17 33 78 34 18 35 77 36
REMARK SMILES IDX 19 37 20 38 21 39 71 40 22 41 76 42 70 43 72 44 23 45 75 46
REMARK SMILES IDX 69 47 68 48 24 50 56 51 36 52 55 53 37 54 40 55 54 56 73 57
REMARK SMILES IDX 38 58 39 59 53 61 74 62 41 63 25 64 26 65 34 66 27 67 33 68
REMARK SMILES IDX 35 69 32 70 28 71 29 72 30 73 31 74 57 75 58 76 66 77 59 78
REMARK SMILES IDX 65 79 67 80 64 81 60 82 61 83 62 84 63 85 42 86 43 87 51 88
REMARK SMILES IDX 44 89 50 90 52 91 49 92 45 93 46 94 47 95 48 96
REMARK H PARENT 6 7 89 24 13 30 72 49 40 60
REMARK Flexibility Score: inf
ROOT
ATOM      1  C   UNL A   1      40.435  22.694  26.581  1.00  0.00     0.002 C 
ENDROOT
BRANCH   1   2
ATOM      2  C   UNL A   1      39.097  23.442  26.627  1.00  0.00     0.021 C 
BRANCH   2   3
ATOM      3  C   UNL A   1      37.900  22.677  26.069  1.00  0.00     0.116 C 
BRANCH   3   4
ATOM      4  N   UNL A   1      37.750  22.884  24.646  1.00  0.00    -0.356 N 
ATOM      5  C   UNL A   1      36.674  23.309  23.936  1.00  0.00     0.225 C 
ATOM      6  O   UNL A   1      36.658  23.014  22.736  1.00  0.00    -0.275 OA
ATOM      7  H   UNL A   1      38.551  22.688  24.109  1.00  0.00     0.163 HD
BRANCH   5   8
ATOM      8  C   UNL A   1      35.458  23.951  24.611  1.00  0.00     0.102 C 
ATOM      9  C   UNL A   1      34.057  23.364  26.647  1.00  0.00     0.032 C 
ATOM     10  C   UNL A   1      34.622  22.854  25.320  1.00  0.00     0.094 C 
ATOM     11  N   UNL A   1      33.544  22.535  24.367  1.00  0.00    -0.338 N 
ATOM     12  C   UNL A   1      34.397  24.637  23.742  1.00  0.00     0.037 C 
ATOM     13  C   UNL A   1      33.470  23.519  23.310  1.00  0.00     0.121 C 
BRANCH  11  14
ATOM     14  C   UNL A   1      32.855  21.341  24.205  1.00  0.00     0.243 C 
ATOM     15  O   UNL A   1      32.196  21.098  23.191  1.00  0.00    -0.273 OA
BRANCH  14  16
ATOM     16  C   UNL A   1      33.009  20.289  25.293  1.00  0.00     0.230 C 
BRANCH  16  17
ATOM     17  N   UNL A   1      33.697  19.075  24.898  1.00  0.00    -0.253 N 
ATOM     18  C   UNL A   1      33.066  17.863  24.854  1.00  0.00     0.250 C 
ATOM     19  C   UNL A   1      35.046  18.900  24.822  1.00  0.00     0.325 C 
ATOM     20  O   UNL A   1      31.859  17.666  24.920  1.00  0.00    -0.272 OA
ATOM     21  C   UNL A   1      34.114  16.767  24.764  1.00  0.00     0.218 C 
ATOM     22  N   UNL A   1      35.310  17.549  24.774  1.00  0.00    -0.329 N 
ATOM     23  O   UNL A   1      35.919  19.746  24.777  1.00  0.00    -0.248 OA
ATOM     24  H   UNL A   1      36.216  17.167  24.748  1.00  0.00     0.165 HD
ENDBRANCH  16  17
ENDBRANCH  14  16
ENDBRANCH  11  14
ENDBRANCH   5   8
ENDBRANCH   3   4
ENDBRANCH   2   3
ENDBRANCH   1   2
BRANCH   1  25
ATOM     25  C   UNL A   1      40.754  21.813  27.792  1.00  0.00     0.002 C 
BRANCH  25  26
ATOM     26  C   UNL A   1      41.140  20.364  27.484  1.00  0.00     0.021 C 
BRANCH  26  27
ATOM     27  C   UNL A   1      41.082  19.960  26.014  1.00  0.00     0.116 C 
BRANCH  27  28
ATOM     28  N   UNL A   1      42.325  19.386  25.536  1.00  0.00    -0.352 N 
ATOM     29  C   UNL A   1      43.538  19.988  25.312  1.00  0.00     0.251 C 
ATOM     30  H   UNL A   1      42.294  18.421  25.344  1.00  0.00     0.163 HD
ATOM     31  O   UNL A   1      44.433  19.347  24.766  1.00  0.00    -0.269 OA
BRANCH  29  32
ATOM     32  C   UNL A   1      43.762  21.404  25.688  1.00  0.00     0.039 A 
ATOM     33  C   UNL A   1      44.235  21.685  26.974  1.00  0.00     0.014 A 
ATOM     34  C   UNL A   1      43.490  22.453  24.805  1.00  0.00     0.014 A 
ATOM     35  C   UNL A   1      44.479  23.007  27.354  1.00  0.00     0.010 A 
ATOM     36  C   UNL A   1      43.802  23.766  25.161  1.00  0.00     0.010 A 
ATOM     37  C   UNL A   1      44.293  24.058  26.443  1.00  0.00    -0.014 A 
BRANCH  37  38
ATOM     38  C   UNL A   1      44.593  25.464  26.830  1.00  0.00     0.031 A 
ATOM     39  C   UNL A   1      43.515  26.336  27.418  1.00  0.00     0.074 A 
ATOM     40  C   UNL A   1      45.828  25.963  26.624  1.00  0.00     0.049 A 
ATOM     41  N   UNL A   1      43.577  27.589  27.794  1.00  0.00    -0.248 NA
ATOM     42  C   UNL A   1      42.188  25.727  27.579  1.00  0.00     0.031 C 
ATOM     43  C   UNL A   1      46.946  25.230  26.027  1.00  0.00     0.029 A 
ATOM     44  N   UNL A   1      46.353  27.203  26.893  1.00  0.00    -0.354 N 
ATOM     45  C   UNL A   1      42.298  27.919  28.231  1.00  0.00     0.074 A 
ATOM     46  C   UNL A   1      41.468  26.753  28.009  1.00  0.00     0.031 C 
ATOM     47  C   UNL A   1      48.030  26.021  26.005  1.00  0.00     0.029 A 
ATOM     48  C   UNL A   1      47.678  27.331  26.543  1.00  0.00     0.049 A 
ATOM     49  H   UNL A   1      45.831  27.932  27.299  1.00  0.00     0.167 HD
ATOM     50  C   UNL A   1      41.861  29.075  28.789  1.00  0.00     0.034 A 
ATOM     51  C   UNL A   1      48.514  28.386  26.639  1.00  0.00     0.034 A 
ATOM     52  C   UNL A   1      42.704  30.226  29.014  1.00  0.00     0.049 A 
ATOM     53  C   UNL A   1      47.997  29.671  27.237  1.00  0.00     0.074 A 
ATOM     54  C   UNL A   1      42.379  31.428  29.619  1.00  0.00     0.029 A 
ATOM     55  N   UNL A   1      44.036  30.324  28.634  1.00  0.00    -0.354 N 
ATOM     56  N   UNL A   1      46.798  29.947  27.695  1.00  0.00    -0.248 NA
ATOM     57  C   UNL A   1      48.951  30.783  27.339  1.00  0.00     0.031 C 
ATOM     58  C   UNL A   1      43.489  32.275  29.541  1.00  0.00     0.029 A 
ATOM     59  C   UNL A   1      44.535  31.576  28.960  1.00  0.00     0.049 A 
ATOM     60  H   UNL A   1      44.552  29.608  28.197  1.00  0.00     0.167 HD
ATOM     61  C   UNL A   1      46.865  31.255  28.168  1.00  0.00     0.074 A 
ATOM     62  C   UNL A   1      48.226  31.703  27.957  1.00  0.00     0.031 C 
ATOM     63  C   UNL A   1      45.891  32.018  28.728  1.00  0.00     0.034 A 
BRANCH  50  64
ATOM     64  C   UNL A   1      40.402  29.155  29.173  1.00  0.00     0.023 A 
ATOM     65  C   UNL A   1      39.984  29.078  30.513  1.00  0.00     0.031 A 
ATOM     66  C   UNL A   1      39.410  29.288  28.184  1.00  0.00     0.131 A 
ATOM     67  C   UNL A   1      38.615  29.054  30.822  1.00  0.00     0.055 A 
ATOM     68  C   UNL A   1      38.052  29.349  28.505  1.00  0.00     0.041 A 
ATOM     69  F   UNL A   1      39.743  29.346  26.886  1.00  0.00    -0.206 F 
ATOM     70  C   UNL A   1      37.647  29.216  29.830  1.00  0.00     0.022 A 
BRANCH  67  71
ATOM     71  S   UNL A   1      38.117  28.659  32.521  1.00  0.00     0.124 S 
ATOM     72  O   UNL A   1      36.772  29.228  32.573  1.00  0.00    -0.237 OA
ATOM     73  O   UNL A   1      38.198  27.204  32.544  1.00  0.00    -0.237 OA
ATOM     74  O   UNL A   1      39.110  29.353  33.339  1.00  0.00    -0.744 OA
ENDBRANCH  67  71
ENDBRANCH  50  64
BRANCH  51  75
ATOM     75  C   UNL A   1      49.920  28.284  26.154  1.00  0.00     0.023 A 
ATOM     76  C   UNL A   1      50.238  28.496  24.803  1.00  0.00     0.031 A 
ATOM     77  C   UNL A   1      50.962  27.922  27.026  1.00  0.00     0.131 A 
ATOM     78  C   UNL A   1      51.552  28.297  24.352  1.00  0.00     0.055 A 
ATOM     79  C   UNL A   1      52.280  27.780  26.584  1.00  0.00     0.041 A 
ATOM     80  F   UNL A   1      50.715  27.710  28.328  1.00  0.00    -0.206 F 
ATOM     81  C   UNL A   1      52.578  27.955  25.236  1.00  0.00     0.022 A 
BRANCH  78  82
ATOM     82  S   UNL A   1      51.886  28.401  22.573  1.00  0.00     0.124 S 
ATOM     83  O   UNL A   1      51.578  27.046  22.133  1.00  0.00    -0.237 OA
ATOM     84  O   UNL A   1      50.952  29.441  22.151  1.00  0.00    -0.237 OA
ATOM     85  O   UNL A   1      53.298  28.774  22.513  1.00  0.00    -0.744 OA
ENDBRANCH  78  82
ENDBRANCH  51  75
BRANCH  63  86
ATOM     86  C   UNL A   1      46.284  33.402  29.184  1.00  0.00     0.023 A 
ATOM     87  C   UNL A   1      46.129  34.526  28.353  1.00  0.00     0.031 A 
ATOM     88  C   UNL A   1      46.838  33.598  30.461  1.00  0.00     0.131 A 
ATOM     89  C   UNL A   1      46.580  35.783  28.784  1.00  0.00     0.055 A 
ATOM     90  C   UNL A   1      47.225  34.861  30.909  1.00  0.00     0.041 A 
ATOM     91  F   UNL A   1      47.012  32.562  31.297  1.00  0.00    -0.206 F 
ATOM     92  C   UNL A   1      47.112  35.961  30.064  1.00  0.00     0.022 A 
BRANCH  89  93
ATOM     93  S   UNL A   1      46.556  37.166  27.610  1.00  0.00     0.124 S 
ATOM     94  O   UNL A   1      47.287  38.196  28.342  1.00  0.00    -0.237 OA
ATOM     95  O   UNL A   1      47.236  36.603  26.450  1.00  0.00    -0.237 OA
ATOM     96  O   UNL A   1      45.130  37.432  27.423  1.00  0.00    -0.744 OA
ENDBRANCH  89  93
ENDBRANCH  63  86
ENDBRANCH  37  38
ENDBRANCH  29  32
ENDBRANCH  27  28
ENDBRANCH  26  27
ENDBRANCH  25  26
ENDBRANCH   1  25
TORSDOF 19
ENDMDL
