MODEL 1
REMARK VINA RESULT:     -11.5      0.000      0.000
REMARK SMILES N#C[C@H]1CN(c2cc(C(=O)NCCCCCCNC(=O)c3ccc(-c4c5nc(c(-c6cc(S(=O)(=O)[O-])ccc6F)c6ccc([nH]6)c(-c6cc(S(=O)(=O)[O-])ccc6F)c6nc(c(-c7cc(S(=O)(=O)[O-])ccc7F)c7ccc4[nH]7)C=C6)C=C5)cc3)c(N)cc2F)CCO1
REMARK SMILES IDX 15 1 14 2 13 3 12 4 11 5 9 6 10 7 8 9 6 10 7 11 87 12 86 13
REMARK SMILES IDX 88 14 84 15 5 16 3 17 4 18 91 19 90 20 89 21 2 22 1 23 85 24
REMARK SMILES IDX 16 27 17 28 18 29 19 30 20 32 21 33 22 34 83 35 23 36 82 37
REMARK SMILES IDX 24 38 25 39 26 40 76 41 27 42 81 43 75 44 77 45 28 46 80 47
REMARK SMILES IDX 74 48 73 49 29 51 61 52 41 53 60 54 42 55 45 56 59 57 78 58
REMARK SMILES IDX 43 59 44 60 58 62 79 63 46 64 30 65 31 66 39 67 32 68 38 69
REMARK SMILES IDX 40 70 37 71 33 72 34 73 35 74 36 75 62 76 63 77 71 78 64 79
REMARK SMILES IDX 70 80 72 81 69 82 65 83 66 84 67 85 68 86 47 87 48 88 56 89
REMARK SMILES IDX 49 90 55 91 57 92 54 93 50 94 51 95 52 96 53 97
REMARK H PARENT 11 8 85 25 85 26 18 31 77 50 45 61
REMARK Flexibility Score: inf
ROOT
ATOM      1  C   UNL A   1      37.952  21.279  25.003  1.00  0.00     0.002 C 
ENDROOT
BRANCH   1   2
ATOM      2  C   UNL A   1      38.415  22.384  25.959  1.00  0.00     0.002 C 
BRANCH   2   3
ATOM      3  C   UNL A   1      37.640  23.703  25.916  1.00  0.00     0.021 C 
BRANCH   3   4
ATOM      4  C   UNL A   1      36.128  23.591  25.774  1.00  0.00     0.116 C 
BRANCH   4   5
ATOM      5  N   UNL A   1      35.448  22.947  26.879  1.00  0.00    -0.352 N 
ATOM      6  C   UNL A   1      34.387  22.068  26.875  1.00  0.00     0.253 C 
ATOM      7  O   UNL A   1      34.011  21.629  27.964  1.00  0.00    -0.269 OA
ATOM      8  H   UNL A   1      35.799  23.173  27.771  1.00  0.00     0.163 HD
BRANCH   6   9
ATOM      9  C   UNL A   1      33.628  21.685  25.639  1.00  0.00     0.065 A 
ATOM     10  C   UNL A   1      32.544  22.570  23.614  1.00  0.00     0.074 A 
ATOM     11  C   UNL A   1      33.283  22.763  24.787  1.00  0.00     0.045 A 
ATOM     12  C   UNL A   1      32.313  21.247  23.224  1.00  0.00     0.148 A 
ATOM     13  C   UNL A   1      32.630  20.173  24.043  1.00  0.00     0.067 A 
ATOM     14  F   UNL A   1      31.710  20.990  22.052  1.00  0.00    -0.205 F 
ATOM     15  C   UNL A   1      33.172  20.391  25.313  1.00  0.00     0.047 A 
BRANCH  10  16
ATOM     16  N   UNL A   1      31.982  23.634  22.941  1.00  0.00    -0.363 N 
ATOM     17  C   UNL A   1      30.762  25.653  23.651  1.00  0.00     0.240 C 
ATOM     18  C   UNL A   1      30.647  24.166  23.228  1.00  0.00     0.164 C 
ATOM     19  O   UNL A   1      31.517  26.421  22.678  1.00  0.00    -0.360 OA
ATOM     20  C   UNL A   1      32.848  25.893  22.535  1.00  0.00     0.183 C 
ATOM     21  C   UNL A   1      32.815  24.444  22.042  1.00  0.00     0.145 C 
BRANCH  17  22
ATOM     22  C   UNL A   1      29.414  26.233  23.800  1.00  0.00     0.096 C 
ATOM     23  N   UNL A   1      28.350  26.678  23.921  1.00  0.00    -0.195 NA
ENDBRANCH  17  22
ENDBRANCH  10  16
BRANCH  15  24
ATOM     24  N   UNL A   1      33.181  19.308  26.183  1.00  0.00    -0.398 N 
ATOM     25  H   UNL A   1      32.558  18.559  26.043  1.00  0.00     0.156 HD
ATOM     26  H   UNL A   1      33.811  19.290  26.939  1.00  0.00     0.156 HD
ENDBRANCH  15  24
ENDBRANCH   6   9
ENDBRANCH   4   5
ENDBRANCH   3   4
ENDBRANCH   2   3
ENDBRANCH   1   2
BRANCH   1  27
ATOM     27  C   UNL A   1      38.719  19.957  25.066  1.00  0.00     0.021 C 
BRANCH  27  28
ATOM     28  C   UNL A   1      39.449  19.679  26.374  1.00  0.00     0.116 C 
BRANCH  28  29
ATOM     29  N   UNL A   1      40.755  19.077  26.169  1.00  0.00    -0.352 N 
ATOM     30  C   UNL A   1      41.989  19.675  26.103  1.00  0.00     0.251 C 
ATOM     31  H   UNL A   1      40.755  18.098  26.061  1.00  0.00     0.163 HD
ATOM     32  O   UNL A   1      42.965  19.021  25.748  1.00  0.00    -0.269 OA
BRANCH  30  33
ATOM     33  C   UNL A   1      42.130  21.112  26.432  1.00  0.00     0.039 A 
ATOM     34  C   UNL A   1      42.343  21.485  27.760  1.00  0.00     0.014 A 
ATOM     35  C   UNL A   1      42.063  22.086  25.432  1.00  0.00     0.014 A 
ATOM     36  C   UNL A   1      42.554  22.829  28.076  1.00  0.00     0.010 A 
ATOM     37  C   UNL A   1      42.360  23.411  25.736  1.00  0.00     0.010 A 
ATOM     38  C   UNL A   1      42.604  23.799  27.062  1.00  0.00    -0.014 A 
BRANCH  38  39
ATOM     39  C   UNL A   1      42.899  25.224  27.369  1.00  0.00     0.031 A 
ATOM     40  C   UNL A   1      44.259  25.794  27.070  1.00  0.00     0.074 A 
ATOM     41  C   UNL A   1      41.965  25.990  27.964  1.00  0.00     0.049 A 
ATOM     42  N   UNL A   1      44.732  26.988  27.322  1.00  0.00    -0.248 NA
ATOM     43  C   UNL A   1      45.222  24.889  26.429  1.00  0.00     0.031 C 
ATOM     44  C   UNL A   1      40.615  25.548  28.324  1.00  0.00     0.029 A 
ATOM     45  N   UNL A   1      42.003  27.300  28.370  1.00  0.00    -0.354 N 
ATOM     46  C   UNL A   1      46.048  26.976  26.873  1.00  0.00     0.074 A 
ATOM     47  C   UNL A   1      46.319  25.629  26.416  1.00  0.00     0.031 C 
ATOM     48  C   UNL A   1      39.943  26.580  28.854  1.00  0.00     0.029 A 
ATOM     49  C   UNL A   1      40.826  27.740  28.930  1.00  0.00     0.049 A 
ATOM     50  H   UNL A   1      42.798  27.871  28.270  1.00  0.00     0.167 HD
ATOM     51  C   UNL A   1      46.938  27.999  26.818  1.00  0.00     0.034 A 
ATOM     52  C   UNL A   1      40.498  28.937  29.455  1.00  0.00     0.034 A 
ATOM     53  C   UNL A   1      46.655  29.332  27.291  1.00  0.00     0.049 A 
ATOM     54  C   UNL A   1      41.530  30.037  29.465  1.00  0.00     0.074 A 
ATOM     55  C   UNL A   1      47.471  30.449  27.263  1.00  0.00     0.029 A 
ATOM     56  N   UNL A   1      45.467  29.726  27.898  1.00  0.00    -0.354 N 
ATOM     57  N   UNL A   1      42.761  30.021  29.007  1.00  0.00    -0.248 NA
ATOM     58  C   UNL A   1      41.125  31.317  30.060  1.00  0.00     0.031 C 
ATOM     59  C   UNL A   1      46.815  31.489  27.931  1.00  0.00     0.029 A 
ATOM     60  C   UNL A   1      45.548  31.056  28.285  1.00  0.00     0.049 A 
ATOM     61  H   UNL A   1      44.684  29.146  28.032  1.00  0.00     0.167 HD
ATOM     62  C   UNL A   1      43.262  31.303  29.220  1.00  0.00     0.074 A 
ATOM     63  C   UNL A   1      42.197  32.066  29.842  1.00  0.00     0.031 C 
ATOM     64  C   UNL A   1      44.486  31.807  28.917  1.00  0.00     0.034 A 
BRANCH  51  65
ATOM     65  C   UNL A   1      48.308  27.690  26.255  1.00  0.00     0.023 A 
ATOM     66  C   UNL A   1      48.600  27.876  24.892  1.00  0.00     0.031 A 
ATOM     67  C   UNL A   1      49.315  27.144  27.069  1.00  0.00     0.131 A 
ATOM     68  C   UNL A   1      49.815  27.413  24.364  1.00  0.00     0.055 A 
ATOM     69  C   UNL A   1      50.565  26.788  26.558  1.00  0.00     0.041 A 
ATOM     70  F   UNL A   1      49.094  26.921  28.375  1.00  0.00    -0.206 F 
ATOM     71  C   UNL A   1      50.813  26.898  25.193  1.00  0.00     0.022 A 
BRANCH  68  72
ATOM     72  S   UNL A   1      49.981  27.300  22.562  1.00  0.00     0.124 S 
ATOM     73  O   UNL A   1      48.850  26.442  22.216  1.00  0.00    -0.237 OA
ATOM     74  O   UNL A   1      49.875  28.694  22.146  1.00  0.00    -0.237 OA
ATOM     75  O   UNL A   1      51.295  26.689  22.377  1.00  0.00    -0.744 OA
ENDBRANCH  68  72
ENDBRANCH  51  65
BRANCH  52  76
ATOM     76  C   UNL A   1      39.132  29.169  30.006  1.00  0.00     0.023 A 
ATOM     77  C   UNL A   1      38.158  29.841  29.252  1.00  0.00     0.031 A 
ATOM     78  C   UNL A   1      38.789  28.751  31.305  1.00  0.00     0.131 A 
ATOM     79  C   UNL A   1      36.903  30.115  29.816  1.00  0.00     0.055 A 
ATOM     80  C   UNL A   1      37.518  28.972  31.838  1.00  0.00     0.041 A 
ATOM     81  F   UNL A   1      39.683  28.106  32.070  1.00  0.00    -0.206 F 
ATOM     82  C   UNL A   1      36.570  29.669  31.096  1.00  0.00     0.022 A 
BRANCH  79  83
ATOM     83  S   UNL A   1      35.738  31.144  28.880  1.00  0.00     0.124 S 
ATOM     84  O   UNL A   1      35.051  31.858  29.949  1.00  0.00    -0.237 OA
ATOM     85  O   UNL A   1      36.636  31.939  28.048  1.00  0.00    -0.237 OA
ATOM     86  O   UNL A   1      34.926  30.165  28.158  1.00  0.00    -0.744 OA
ENDBRANCH  79  83
ENDBRANCH  52  76
BRANCH  64  87
ATOM     87  C   UNL A   1      44.724  33.272  29.204  1.00  0.00     0.023 A 
ATOM     88  C   UNL A   1      44.261  34.286  28.347  1.00  0.00     0.031 A 
ATOM     89  C   UNL A   1      45.429  33.658  30.359  1.00  0.00     0.131 A 
ATOM     90  C   UNL A   1      44.561  35.629  28.625  1.00  0.00     0.055 A 
ATOM     91  C   UNL A   1      45.658  34.998  30.670  1.00  0.00     0.041 A 
ATOM     92  F   UNL A   1      45.903  32.735  31.211  1.00  0.00    -0.206 F 
ATOM     93  C   UNL A   1      45.235  35.993  29.793  1.00  0.00     0.022 A 
BRANCH  90  94
ATOM     94  S   UNL A   1      44.153  36.887  27.385  1.00  0.00     0.124 S 
ATOM     95  O   UNL A   1      43.581  37.948  28.208  1.00  0.00    -0.237 OA
ATOM     96  O   UNL A   1      45.454  37.174  26.790  1.00  0.00    -0.237 OA
ATOM     97  O   UNL A   1      43.205  36.207  26.504  1.00  0.00    -0.744 OA
ENDBRANCH  90  94
ENDBRANCH  64  87
ENDBRANCH  38  39
ENDBRANCH  30  33
ENDBRANCH  28  29
ENDBRANCH  27  28
ENDBRANCH   1  27
TORSDOF 19
ENDMDL
MODEL 2
REMARK VINA RESULT:     -11.5      6.451      9.845
REMARK SMILES N#C[C@H]1CN(c2cc(C(=O)NCCCCCCNC(=O)c3ccc(-c4c5nc(c(-c6cc(S(=O)(=O)[O-])ccc6F)c6ccc([nH]6)c(-c6cc(S(=O)(=O)[O-])ccc6F)c6nc(c(-c7cc(S(=O)(=O)[O-])ccc7F)c7ccc4[nH]7)C=C6)C=C5)cc3)c(N)cc2F)CCO1
REMARK SMILES IDX 15 1 14 2 13 3 12 4 11 5 9 6 10 7 8 9 6 10 7 11 87 12 86 13
REMARK SMILES IDX 88 14 84 15 5 16 3 17 4 18 91 19 90 20 89 21 2 22 1 23 85 24
REMARK SMILES IDX 16 27 17 28 18 29 19 30 20 32 21 33 22 34 83 35 23 36 82 37
REMARK SMILES IDX 24 38 25 39 26 40 76 41 27 42 81 43 75 44 77 45 28 46 80 47
REMARK SMILES IDX 74 48 73 49 29 51 61 52 41 53 60 54 42 55 45 56 59 57 78 58
REMARK SMILES IDX 43 59 44 60 58 62 79 63 46 64 30 65 31 66 39 67 32 68 38 69
REMARK SMILES IDX 40 70 37 71 33 72 34 73 35 74 36 75 62 76 63 77 71 78 64 79
REMARK SMILES IDX 70 80 72 81 69 82 65 83 66 84 67 85 68 86 47 87 48 88 56 89
REMARK SMILES IDX 49 90 55 91 57 92 54 93 50 94 51 95 52 96 53 97
REMARK H PARENT 11 8 85 25 85 26 18 31 77 50 45 61
REMARK Flexibility Score: inf
ROOT
ATOM      1  C   UNL A   1      32.119  30.163  26.180  1.00  0.00     0.002 C 
ENDROOT
BRANCH   1   2
ATOM      2  C   UNL A   1      33.269  29.405  26.852  1.00  0.00     0.002 C 
BRANCH   2   3
ATOM      3  C   UNL A   1      34.040  28.408  25.983  1.00  0.00     0.021 C 
BRANCH   3   4
ATOM      4  C   UNL A   1      33.399  27.038  25.804  1.00  0.00     0.116 C 
BRANCH   4   5
ATOM      5  N   UNL A   1      33.584  26.435  24.500  1.00  0.00    -0.352 N 
ATOM      6  C   UNL A   1      32.708  26.330  23.441  1.00  0.00     0.253 C 
ATOM      7  O   UNL A   1      33.126  25.795  22.412  1.00  0.00    -0.269 OA
ATOM      8  H   UNL A   1      34.472  26.038  24.347  1.00  0.00     0.163 HD
BRANCH   6   9
ATOM      9  C   UNL A   1      31.272  26.759  23.501  1.00  0.00     0.065 A 
ATOM     10  C   UNL A   1      29.732  28.625  23.049  1.00  0.00     0.074 A 
ATOM     11  C   UNL A   1      31.016  28.069  23.025  1.00  0.00     0.045 A 
ATOM     12  C   UNL A   1      28.680  27.771  23.396  1.00  0.00     0.148 A 
ATOM     13  C   UNL A   1      28.903  26.488  23.876  1.00  0.00     0.067 A 
ATOM     14  F   UNL A   1      27.412  28.208  23.330  1.00  0.00    -0.205 F 
ATOM     15  C   UNL A   1      30.207  26.018  24.054  1.00  0.00     0.047 A 
BRANCH  10  16
ATOM     16  N   UNL A   1      29.534  29.974  22.846  1.00  0.00    -0.363 N 
ATOM     17  C   UNL A   1      28.080  31.280  21.347  1.00  0.00     0.240 C 
ATOM     18  C   UNL A   1      29.460  30.595  21.520  1.00  0.00     0.164 C 
ATOM     19  O   UNL A   1      27.796  32.182  22.448  1.00  0.00    -0.360 OA
ATOM     20  C   UNL A   1      27.787  31.470  23.699  1.00  0.00     0.183 C 
ATOM     21  C   UNL A   1      29.149  30.828  23.976  1.00  0.00     0.145 C 
BRANCH  17  22
ATOM     22  C   UNL A   1      28.053  32.030  20.076  1.00  0.00     0.096 C 
ATOM     23  N   UNL A   1      28.032  32.608  19.071  1.00  0.00    -0.195 NA
ENDBRANCH  17  22
ENDBRANCH  10  16
BRANCH  15  24
ATOM     24  N   UNL A   1      30.358  24.863  24.809  1.00  0.00    -0.398 N 
ATOM     25  H   UNL A   1      29.716  24.655  25.526  1.00  0.00     0.156 HD
ATOM     26  H   UNL A   1      31.107  24.251  24.628  1.00  0.00     0.156 HD
ENDBRANCH  15  24
ENDBRANCH   6   9
ENDBRANCH   4   5
ENDBRANCH   3   4
ENDBRANCH   2   3
ENDBRANCH   1   2
BRANCH   1  27
ATOM     27  C   UNL A   1      31.824  31.567  26.709  1.00  0.00     0.021 C 
BRANCH  27  28
ATOM     28  C   UNL A   1      33.002  32.293  27.347  1.00  0.00     0.116 C 
BRANCH  28  29
ATOM     29  N   UNL A   1      32.713  33.688  27.632  1.00  0.00    -0.352 N 
ATOM     30  C   UNL A   1      33.238  34.506  28.602  1.00  0.00     0.251 C 
ATOM     31  H   UNL A   1      32.044  34.107  27.044  1.00  0.00     0.163 HD
ATOM     32  O   UNL A   1      32.742  35.610  28.801  1.00  0.00    -0.269 OA
BRANCH  30  33
ATOM     33  C   UNL A   1      34.378  34.038  29.422  1.00  0.00     0.039 A 
ATOM     34  C   UNL A   1      34.130  33.208  30.516  1.00  0.00     0.014 A 
ATOM     35  C   UNL A   1      35.689  34.408  29.106  1.00  0.00     0.014 A 
ATOM     36  C   UNL A   1      35.201  32.696  31.254  1.00  0.00     0.010 A 
ATOM     37  C   UNL A   1      36.755  33.828  29.786  1.00  0.00     0.010 A 
ATOM     38  C   UNL A   1      36.523  32.970  30.871  1.00  0.00    -0.014 A 
BRANCH  38  39
ATOM     39  C   UNL A   1      37.677  32.377  31.598  1.00  0.00     0.031 A 
ATOM     40  C   UNL A   1      38.478  31.270  30.969  1.00  0.00     0.074 A 
ATOM     41  C   UNL A   1      37.971  32.795  32.845  1.00  0.00     0.049 A 
ATOM     42  N   UNL A   1      39.474  30.580  31.464  1.00  0.00    -0.248 NA
ATOM     43  C   UNL A   1      38.084  30.867  29.612  1.00  0.00     0.031 C 
ATOM     44  C   UNL A   1      37.258  33.846  33.573  1.00  0.00     0.029 A 
ATOM     45  N   UNL A   1      38.949  32.391  33.720  1.00  0.00    -0.354 N 
ATOM     46  C   UNL A   1      39.823  29.661  30.482  1.00  0.00     0.074 A 
ATOM     47  C   UNL A   1      38.874  29.827  29.401  1.00  0.00     0.031 C 
ATOM     48  C   UNL A   1      37.848  34.034  34.763  1.00  0.00     0.029 A 
ATOM     49  C   UNL A   1      38.942  33.079  34.911  1.00  0.00     0.049 A 
ATOM     50  H   UNL A   1      39.593  31.677  33.514  1.00  0.00     0.167 HD
ATOM     51  C   UNL A   1      40.857  28.782  30.466  1.00  0.00     0.034 A 
ATOM     52  C   UNL A   1      39.722  32.950  36.003  1.00  0.00     0.034 A 
ATOM     53  C   UNL A   1      41.785  28.620  31.559  1.00  0.00     0.049 A 
ATOM     54  C   UNL A   1      40.811  31.906  36.002  1.00  0.00     0.074 A 
ATOM     55  C   UNL A   1      42.882  27.780  31.643  1.00  0.00     0.029 A 
ATOM     56  N   UNL A   1      41.717  29.301  32.770  1.00  0.00    -0.354 N 
ATOM     57  N   UNL A   1      41.151  31.065  35.052  1.00  0.00    -0.248 NA
ATOM     58  C   UNL A   1      41.623  31.798  37.221  1.00  0.00     0.031 C 
ATOM     59  C   UNL A   1      43.418  27.886  32.931  1.00  0.00     0.029 A 
ATOM     60  C   UNL A   1      42.725  28.868  33.619  1.00  0.00     0.049 A 
ATOM     61  H   UNL A   1      41.050  29.991  32.991  1.00  0.00     0.167 HD
ATOM     62  C   UNL A   1      42.246  30.359  35.545  1.00  0.00     0.074 A 
ATOM     63  C   UNL A   1      42.510  30.878  36.873  1.00  0.00     0.031 C 
ATOM     64  C   UNL A   1      42.974  29.380  34.948  1.00  0.00     0.034 A 
BRANCH  51  65
ATOM     65  C   UNL A   1      41.003  27.911  29.238  1.00  0.00     0.023 A 
ATOM     66  C   UNL A   1      42.011  28.147  28.286  1.00  0.00     0.031 A 
ATOM     67  C   UNL A   1      40.091  26.874  28.978  1.00  0.00     0.131 A 
ATOM     68  C   UNL A   1      42.012  27.442  27.074  1.00  0.00     0.055 A 
ATOM     69  C   UNL A   1      40.165  26.100  27.818  1.00  0.00     0.041 A 
ATOM     70  F   UNL A   1      39.091  26.610  29.835  1.00  0.00    -0.206 F 
ATOM     71  C   UNL A   1      41.114  26.398  26.845  1.00  0.00     0.022 A 
BRANCH  68  72
ATOM     72  S   UNL A   1      43.061  28.053  25.726  1.00  0.00     0.124 S 
ATOM     73  O   UNL A   1      44.267  27.248  25.905  1.00  0.00    -0.237 OA
ATOM     74  O   UNL A   1      42.262  27.754  24.543  1.00  0.00    -0.237 OA
ATOM     75  O   UNL A   1      43.219  29.474  26.032  1.00  0.00    -0.744 OA
ENDBRANCH  68  72
ENDBRANCH  51  65
BRANCH  52  76
ATOM     76  C   UNL A   1      39.514  33.833  37.186  1.00  0.00     0.023 A 
ATOM     77  C   UNL A   1      38.852  33.358  38.329  1.00  0.00     0.031 A 
ATOM     78  C   UNL A   1      39.944  35.172  37.182  1.00  0.00     0.131 A 
ATOM     79  C   UNL A   1      38.600  34.225  39.403  1.00  0.00     0.055 A 
ATOM     80  C   UNL A   1      39.745  36.014  38.278  1.00  0.00     0.041 A 
ATOM     81  F   UNL A   1      40.581  35.679  36.114  1.00  0.00    -0.206 F 
ATOM     82  C   UNL A   1      39.058  35.544  39.393  1.00  0.00     0.022 A 
BRANCH  79  83
ATOM     83  S   UNL A   1      37.584  33.626  40.780  1.00  0.00     0.124 S 
ATOM     84  O   UNL A   1      38.518  32.747  41.474  1.00  0.00    -0.237 OA
ATOM     85  O   UNL A   1      37.237  34.866  41.465  1.00  0.00    -0.237 OA
ATOM     86  O   UNL A   1      36.471  32.953  40.112  1.00  0.00    -0.744 OA
ENDBRANCH  79  83
ENDBRANCH  52  76
BRANCH  64  87
ATOM     87  C   UNL A   1      44.165  28.841  35.707  1.00  0.00     0.023 A 
ATOM     88  C   UNL A   1      44.066  27.726  36.558  1.00  0.00     0.031 A 
ATOM     89  C   UNL A   1      45.422  29.458  35.574  1.00  0.00     0.131 A 
ATOM     90  C   UNL A   1      45.187  27.301  37.288  1.00  0.00     0.055 A 
ATOM     91  C   UNL A   1      46.551  28.984  36.243  1.00  0.00     0.041 A 
ATOM     92  F   UNL A   1      45.577  30.531  34.782  1.00  0.00    -0.206 F 
ATOM     93  C   UNL A   1      46.435  27.908  37.117  1.00  0.00     0.022 A 
BRANCH  90  94
ATOM     94  S   UNL A   1      44.971  26.014  38.546  1.00  0.00     0.124 S 
ATOM     95  O   UNL A   1      44.482  26.783  39.685  1.00  0.00    -0.237 OA
ATOM     96  O   UNL A   1      44.003  25.121  37.917  1.00  0.00    -0.237 OA
ATOM     97  O   UNL A   1      46.314  25.458  38.703  1.00  0.00    -0.744 OA
ENDBRANCH  90  94
ENDBRANCH  64  87
ENDBRANCH  38  39
ENDBRANCH  30  33
ENDBRANCH  28  29
ENDBRANCH  27  28
ENDBRANCH   1  27
TORSDOF 19
ENDMDL
MODEL 3
REMARK VINA RESULT:     -11.3      5.626     11.062
REMARK SMILES N#C[C@H]1CN(c2cc(C(=O)NCCCCCCNC(=O)c3ccc(-c4c5nc(c(-c6cc(S(=O)(=O)[O-])ccc6F)c6ccc([nH]6)c(-c6cc(S(=O)(=O)[O-])ccc6F)c6nc(c(-c7cc(S(=O)(=O)[O-])ccc7F)c7ccc4[nH]7)C=C6)C=C5)cc3)c(N)cc2F)CCO1
REMARK SMILES IDX 15 1 14 2 13 3 12 4 11 5 9 6 10 7 8 9 6 10 7 11 87 12 86 13
REMARK SMILES IDX 88 14 84 15 5 16 3 17 4 18 91 19 90 20 89 21 2 22 1 23 85 24
REMARK SMILES IDX 16 27 17 28 18 29 19 30 20 32 21 33 22 34 83 35 23 36 82 37
REMARK SMILES IDX 24 38 25 39 26 40 76 41 27 42 81 43 75 44 77 45 28 46 80 47
REMARK SMILES IDX 74 48 73 49 29 51 61 52 41 53 60 54 42 55 45 56 59 57 78 58
REMARK SMILES IDX 43 59 44 60 58 62 79 63 46 64 30 65 31 66 39 67 32 68 38 69
REMARK SMILES IDX 40 70 37 71 33 72 34 73 35 74 36 75 62 76 63 77 71 78 64 79
REMARK SMILES IDX 70 80 72 81 69 82 65 83 66 84 67 85 68 86 47 87 48 88 56 89
REMARK SMILES IDX 49 90 55 91 57 92 54 93 50 94 51 95 52 96 53 97
REMARK H PARENT 11 8 85 25 85 26 18 31 77 50 45 61
REMARK Flexibility Score: inf
ROOT
ATOM      1  C   UNL A   1      31.446  30.629  26.045  1.00  0.00     0.002 C 
ENDROOT
BRANCH   1   2
ATOM      2  C   UNL A   1      32.294  29.646  26.858  1.00  0.00     0.002 C 
BRANCH   2   3
ATOM      3  C   UNL A   1      31.628  28.328  27.262  1.00  0.00     0.021 C 
BRANCH   3   4
ATOM      4  C   UNL A   1      31.605  27.235  26.203  1.00  0.00     0.116 C 
BRANCH   4   5
ATOM      5  N   UNL A   1      30.379  27.140  25.437  1.00  0.00    -0.352 N 
ATOM      6  C   UNL A   1      30.068  26.340  24.359  1.00  0.00     0.253 C 
ATOM      7  O   UNL A   1      28.926  26.424  23.902  1.00  0.00    -0.269 OA
ATOM      8  H   UNL A   1      29.657  27.741  25.732  1.00  0.00     0.163 HD
BRANCH   6   9
ATOM      9  C   UNL A   1      31.056  25.441  23.676  1.00  0.00     0.065 A 
ATOM     10  C   UNL A   1      32.310  23.334  23.891  1.00  0.00     0.074 A 
ATOM     11  C   UNL A   1      31.378  24.255  24.382  1.00  0.00     0.045 A 
ATOM     12  C   UNL A   1      32.778  23.541  22.590  1.00  0.00     0.148 A 
ATOM     13  C   UNL A   1      32.489  24.698  21.881  1.00  0.00     0.067 A 
ATOM     14  F   UNL A   1      33.587  22.635  22.017  1.00  0.00    -0.205 F 
ATOM     15  C   UNL A   1      31.731  25.715  22.468  1.00  0.00     0.047 A 
BRANCH  10  16
ATOM     16  N   UNL A   1      32.817  22.335  24.695  1.00  0.00    -0.363 N 
ATOM     17  C   UNL A   1      33.162  19.914  24.399  1.00  0.00     0.240 C 
ATOM     18  C   UNL A   1      32.184  21.024  24.863  1.00  0.00     0.164 C 
ATOM     19  O   UNL A   1      34.453  20.044  25.049  1.00  0.00    -0.360 OA
ATOM     20  C   UNL A   1      35.049  21.318  24.747  1.00  0.00     0.183 C 
ATOM     21  C   UNL A   1      34.171  22.468  25.248  1.00  0.00     0.145 C 
BRANCH  17  22
ATOM     22  C   UNL A   1      32.588  18.589  24.702  1.00  0.00     0.096 C 
ATOM     23  N   UNL A   1      32.126  17.553  24.943  1.00  0.00    -0.195 NA
ENDBRANCH  17  22
ENDBRANCH  10  16
BRANCH  15  24
ATOM     24  N   UNL A   1      31.736  26.947  21.829  1.00  0.00    -0.398 N 
ATOM     25  H   UNL A   1      31.843  26.995  20.851  1.00  0.00     0.156 HD
ATOM     26  H   UNL A   1      31.632  27.774  22.353  1.00  0.00     0.156 HD
ENDBRANCH  15  24
ENDBRANCH   6   9
ENDBRANCH   4   5
ENDBRANCH   3   4
ENDBRANCH   2   3
ENDBRANCH   1   2
BRANCH   1  27
ATOM     27  C   UNL A   1      31.418  32.077  26.538  1.00  0.00     0.021 C 
BRANCH  27  28
ATOM     28  C   UNL A   1      32.675  32.555  27.254  1.00  0.00     0.116 C 
BRANCH  28  29
ATOM     29  N   UNL A   1      32.616  33.962  27.610  1.00  0.00    -0.352 N 
ATOM     30  C   UNL A   1      33.350  34.657  28.541  1.00  0.00     0.251 C 
ATOM     31  H   UNL A   1      31.955  34.495  27.112  1.00  0.00     0.163 HD
ATOM     32  O   UNL A   1      33.038  35.809  28.825  1.00  0.00    -0.269 OA
BRANCH  30  33
ATOM     33  C   UNL A   1      34.492  34.002  29.216  1.00  0.00     0.039 A 
ATOM     34  C   UNL A   1      34.238  33.055  30.210  1.00  0.00     0.014 A 
ATOM     35  C   UNL A   1      35.809  34.313  28.864  1.00  0.00     0.014 A 
ATOM     36  C   UNL A   1      35.304  32.372  30.803  1.00  0.00     0.010 A 
ATOM     37  C   UNL A   1      36.860  33.570  29.392  1.00  0.00     0.010 A 
ATOM     38  C   UNL A   1      36.620  32.595  30.372  1.00  0.00    -0.014 A 
BRANCH  38  39
ATOM     39  C   UNL A   1      37.761  31.827  30.939  1.00  0.00     0.031 A 
ATOM     40  C   UNL A   1      38.236  32.105  32.339  1.00  0.00     0.074 A 
ATOM     41  C   UNL A   1      38.403  30.920  30.178  1.00  0.00     0.049 A 
ATOM     42  N   UNL A   1      39.249  31.592  32.989  1.00  0.00    -0.248 NA
ATOM     43  C   UNL A   1      37.485  33.116  33.097  1.00  0.00     0.031 C 
ATOM     44  C   UNL A   1      38.052  30.575  28.799  1.00  0.00     0.029 A 
ATOM     45  N   UNL A   1      39.483  30.119  30.456  1.00  0.00    -0.354 N 
ATOM     46  C   UNL A   1      39.261  32.220  34.229  1.00  0.00     0.074 A 
ATOM     47  C   UNL A   1      38.206  33.212  34.203  1.00  0.00     0.031 C 
ATOM     48  C   UNL A   1      38.871  29.603  28.368  1.00  0.00     0.029 A 
ATOM     49  C   UNL A   1      39.843  29.297  29.413  1.00  0.00     0.049 A 
ATOM     50  H   UNL A   1      39.955  30.132  31.319  1.00  0.00     0.167 HD
ATOM     51  C   UNL A   1      40.054  31.974  35.302  1.00  0.00     0.034 A 
ATOM     52  C   UNL A   1      40.847  28.404  29.307  1.00  0.00     0.034 A 
ATOM     53  C   UNL A   1      41.111  30.991  35.306  1.00  0.00     0.049 A 
ATOM     54  C   UNL A   1      41.775  28.207  30.479  1.00  0.00     0.074 A 
ATOM     55  C   UNL A   1      41.959  30.640  36.341  1.00  0.00     0.029 A 
ATOM     56  N   UNL A   1      41.477  30.211  34.214  1.00  0.00    -0.354 N 
ATOM     57  N   UNL A   1      41.754  28.785  31.659  1.00  0.00    -0.248 NA
ATOM     58  C   UNL A   1      42.860  27.233  30.306  1.00  0.00     0.031 C 
ATOM     59  C   UNL A   1      42.892  29.719  35.851  1.00  0.00     0.029 A 
ATOM     60  C   UNL A   1      42.565  29.414  34.540  1.00  0.00     0.049 A 
ATOM     61  H   UNL A   1      41.029  30.223  33.338  1.00  0.00     0.167 HD
ATOM     62  C   UNL A   1      42.796  28.210  32.382  1.00  0.00     0.074 A 
ATOM     63  C   UNL A   1      43.420  27.238  31.507  1.00  0.00     0.031 C 
ATOM     64  C   UNL A   1      43.192  28.456  33.657  1.00  0.00     0.034 A 
BRANCH  51  65
ATOM     65  C   UNL A   1      39.821  32.812  36.539  1.00  0.00     0.023 A 
ATOM     66  C   UNL A   1      39.016  32.352  37.597  1.00  0.00     0.031 A 
ATOM     67  C   UNL A   1      40.352  34.109  36.641  1.00  0.00     0.131 A 
ATOM     68  C   UNL A   1      38.671  33.217  38.645  1.00  0.00     0.055 A 
ATOM     69  C   UNL A   1      40.095  34.927  37.743  1.00  0.00     0.041 A 
ATOM     70  F   UNL A   1      41.111  34.618  35.657  1.00  0.00    -0.206 F 
ATOM     71  C   UNL A   1      39.229  34.493  38.742  1.00  0.00     0.022 A 
BRANCH  68  72
ATOM     72  S   UNL A   1      37.322  32.727  39.755  1.00  0.00     0.124 S 
ATOM     73  O   UNL A   1      37.345  33.807  40.740  1.00  0.00    -0.237 OA
ATOM     74  O   UNL A   1      36.171  32.702  38.861  1.00  0.00    -0.237 OA
ATOM     75  O   UNL A   1      37.752  31.425  40.261  1.00  0.00    -0.744 OA
ENDBRANCH  68  72
ENDBRANCH  51  65
BRANCH  52  76
ATOM     76  C   UNL A   1      41.028  27.621  28.051  1.00  0.00     0.023 A 
ATOM     77  C   UNL A   1      40.679  26.263  27.996  1.00  0.00     0.031 A 
ATOM     78  C   UNL A   1      41.581  28.207  26.898  1.00  0.00     0.131 A 
ATOM     79  C   UNL A   1      40.926  25.524  26.828  1.00  0.00     0.055 A 
ATOM     80  C   UNL A   1      41.767  27.483  25.719  1.00  0.00     0.041 A 
ATOM     81  F   UNL A   1      41.934  29.502  26.897  1.00  0.00    -0.206 F 
ATOM     82  C   UNL A   1      41.450  26.128  25.685  1.00  0.00     0.022 A 
BRANCH  79  83
ATOM     83  S   UNL A   1      40.632  23.734  26.858  1.00  0.00     0.124 S 
ATOM     84  O   UNL A   1      39.235  23.659  26.449  1.00  0.00    -0.237 OA
ATOM     85  O   UNL A   1      41.612  23.249  25.893  1.00  0.00    -0.237 OA
ATOM     86  O   UNL A   1      40.897  23.371  28.249  1.00  0.00    -0.744 OA
ENDBRANCH  79  83
ENDBRANCH  52  76
BRANCH  64  87
ATOM     87  C   UNL A   1      44.324  27.618  34.206  1.00  0.00     0.023 A 
ATOM     88  C   UNL A   1      44.097  26.419  34.904  1.00  0.00     0.031 A 
ATOM     89  C   UNL A   1      45.657  28.031  34.026  1.00  0.00     0.131 A 
ATOM     90  C   UNL A   1      45.178  25.708  35.446  1.00  0.00     0.055 A 
ATOM     91  C   UNL A   1      46.732  27.282  34.502  1.00  0.00     0.041 A 
ATOM     92  F   UNL A   1      45.938  29.172  33.375  1.00  0.00    -0.206 F 
ATOM     93  C   UNL A   1      46.496  26.119  35.230  1.00  0.00     0.022 A 
BRANCH  90  94
ATOM     94  S   UNL A   1      44.837  24.298  36.534  1.00  0.00     0.124 S 
ATOM     95  O   UNL A   1      43.919  24.882  37.507  1.00  0.00    -0.237 OA
ATOM     96  O   UNL A   1      44.256  23.327  35.613  1.00  0.00    -0.237 OA
ATOM     97  O   UNL A   1      46.154  23.943  37.060  1.00  0.00    -0.744 OA
ENDBRANCH  90  94
ENDBRANCH  64  87
ENDBRANCH  38  39
ENDBRANCH  30  33
ENDBRANCH  28  29
ENDBRANCH  27  28
ENDBRANCH   1  27
TORSDOF 19
ENDMDL
