MODEL 1
REMARK VINA RESULT:     -11.9      0.000      0.000
REMARK SMILES CCc1cc(OC(F)(F)F)cc2c1O[C@@H](C(F)(F)F)C(C(=O)NCCCCCCNC(=O)c1ccc(-c3c4nc(c(-c5cc(S(=O)(=O)[O-])ccc5F)c5ccc([nH]5)c(-c5cc(S(=O)(=O)[O-])ccc5F)c5nc(c(-c6cc(S(=O)(=O)[O-])ccc6F)c6ccc3[nH]6)C=C5)C=C4)cc1)=C2
REMARK SMILES IDX 27 1 26 2 25 3 24 4 23 5 21 6 22 7 20 9 3 10 4 11 13 12 5 13
REMARK SMILES IDX 12 14 14 15 11 16 96 17 15 18 2 19 1 20 6 21 7 22 8 23 9 24
REMARK SMILES IDX 10 25 16 26 17 27 18 28 19 29 28 30 29 31 30 32 31 33 32 35
REMARK SMILES IDX 33 36 34 37 95 38 35 39 94 40 36 41 37 42 38 43 88 44 39 45
REMARK SMILES IDX 93 46 87 47 89 48 40 49 92 50 86 51 85 52 41 54 73 55 53 56
REMARK SMILES IDX 72 57 54 58 57 59 71 60 90 61 55 62 56 63 70 65 91 66 58 67
REMARK SMILES IDX 42 68 43 69 51 70 44 71 50 72 52 73 49 74 45 75 46 76 47 77
REMARK SMILES IDX 48 78 74 79 75 80 83 81 76 82 82 83 84 84 81 85 77 86 78 87
REMARK SMILES IDX 79 88 80 89 59 90 60 91 68 92 61 93 67 94 69 95 66 96 62 97
REMARK SMILES IDX 63 98 64 99 65 100
REMARK H PARENT 23 8 30 34 89 53 57 64
REMARK Flexibility Score: inf
ROOT
ATOM      1  C   UNL A   1      34.292  20.595  25.387  1.00  0.00     0.002 C 
ENDROOT
BRANCH   1   2
ATOM      2  C   UNL A   1      33.416  21.111  24.239  1.00  0.00     0.002 C 
BRANCH   2   3
ATOM      3  C   UNL A   1      32.045  21.647  24.676  1.00  0.00     0.021 C 
BRANCH   3   4
ATOM      4  C   UNL A   1      31.405  22.578  23.640  1.00  0.00     0.116 C 
BRANCH   4   5
ATOM      5  N   UNL A   1      32.378  22.883  22.603  1.00  0.00    -0.352 N 
ATOM      6  C   UNL A   1      32.738  24.043  22.001  1.00  0.00     0.251 C 
ATOM      7  O   UNL A   1      33.428  23.983  20.986  1.00  0.00    -0.270 OA
ATOM      8  H   UNL A   1      32.868  22.095  22.275  1.00  0.00     0.163 HD
BRANCH   6   9
ATOM      9  C   UNL A   1      32.416  25.374  22.575  1.00  0.00     0.067 C 
ATOM     10  C   UNL A   1      31.638  28.955  24.628  1.00  0.00    -0.002 A 
ATOM     11  C   UNL A   1      30.498  29.705  24.286  1.00  0.00     0.054 A 
ATOM     12  C   UNL A   1      31.893  27.760  23.941  1.00  0.00     0.131 A 
ATOM     13  C   UNL A   1      29.634  29.276  23.276  1.00  0.00     0.130 A 
ATOM     14  C   UNL A   1      31.064  27.345  22.898  1.00  0.00     0.021 A 
ATOM     15  O   UNL A   1      32.921  26.984  24.394  1.00  0.00    -0.475 OA
ATOM     16  C   UNL A   1      29.936  28.105  22.573  1.00  0.00     0.058 A 
ATOM     17  C   UNL A   1      31.330  26.079  22.225  1.00  0.00     0.025 C 
ATOM     18  C   UNL A   1      33.472  25.994  23.482  1.00  0.00     0.314 C 
BRANCH  10  19
ATOM     19  C   UNL A   1      32.550  29.440  25.733  1.00  0.00     0.036 C 
ATOM     20  C   UNL A   1      31.834  29.590  27.071  1.00  0.00     0.009 C 
ENDBRANCH  10  19
BRANCH  13  21
ATOM     21  O   UNL A   1      28.476  29.882  22.883  1.00  0.00    -0.406 OA
BRANCH  21  22
ATOM     22  C   UNL A   1      28.543  30.829  21.830  1.00  0.00     0.573 C 
ATOM     23  F   UNL A   1      28.150  32.053  22.244  1.00  0.00    -0.132 F 
ATOM     24  F   UNL A   1      29.797  30.906  21.334  1.00  0.00    -0.132 F 
ATOM     25  F   UNL A   1      27.720  30.436  20.835  1.00  0.00    -0.132 F 
ENDBRANCH  21  22
ENDBRANCH  13  21
BRANCH  18  26
ATOM     26  C   UNL A   1      34.327  25.032  24.339  1.00  0.00     0.429 C 
ATOM     27  F   UNL A   1      35.090  24.201  23.594  1.00  0.00    -0.167 F 
ATOM     28  F   UNL A   1      35.208  25.729  25.110  1.00  0.00    -0.167 F 
ATOM     29  F   UNL A   1      33.582  24.284  25.184  1.00  0.00    -0.167 F 
ENDBRANCH  18  26
ENDBRANCH   6   9
ENDBRANCH   4   5
ENDBRANCH   3   4
ENDBRANCH   2   3
ENDBRANCH   1   2
BRANCH   1  30
ATOM     30  C   UNL A   1      34.881  21.683  26.290  1.00  0.00     0.021 C 
BRANCH  30  31
ATOM     31  C   UNL A   1      36.269  22.167  25.876  1.00  0.00     0.116 C 
BRANCH  31  32
ATOM     32  N   UNL A   1      37.240  21.087  25.904  1.00  0.00    -0.352 N 
ATOM     33  C   UNL A   1      38.607  21.144  26.001  1.00  0.00     0.251 C 
ATOM     34  H   UNL A   1      36.860  20.181  25.845  1.00  0.00     0.163 HD
ATOM     35  O   UNL A   1      39.268  20.142  25.748  1.00  0.00    -0.269 OA
BRANCH  33  36
ATOM     36  C   UNL A   1      39.279  22.403  26.397  1.00  0.00     0.039 A 
ATOM     37  C   UNL A   1      38.847  23.601  25.822  1.00  0.00     0.014 A 
ATOM     38  C   UNL A   1      40.361  22.402  27.283  1.00  0.00     0.014 A 
ATOM     39  C   UNL A   1      39.477  24.801  26.162  1.00  0.00     0.010 A 
ATOM     40  C   UNL A   1      40.945  23.607  27.670  1.00  0.00     0.010 A 
ATOM     41  C   UNL A   1      40.519  24.817  27.103  1.00  0.00    -0.014 A 
BRANCH  41  42
ATOM     42  C   UNL A   1      41.178  26.094  27.479  1.00  0.00     0.031 A 
ATOM     43  C   UNL A   1      42.560  26.413  26.977  1.00  0.00     0.074 A 
ATOM     44  C   UNL A   1      40.539  26.953  28.298  1.00  0.00     0.049 A 
ATOM     45  N   UNL A   1      43.299  27.470  27.198  1.00  0.00    -0.248 NA
ATOM     46  C   UNL A   1      43.209  25.393  26.138  1.00  0.00     0.031 C 
ATOM     47  C   UNL A   1      39.218  26.729  28.890  1.00  0.00     0.029 A 
ATOM     48  N   UNL A   1      40.912  28.183  28.776  1.00  0.00    -0.354 N 
ATOM     49  C   UNL A   1      44.500  27.242  26.533  1.00  0.00     0.074 A 
ATOM     50  C   UNL A   1      44.411  25.918  25.956  1.00  0.00     0.031 C 
ATOM     51  C   UNL A   1      38.879  27.799  29.625  1.00  0.00     0.029 A 
ATOM     52  C   UNL A   1      39.968  28.769  29.587  1.00  0.00     0.049 A 
ATOM     53  H   UNL A   1      41.774  28.607  28.559  1.00  0.00     0.167 HD
ATOM     54  C   UNL A   1      45.566  28.070  26.397  1.00  0.00     0.034 A 
ATOM     55  C   UNL A   1      39.980  29.955  30.227  1.00  0.00     0.034 A 
ATOM     56  C   UNL A   1      45.632  29.393  26.970  1.00  0.00     0.049 A 
ATOM     57  C   UNL A   1      41.171  30.862  30.055  1.00  0.00     0.074 A 
ATOM     58  C   UNL A   1      46.637  30.338  26.852  1.00  0.00     0.029 A 
ATOM     59  N   UNL A   1      44.653  29.960  27.779  1.00  0.00    -0.354 N 
ATOM     60  N   UNL A   1      42.275  30.656  29.372  1.00  0.00    -0.248 NA
ATOM     61  C   UNL A   1      41.110  32.167  30.724  1.00  0.00     0.031 C 
ATOM     62  C   UNL A   1      46.296  31.445  27.636  1.00  0.00     0.029 A 
ATOM     63  C   UNL A   1      45.043  31.227  28.186  1.00  0.00     0.049 A 
ATOM     64  H   UNL A   1      43.805  29.524  28.025  1.00  0.00     0.167 HD
ATOM     65  C   UNL A   1      43.026  31.820  29.510  1.00  0.00     0.074 A 
ATOM     66  C   UNL A   1      42.239  32.727  30.319  1.00  0.00     0.031 C 
ATOM     67  C   UNL A   1      44.254  32.113  29.011  1.00  0.00     0.034 A 
BRANCH  54  68
ATOM     68  C   UNL A   1      46.753  27.551  25.616  1.00  0.00     0.023 A 
ATOM     69  C   UNL A   1      47.021  27.982  24.304  1.00  0.00     0.031 A 
ATOM     70  C   UNL A   1      47.612  26.591  26.179  1.00  0.00     0.131 A 
ATOM     71  C   UNL A   1      48.066  27.398  23.573  1.00  0.00     0.055 A 
ATOM     72  C   UNL A   1      48.703  26.075  25.475  1.00  0.00     0.041 A 
ATOM     73  F   UNL A   1      47.399  26.125  27.420  1.00  0.00    -0.206 F 
ATOM     74  C   UNL A   1      48.925  26.465  24.158  1.00  0.00     0.022 A 
BRANCH  71  75
ATOM     75  S   UNL A   1      48.198  27.769  21.802  1.00  0.00     0.124 S 
ATOM     76  O   UNL A   1      48.446  26.441  21.242  1.00  0.00    -0.237 OA
ATOM     77  O   UNL A   1      46.897  28.355  21.505  1.00  0.00    -0.237 OA
ATOM     78  O   UNL A   1      49.331  28.689  21.727  1.00  0.00    -0.744 OA
ENDBRANCH  71  75
ENDBRANCH  54  68
BRANCH  55  79
ATOM     79  C   UNL A   1      38.829  30.361  31.083  1.00  0.00     0.023 A 
ATOM     80  C   UNL A   1      37.745  31.076  30.549  1.00  0.00     0.031 A 
ATOM     81  C   UNL A   1      38.813  30.071  32.458  1.00  0.00     0.131 A 
ATOM     82  C   UNL A   1      36.714  31.517  31.392  1.00  0.00     0.055 A 
ATOM     83  C   UNL A   1      37.761  30.468  33.284  1.00  0.00     0.041 A 
ATOM     84  F   UNL A   1      39.822  29.382  33.018  1.00  0.00    -0.206 F 
ATOM     85  C   UNL A   1      36.709  31.208  32.754  1.00  0.00     0.022 A 
BRANCH  82  86
ATOM     86  S   UNL A   1      35.413  32.573  30.695  1.00  0.00     0.124 S 
ATOM     87  O   UNL A   1      36.028  33.892  30.772  1.00  0.00    -0.237 OA
ATOM     88  O   UNL A   1      35.257  32.014  29.356  1.00  0.00    -0.237 OA
ATOM     89  O   UNL A   1      34.282  32.356  31.594  1.00  0.00    -0.744 OA
ENDBRANCH  82  86
ENDBRANCH  55  79
BRANCH  67  90
ATOM     90  C   UNL A   1      44.796  33.491  29.307  1.00  0.00     0.023 A 
ATOM     91  C   UNL A   1      44.447  34.605  28.522  1.00  0.00     0.031 A 
ATOM     92  C   UNL A   1      45.699  33.685  30.368  1.00  0.00     0.131 A 
ATOM     93  C   UNL A   1      45.054  35.847  28.765  1.00  0.00     0.055 A 
ATOM     94  C   UNL A   1      46.249  34.937  30.644  1.00  0.00     0.041 A 
ATOM     95  F   UNL A   1      46.068  32.656  31.148  1.00  0.00    -0.206 F 
ATOM     96  C   UNL A   1      45.940  36.023  29.830  1.00  0.00     0.022 A 
BRANCH  93  97
ATOM     97  S   UNL A   1      44.753  37.203  27.597  1.00  0.00     0.124 S 
ATOM     98  O   UNL A   1      44.476  38.320  28.495  1.00  0.00    -0.237 OA
ATOM     99  O   UNL A   1      46.014  37.270  26.867  1.00  0.00    -0.237 OA
ATOM    100  O   UNL A   1      43.609  36.735  26.817  1.00  0.00    -0.744 OA
ENDBRANCH  93  97
ENDBRANCH  67  90
ENDBRANCH  41  42
ENDBRANCH  33  36
ENDBRANCH  31  32
ENDBRANCH  30  31
ENDBRANCH   1  30
TORSDOF 20
ENDMDL
MODEL 2
REMARK VINA RESULT:     -11.7      0.908      7.296
REMARK SMILES CCc1cc(OC(F)(F)F)cc2c1O[C@@H](C(F)(F)F)C(C(=O)NCCCCCCNC(=O)c1ccc(-c3c4nc(c(-c5cc(S(=O)(=O)[O-])ccc5F)c5ccc([nH]5)c(-c5cc(S(=O)(=O)[O-])ccc5F)c5nc(c(-c6cc(S(=O)(=O)[O-])ccc6F)c6ccc3[nH]6)C=C5)C=C4)cc1)=C2
REMARK SMILES IDX 27 1 26 2 25 3 24 4 23 5 21 6 22 7 20 9 3 10 4 11 13 12 5 13
REMARK SMILES IDX 12 14 14 15 11 16 96 17 15 18 2 19 1 20 6 21 7 22 8 23 9 24
REMARK SMILES IDX 10 25 16 26 17 27 18 28 19 29 28 30 29 31 30 32 31 33 32 35
REMARK SMILES IDX 33 36 34 37 95 38 35 39 94 40 36 41 37 42 38 43 88 44 39 45
REMARK SMILES IDX 93 46 87 47 89 48 40 49 92 50 86 51 85 52 41 54 73 55 53 56
REMARK SMILES IDX 72 57 54 58 57 59 71 60 90 61 55 62 56 63 70 65 91 66 58 67
REMARK SMILES IDX 42 68 43 69 51 70 44 71 50 72 52 73 49 74 45 75 46 76 47 77
REMARK SMILES IDX 48 78 74 79 75 80 83 81 76 82 82 83 84 84 81 85 77 86 78 87
REMARK SMILES IDX 79 88 80 89 59 90 60 91 68 92 61 93 67 94 69 95 66 96 62 97
REMARK SMILES IDX 63 98 64 99 65 100
REMARK H PARENT 23 8 30 34 89 53 57 64
REMARK Flexibility Score: inf
ROOT
ATOM      1  C   UNL A   1      33.637  20.534  25.733  1.00  0.00     0.002 C 
ENDROOT
BRANCH   1   2
ATOM      2  C   UNL A   1      32.978  21.206  24.523  1.00  0.00     0.002 C 
BRANCH   2   3
ATOM      3  C   UNL A   1      31.623  21.863  24.820  1.00  0.00     0.021 C 
BRANCH   3   4
ATOM      4  C   UNL A   1      31.173  22.837  23.725  1.00  0.00     0.116 C 
BRANCH   4   5
ATOM      5  N   UNL A   1      32.269  23.050  22.793  1.00  0.00    -0.352 N 
ATOM      6  C   UNL A   1      32.788  24.172  22.234  1.00  0.00     0.251 C 
ATOM      7  O   UNL A   1      33.569  24.046  21.295  1.00  0.00    -0.270 OA
ATOM      8  H   UNL A   1      32.721  22.221  22.514  1.00  0.00     0.163 HD
BRANCH   6   9
ATOM      9  C   UNL A   1      32.525  25.529  22.776  1.00  0.00     0.067 C 
ATOM     10  C   UNL A   1      31.821  29.169  24.750  1.00  0.00    -0.002 A 
ATOM     11  C   UNL A   1      30.842  30.044  24.243  1.00  0.00     0.054 A 
ATOM     12  C   UNL A   1      32.052  27.954  24.089  1.00  0.00     0.131 A 
ATOM     13  C   UNL A   1      30.114  29.717  23.097  1.00  0.00     0.130 A 
ATOM     14  C   UNL A   1      31.364  27.638  22.916  1.00  0.00     0.021 A 
ATOM     15  O   UNL A   1      32.899  27.067  24.687  1.00  0.00    -0.475 OA
ATOM     16  C   UNL A   1      30.396  28.521  22.428  1.00  0.00     0.058 A 
ATOM     17  C   UNL A   1      31.595  26.353  22.270  1.00  0.00     0.025 C 
ATOM     18  C   UNL A   1      33.479  26.024  23.856  1.00  0.00     0.314 C 
BRANCH  10  19
ATOM     19  C   UNL A   1      32.588  29.545  25.999  1.00  0.00     0.036 C 
ATOM     20  C   UNL A   1      31.952  28.999  27.272  1.00  0.00     0.009 C 
ENDBRANCH  10  19
BRANCH  13  21
ATOM     21  O   UNL A   1      29.110  30.450  22.534  1.00  0.00    -0.406 OA
BRANCH  21  22
ATOM     22  C   UNL A   1      27.827  30.396  23.136  1.00  0.00     0.573 C 
ATOM     23  F   UNL A   1      27.530  29.145  23.549  1.00  0.00    -0.132 F 
ATOM     24  F   UNL A   1      27.756  31.243  24.187  1.00  0.00    -0.132 F 
ATOM     25  F   UNL A   1      26.902  30.772  22.229  1.00  0.00    -0.132 F 
ENDBRANCH  21  22
ENDBRANCH  13  21
BRANCH  18  26
ATOM     26  C   UNL A   1      34.071  24.969  24.820  1.00  0.00     0.429 C 
ATOM     27  F   UNL A   1      34.785  24.015  24.181  1.00  0.00    -0.167 F 
ATOM     28  F   UNL A   1      34.948  25.549  25.687  1.00  0.00    -0.167 F 
ATOM     29  F   UNL A   1      33.126  24.364  25.574  1.00  0.00    -0.167 F 
ENDBRANCH  18  26
ENDBRANCH   6   9
ENDBRANCH   4   5
ENDBRANCH   3   4
ENDBRANCH   2   3
ENDBRANCH   1   2
BRANCH   1  30
ATOM     30  C   UNL A   1      34.169  21.498  26.798  1.00  0.00     0.021 C 
BRANCH  30  31
ATOM     31  C   UNL A   1      35.533  22.106  26.478  1.00  0.00     0.116 C 
BRANCH  31  32
ATOM     32  N   UNL A   1      36.472  21.095  26.024  1.00  0.00    -0.352 N 
ATOM     33  C   UNL A   1      37.799  21.219  25.700  1.00  0.00     0.251 C 
ATOM     34  H   UNL A   1      36.101  20.187  25.935  1.00  0.00     0.163 HD
ATOM     35  O   UNL A   1      38.355  20.311  25.091  1.00  0.00    -0.269 OA
BRANCH  33  36
ATOM     36  C   UNL A   1      38.551  22.439  26.073  1.00  0.00     0.039 A 
ATOM     37  C   UNL A   1      39.747  22.299  26.781  1.00  0.00     0.014 A 
ATOM     38  C   UNL A   1      38.058  23.714  25.777  1.00  0.00     0.014 A 
ATOM     39  C   UNL A   1      40.465  23.435  27.162  1.00  0.00     0.010 A 
ATOM     40  C   UNL A   1      38.808  24.844  26.102  1.00  0.00     0.010 A 
ATOM     41  C   UNL A   1      40.011  24.716  26.810  1.00  0.00    -0.014 A 
BRANCH  41  42
ATOM     42  C   UNL A   1      40.783  25.925  27.200  1.00  0.00     0.031 A 
ATOM     43  C   UNL A   1      40.150  26.987  28.057  1.00  0.00     0.074 A 
ATOM     44  C   UNL A   1      42.047  26.075  26.755  1.00  0.00     0.049 A 
ATOM     45  N   UNL A   1      40.659  28.110  28.496  1.00  0.00    -0.248 NA
ATOM     46  C   UNL A   1      38.748  26.772  28.447  1.00  0.00     0.031 C 
ATOM     47  C   UNL A   1      42.749  25.136  25.877  1.00  0.00     0.029 A 
ATOM     48  N   UNL A   1      42.964  27.070  26.978  1.00  0.00    -0.354 N 
ATOM     49  C   UNL A   1      39.642  28.737  29.207  1.00  0.00     0.074 A 
ATOM     50  C   UNL A   1      38.468  27.898  29.084  1.00  0.00     0.031 C 
ATOM     51  C   UNL A   1      43.995  25.586  25.661  1.00  0.00     0.029 A 
ATOM     52  C   UNL A   1      44.171  26.857  26.355  1.00  0.00     0.049 A 
ATOM     53  H   UNL A   1      42.776  27.862  27.533  1.00  0.00     0.167 HD
ATOM     54  C   UNL A   1      39.688  29.893  29.917  1.00  0.00     0.034 A 
ATOM     55  C   UNL A   1      45.295  27.602  26.346  1.00  0.00     0.034 A 
ATOM     56  C   UNL A   1      40.871  30.712  30.038  1.00  0.00     0.049 A 
ATOM     57  C   UNL A   1      45.326  28.878  27.147  1.00  0.00     0.074 A 
ATOM     58  C   UNL A   1      41.048  31.872  30.773  1.00  0.00     0.029 A 
ATOM     59  N   UNL A   1      42.081  30.460  29.401  1.00  0.00    -0.354 N 
ATOM     60  N   UNL A   1      44.373  29.428  27.864  1.00  0.00    -0.248 NA
ATOM     61  C   UNL A   1      46.591  29.623  27.152  1.00  0.00     0.031 C 
ATOM     62  C   UNL A   1      42.340  32.353  30.532  1.00  0.00     0.029 A 
ATOM     63  C   UNL A   1      42.998  31.456  29.705  1.00  0.00     0.049 A 
ATOM     64  H   UNL A   1      42.261  29.687  28.820  1.00  0.00     0.167 HD
ATOM     65  C   UNL A   1      44.935  30.570  28.427  1.00  0.00     0.074 A 
ATOM     66  C   UNL A   1      46.313  30.615  27.984  1.00  0.00     0.031 C 
ATOM     67  C   UNL A   1      44.364  31.497  29.239  1.00  0.00     0.034 A 
BRANCH  54  68
ATOM     68  C   UNL A   1      38.414  30.345  30.593  1.00  0.00     0.023 A 
ATOM     69  C   UNL A   1      37.429  31.075  29.903  1.00  0.00     0.031 A 
ATOM     70  C   UNL A   1      38.192  30.069  31.954  1.00  0.00     0.131 A 
ATOM     71  C   UNL A   1      36.311  31.570  30.591  1.00  0.00     0.055 A 
ATOM     72  C   UNL A   1      37.035  30.494  32.613  1.00  0.00     0.041 A 
ATOM     73  F   UNL A   1      39.102  29.394  32.673  1.00  0.00    -0.206 F 
ATOM     74  C   UNL A   1      36.094  31.263  31.936  1.00  0.00     0.022 A 
BRANCH  71  75
ATOM     75  S   UNL A   1      35.218  32.742  29.740  1.00  0.00     0.124 S 
ATOM     76  O   UNL A   1      36.177  33.723  29.235  1.00  0.00    -0.237 OA
ATOM     77  O   UNL A   1      34.574  31.902  28.738  1.00  0.00    -0.237 OA
ATOM     78  O   UNL A   1      34.343  33.229  30.804  1.00  0.00    -0.744 OA
ENDBRANCH  71  75
ENDBRANCH  54  68
BRANCH  55  79
ATOM     79  C   UNL A   1      46.483  27.164  25.560  1.00  0.00     0.023 A 
ATOM     80  C   UNL A   1      46.760  27.714  24.298  1.00  0.00     0.031 A 
ATOM     81  C   UNL A   1      47.339  26.160  26.044  1.00  0.00     0.131 A 
ATOM     82  C   UNL A   1      47.837  27.225  23.544  1.00  0.00     0.055 A 
ATOM     83  C   UNL A   1      48.440  25.713  25.311  1.00  0.00     0.041 A 
ATOM     84  F   UNL A   1      47.124  25.606  27.249  1.00  0.00    -0.206 F 
ATOM     85  C   UNL A   1      48.686  26.237  24.046  1.00  0.00     0.022 A 
BRANCH  82  86
ATOM     86  S   UNL A   1      48.068  27.848  21.855  1.00  0.00     0.124 S 
ATOM     87  O   UNL A   1      46.824  28.574  21.634  1.00  0.00    -0.237 OA
ATOM     88  O   UNL A   1      49.271  28.662  21.996  1.00  0.00    -0.237 OA
ATOM     89  O   UNL A   1      48.231  26.630  21.064  1.00  0.00    -0.744 OA
ENDBRANCH  82  86
ENDBRANCH  55  79
BRANCH  67  90
ATOM     90  C   UNL A   1      45.256  32.617  29.720  1.00  0.00     0.023 A 
ATOM     91  C   UNL A   1      45.368  33.827  29.013  1.00  0.00     0.031 A 
ATOM     92  C   UNL A   1      46.029  32.457  30.884  1.00  0.00     0.131 A 
ATOM     93  C   UNL A   1      46.286  34.800  29.435  1.00  0.00     0.055 A 
ATOM     94  C   UNL A   1      46.893  33.456  31.335  1.00  0.00     0.041 A 
ATOM     95  F   UNL A   1      45.963  31.322  31.598  1.00  0.00    -0.206 F 
ATOM     96  C   UNL A   1      47.038  34.629  30.600  1.00  0.00     0.022 A 
BRANCH  93  97
ATOM     97  S   UNL A   1      46.567  36.247  28.376  1.00  0.00     0.124 S 
ATOM     98  O   UNL A   1      45.894  35.853  27.141  1.00  0.00    -0.237 OA
ATOM     99  O   UNL A   1      45.929  37.316  29.135  1.00  0.00    -0.237 OA
ATOM    100  O   UNL A   1      48.023  36.330  28.289  1.00  0.00    -0.744 OA
ENDBRANCH  93  97
ENDBRANCH  67  90
ENDBRANCH  41  42
ENDBRANCH  33  36
ENDBRANCH  31  32
ENDBRANCH  30  31
ENDBRANCH   1  30
TORSDOF 20
ENDMDL
MODEL 3
REMARK VINA RESULT:     -11.4      1.657      2.099
REMARK SMILES CCc1cc(OC(F)(F)F)cc2c1O[C@@H](C(F)(F)F)C(C(=O)NCCCCCCNC(=O)c1ccc(-c3c4nc(c(-c5cc(S(=O)(=O)[O-])ccc5F)c5ccc([nH]5)c(-c5cc(S(=O)(=O)[O-])ccc5F)c5nc(c(-c6cc(S(=O)(=O)[O-])ccc6F)c6ccc3[nH]6)C=C5)C=C4)cc1)=C2
REMARK SMILES IDX 27 1 26 2 25 3 24 4 23 5 21 6 22 7 20 9 3 10 4 11 13 12 5 13
REMARK SMILES IDX 12 14 14 15 11 16 96 17 15 18 2 19 1 20 6 21 7 22 8 23 9 24
REMARK SMILES IDX 10 25 16 26 17 27 18 28 19 29 28 30 29 31 30 32 31 33 32 35
REMARK SMILES IDX 33 36 34 37 95 38 35 39 94 40 36 41 37 42 38 43 88 44 39 45
REMARK SMILES IDX 93 46 87 47 89 48 40 49 92 50 86 51 85 52 41 54 73 55 53 56
REMARK SMILES IDX 72 57 54 58 57 59 71 60 90 61 55 62 56 63 70 65 91 66 58 67
REMARK SMILES IDX 42 68 43 69 51 70 44 71 50 72 52 73 49 74 45 75 46 76 47 77
REMARK SMILES IDX 48 78 74 79 75 80 83 81 76 82 82 83 84 84 81 85 77 86 78 87
REMARK SMILES IDX 79 88 80 89 59 90 60 91 68 92 61 93 67 94 69 95 66 96 62 97
REMARK SMILES IDX 63 98 64 99 65 100
REMARK H PARENT 23 8 30 34 89 53 57 64
REMARK Flexibility Score: inf
ROOT
ATOM      1  C   UNL A   1      34.790  20.570  24.643  1.00  0.00     0.002 C 
ENDROOT
BRANCH   1   2
ATOM      2  C   UNL A   1      33.294  20.811  24.879  1.00  0.00     0.002 C 
BRANCH   2   3
ATOM      3  C   UNL A   1      32.721  22.030  24.143  1.00  0.00     0.021 C 
BRANCH   3   4
ATOM      4  C   UNL A   1      31.203  22.168  24.299  1.00  0.00     0.116 C 
BRANCH   4   5
ATOM      5  N   UNL A   1      30.905  22.748  25.598  1.00  0.00    -0.352 N 
ATOM      6  C   UNL A   1      31.013  24.011  26.082  1.00  0.00     0.251 C 
ATOM      7  O   UNL A   1      30.910  24.180  27.295  1.00  0.00    -0.270 OA
ATOM      8  H   UNL A   1      30.558  22.100  26.252  1.00  0.00     0.163 HD
BRANCH   6   9
ATOM      9  C   UNL A   1      31.152  25.196  25.199  1.00  0.00     0.067 C 
ATOM     10  C   UNL A   1      31.904  28.691  22.994  1.00  0.00    -0.002 A 
ATOM     11  C   UNL A   1      30.817  29.422  22.479  1.00  0.00     0.054 A 
ATOM     12  C   UNL A   1      31.648  27.526  23.731  1.00  0.00     0.131 A 
ATOM     13  C   UNL A   1      29.504  28.994  22.688  1.00  0.00     0.130 A 
ATOM     14  C   UNL A   1      30.343  27.064  23.906  1.00  0.00     0.021 A 
ATOM     15  O   UNL A   1      32.712  26.924  24.339  1.00  0.00    -0.475 OA
ATOM     16  C   UNL A   1      29.277  27.803  23.385  1.00  0.00     0.058 A 
ATOM     17  C   UNL A   1      30.102  25.871  24.707  1.00  0.00     0.025 C 
ATOM     18  C   UNL A   1      32.564  25.532  24.734  1.00  0.00     0.314 C 
BRANCH  10  19
ATOM     19  C   UNL A   1      33.315  29.183  22.760  1.00  0.00     0.036 C 
ATOM     20  C   UNL A   1      34.146  28.222  21.916  1.00  0.00     0.009 C 
ENDBRANCH  10  19
BRANCH  13  21
ATOM     21  O   UNL A   1      28.366  29.633  22.286  1.00  0.00    -0.406 OA
BRANCH  21  22
ATOM     22  C   UNL A   1      27.993  30.820  22.966  1.00  0.00     0.573 C 
ATOM     23  F   UNL A   1      27.568  31.768  22.102  1.00  0.00    -0.132 F 
ATOM     24  F   UNL A   1      27.020  30.570  23.869  1.00  0.00    -0.132 F 
ATOM     25  F   UNL A   1      29.067  31.302  23.626  1.00  0.00    -0.132 F 
ENDBRANCH  21  22
ENDBRANCH  13  21
BRANCH  18  26
ATOM     26  C   UNL A   1      33.726  25.222  25.705  1.00  0.00     0.429 C 
ATOM     27  F   UNL A   1      33.671  23.968  26.209  1.00  0.00    -0.167 F 
ATOM     28  F   UNL A   1      34.924  25.294  25.061  1.00  0.00    -0.167 F 
ATOM     29  F   UNL A   1      33.789  26.094  26.737  1.00  0.00    -0.167 F 
ENDBRANCH  18  26
ENDBRANCH   6   9
ENDBRANCH   4   5
ENDBRANCH   3   4
ENDBRANCH   2   3
ENDBRANCH   1   2
BRANCH   1  30
ATOM     30  C   UNL A   1      35.711  21.687  25.145  1.00  0.00     0.021 C 
BRANCH  30  31
ATOM     31  C   UNL A   1      37.126  21.646  24.572  1.00  0.00     0.116 C 
BRANCH  31  32
ATOM     32  N   UNL A   1      37.909  20.575  25.163  1.00  0.00    -0.352 N 
ATOM     33  C   UNL A   1      39.144  20.622  25.757  1.00  0.00     0.251 C 
ATOM     34  H   UNL A   1      37.491  19.684  25.133  1.00  0.00     0.163 HD
ATOM     35  O   UNL A   1      39.751  19.576  25.961  1.00  0.00    -0.269 OA
BRANCH  33  36
ATOM     36  C   UNL A   1      39.744  21.921  26.138  1.00  0.00     0.039 A 
ATOM     37  C   UNL A   1      38.917  23.045  26.211  1.00  0.00     0.014 A 
ATOM     38  C   UNL A   1      41.118  22.048  26.369  1.00  0.00     0.014 A 
ATOM     39  C   UNL A   1      39.461  24.286  26.548  1.00  0.00     0.010 A 
ATOM     40  C   UNL A   1      41.647  23.274  26.768  1.00  0.00     0.010 A 
ATOM     41  C   UNL A   1      40.827  24.409  26.848  1.00  0.00    -0.014 A 
BRANCH  41  42
ATOM     42  C   UNL A   1      41.403  25.725  27.224  1.00  0.00     0.031 A 
ATOM     43  C   UNL A   1      42.766  26.128  26.728  1.00  0.00     0.074 A 
ATOM     44  C   UNL A   1      40.708  26.545  28.036  1.00  0.00     0.049 A 
ATOM     45  N   UNL A   1      43.437  27.230  26.950  1.00  0.00    -0.248 NA
ATOM     46  C   UNL A   1      43.481  25.148  25.897  1.00  0.00     0.031 C 
ATOM     47  C   UNL A   1      39.399  26.242  28.620  1.00  0.00     0.029 A 
ATOM     48  N   UNL A   1      41.000  27.797  28.512  1.00  0.00    -0.354 N 
ATOM     49  C   UNL A   1      44.653  27.075  26.293  1.00  0.00     0.074 A 
ATOM     50  C   UNL A   1      44.650  25.746  25.720  1.00  0.00     0.031 C 
ATOM     51  C   UNL A   1      38.990  27.291  29.350  1.00  0.00     0.029 A 
ATOM     52  C   UNL A   1      40.017  28.326  29.316  1.00  0.00     0.049 A 
ATOM     53  H   UNL A   1      41.835  28.274  28.298  1.00  0.00     0.167 HD
ATOM     54  C   UNL A   1      45.667  27.967  26.160  1.00  0.00     0.034 A 
ATOM     55  C   UNL A   1      39.951  29.513  29.951  1.00  0.00     0.034 A 
ATOM     56  C   UNL A   1      45.647  29.293  26.730  1.00  0.00     0.049 A 
ATOM     57  C   UNL A   1      41.086  30.491  29.784  1.00  0.00     0.074 A 
ATOM     58  C   UNL A   1      46.593  30.298  26.615  1.00  0.00     0.029 A 
ATOM     59  N   UNL A   1      44.630  29.800  27.530  1.00  0.00    -0.354 N 
ATOM     60  N   UNL A   1      42.204  30.352  29.108  1.00  0.00    -0.248 NA
ATOM     61  C   UNL A   1      40.939  31.792  30.448  1.00  0.00     0.031 C 
ATOM     62  C   UNL A   1      46.178  31.384  27.393  1.00  0.00     0.029 A 
ATOM     63  C   UNL A   1      44.938  31.090  27.936  1.00  0.00     0.049 A 
ATOM     64  H   UNL A   1      43.809  29.314  27.773  1.00  0.00     0.167 HD
ATOM     65  C   UNL A   1      42.880  31.560  29.246  1.00  0.00     0.074 A 
ATOM     66  C   UNL A   1      42.034  32.420  30.048  1.00  0.00     0.031 C 
ATOM     67  C   UNL A   1      44.091  31.928  28.753  1.00  0.00     0.034 A 
BRANCH  54  68
ATOM     68  C   UNL A   1      46.888  27.520  25.388  1.00  0.00     0.023 A 
ATOM     69  C   UNL A   1      47.120  27.937  24.065  1.00  0.00     0.031 A 
ATOM     70  C   UNL A   1      47.819  26.643  25.971  1.00  0.00     0.131 A 
ATOM     71  C   UNL A   1      48.205  27.416  23.345  1.00  0.00     0.055 A 
ATOM     72  C   UNL A   1      48.944  26.193  25.276  1.00  0.00     0.041 A 
ATOM     73  F   UNL A   1      47.644  26.193  27.225  1.00  0.00    -0.206 F 
ATOM     74  C   UNL A   1      49.134  26.567  23.949  1.00  0.00     0.022 A 
BRANCH  71  75
ATOM     75  S   UNL A   1      48.305  27.751  21.564  1.00  0.00     0.124 S 
ATOM     76  O   UNL A   1      46.965  28.265  21.287  1.00  0.00    -0.237 OA
ATOM     77  O   UNL A   1      49.391  28.720  21.485  1.00  0.00    -0.237 OA
ATOM     78  O   UNL A   1      48.593  26.440  20.985  1.00  0.00    -0.744 OA
ENDBRANCH  71  75
ENDBRANCH  54  68
BRANCH  55  79
ATOM     79  C   UNL A   1      38.772  29.849  30.799  1.00  0.00     0.023 A 
ATOM     80  C   UNL A   1      37.739  30.665  30.313  1.00  0.00     0.031 A 
ATOM     81  C   UNL A   1      38.680  29.388  32.124  1.00  0.00     0.131 A 
ATOM     82  C   UNL A   1      36.681  31.033  31.159  1.00  0.00     0.055 A 
ATOM     83  C   UNL A   1      37.600  29.716  32.946  1.00  0.00     0.041 A 
ATOM     84  F   UNL A   1      39.638  28.598  32.636  1.00  0.00    -0.206 F 
ATOM     85  C   UNL A   1      36.599  30.555  32.467  1.00  0.00     0.022 A 
BRANCH  82  86
ATOM     86  S   UNL A   1      35.449  32.215  30.544  1.00  0.00     0.124 S 
ATOM     87  O   UNL A   1      36.246  33.428  30.403  1.00  0.00    -0.237 OA
ATOM     88  O   UNL A   1      35.017  31.582  29.302  1.00  0.00    -0.237 OA
ATOM     89  O   UNL A   1      34.447  32.245  31.607  1.00  0.00    -0.744 OA
ENDBRANCH  82  86
ENDBRANCH  55  79
BRANCH  67  90
ATOM     90  C   UNL A   1      44.544  33.338  29.048  1.00  0.00     0.023 A 
ATOM     91  C   UNL A   1      45.292  33.647  30.198  1.00  0.00     0.031 A 
ATOM     92  C   UNL A   1      44.192  34.391  28.185  1.00  0.00     0.131 A 
ATOM     93  C   UNL A   1      45.602  34.985  30.491  1.00  0.00     0.055 A 
ATOM     94  C   UNL A   1      44.560  35.710  28.448  1.00  0.00     0.041 A 
ATOM     95  F   UNL A   1      43.477  34.153  27.073  1.00  0.00    -0.206 F 
ATOM     96  C   UNL A   1      45.254  36.016  29.615  1.00  0.00     0.022 A 
BRANCH  93  97
ATOM     97  S   UNL A   1      46.368  35.368  32.090  1.00  0.00     0.124 S 
ATOM     98  O   UNL A   1      46.732  36.772  31.923  1.00  0.00    -0.237 OA
ATOM     99  O   UNL A   1      45.284  35.099  33.027  1.00  0.00    -0.237 OA
ATOM    100  O   UNL A   1      47.495  34.440  32.161  1.00  0.00    -0.744 OA
ENDBRANCH  93  97
ENDBRANCH  67  90
ENDBRANCH  41  42
ENDBRANCH  33  36
ENDBRANCH  31  32
ENDBRANCH  30  31
ENDBRANCH   1  30
TORSDOF 20
ENDMDL
