MODEL 1
REMARK VINA RESULT:     -11.0      0.000      0.000
REMARK SMILES N#C[C@H]1CN(C(=O)c2csc(/C=C/C(=O)NCCCCCCNC(=O)c3ccc(-c4c5nc(c(-c6cc(S(=O)(=O)[O-])ccc6F)c6ccc([nH]6)c(-c6cc(S(=O)(=O)[O-])ccc6F)c6nc(c(-c7cc(S(=O)(=O)[O-])ccc7F)c7ccc4[nH]7)C=C6)C=C5)cc3)c2)CCO1
REMARK SMILES IDX 19 1 18 2 17 3 16 4 14 5 15 6 13 8 12 9 11 10 8 11 9 12
REMARK SMILES IDX 89 13 10 14 6 15 7 16 5 17 3 18 4 19 92 20 91 21 90 22 2 23
REMARK SMILES IDX 1 24 20 25 21 26 22 27 23 28 24 29 25 31 26 32 27 33 88 34
REMARK SMILES IDX 28 35 87 36 29 37 30 38 31 39 81 40 32 41 86 42 80 43 82 44
REMARK SMILES IDX 33 45 85 46 79 47 78 48 34 50 66 51 46 52 65 53 47 54 50 55
REMARK SMILES IDX 64 56 83 57 48 58 49 59 63 61 84 62 51 63 35 64 36 65 44 66
REMARK SMILES IDX 37 67 43 68 45 69 42 70 38 71 39 72 40 73 41 74 67 75 68 76
REMARK SMILES IDX 76 77 69 78 75 79 77 80 74 81 70 82 71 83 72 84 73 85 52 86
REMARK SMILES IDX 53 87 61 88 54 89 60 90 62 91 59 92 55 93 56 94 57 95 58 96
REMARK H PARENT 16 7 23 30 82 49 50 60
REMARK Flexibility Score: inf
ROOT
ATOM      1  C   UNL A   1      34.019  21.406  25.155  1.00  0.00     0.002 C 
ENDROOT
BRANCH   1   2
ATOM      2  C   UNL A   1      34.061  22.657  26.044  1.00  0.00     0.021 C 
BRANCH   2   3
ATOM      3  C   UNL A   1      33.301  22.477  27.360  1.00  0.00     0.116 C 
BRANCH   3   4
ATOM      4  N   UNL A   1      31.951  22.014  27.092  1.00  0.00    -0.353 N 
ATOM      5  C   UNL A   1      30.859  22.616  26.558  1.00  0.00     0.244 C 
ATOM      6  O   UNL A   1      29.825  21.960  26.430  1.00  0.00    -0.270 OA
ATOM      7  H   UNL A   1      31.796  21.076  27.351  1.00  0.00     0.163 HD
BRANCH   5   8
ATOM      8  C   UNL A   1      30.891  24.000  26.031  1.00  0.00     0.072 C 
ATOM      9  C   UNL A   1      31.061  25.114  26.753  1.00  0.00     0.024 C 
BRANCH   9  10
ATOM     10  C   UNL A   1      31.152  26.424  26.197  1.00  0.00     0.028 A 
ATOM     11  C   UNL A   1      31.040  28.143  24.591  1.00  0.00     0.051 A 
ATOM     12  C   UNL A   1      31.675  28.783  25.636  1.00  0.00     0.079 A 
ATOM     13  C   UNL A   1      30.677  26.810  24.956  1.00  0.00     0.033 A 
ATOM     14  S   UNL A   1      31.918  27.752  26.976  1.00  0.00    -0.144 S 
BRANCH  11  15
ATOM     15  C   UNL A   1      30.752  28.748  23.297  1.00  0.00     0.254 C 
ATOM     16  O   UNL A   1      31.513  28.576  22.352  1.00  0.00    -0.269 OA
BRANCH  15  17
ATOM     17  N   UNL A   1      29.630  29.566  23.223  1.00  0.00    -0.333 N 
ATOM     18  C   UNL A   1      29.038  31.844  22.430  1.00  0.00     0.240 C 
ATOM     19  C   UNL A   1      29.561  30.988  23.599  1.00  0.00     0.167 C 
ATOM     20  O   UNL A   1      27.779  31.320  21.954  1.00  0.00    -0.360 OA
ATOM     21  C   UNL A   1      27.930  29.966  21.491  1.00  0.00     0.183 C 
ATOM     22  C   UNL A   1      28.398  29.048  22.627  1.00  0.00     0.148 C 
BRANCH  18  23
ATOM     23  C   UNL A   1      28.879  33.241  22.883  1.00  0.00     0.096 C 
ATOM     24  N   UNL A   1      28.706  34.325  23.257  1.00  0.00    -0.195 NA
ENDBRANCH  18  23
ENDBRANCH  15  17
ENDBRANCH  11  15
ENDBRANCH   9  10
ENDBRANCH   5   8
ENDBRANCH   3   4
ENDBRANCH   2   3
ENDBRANCH   1   2
BRANCH   1  25
ATOM     25  C   UNL A   1      35.370  20.699  24.987  1.00  0.00     0.002 C 
BRANCH  25  26
ATOM     26  C   UNL A   1      36.478  21.573  24.394  1.00  0.00     0.021 C 
BRANCH  26  27
ATOM     27  C   UNL A   1      37.386  22.212  25.440  1.00  0.00     0.116 C 
BRANCH  27  28
ATOM     28  N   UNL A   1      38.401  21.276  25.900  1.00  0.00    -0.352 N 
ATOM     29  C   UNL A   1      39.651  21.529  26.407  1.00  0.00     0.251 C 
ATOM     30  H   UNL A   1      38.155  20.325  25.840  1.00  0.00     0.163 HD
ATOM     31  O   UNL A   1      40.477  20.624  26.474  1.00  0.00    -0.269 OA
BRANCH  29  32
ATOM     32  C   UNL A   1      39.995  22.895  26.851  1.00  0.00     0.039 A 
ATOM     33  C   UNL A   1      40.854  23.058  27.939  1.00  0.00     0.014 A 
ATOM     34  C   UNL A   1      39.476  24.010  26.187  1.00  0.00     0.014 A 
ATOM     35  C   UNL A   1      41.249  24.343  28.315  1.00  0.00     0.010 A 
ATOM     36  C   UNL A   1      39.933  25.283  26.512  1.00  0.00     0.010 A 
ATOM     37  C   UNL A   1      40.830  25.460  27.575  1.00  0.00    -0.014 A 
BRANCH  37  38
ATOM     38  C   UNL A   1      41.351  26.819  27.875  1.00  0.00     0.031 A 
ATOM     39  C   UNL A   1      42.778  27.173  27.569  1.00  0.00     0.074 A 
ATOM     40  C   UNL A   1      40.549  27.709  28.491  1.00  0.00     0.049 A 
ATOM     41  N   UNL A   1      43.432  28.273  27.835  1.00  0.00    -0.248 NA
ATOM     42  C   UNL A   1      43.580  26.139  26.902  1.00  0.00     0.031 C 
ATOM     43  C   UNL A   1      39.156  27.464  28.871  1.00  0.00     0.029 A 
ATOM     44  N   UNL A   1      40.789  28.990  28.920  1.00  0.00    -0.354 N 
ATOM     45  C   UNL A   1      44.728  28.063  27.376  1.00  0.00     0.074 A 
ATOM     46  C   UNL A   1      44.777  26.704  26.878  1.00  0.00     0.031 C 
ATOM     47  C   UNL A   1      38.660  28.565  29.454  1.00  0.00     0.029 A 
ATOM     48  C   UNL A   1      39.715  29.569  29.552  1.00  0.00     0.049 A 
ATOM     49  H   UNL A   1      41.649  29.450  28.788  1.00  0.00     0.167 HD
ATOM     50  C   UNL A   1      45.770  28.933  27.354  1.00  0.00     0.034 A 
ATOM     51  C   UNL A   1      39.595  30.761  30.170  1.00  0.00     0.034 A 
ATOM     52  C   UNL A   1      45.697  30.279  27.871  1.00  0.00     0.049 A 
ATOM     53  C   UNL A   1      40.781  31.685  30.199  1.00  0.00     0.074 A 
ATOM     54  C   UNL A   1      46.669  31.263  27.850  1.00  0.00     0.029 A 
ATOM     55  N   UNL A   1      44.599  30.823  28.530  1.00  0.00    -0.354 N 
ATOM     56  N   UNL A   1      41.982  31.502  29.697  1.00  0.00    -0.248 NA
ATOM     57  C   UNL A   1      40.600  32.974  30.875  1.00  0.00     0.031 C 
ATOM     58  C   UNL A   1      46.199  32.359  28.582  1.00  0.00     0.029 A 
ATOM     59  C   UNL A   1      44.896  32.103  28.975  1.00  0.00     0.049 A 
ATOM     60  H   UNL A   1      43.738  30.366  28.662  1.00  0.00     0.167 HD
ATOM     61  C   UNL A   1      42.696  32.660  29.989  1.00  0.00     0.074 A 
ATOM     62  C   UNL A   1      41.783  33.544  30.688  1.00  0.00     0.031 C 
ATOM     63  C   UNL A   1      43.989  32.965  29.704  1.00  0.00     0.034 A 
BRANCH  50  64
ATOM     64  C   UNL A   1      47.083  28.425  26.800  1.00  0.00     0.023 A 
ATOM     65  C   UNL A   1      47.346  28.413  25.419  1.00  0.00     0.031 A 
ATOM     66  C   UNL A   1      48.062  27.892  27.656  1.00  0.00     0.131 A 
ATOM     67  C   UNL A   1      48.498  27.778  24.930  1.00  0.00     0.055 A 
ATOM     68  C   UNL A   1      49.257  27.358  27.170  1.00  0.00     0.041 A 
ATOM     69  F   UNL A   1      47.864  27.853  28.984  1.00  0.00    -0.206 F 
ATOM     70  C   UNL A   1      49.470  27.277  25.797  1.00  0.00     0.022 A 
BRANCH  67  71
ATOM     71  S   UNL A   1      48.600  27.432  23.152  1.00  0.00     0.124 S 
ATOM     72  O   UNL A   1      48.577  25.971  23.135  1.00  0.00    -0.237 OA
ATOM     73  O   UNL A   1      47.410  28.096  22.632  1.00  0.00    -0.237 OA
ATOM     74  O   UNL A   1      49.874  28.030  22.760  1.00  0.00    -0.744 OA
ENDBRANCH  67  71
ENDBRANCH  50  64
BRANCH  51  75
ATOM     75  C   UNL A   1      38.315  31.117  30.846  1.00  0.00     0.023 A 
ATOM     76  C   UNL A   1      37.307  31.827  30.177  1.00  0.00     0.031 A 
ATOM     77  C   UNL A   1      38.081  30.738  32.182  1.00  0.00     0.131 A 
ATOM     78  C   UNL A   1      36.119  32.153  30.851  1.00  0.00     0.055 A 
ATOM     79  C   UNL A   1      36.877  31.016  32.828  1.00  0.00     0.041 A 
ATOM     80  F   UNL A   1      39.015  30.059  32.868  1.00  0.00    -0.206 F 
ATOM     81  C   UNL A   1      35.890  31.734  32.165  1.00  0.00     0.022 A 
BRANCH  78  82
ATOM     82  S   UNL A   1      34.895  33.192  30.007  1.00  0.00     0.124 S 
ATOM     83  O   UNL A   1      34.177  32.209  29.203  1.00  0.00    -0.237 OA
ATOM     84  O   UNL A   1      34.159  33.767  31.128  1.00  0.00    -0.237 OA
ATOM     85  O   UNL A   1      35.714  34.138  29.252  1.00  0.00    -0.744 OA
ENDBRANCH  78  82
ENDBRANCH  51  75
BRANCH  63  86
ATOM     86  C   UNL A   1      44.491  34.319  30.144  1.00  0.00     0.023 A 
ATOM     87  C   UNL A   1      44.399  35.445  29.308  1.00  0.00     0.031 A 
ATOM     88  C   UNL A   1      45.065  34.489  31.417  1.00  0.00     0.131 A 
ATOM     89  C   UNL A   1      44.919  36.677  29.732  1.00  0.00     0.055 A 
ATOM     90  C   UNL A   1      45.515  35.733  31.862  1.00  0.00     0.041 A 
ATOM     91  F   UNL A   1      45.188  33.448  32.256  1.00  0.00    -0.206 F 
ATOM     92  C   UNL A   1      45.455  36.834  31.012  1.00  0.00     0.022 A 
BRANCH  89  93
ATOM     93  S   UNL A   1      44.981  38.049  28.546  1.00  0.00     0.124 S 
ATOM     94  O   UNL A   1      43.894  37.707  27.633  1.00  0.00    -0.237 OA
ATOM     95  O   UNL A   1      44.755  39.211  29.400  1.00  0.00    -0.237 OA
ATOM     96  O   UNL A   1      46.323  37.949  27.977  1.00  0.00    -0.744 OA
ENDBRANCH  89  93
ENDBRANCH  63  86
ENDBRANCH  37  38
ENDBRANCH  29  32
ENDBRANCH  27  28
ENDBRANCH  26  27
ENDBRANCH  25  26
ENDBRANCH   1  25
TORSDOF 20
ENDMDL
MODEL 2
REMARK VINA RESULT:     -10.8      1.943      7.729
REMARK SMILES N#C[C@H]1CN(C(=O)c2csc(/C=C/C(=O)NCCCCCCNC(=O)c3ccc(-c4c5nc(c(-c6cc(S(=O)(=O)[O-])ccc6F)c6ccc([nH]6)c(-c6cc(S(=O)(=O)[O-])ccc6F)c6nc(c(-c7cc(S(=O)(=O)[O-])ccc7F)c7ccc4[nH]7)C=C6)C=C5)cc3)c2)CCO1
REMARK SMILES IDX 19 1 18 2 17 3 16 4 14 5 15 6 13 8 12 9 11 10 8 11 9 12
REMARK SMILES IDX 89 13 10 14 6 15 7 16 5 17 3 18 4 19 92 20 91 21 90 22 2 23
REMARK SMILES IDX 1 24 20 25 21 26 22 27 23 28 24 29 25 31 26 32 27 33 88 34
REMARK SMILES IDX 28 35 87 36 29 37 30 38 31 39 81 40 32 41 86 42 80 43 82 44
REMARK SMILES IDX 33 45 85 46 79 47 78 48 34 50 66 51 46 52 65 53 47 54 50 55
REMARK SMILES IDX 64 56 83 57 48 58 49 59 63 61 84 62 51 63 35 64 36 65 44 66
REMARK SMILES IDX 37 67 43 68 45 69 42 70 38 71 39 72 40 73 41 74 67 75 68 76
REMARK SMILES IDX 76 77 69 78 75 79 77 80 74 81 70 82 71 83 72 84 73 85 52 86
REMARK SMILES IDX 53 87 61 88 54 89 60 90 62 91 59 92 55 93 56 94 57 95 58 96
REMARK H PARENT 16 7 23 30 82 49 50 60
REMARK Flexibility Score: inf
ROOT
ATOM      1  C   UNL A   1      35.252  19.290  24.705  1.00  0.00     0.002 C 
ENDROOT
BRANCH   1   2
ATOM      2  C   UNL A   1      35.112  20.813  24.830  1.00  0.00     0.021 C 
BRANCH   2   3
ATOM      3  C   UNL A   1      33.659  21.266  24.997  1.00  0.00     0.116 C 
BRANCH   3   4
ATOM      4  N   UNL A   1      33.357  21.447  26.406  1.00  0.00    -0.353 N 
ATOM      5  C   UNL A   1      33.026  22.536  27.144  1.00  0.00     0.244 C 
ATOM      6  O   UNL A   1      32.801  22.390  28.346  1.00  0.00    -0.270 OA
ATOM      7  H   UNL A   1      33.402  20.614  26.930  1.00  0.00     0.163 HD
BRANCH   5   8
ATOM      8  C   UNL A   1      32.828  23.875  26.544  1.00  0.00     0.072 C 
ATOM      9  C   UNL A   1      31.654  24.497  26.375  1.00  0.00     0.024 C 
BRANCH   9  10
ATOM     10  C   UNL A   1      31.514  25.817  25.854  1.00  0.00     0.028 A 
ATOM     11  C   UNL A   1      30.935  27.537  24.353  1.00  0.00     0.051 A 
ATOM     12  C   UNL A   1      31.696  28.223  25.278  1.00  0.00     0.079 A 
ATOM     13  C   UNL A   1      30.775  26.170  24.738  1.00  0.00     0.033 A 
ATOM     14  S   UNL A   1      32.287  27.203  26.515  1.00  0.00    -0.144 S 
BRANCH  11  15
ATOM     15  C   UNL A   1      30.348  28.128  23.157  1.00  0.00     0.254 C 
ATOM     16  O   UNL A   1      30.796  27.853  22.049  1.00  0.00    -0.269 OA
BRANCH  15  17
ATOM     17  N   UNL A   1      29.325  29.049  23.350  1.00  0.00    -0.333 N 
ATOM     18  C   UNL A   1      28.671  31.301  22.531  1.00  0.00     0.240 C 
ATOM     19  C   UNL A   1      29.484  30.497  23.563  1.00  0.00     0.167 C 
ATOM     20  O   UNL A   1      27.291  30.872  22.543  1.00  0.00    -0.360 OA
ATOM     21  C   UNL A   1      27.186  29.475  22.214  1.00  0.00     0.183 C 
ATOM     22  C   UNL A   1      27.932  28.613  23.239  1.00  0.00     0.148 C 
BRANCH  18  23
ATOM     23  C   UNL A   1      28.768  32.740  22.848  1.00  0.00     0.096 C 
ATOM     24  N   UNL A   1      28.807  33.879  23.061  1.00  0.00    -0.195 NA
ENDBRANCH  18  23
ENDBRANCH  15  17
ENDBRANCH  11  15
ENDBRANCH   9  10
ENDBRANCH   5   8
ENDBRANCH   3   4
ENDBRANCH   2   3
ENDBRANCH   1   2
BRANCH   1  25
ATOM     25  C   UNL A   1      36.662  18.755  24.987  1.00  0.00     0.002 C 
BRANCH  25  26
ATOM     26  C   UNL A   1      37.794  19.720  24.625  1.00  0.00     0.021 C 
BRANCH  26  27
ATOM     27  C   UNL A   1      38.618  20.182  25.823  1.00  0.00     0.116 C 
BRANCH  27  28
ATOM     28  N   UNL A   1      39.828  19.386  25.970  1.00  0.00    -0.352 N 
ATOM     29  C   UNL A   1      41.126  19.799  26.133  1.00  0.00     0.251 C 
ATOM     30  H   UNL A   1      39.695  18.410  25.951  1.00  0.00     0.163 HD
ATOM     31  O   UNL A   1      42.046  19.007  25.952  1.00  0.00    -0.269 OA
BRANCH  29  32
ATOM     32  C   UNL A   1      41.403  21.201  26.508  1.00  0.00     0.039 A 
ATOM     33  C   UNL A   1      41.602  21.517  27.853  1.00  0.00     0.014 A 
ATOM     34  C   UNL A   1      41.474  22.197  25.530  1.00  0.00     0.014 A 
ATOM     35  C   UNL A   1      41.944  22.822  28.208  1.00  0.00     0.010 A 
ATOM     36  C   UNL A   1      41.894  23.477  25.876  1.00  0.00     0.010 A 
ATOM     37  C   UNL A   1      42.140  23.800  27.219  1.00  0.00    -0.014 A 
BRANCH  37  38
ATOM     38  C   UNL A   1      42.639  25.154  27.567  1.00  0.00     0.031 A 
ATOM     39  C   UNL A   1      41.733  26.153  28.227  1.00  0.00     0.074 A 
ATOM     40  C   UNL A   1      43.893  25.504  27.218  1.00  0.00     0.049 A 
ATOM     41  N   UNL A   1      41.961  27.405  28.528  1.00  0.00    -0.248 NA
ATOM     42  C   UNL A   1      40.381  25.688  28.565  1.00  0.00     0.031 C 
ATOM     43  C   UNL A   1      44.851  24.629  26.540  1.00  0.00     0.029 A 
ATOM     44  N   UNL A   1      44.573  26.685  27.371  1.00  0.00    -0.354 N 
ATOM     45  C   UNL A   1      40.780  27.882  29.085  1.00  0.00     0.074 A 
ATOM     46  C   UNL A   1      39.820  26.800  29.013  1.00  0.00     0.031 C 
ATOM     47  C   UNL A   1      46.000  25.296  26.356  1.00  0.00     0.029 A 
ATOM     48  C   UNL A   1      45.841  26.663  26.841  1.00  0.00     0.049 A 
ATOM     49  H   UNL A   1      44.189  27.474  27.818  1.00  0.00     0.167 HD
ATOM     50  C   UNL A   1      40.530  29.104  29.622  1.00  0.00     0.034 A 
ATOM     51  C   UNL A   1      46.764  27.638  26.726  1.00  0.00     0.034 A 
ATOM     52  C   UNL A   1      41.501  30.170  29.667  1.00  0.00     0.049 A 
ATOM     53  C   UNL A   1      46.445  29.006  27.265  1.00  0.00     0.074 A 
ATOM     54  C   UNL A   1      41.377  31.425  30.237  1.00  0.00     0.029 A 
ATOM     55  N   UNL A   1      42.768  30.121  29.094  1.00  0.00    -0.354 N 
ATOM     56  N   UNL A   1      45.347  29.425  27.854  1.00  0.00    -0.248 NA
ATOM     57  C   UNL A   1      47.484  30.032  27.124  1.00  0.00     0.031 C 
ATOM     58  C   UNL A   1      42.522  32.165  29.922  1.00  0.00     0.029 A 
ATOM     59  C   UNL A   1      43.407  31.344  29.242  1.00  0.00     0.049 A 
ATOM     60  H   UNL A   1      43.155  29.333  28.648  1.00  0.00     0.167 HD
ATOM     61  C   UNL A   1      45.570  30.763  28.164  1.00  0.00     0.074 A 
ATOM     62  C   UNL A   1      46.915  31.072  27.719  1.00  0.00     0.031 C 
ATOM     63  C   UNL A   1      44.738  31.654  28.763  1.00  0.00     0.034 A 
BRANCH  50  64
ATOM     64  C   UNL A   1      39.135  29.354  30.151  1.00  0.00     0.023 A 
ATOM     65  C   UNL A   1      38.199  30.120  29.434  1.00  0.00     0.031 A 
ATOM     66  C   UNL A   1      38.752  28.872  31.415  1.00  0.00     0.131 A 
ATOM     67  C   UNL A   1      36.980  30.476  30.029  1.00  0.00     0.055 A 
ATOM     68  C   UNL A   1      37.493  29.139  31.958  1.00  0.00     0.041 A 
ATOM     69  F   UNL A   1      39.605  28.152  32.161  1.00  0.00    -0.206 F 
ATOM     70  C   UNL A   1      36.607  29.967  31.274  1.00  0.00     0.022 A 
BRANCH  67  71
ATOM     71  S   UNL A   1      35.988  31.778  29.246  1.00  0.00     0.124 S 
ATOM     72  O   UNL A   1      35.645  31.158  27.969  1.00  0.00    -0.237 OA
ATOM     73  O   UNL A   1      34.890  31.949  30.190  1.00  0.00    -0.237 OA
ATOM     74  O   UNL A   1      36.915  32.904  29.152  1.00  0.00    -0.744 OA
ENDBRANCH  67  71
ENDBRANCH  50  64
BRANCH  51  75
ATOM     75  C   UNL A   1      48.054  27.357  26.033  1.00  0.00     0.023 A 
ATOM     76  C   UNL A   1      49.196  26.964  26.745  1.00  0.00     0.031 A 
ATOM     77  C   UNL A   1      48.154  27.471  24.634  1.00  0.00     0.131 A 
ATOM     78  C   UNL A   1      50.395  26.718  26.058  1.00  0.00     0.055 A 
ATOM     79  C   UNL A   1      49.333  27.172  23.951  1.00  0.00     0.041 A 
ATOM     80  F   UNL A   1      47.090  27.846  23.905  1.00  0.00    -0.206 F 
ATOM     81  C   UNL A   1      50.465  26.799  24.665  1.00  0.00     0.022 A 
BRANCH  78  82
ATOM     82  S   UNL A   1      51.890  26.350  27.018  1.00  0.00     0.124 S 
ATOM     83  O   UNL A   1      51.687  27.169  28.208  1.00  0.00    -0.237 OA
ATOM     84  O   UNL A   1      51.784  24.907  27.205  1.00  0.00    -0.237 OA
ATOM     85  O   UNL A   1      52.974  26.784  26.139  1.00  0.00    -0.744 OA
ENDBRANCH  78  82
ENDBRANCH  51  75
BRANCH  63  86
ATOM     86  C   UNL A   1      45.265  33.052  28.979  1.00  0.00     0.023 A 
ATOM     87  C   UNL A   1      44.957  34.099  28.093  1.00  0.00     0.031 A 
ATOM     88  C   UNL A   1      46.082  33.345  30.086  1.00  0.00     0.131 A 
ATOM     89  C   UNL A   1      45.504  35.375  28.300  1.00  0.00     0.055 A 
ATOM     90  C   UNL A   1      46.564  34.632  30.326  1.00  0.00     0.041 A 
ATOM     91  F   UNL A   1      46.418  32.383  30.961  1.00  0.00    -0.206 F 
ATOM     92  C   UNL A   1      46.286  35.654  29.423  1.00  0.00     0.022 A 
BRANCH  89  93
ATOM     93  S   UNL A   1      45.265  36.640  27.022  1.00  0.00     0.124 S 
ATOM     94  O   UNL A   1      46.283  36.274  26.042  1.00  0.00    -0.237 OA
ATOM     95  O   UNL A   1      43.881  36.420  26.618  1.00  0.00    -0.237 OA
ATOM     96  O   UNL A   1      45.512  37.894  27.731  1.00  0.00    -0.744 OA
ENDBRANCH  89  93
ENDBRANCH  63  86
ENDBRANCH  37  38
ENDBRANCH  29  32
ENDBRANCH  27  28
ENDBRANCH  26  27
ENDBRANCH  25  26
ENDBRANCH   1  25
TORSDOF 20
ENDMDL
MODEL 3
REMARK VINA RESULT:     -10.8      1.439      7.518
REMARK SMILES N#C[C@H]1CN(C(=O)c2csc(/C=C/C(=O)NCCCCCCNC(=O)c3ccc(-c4c5nc(c(-c6cc(S(=O)(=O)[O-])ccc6F)c6ccc([nH]6)c(-c6cc(S(=O)(=O)[O-])ccc6F)c6nc(c(-c7cc(S(=O)(=O)[O-])ccc7F)c7ccc4[nH]7)C=C6)C=C5)cc3)c2)CCO1
REMARK SMILES IDX 19 1 18 2 17 3 16 4 14 5 15 6 13 8 12 9 11 10 8 11 9 12
REMARK SMILES IDX 89 13 10 14 6 15 7 16 5 17 3 18 4 19 92 20 91 21 90 22 2 23
REMARK SMILES IDX 1 24 20 25 21 26 22 27 23 28 24 29 25 31 26 32 27 33 88 34
REMARK SMILES IDX 28 35 87 36 29 37 30 38 31 39 81 40 32 41 86 42 80 43 82 44
REMARK SMILES IDX 33 45 85 46 79 47 78 48 34 50 66 51 46 52 65 53 47 54 50 55
REMARK SMILES IDX 64 56 83 57 48 58 49 59 63 61 84 62 51 63 35 64 36 65 44 66
REMARK SMILES IDX 37 67 43 68 45 69 42 70 38 71 39 72 40 73 41 74 67 75 68 76
REMARK SMILES IDX 76 77 69 78 75 79 77 80 74 81 70 82 71 83 72 84 73 85 52 86
REMARK SMILES IDX 53 87 61 88 54 89 60 90 62 91 59 92 55 93 56 94 57 95 58 96
REMARK H PARENT 16 7 23 30 82 49 50 60
REMARK Flexibility Score: inf
ROOT
ATOM      1  C   UNL A   1      34.524  21.084  25.366  1.00  0.00     0.002 C 
ENDROOT
BRANCH   1   2
ATOM      2  C   UNL A   1      34.652  22.427  26.099  1.00  0.00     0.021 C 
BRANCH   2   3
ATOM      3  C   UNL A   1      33.645  22.580  27.241  1.00  0.00     0.116 C 
BRANCH   3   4
ATOM      4  N   UNL A   1      32.368  22.005  26.855  1.00  0.00    -0.353 N 
ATOM      5  C   UNL A   1      31.243  22.538  26.316  1.00  0.00     0.244 C 
ATOM      6  O   UNL A   1      30.295  21.793  26.069  1.00  0.00    -0.270 OA
ATOM      7  H   UNL A   1      32.306  21.036  27.017  1.00  0.00     0.163 HD
BRANCH   5   8
ATOM      8  C   UNL A   1      31.146  23.962  25.921  1.00  0.00     0.072 C 
ATOM      9  C   UNL A   1      31.569  25.010  26.640  1.00  0.00     0.024 C 
BRANCH   9  10
ATOM     10  C   UNL A   1      31.517  26.363  26.193  1.00  0.00     0.028 A 
ATOM     11  C   UNL A   1      31.262  28.183  24.719  1.00  0.00     0.051 A 
ATOM     12  C   UNL A   1      31.759  28.807  25.845  1.00  0.00     0.079 A 
ATOM     13  C   UNL A   1      31.057  26.789  24.959  1.00  0.00     0.033 A 
ATOM     14  S   UNL A   1      32.068  27.706  27.114  1.00  0.00    -0.144 S 
BRANCH  11  15
ATOM     15  C   UNL A   1      30.961  28.853  23.461  1.00  0.00     0.254 C 
ATOM     16  O   UNL A   1      31.762  28.816  22.534  1.00  0.00    -0.269 OA
BRANCH  15  17
ATOM     17  N   UNL A   1      29.775  29.576  23.404  1.00  0.00    -0.333 N 
ATOM     18  C   UNL A   1      28.956  31.739  22.497  1.00  0.00     0.240 C 
ATOM     19  C   UNL A   1      29.614  31.012  23.686  1.00  0.00     0.167 C 
ATOM     20  O   UNL A   1      27.717  31.086  22.140  1.00  0.00    -0.360 OA
ATOM     21  C   UNL A   1      27.949  29.717  21.762  1.00  0.00     0.183 C 
ATOM     22  C   UNL A   1      28.555  28.923  22.925  1.00  0.00     0.148 C 
BRANCH  18  23
ATOM     23  C   UNL A   1      28.711  33.148  22.863  1.00  0.00     0.096 C 
ATOM     24  N   UNL A   1      28.532  34.269  23.101  1.00  0.00    -0.195 NA
ENDBRANCH  18  23
ENDBRANCH  15  17
ENDBRANCH  11  15
ENDBRANCH   9  10
ENDBRANCH   5   8
ENDBRANCH   3   4
ENDBRANCH   2   3
ENDBRANCH   1   2
BRANCH   1  25
ATOM     25  C   UNL A   1      35.863  20.429  25.002  1.00  0.00     0.002 C 
BRANCH  25  26
ATOM     26  C   UNL A   1      36.826  21.332  24.228  1.00  0.00     0.021 C 
BRANCH  26  27
ATOM     27  C   UNL A   1      37.947  21.914  25.083  1.00  0.00     0.116 C 
BRANCH  27  28
ATOM     28  N   UNL A   1      38.734  20.862  25.709  1.00  0.00    -0.352 N 
ATOM     29  C   UNL A   1      39.890  20.960  26.441  1.00  0.00     0.251 C 
ATOM     30  H   UNL A   1      38.386  19.949  25.591  1.00  0.00     0.163 HD
ATOM     31  O   UNL A   1      40.570  19.959  26.647  1.00  0.00    -0.269 OA
BRANCH  29  32
ATOM     32  C   UNL A   1      40.315  22.276  26.961  1.00  0.00     0.039 A 
ATOM     33  C   UNL A   1      41.214  22.326  28.028  1.00  0.00     0.014 A 
ATOM     34  C   UNL A   1      39.830  23.456  26.389  1.00  0.00     0.014 A 
ATOM     35  C   UNL A   1      41.682  23.563  28.474  1.00  0.00     0.010 A 
ATOM     36  C   UNL A   1      40.359  24.681  26.780  1.00  0.00     0.010 A 
ATOM     37  C   UNL A   1      41.296  24.746  27.822  1.00  0.00    -0.014 A 
BRANCH  37  38
ATOM     38  C   UNL A   1      41.891  26.055  28.192  1.00  0.00     0.031 A 
ATOM     39  C   UNL A   1      41.068  27.093  28.899  1.00  0.00     0.074 A 
ATOM     40  C   UNL A   1      43.157  26.330  27.822  1.00  0.00     0.049 A 
ATOM     41  N   UNL A   1      41.387  28.319  29.226  1.00  0.00    -0.248 NA
ATOM     42  C   UNL A   1      39.697  26.709  29.257  1.00  0.00     0.031 C 
ATOM     43  C   UNL A   1      44.040  25.413  27.098  1.00  0.00     0.029 A 
ATOM     44  N   UNL A   1      43.918  27.460  27.988  1.00  0.00    -0.354 N 
ATOM     45  C   UNL A   1      40.252  28.858  29.822  1.00  0.00     0.074 A 
ATOM     46  C   UNL A   1      39.221  27.844  29.746  1.00  0.00     0.031 C 
ATOM     47  C   UNL A   1      45.226  26.007  26.904  1.00  0.00     0.029 A 
ATOM     48  C   UNL A   1      45.170  27.369  27.428  1.00  0.00     0.049 A 
ATOM     49  H   UNL A   1      43.597  28.260  28.464  1.00  0.00     0.167 HD
ATOM     50  C   UNL A   1      40.096  30.078  30.396  1.00  0.00     0.034 A 
ATOM     51  C   UNL A   1      46.152  28.284  27.315  1.00  0.00     0.034 A 
ATOM     52  C   UNL A   1      41.137  31.077  30.444  1.00  0.00     0.049 A 
ATOM     53  C   UNL A   1      45.937  29.655  27.895  1.00  0.00     0.074 A 
ATOM     54  C   UNL A   1      41.109  32.321  31.049  1.00  0.00     0.029 A 
ATOM     55  N   UNL A   1      42.384  30.960  29.841  1.00  0.00    -0.354 N 
ATOM     56  N   UNL A   1      44.883  30.130  28.521  1.00  0.00    -0.248 NA
ATOM     57  C   UNL A   1      47.038  30.614  27.756  1.00  0.00     0.031 C 
ATOM     58  C   UNL A   1      42.293  32.992  30.725  1.00  0.00     0.029 A 
ATOM     59  C   UNL A   1      43.106  32.133  30.003  1.00  0.00     0.049 A 
ATOM     60  H   UNL A   1      42.708  30.161  29.365  1.00  0.00     0.167 HD
ATOM     61  C   UNL A   1      45.201  31.441  28.859  1.00  0.00     0.074 A 
ATOM     62  C   UNL A   1      46.553  31.672  28.390  1.00  0.00     0.031 C 
ATOM     63  C   UNL A   1      44.443  32.368  29.500  1.00  0.00     0.034 A 
BRANCH  50  64
ATOM     64  C   UNL A   1      38.733  30.405  30.965  1.00  0.00     0.023 A 
ATOM     65  C   UNL A   1      37.738  31.027  30.189  1.00  0.00     0.031 A 
ATOM     66  C   UNL A   1      38.440  30.147  32.315  1.00  0.00     0.131 A 
ATOM     67  C   UNL A   1      36.553  31.472  30.793  1.00  0.00     0.055 A 
ATOM     68  C   UNL A   1      37.213  30.494  32.885  1.00  0.00     0.041 A 
ATOM     69  F   UNL A   1      39.353  29.575  33.117  1.00  0.00    -0.206 F 
ATOM     70  C   UNL A   1      36.270  31.183  32.129  1.00  0.00     0.022 A 
BRANCH  67  71
ATOM     71  S   UNL A   1      35.489  32.611  29.864  1.00  0.00     0.124 S 
ATOM     72  O   UNL A   1      35.393  31.935  28.572  1.00  0.00    -0.237 OA
ATOM     73  O   UNL A   1      34.272  32.630  30.666  1.00  0.00    -0.237 OA
ATOM     74  O   UNL A   1      36.252  33.857  29.849  1.00  0.00    -0.744 OA
ENDBRANCH  67  71
ENDBRANCH  50  64
BRANCH  51  75
ATOM     75  C   UNL A   1      47.405  27.937  26.584  1.00  0.00     0.023 A 
ATOM     76  C   UNL A   1      47.472  27.982  25.184  1.00  0.00     0.031 A 
ATOM     77  C   UNL A   1      48.563  27.561  27.290  1.00  0.00     0.131 A 
ATOM     78  C   UNL A   1      48.667  27.639  24.532  1.00  0.00     0.055 A 
ATOM     79  C   UNL A   1      49.764  27.275  26.640  1.00  0.00     0.041 A 
ATOM     80  F   UNL A   1      48.552  27.500  28.632  1.00  0.00    -0.206 F 
ATOM     81  C   UNL A   1      49.818  27.306  25.251  1.00  0.00     0.022 A 
BRANCH  78  82
ATOM     82  S   UNL A   1      48.683  27.569  22.720  1.00  0.00     0.124 S 
ATOM     83  O   UNL A   1      47.564  28.442  22.381  1.00  0.00    -0.237 OA
ATOM     84  O   UNL A   1      50.013  28.078  22.407  1.00  0.00    -0.237 OA
ATOM     85  O   UNL A   1      48.477  26.151  22.431  1.00  0.00    -0.744 OA
ENDBRANCH  78  82
ENDBRANCH  51  75
BRANCH  63  86
ATOM     86  C   UNL A   1      45.067  33.722  29.739  1.00  0.00     0.023 A 
ATOM     87  C   UNL A   1      45.885  33.969  30.856  1.00  0.00     0.031 A 
ATOM     88  C   UNL A   1      44.847  34.780  28.838  1.00  0.00     0.131 A 
ATOM     89  C   UNL A   1      46.409  35.252  31.071  1.00  0.00     0.055 A 
ATOM     90  C   UNL A   1      45.430  36.034  29.018  1.00  0.00     0.041 A 
ATOM     91  F   UNL A   1      44.068  34.607  27.758  1.00  0.00    -0.206 F 
ATOM     92  C   UNL A   1      46.207  36.280  30.148  1.00  0.00     0.022 A 
BRANCH  89  93
ATOM     93  S   UNL A   1      47.273  35.589  32.630  1.00  0.00     0.124 S 
ATOM     94  O   UNL A   1      46.210  36.171  33.444  1.00  0.00    -0.237 OA
ATOM     95  O   UNL A   1      47.727  34.261  33.029  1.00  0.00    -0.237 OA
ATOM     96  O   UNL A   1      48.333  36.516  32.241  1.00  0.00    -0.744 OA
ENDBRANCH  89  93
ENDBRANCH  63  86
ENDBRANCH  37  38
ENDBRANCH  29  32
ENDBRANCH  27  28
ENDBRANCH  26  27
ENDBRANCH  25  26
ENDBRANCH   1  25
TORSDOF 20
ENDMDL
