MODEL 1
REMARK VINA RESULT:      -9.9      0.000      0.000
REMARK SMILES CC(C)C[C@H](NC(=O)CNC(=O)[C@@H]([NH3+])C(C)C)C(=O)NCCCCCCNC(=O)c1ccc(-c2c3nc(c(-c4cc(S(=O)(=O)[O-])ccc4F)c4ccc([nH]4)c(-c4cc(S(=O)(=O)[O-])ccc4F)c4nc(c(-c5cc(S(=O)(=O)[O-])ccc5F)c5ccc2[nH]5)C=C4)C=C3)cc1
REMARK SMILES IDX 22 1 21 2 20 3 18 4 19 5 5 7 4 8 2 9 1 10 3 11 6 12 7 13
REMARK SMILES IDX 8 15 9 16 10 17 11 18 12 20 13 21 14 22 15 26 16 27 17 28
REMARK SMILES IDX 23 29 24 30 25 31 26 32 27 33 28 34 29 36 30 37 31 38 92 39
REMARK SMILES IDX 32 40 91 41 33 42 34 43 35 44 85 45 36 46 90 47 84 48 86 49
REMARK SMILES IDX 37 50 89 51 83 52 82 53 38 55 70 56 50 57 69 58 51 59 54 60
REMARK SMILES IDX 68 61 87 62 52 63 53 64 67 66 88 67 55 68 39 69 40 70 48 71
REMARK SMILES IDX 41 72 47 73 49 74 46 75 42 76 43 77 44 78 45 79 71 80 72 81
REMARK SMILES IDX 80 82 73 83 79 84 81 85 78 86 74 87 75 88 76 89 77 90 56 91
REMARK SMILES IDX 57 92 65 93 58 94 64 95 66 96 63 97 59 98 60 99 61 100
REMARK SMILES IDX 62 101
REMARK H PARENT 20 6 6 14 10 19 14 23 14 24 14 25 27 35 86 54 54 65
REMARK Flexibility Score: inf
ROOT
ATOM      1  C   UNL A   1      37.942  23.752  26.026  1.00  0.00     0.021 C 
ENDROOT
BRANCH   1   2
ATOM      2  C   UNL A   1      36.485  23.604  25.611  1.00  0.00     0.116 C 
BRANCH   2   3
ATOM      3  N   UNL A   1      35.698  23.086  26.711  1.00  0.00    -0.354 N 
ATOM      4  C   UNL A   1      34.391  23.289  27.020  1.00  0.00     0.242 C 
ATOM      5  O   UNL A   1      33.928  22.742  28.027  1.00  0.00    -0.273 OA
ATOM      6  H   UNL A   1      36.185  22.497  27.331  1.00  0.00     0.163 HD
BRANCH   4   7
ATOM      7  C   UNL A   1      33.490  24.134  26.109  1.00  0.00     0.171 C 
BRANCH   7   8
ATOM      8  C   UNL A   1      34.043  25.544  25.832  1.00  0.00     0.038 C 
BRANCH   8   9
ATOM      9  C   UNL A   1      32.969  26.628  25.536  1.00  0.00    -0.015 C 
ATOM     10  C   UNL A   1      32.830  27.682  26.634  1.00  0.00     0.007 C 
ATOM     11  C   UNL A   1      33.298  27.343  24.225  1.00  0.00     0.007 C 
ENDBRANCH   8   9
ENDBRANCH   7   8
BRANCH   7  12
ATOM     12  N   UNL A   1      32.108  24.111  26.608  1.00  0.00    -0.343 N 
ATOM     13  C   UNL A   1      31.163  23.133  26.625  1.00  0.00     0.240 C 
ATOM     14  H   UNL A   1      31.811  24.961  27.006  1.00  0.00     0.164 HD
ATOM     15  O   UNL A   1      30.225  23.293  27.415  1.00  0.00    -0.273 OA
BRANCH  13  16
ATOM     16  C   UNL A   1      31.270  21.838  25.816  1.00  0.00     0.216 C 
BRANCH  16  17
ATOM     17  N   UNL A   1      31.703  22.039  24.450  1.00  0.00    -0.342 N 
ATOM     18  C   UNL A   1      32.652  21.434  23.700  1.00  0.00     0.278 C 
ATOM     19  H   UNL A   1      31.214  22.752  23.978  1.00  0.00     0.164 HD
ATOM     20  O   UNL A   1      32.894  21.992  22.622  1.00  0.00    -0.268 OA
BRANCH  18  21
ATOM     21  C   UNL A   1      33.409  20.125  24.089  1.00  0.00     0.273 C 
BRANCH  21  22
ATOM     22  N   UNL A   1      34.227  20.240  25.316  1.00  0.00    -0.347 N 
ATOM     23  H   UNL A   1      33.679  20.692  26.048  1.00  0.00     0.345 HD
ATOM     24  H   UNL A   1      35.058  20.797  25.120  1.00  0.00     0.345 HD
ATOM     25  H   UNL A   1      34.507  19.310  25.627  1.00  0.00     0.345 HD
ENDBRANCH  21  22
BRANCH  21  26
ATOM     26  C   UNL A   1      32.417  18.941  24.117  1.00  0.00     0.051 C 
ATOM     27  C   UNL A   1      32.595  18.052  22.874  1.00  0.00     0.014 C 
ATOM     28  C   UNL A   1      32.612  18.055  25.354  1.00  0.00     0.014 C 
ENDBRANCH  21  26
ENDBRANCH  18  21
ENDBRANCH  16  17
ENDBRANCH  13  16
ENDBRANCH   7  12
ENDBRANCH   4   7
ENDBRANCH   2   3
ENDBRANCH   1   2
BRANCH   1  29
ATOM     29  C   UNL A   1      38.687  22.416  26.089  1.00  0.00     0.002 C 
BRANCH  29  30
ATOM     30  C   UNL A   1      38.123  21.336  25.158  1.00  0.00     0.002 C 
BRANCH  30  31
ATOM     31  C   UNL A   1      38.799  19.969  25.288  1.00  0.00     0.021 C 
BRANCH  31  32
ATOM     32  C   UNL A   1      39.782  19.875  26.446  1.00  0.00     0.116 C 
BRANCH  32  33
ATOM     33  N   UNL A   1      40.978  19.146  26.068  1.00  0.00    -0.352 N 
ATOM     34  C   UNL A   1      42.236  19.639  25.840  1.00  0.00     0.251 C 
ATOM     35  H   UNL A   1      40.873  18.174  25.962  1.00  0.00     0.163 HD
ATOM     36  O   UNL A   1      43.081  18.936  25.293  1.00  0.00    -0.269 OA
BRANCH  34  37
ATOM     37  C   UNL A   1      42.544  21.027  26.238  1.00  0.00     0.039 A 
ATOM     38  C   UNL A   1      42.613  22.012  25.254  1.00  0.00     0.014 A 
ATOM     39  C   UNL A   1      42.750  21.350  27.583  1.00  0.00     0.014 A 
ATOM     40  C   UNL A   1      42.856  23.334  25.626  1.00  0.00     0.010 A 
ATOM     41  C   UNL A   1      42.907  22.678  27.959  1.00  0.00     0.010 A 
ATOM     42  C   UNL A   1      42.982  23.682  26.982  1.00  0.00    -0.014 A 
BRANCH  42  43
ATOM     43  C   UNL A   1      43.239  25.087  27.386  1.00  0.00     0.031 A 
ATOM     44  C   UNL A   1      44.629  25.654  27.275  1.00  0.00     0.074 A 
ATOM     45  C   UNL A   1      42.232  25.836  27.877  1.00  0.00     0.049 A 
ATOM     46  N   UNL A   1      45.070  26.837  27.615  1.00  0.00    -0.248 NA
ATOM     47  C   UNL A   1      45.665  24.760  26.734  1.00  0.00     0.031 C 
ATOM     48  C   UNL A   1      40.853  25.380  28.065  1.00  0.00     0.029 A 
ATOM     49  N   UNL A   1      42.211  27.139  28.307  1.00  0.00    -0.354 N 
ATOM     50  C   UNL A   1      46.431  26.830  27.328  1.00  0.00     0.074 A 
ATOM     51  C   UNL A   1      46.756  25.498  26.866  1.00  0.00     0.031 C 
ATOM     52  C   UNL A   1      40.116  26.395  28.543  1.00  0.00     0.029 A 
ATOM     53  C   UNL A   1      40.975  27.558  28.742  1.00  0.00     0.049 A 
ATOM     54  H   UNL A   1      43.007  27.719  28.305  1.00  0.00     0.167 HD
ATOM     55  C   UNL A   1      47.321  27.850  27.405  1.00  0.00     0.034 A 
ATOM     56  C   UNL A   1      40.583  28.743  29.252  1.00  0.00     0.034 A 
ATOM     57  C   UNL A   1      46.979  29.173  27.868  1.00  0.00     0.049 A 
ATOM     58  C   UNL A   1      41.602  29.851  29.369  1.00  0.00     0.074 A 
ATOM     59  C   UNL A   1      47.794  30.286  27.977  1.00  0.00     0.029 A 
ATOM     60  N   UNL A   1      45.717  29.562  28.300  1.00  0.00    -0.354 N 
ATOM     61  N   UNL A   1      42.878  29.839  29.057  1.00  0.00    -0.248 NA
ATOM     62  C   UNL A   1      41.123  31.137  29.887  1.00  0.00     0.031 C 
ATOM     63  C   UNL A   1      47.043  31.326  28.535  1.00  0.00     0.029 A 
ATOM     64  C   UNL A   1      45.737  30.890  28.694  1.00  0.00     0.049 A 
ATOM     65  H   UNL A   1      44.924  28.979  28.322  1.00  0.00     0.167 HD
ATOM     66  C   UNL A   1      43.342  31.129  29.304  1.00  0.00     0.074 A 
ATOM     67  C   UNL A   1      42.203  31.894  29.770  1.00  0.00     0.031 C 
ATOM     68  C   UNL A   1      44.591  31.639  29.157  1.00  0.00     0.034 A 
BRANCH  55  69
ATOM     69  C   UNL A   1      48.745  27.561  26.993  1.00  0.00     0.023 A 
ATOM     70  C   UNL A   1      49.202  27.836  25.691  1.00  0.00     0.031 A 
ATOM     71  C   UNL A   1      49.651  26.979  27.895  1.00  0.00     0.131 A 
ATOM     72  C   UNL A   1      50.497  27.458  25.306  1.00  0.00     0.055 A 
ATOM     73  C   UNL A   1      50.968  26.687  27.532  1.00  0.00     0.041 A 
ATOM     74  F   UNL A   1      49.269  26.670  29.145  1.00  0.00    -0.206 F 
ATOM     75  C   UNL A   1      51.393  26.912  26.227  1.00  0.00     0.022 A 
BRANCH  72  76
ATOM     76  S   UNL A   1      50.940  27.555  23.550  1.00  0.00     0.124 S 
ATOM     77  O   UNL A   1      51.136  28.994  23.376  1.00  0.00    -0.237 OA
ATOM     78  O   UNL A   1      52.143  26.734  23.480  1.00  0.00    -0.237 OA
ATOM     79  O   UNL A   1      49.768  27.007  22.871  1.00  0.00    -0.744 OA
ENDBRANCH  72  76
ENDBRANCH  55  69
BRANCH  56  80
ATOM     80  C   UNL A   1      39.176  28.950  29.704  1.00  0.00     0.023 A 
ATOM     81  C   UNL A   1      38.230  29.569  28.870  1.00  0.00     0.031 A 
ATOM     82  C   UNL A   1      38.773  28.596  31.004  1.00  0.00     0.131 A 
ATOM     83  C   UNL A   1      36.955  29.878  29.367  1.00  0.00     0.055 A 
ATOM     84  C   UNL A   1      37.482  28.844  31.471  1.00  0.00     0.041 A 
ATOM     85  F   UNL A   1      39.634  27.998  31.844  1.00  0.00    -0.206 F 
ATOM     86  C   UNL A   1      36.569  29.507  30.657  1.00  0.00     0.022 A 
BRANCH  83  87
ATOM     87  S   UNL A   1      35.847  30.886  28.344  1.00  0.00     0.124 S 
ATOM     88  O   UNL A   1      35.450  29.936  27.312  1.00  0.00    -0.237 OA
ATOM     89  O   UNL A   1      34.813  31.265  29.301  1.00  0.00    -0.237 OA
ATOM     90  O   UNL A   1      36.705  31.980  27.891  1.00  0.00    -0.744 OA
ENDBRANCH  83  87
ENDBRANCH  56  80
BRANCH  68  91
ATOM     91  C   UNL A   1      44.770  33.111  29.445  1.00  0.00     0.023 A 
ATOM     92  C   UNL A   1      44.568  34.092  28.460  1.00  0.00     0.031 A 
ATOM     93  C   UNL A   1      45.174  33.534  30.725  1.00  0.00     0.131 A 
ATOM     94  C   UNL A   1      44.840  35.439  28.747  1.00  0.00     0.055 A 
ATOM     95  C   UNL A   1      45.373  34.881  31.025  1.00  0.00     0.041 A 
ATOM     96  F   UNL A   1      45.385  32.641  31.705  1.00  0.00    -0.206 F 
ATOM     97  C   UNL A   1      45.222  35.840  30.029  1.00  0.00     0.022 A 
BRANCH  94  98
ATOM     98  S   UNL A   1      44.801  36.643  27.391  1.00  0.00     0.124 S 
ATOM     99  O   UNL A   1      43.518  36.349  26.762  1.00  0.00    -0.237 OA
ATOM    100  O   UNL A   1      44.886  37.914  28.102  1.00  0.00    -0.237 OA
ATOM    101  O   UNL A   1      45.976  36.298  26.594  1.00  0.00    -0.744 OA
ENDBRANCH  94  98
ENDBRANCH  68  91
ENDBRANCH  42  43
ENDBRANCH  34  37
ENDBRANCH  32  33
ENDBRANCH  31  32
ENDBRANCH  30  31
ENDBRANCH  29  30
ENDBRANCH   1  29
TORSDOF 24
ENDMDL
MODEL 2
REMARK VINA RESULT:      -9.9      2.702      4.444
REMARK SMILES CC(C)C[C@H](NC(=O)CNC(=O)[C@@H]([NH3+])C(C)C)C(=O)NCCCCCCNC(=O)c1ccc(-c2c3nc(c(-c4cc(S(=O)(=O)[O-])ccc4F)c4ccc([nH]4)c(-c4cc(S(=O)(=O)[O-])ccc4F)c4nc(c(-c5cc(S(=O)(=O)[O-])ccc5F)c5ccc2[nH]5)C=C4)C=C3)cc1
REMARK SMILES IDX 22 1 21 2 20 3 18 4 19 5 5 7 4 8 2 9 1 10 3 11 6 12 7 13
REMARK SMILES IDX 8 15 9 16 10 17 11 18 12 20 13 21 14 22 15 26 16 27 17 28
REMARK SMILES IDX 23 29 24 30 25 31 26 32 27 33 28 34 29 36 30 37 31 38 92 39
REMARK SMILES IDX 32 40 91 41 33 42 34 43 35 44 85 45 36 46 90 47 84 48 86 49
REMARK SMILES IDX 37 50 89 51 83 52 82 53 38 55 70 56 50 57 69 58 51 59 54 60
REMARK SMILES IDX 68 61 87 62 52 63 53 64 67 66 88 67 55 68 39 69 40 70 48 71
REMARK SMILES IDX 41 72 47 73 49 74 46 75 42 76 43 77 44 78 45 79 71 80 72 81
REMARK SMILES IDX 80 82 73 83 79 84 81 85 78 86 74 87 75 88 76 89 77 90 56 91
REMARK SMILES IDX 57 92 65 93 58 94 64 95 66 96 63 97 59 98 60 99 61 100
REMARK SMILES IDX 62 101
REMARK H PARENT 20 6 6 14 10 19 14 23 14 24 14 25 27 35 86 54 54 65
REMARK Flexibility Score: inf
ROOT
ATOM      1  C   UNL A   1      33.758  21.076  26.290  1.00  0.00     0.021 C 
ENDROOT
BRANCH   1   2
ATOM      2  C   UNL A   1      32.283  21.304  25.989  1.00  0.00     0.116 C 
BRANCH   2   3
ATOM      3  N   UNL A   1      31.780  22.426  26.755  1.00  0.00    -0.354 N 
ATOM      4  C   UNL A   1      31.284  23.617  26.332  1.00  0.00     0.242 C 
ATOM      5  O   UNL A   1      30.915  24.439  27.177  1.00  0.00    -0.273 OA
ATOM      6  H   UNL A   1      31.801  22.307  27.731  1.00  0.00     0.163 HD
BRANCH   4   7
ATOM      7  C   UNL A   1      31.130  23.919  24.835  1.00  0.00     0.171 C 
BRANCH   7   8
ATOM      8  C   UNL A   1      32.456  24.285  24.141  1.00  0.00     0.038 C 
BRANCH   8   9
ATOM      9  C   UNL A   1      32.727  23.543  22.802  1.00  0.00    -0.015 C 
ATOM     10  C   UNL A   1      34.201  23.232  22.550  1.00  0.00     0.007 C 
ATOM     11  C   UNL A   1      31.947  22.228  22.769  1.00  0.00     0.007 C 
ENDBRANCH   8   9
ENDBRANCH   7   8
BRANCH   7  12
ATOM     12  N   UNL A   1      30.048  24.890  24.626  1.00  0.00    -0.343 N 
ATOM     13  C   UNL A   1      30.033  26.129  24.067  1.00  0.00     0.240 C 
ATOM     14  H   UNL A   1      29.169  24.587  24.951  1.00  0.00     0.164 HD
ATOM     15  O   UNL A   1      28.927  26.558  23.717  1.00  0.00    -0.273 OA
BRANCH  13  16
ATOM     16  C   UNL A   1      31.297  26.936  23.761  1.00  0.00     0.216 C 
BRANCH  16  17
ATOM     17  N   UNL A   1      31.166  28.350  24.038  1.00  0.00    -0.342 N 
ATOM     18  C   UNL A   1      31.367  29.078  25.161  1.00  0.00     0.278 C 
ATOM     19  H   UNL A   1      30.874  28.883  23.263  1.00  0.00     0.164 HD
ATOM     20  O   UNL A   1      30.968  30.248  25.098  1.00  0.00    -0.268 OA
BRANCH  18  21
ATOM     21  C   UNL A   1      32.057  28.557  26.461  1.00  0.00     0.273 C 
BRANCH  21  22
ATOM     22  N   UNL A   1      31.370  27.409  27.093  1.00  0.00    -0.347 N 
ATOM     23  H   UNL A   1      30.833  27.736  27.896  1.00  0.00     0.345 HD
ATOM     24  H   UNL A   1      32.062  26.727  27.401  1.00  0.00     0.345 HD
ATOM     25  H   UNL A   1      30.741  26.976  26.418  1.00  0.00     0.345 HD
ENDBRANCH  21  22
BRANCH  21  26
ATOM     26  C   UNL A   1      33.557  28.303  26.186  1.00  0.00     0.051 C 
ATOM     27  C   UNL A   1      34.427  28.954  27.275  1.00  0.00     0.014 C 
ATOM     28  C   UNL A   1      33.892  26.806  26.155  1.00  0.00     0.014 C 
ENDBRANCH  21  26
ENDBRANCH  18  21
ENDBRANCH  16  17
ENDBRANCH  13  16
ENDBRANCH   7  12
ENDBRANCH   4   7
ENDBRANCH   2   3
ENDBRANCH   1   2
BRANCH   1  29
ATOM     29  C   UNL A   1      34.537  20.523  25.093  1.00  0.00     0.002 C 
BRANCH  29  30
ATOM     30  C   UNL A   1      35.924  21.147  24.902  1.00  0.00     0.002 C 
BRANCH  30  31
ATOM     31  C   UNL A   1      36.142  22.457  25.664  1.00  0.00     0.021 C 
BRANCH  31  32
ATOM     32  C   UNL A   1      37.577  22.960  25.629  1.00  0.00     0.116 C 
BRANCH  32  33
ATOM     33  N   UNL A   1      38.505  21.944  26.090  1.00  0.00    -0.352 N 
ATOM     34  C   UNL A   1      39.752  22.115  26.630  1.00  0.00     0.251 C 
ATOM     35  H   UNL A   1      38.199  21.012  26.004  1.00  0.00     0.163 HD
ATOM     36  O   UNL A   1      40.509  21.155  26.745  1.00  0.00    -0.269 OA
BRANCH  34  37
ATOM     37  C   UNL A   1      40.173  23.468  27.046  1.00  0.00     0.039 A 
ATOM     38  C   UNL A   1      39.904  24.546  26.205  1.00  0.00     0.014 A 
ATOM     39  C   UNL A   1      40.817  23.665  28.272  1.00  0.00     0.014 A 
ATOM     40  C   UNL A   1      40.255  25.834  26.610  1.00  0.00     0.010 A 
ATOM     41  C   UNL A   1      41.088  24.955  28.710  1.00  0.00     0.010 A 
ATOM     42  C   UNL A   1      40.828  26.052  27.875  1.00  0.00    -0.014 A 
BRANCH  42  43
ATOM     43  C   UNL A   1      41.202  27.419  28.316  1.00  0.00     0.031 A 
ATOM     44  C   UNL A   1      42.647  27.840  28.297  1.00  0.00     0.074 A 
ATOM     45  C   UNL A   1      40.250  28.264  28.756  1.00  0.00     0.049 A 
ATOM     46  N   UNL A   1      43.186  28.968  28.681  1.00  0.00    -0.248 NA
ATOM     47  C   UNL A   1      43.618  26.848  27.807  1.00  0.00     0.031 C 
ATOM     48  C   UNL A   1      38.822  27.951  28.854  1.00  0.00     0.029 A 
ATOM     49  N   UNL A   1      40.336  29.558  29.204  1.00  0.00    -0.354 N 
ATOM     50  C   UNL A   1      44.554  28.823  28.477  1.00  0.00     0.074 A 
ATOM     51  C   UNL A   1      44.768  27.468  28.016  1.00  0.00     0.031 C 
ATOM     52  C   UNL A   1      38.165  29.033  29.301  1.00  0.00     0.029 A 
ATOM     53  C   UNL A   1      39.124  30.099  29.569  1.00  0.00     0.049 A 
ATOM     54  H   UNL A   1      41.185  30.053  29.258  1.00  0.00     0.167 HD
ATOM     55  C   UNL A   1      45.538  29.745  28.624  1.00  0.00     0.034 A 
ATOM     56  C   UNL A   1      38.826  31.313  30.073  1.00  0.00     0.034 A 
ATOM     57  C   UNL A   1      45.305  31.092  29.085  1.00  0.00     0.049 A 
ATOM     58  C   UNL A   1      39.944  32.309  30.268  1.00  0.00     0.074 A 
ATOM     59  C   UNL A   1      46.222  32.114  29.259  1.00  0.00     0.029 A 
ATOM     60  N   UNL A   1      44.065  31.605  29.445  1.00  0.00    -0.354 N 
ATOM     61  N   UNL A   1      41.229  32.168  30.034  1.00  0.00    -0.248 NA
ATOM     62  C   UNL A   1      39.569  33.633  30.776  1.00  0.00     0.031 C 
ATOM     63  C   UNL A   1      45.549  33.221  29.787  1.00  0.00     0.029 A 
ATOM     64  C   UNL A   1      44.198  32.921  29.860  1.00  0.00     0.049 A 
ATOM     65  H   UNL A   1      43.217  31.107  29.411  1.00  0.00     0.167 HD
ATOM     66  C   UNL A   1      41.806  33.401  30.328  1.00  0.00     0.074 A 
ATOM     67  C   UNL A   1      40.726  34.275  30.736  1.00  0.00     0.031 C 
ATOM     68  C   UNL A   1      43.108  33.780  30.264  1.00  0.00     0.034 A 
BRANCH  55  69
ATOM     69  C   UNL A   1      46.947  29.313  28.294  1.00  0.00     0.023 A 
ATOM     70  C   UNL A   1      47.324  28.982  26.979  1.00  0.00     0.031 A 
ATOM     71  C   UNL A   1      47.920  29.203  29.301  1.00  0.00     0.131 A 
ATOM     72  C   UNL A   1      48.610  28.483  26.721  1.00  0.00     0.055 A 
ATOM     73  C   UNL A   1      49.225  28.790  29.024  1.00  0.00     0.041 A 
ATOM     74  F   UNL A   1      47.616  29.482  30.579  1.00  0.00    -0.206 F 
ATOM     75  C   UNL A   1      49.572  28.413  27.730  1.00  0.00     0.022 A 
BRANCH  72  76
ATOM     76  S   UNL A   1      48.955  27.790  25.082  1.00  0.00     0.124 S 
ATOM     77  O   UNL A   1      47.781  28.224  24.326  1.00  0.00    -0.237 OA
ATOM     78  O   UNL A   1      50.216  28.430  24.726  1.00  0.00    -0.237 OA
ATOM     79  O   UNL A   1      49.031  26.351  25.327  1.00  0.00    -0.744 OA
ENDBRANCH  72  76
ENDBRANCH  55  69
BRANCH  56  80
ATOM     80  C   UNL A   1      37.423  31.661  30.442  1.00  0.00     0.023 A 
ATOM     81  C   UNL A   1      36.549  32.238  29.507  1.00  0.00     0.031 A 
ATOM     82  C   UNL A   1      36.954  31.486  31.756  1.00  0.00     0.131 A 
ATOM     83  C   UNL A   1      35.282  32.684  29.915  1.00  0.00     0.055 A 
ATOM     84  C   UNL A   1      35.668  31.868  32.141  1.00  0.00     0.041 A 
ATOM     85  F   UNL A   1      37.745  30.935  32.692  1.00  0.00    -0.206 F 
ATOM     86  C   UNL A   1      34.830  32.490  31.222  1.00  0.00     0.022 A 
BRANCH  83  87
ATOM     87  S   UNL A   1      34.279  33.637  28.740  1.00  0.00     0.124 S 
ATOM     88  O   UNL A   1      33.783  32.589  27.856  1.00  0.00    -0.237 OA
ATOM     89  O   UNL A   1      33.292  34.256  29.619  1.00  0.00    -0.237 OA
ATOM     90  O   UNL A   1      35.242  34.558  28.140  1.00  0.00    -0.744 OA
ENDBRANCH  83  87
ENDBRANCH  56  80
BRANCH  68  91
ATOM     91  C   UNL A   1      43.419  35.223  30.585  1.00  0.00     0.023 A 
ATOM     92  C   UNL A   1      43.530  35.684  31.908  1.00  0.00     0.031 A 
ATOM     93  C   UNL A   1      43.583  36.156  29.545  1.00  0.00     0.131 A 
ATOM     94  C   UNL A   1      43.724  37.051  32.158  1.00  0.00     0.055 A 
ATOM     95  C   UNL A   1      43.848  37.502  29.799  1.00  0.00     0.041 A 
ATOM     96  F   UNL A   1      43.485  35.773  28.262  1.00  0.00    -0.206 F 
ATOM     97  C   UNL A   1      43.902  37.959  31.111  1.00  0.00     0.022 A 
BRANCH  94  98
ATOM     98  S   UNL A   1      43.622  37.646  33.869  1.00  0.00     0.124 S 
ATOM     99  O   UNL A   1      45.027  37.692  34.258  1.00  0.00    -0.237 OA
ATOM    100  O   UNL A   1      42.962  38.937  33.710  1.00  0.00    -0.237 OA
ATOM    101  O   UNL A   1      42.826  36.621  34.540  1.00  0.00    -0.744 OA
ENDBRANCH  94  98
ENDBRANCH  68  91
ENDBRANCH  42  43
ENDBRANCH  34  37
ENDBRANCH  32  33
ENDBRANCH  31  32
ENDBRANCH  30  31
ENDBRANCH  29  30
ENDBRANCH   1  29
TORSDOF 24
ENDMDL
MODEL 3
REMARK VINA RESULT:      -9.7      4.682      9.608
REMARK SMILES CC(C)C[C@H](NC(=O)CNC(=O)[C@@H]([NH3+])C(C)C)C(=O)NCCCCCCNC(=O)c1ccc(-c2c3nc(c(-c4cc(S(=O)(=O)[O-])ccc4F)c4ccc([nH]4)c(-c4cc(S(=O)(=O)[O-])ccc4F)c4nc(c(-c5cc(S(=O)(=O)[O-])ccc5F)c5ccc2[nH]5)C=C4)C=C3)cc1
REMARK SMILES IDX 22 1 21 2 20 3 18 4 19 5 5 7 4 8 2 9 1 10 3 11 6 12 7 13
REMARK SMILES IDX 8 15 9 16 10 17 11 18 12 20 13 21 14 22 15 26 16 27 17 28
REMARK SMILES IDX 23 29 24 30 25 31 26 32 27 33 28 34 29 36 30 37 31 38 92 39
REMARK SMILES IDX 32 40 91 41 33 42 34 43 35 44 85 45 36 46 90 47 84 48 86 49
REMARK SMILES IDX 37 50 89 51 83 52 82 53 38 55 70 56 50 57 69 58 51 59 54 60
REMARK SMILES IDX 68 61 87 62 52 63 53 64 67 66 88 67 55 68 39 69 40 70 48 71
REMARK SMILES IDX 41 72 47 73 49 74 46 75 42 76 43 77 44 78 45 79 71 80 72 81
REMARK SMILES IDX 80 82 73 83 79 84 81 85 78 86 74 87 75 88 76 89 77 90 56 91
REMARK SMILES IDX 57 92 65 93 58 94 64 95 66 96 63 97 59 98 60 99 61 100
REMARK SMILES IDX 62 101
REMARK H PARENT 20 6 6 14 10 19 14 23 14 24 14 25 27 35 86 54 54 65
REMARK Flexibility Score: inf
ROOT
ATOM      1  C   UNL A   1      32.103  26.826  26.598  1.00  0.00     0.021 C 
ENDROOT
BRANCH   1   2
ATOM      2  C   UNL A   1      32.340  25.527  25.840  1.00  0.00     0.116 C 
BRANCH   2   3
ATOM      3  N   UNL A   1      31.160  25.162  25.084  1.00  0.00    -0.354 N 
ATOM      4  C   UNL A   1      31.048  24.706  23.810  1.00  0.00     0.242 C 
ATOM      5  O   UNL A   1      29.921  24.463  23.364  1.00  0.00    -0.273 OA
ATOM      6  H   UNL A   1      30.309  25.260  25.567  1.00  0.00     0.163 HD
BRANCH   4   7
ATOM      7  C   UNL A   1      32.296  24.443  22.955  1.00  0.00     0.171 C 
BRANCH   7   8
ATOM      8  C   UNL A   1      32.392  25.346  21.712  1.00  0.00     0.038 C 
BRANCH   8   9
ATOM      9  C   UNL A   1      32.995  26.756  21.964  1.00  0.00    -0.015 C 
ATOM     10  C   UNL A   1      31.962  27.817  22.345  1.00  0.00     0.007 C 
ATOM     11  C   UNL A   1      34.039  26.684  23.080  1.00  0.00     0.007 C 
ENDBRANCH   8   9
ENDBRANCH   7   8
BRANCH   7  12
ATOM     12  N   UNL A   1      32.419  23.006  22.674  1.00  0.00    -0.343 N 
ATOM     13  C   UNL A   1      32.862  21.967  23.429  1.00  0.00     0.240 C 
ATOM     14  H   UNL A   1      32.124  22.748  21.770  1.00  0.00     0.164 HD
ATOM     15  O   UNL A   1      32.524  20.837  23.055  1.00  0.00    -0.273 OA
BRANCH  13  16
ATOM     16  C   UNL A   1      33.638  22.140  24.737  1.00  0.00     0.216 C 
BRANCH  16  17
ATOM     17  N   UNL A   1      34.576  21.070  25.002  1.00  0.00    -0.342 N 
ATOM     18  C   UNL A   1      35.921  20.990  24.874  1.00  0.00     0.278 C 
ATOM     19  H   UNL A   1      34.157  20.245  25.338  1.00  0.00     0.164 HD
ATOM     20  O   UNL A   1      36.386  19.851  25.004  1.00  0.00    -0.268 OA
BRANCH  18  21
ATOM     21  C   UNL A   1      36.874  22.197  24.603  1.00  0.00     0.273 C 
BRANCH  21  22
ATOM     22  N   UNL A   1      36.657  22.859  23.298  1.00  0.00    -0.347 N 
ATOM     23  H   UNL A   1      37.529  22.860  22.768  1.00  0.00     0.345 HD
ATOM     24  H   UNL A   1      36.351  23.819  23.451  1.00  0.00     0.345 HD
ATOM     25  H   UNL A   1      35.942  22.353  22.775  1.00  0.00     0.345 HD
ENDBRANCH  21  22
BRANCH  21  26
ATOM     26  C   UNL A   1      36.834  23.170  25.803  1.00  0.00     0.051 C 
ATOM     27  C   UNL A   1      38.241  23.709  26.114  1.00  0.00     0.014 C 
ATOM     28  C   UNL A   1      35.922  24.374  25.538  1.00  0.00     0.014 C 
ENDBRANCH  21  26
ENDBRANCH  18  21
ENDBRANCH  16  17
ENDBRANCH  13  16
ENDBRANCH   7  12
ENDBRANCH   4   7
ENDBRANCH   2   3
ENDBRANCH   1   2
BRANCH   1  29
ATOM     29  C   UNL A   1      31.170  27.790  25.860  1.00  0.00     0.002 C 
BRANCH  29  30
ATOM     30  C   UNL A   1      31.693  29.229  25.773  1.00  0.00     0.002 C 
BRANCH  30  31
ATOM     31  C   UNL A   1      33.183  29.344  25.439  1.00  0.00     0.021 C 
BRANCH  31  32
ATOM     32  C   UNL A   1      34.066  29.619  26.646  1.00  0.00     0.116 C 
BRANCH  32  33
ATOM     33  N   UNL A   1      33.826  30.944  27.188  1.00  0.00    -0.352 N 
ATOM     34  C   UNL A   1      34.480  31.574  28.212  1.00  0.00     0.251 C 
ATOM     35  H   UNL A   1      33.099  31.455  26.764  1.00  0.00     0.163 HD
ATOM     36  O   UNL A   1      34.005  32.590  28.712  1.00  0.00    -0.269 OA
BRANCH  34  37
ATOM     37  C   UNL A   1      35.744  31.000  28.715  1.00  0.00     0.039 A 
ATOM     38  C   UNL A   1      35.692  29.911  29.584  1.00  0.00     0.014 A 
ATOM     39  C   UNL A   1      36.974  31.532  28.313  1.00  0.00     0.014 A 
ATOM     40  C   UNL A   1      36.882  29.332  30.026  1.00  0.00     0.010 A 
ATOM     41  C   UNL A   1      38.155  30.901  28.687  1.00  0.00     0.010 A 
ATOM     42  C   UNL A   1      38.121  29.806  29.564  1.00  0.00    -0.014 A 
BRANCH  42  43
ATOM     43  C   UNL A   1      39.391  29.195  30.027  1.00  0.00     0.031 A 
ATOM     44  C   UNL A   1      40.104  29.768  31.223  1.00  0.00     0.074 A 
ATOM     45  C   UNL A   1      39.913  28.148  29.358  1.00  0.00     0.049 A 
ATOM     46  N   UNL A   1      41.242  29.410  31.759  1.00  0.00    -0.248 NA
ATOM     47  C   UNL A   1      39.463  30.915  31.886  1.00  0.00     0.031 C 
ATOM     48  C   UNL A   1      39.329  27.532  28.164  1.00  0.00     0.029 A 
ATOM     49  N   UNL A   1      41.050  27.415  29.585  1.00  0.00    -0.354 N 
ATOM     50  C   UNL A   1      41.451  30.284  32.820  1.00  0.00     0.074 A 
ATOM     51  C   UNL A   1      40.366  31.240  32.798  1.00  0.00     0.031 C 
ATOM     52  C   UNL A   1      40.096  26.498  27.784  1.00  0.00     0.029 A 
ATOM     53  C   UNL A   1      41.249  26.404  28.672  1.00  0.00     0.049 A 
ATOM     54  H   UNL A   1      41.666  27.595  30.332  1.00  0.00     0.167 HD
ATOM     55  C   UNL A   1      42.437  30.269  33.752  1.00  0.00     0.034 A 
ATOM     56  C   UNL A   1      42.253  25.511  28.561  1.00  0.00     0.034 A 
ATOM     57  C   UNL A   1      43.512  29.307  33.759  1.00  0.00     0.049 A 
ATOM     58  C   UNL A   1      43.362  25.541  29.585  1.00  0.00     0.074 A 
ATOM     59  C   UNL A   1      44.557  29.188  34.658  1.00  0.00     0.029 A 
ATOM     60  N   UNL A   1      43.681  28.298  32.819  1.00  0.00    -0.354 N 
ATOM     61  N   UNL A   1      43.525  26.352  30.606  1.00  0.00    -0.248 NA
ATOM     62  C   UNL A   1      44.411  24.524  29.453  1.00  0.00     0.031 C 
ATOM     63  C   UNL A   1      45.392  28.152  34.226  1.00  0.00     0.029 A 
ATOM     64  C   UNL A   1      44.823  27.566  33.106  1.00  0.00     0.049 A 
ATOM     65  H   UNL A   1      43.078  28.127  32.060  1.00  0.00     0.167 HD
ATOM     66  C   UNL A   1      44.674  25.913  31.260  1.00  0.00     0.074 A 
ATOM     67  C   UNL A   1      45.148  24.756  30.528  1.00  0.00     0.031 C 
ATOM     68  C   UNL A   1      45.282  26.414  32.365  1.00  0.00     0.034 A 
BRANCH  55  69
ATOM     69  C   UNL A   1      42.395  31.333  34.823  1.00  0.00     0.023 A 
ATOM     70  C   UNL A   1      41.327  31.415  35.734  1.00  0.00     0.031 A 
ATOM     71  C   UNL A   1      43.415  32.295  34.921  1.00  0.00     0.131 A 
ATOM     72  C   UNL A   1      41.262  32.477  36.649  1.00  0.00     0.055 A 
ATOM     73  C   UNL A   1      43.390  33.298  35.893  1.00  0.00     0.041 A 
ATOM     74  F   UNL A   1      44.450  32.285  34.066  1.00  0.00    -0.206 F 
ATOM     75  C   UNL A   1      42.302  33.403  36.754  1.00  0.00     0.022 A 
BRANCH  72  76
ATOM     76  S   UNL A   1      39.733  32.713  37.593  1.00  0.00     0.124 S 
ATOM     77  O   UNL A   1      40.224  32.655  38.969  1.00  0.00    -0.237 OA
ATOM     78  O   UNL A   1      39.273  34.018  37.132  1.00  0.00    -0.237 OA
ATOM     79  O   UNL A   1      38.903  31.579  37.189  1.00  0.00    -0.744 OA
ENDBRANCH  72  76
ENDBRANCH  55  69
BRANCH  56  80
ATOM     80  C   UNL A   1      42.274  24.524  27.443  1.00  0.00     0.023 A 
ATOM     81  C   UNL A   1      41.638  23.278  27.563  1.00  0.00     0.031 A 
ATOM     82  C   UNL A   1      42.991  24.784  26.261  1.00  0.00     0.131 A 
ATOM     83  C   UNL A   1      41.791  22.314  26.554  1.00  0.00     0.055 A 
ATOM     84  C   UNL A   1      43.083  23.847  25.230  1.00  0.00     0.041 A 
ATOM     85  F   UNL A   1      43.616  25.961  26.089  1.00  0.00    -0.206 F 
ATOM     86  C   UNL A   1      42.496  22.595  25.382  1.00  0.00     0.022 A 
BRANCH  83  87
ATOM     87  S   UNL A   1      41.157  20.640  26.853  1.00  0.00     0.124 S 
ATOM     88  O   UNL A   1      40.047  20.572  25.911  1.00  0.00    -0.237 OA
ATOM     89  O   UNL A   1      42.320  19.817  26.537  1.00  0.00    -0.237 OA
ATOM     90  O   UNL A   1      40.780  20.666  28.265  1.00  0.00    -0.744 OA
ENDBRANCH  83  87
ENDBRANCH  56  80
BRANCH  68  91
ATOM     91  C   UNL A   1      46.491  25.669  32.881  1.00  0.00     0.023 A 
ATOM     92  C   UNL A   1      47.756  25.800  32.284  1.00  0.00     0.031 A 
ATOM     93  C   UNL A   1      46.365  24.795  33.976  1.00  0.00     0.131 A 
ATOM     94  C   UNL A   1      48.828  25.015  32.737  1.00  0.00     0.055 A 
ATOM     95  C   UNL A   1      47.451  24.072  34.469  1.00  0.00     0.041 A 
ATOM     96  F   UNL A   1      45.180  24.629  34.585  1.00  0.00    -0.206 F 
ATOM     97  C   UNL A   1      48.687  24.166  33.838  1.00  0.00     0.022 A 
BRANCH  94  98
ATOM     98  S   UNL A   1      50.377  25.030  31.794  1.00  0.00     0.124 S 
ATOM     99  O   UNL A   1      51.076  26.170  32.377  1.00  0.00    -0.237 OA
ATOM    100  O   UNL A   1      50.937  23.717  32.096  1.00  0.00    -0.237 OA
ATOM    101  O   UNL A   1      49.935  25.213  30.413  1.00  0.00    -0.744 OA
ENDBRANCH  94  98
ENDBRANCH  68  91
ENDBRANCH  42  43
ENDBRANCH  34  37
ENDBRANCH  32  33
ENDBRANCH  31  32
ENDBRANCH  30  31
ENDBRANCH  29  30
ENDBRANCH   1  29
TORSDOF 24
ENDMDL
