MODEL 1
REMARK VINA RESULT:     -10.9      0.000      0.000
REMARK SMILES CC1=C(C)C(=O)N(C[C@H](CC(C)C)C(=O)NCCCCCCNC(=O)c2ccc(-c3c4nc(c(-c5cc(S(=O)(=O)[O-])ccc5F)c5ccc([nH]5)c(-c5cc(S(=O)(=O)[O-])ccc5F)c5nc(c(-c6cc(S(=O)(=O)[O-])ccc6F)c6ccc3[nH]6)C=C5)C=C4)cc2)C1=O
REMARK SMILES IDX 20 1 19 2 18 3 17 4 16 5 14 6 15 7 9 9 8 10 7 11 1 12 2 13
REMARK SMILES IDX 3 14 89 15 4 16 5 17 90 18 6 19 10 20 11 21 12 22 13 23
REMARK SMILES IDX 21 24 22 25 23 26 24 27 25 29 26 30 27 31 88 32 28 33 87 34
REMARK SMILES IDX 29 35 30 36 31 37 81 38 32 39 86 40 80 41 82 42 33 43 85 44
REMARK SMILES IDX 79 45 78 46 34 48 66 49 46 50 65 51 47 52 50 53 64 54 83 55
REMARK SMILES IDX 48 56 49 57 63 59 84 60 51 61 35 62 36 63 44 64 37 65 43 66
REMARK SMILES IDX 45 67 42 68 38 69 39 70 40 71 41 72 67 73 68 74 76 75 69 76
REMARK SMILES IDX 75 77 77 78 74 79 70 80 71 81 72 82 73 83 52 84 53 85 61 86
REMARK SMILES IDX 54 87 60 88 62 89 59 90 55 91 56 92 57 93 58 94
REMARK H PARENT 16 8 23 28 82 47 50 58
REMARK Flexibility Score: inf
ROOT
ATOM      1  C   UNL A   1      31.618  28.171  25.991  1.00  0.00     0.002 C 
ENDROOT
BRANCH   1   2
ATOM      2  C   UNL A   1      31.022  28.452  24.610  1.00  0.00     0.002 C 
BRANCH   2   3
ATOM      3  C   UNL A   1      31.798  27.927  23.401  1.00  0.00     0.021 C 
BRANCH   3   4
ATOM      4  C   UNL A   1      31.030  27.030  22.438  1.00  0.00     0.116 C 
BRANCH   4   5
ATOM      5  N   UNL A   1      31.828  26.546  21.333  1.00  0.00    -0.356 N 
ATOM      6  C   UNL A   1      32.666  25.480  21.261  1.00  0.00     0.224 C 
ATOM      7  O   UNL A   1      33.161  25.230  20.156  1.00  0.00    -0.275 OA
ATOM      8  H   UNL A   1      31.753  27.072  20.505  1.00  0.00     0.163 HD
BRANCH   6   9
ATOM      9  C   UNL A   1      32.971  24.572  22.459  1.00  0.00     0.099 C 
BRANCH   9  10
ATOM     10  C   UNL A   1      34.232  25.006  23.238  1.00  0.00     0.142 C 
BRANCH  10  11
ATOM     11  N   UNL A   1      34.817  23.950  24.050  1.00  0.00    -0.274 N 
ATOM     12  C   UNL A   1      34.727  21.817  27.025  1.00  0.00     0.051 C 
ATOM     13  C   UNL A   1      35.112  22.475  25.757  1.00  0.00     0.023 C 
ATOM     14  C   UNL A   1      35.986  22.141  24.800  1.00  0.00     0.023 C 
ATOM     15  C   UNL A   1      34.477  23.727  25.343  1.00  0.00     0.256 C 
ATOM     16  C   UNL A   1      36.965  21.034  24.766  1.00  0.00     0.051 C 
ATOM     17  C   UNL A   1      35.806  23.096  23.685  1.00  0.00     0.256 C 
ATOM     18  O   UNL A   1      33.815  24.428  26.085  1.00  0.00    -0.269 OA
ATOM     19  O   UNL A   1      36.456  23.086  22.653  1.00  0.00    -0.269 OA
ENDBRANCH  10  11
ENDBRANCH   9  10
BRANCH   9  20
ATOM     20  C   UNL A   1      32.802  23.063  22.114  1.00  0.00     0.018 C 
BRANCH  20  21
ATOM     21  C   UNL A   1      31.827  22.215  22.965  1.00  0.00    -0.017 C 
ATOM     22  C   UNL A   1      32.547  21.044  23.635  1.00  0.00     0.007 C 
ATOM     23  C   UNL A   1      31.152  23.073  24.045  1.00  0.00     0.007 C 
ENDBRANCH  20  21
ENDBRANCH   9  20
ENDBRANCH   6   9
ENDBRANCH   4   5
ENDBRANCH   3   4
ENDBRANCH   2   3
ENDBRANCH   1   2
BRANCH   1  24
ATOM     24  C   UNL A   1      33.096  27.776  26.040  1.00  0.00     0.021 C 
BRANCH  24  25
ATOM     25  C   UNL A   1      34.104  28.895  25.799  1.00  0.00     0.116 C 
BRANCH  25  26
ATOM     26  N   UNL A   1      33.770  30.122  26.496  1.00  0.00    -0.352 N 
ATOM     27  C   UNL A   1      34.423  30.760  27.520  1.00  0.00     0.251 C 
ATOM     28  H   UNL A   1      32.947  30.566  26.186  1.00  0.00     0.163 HD
ATOM     29  O   UNL A   1      33.894  31.739  28.041  1.00  0.00    -0.269 OA
BRANCH  27  30
ATOM     30  C   UNL A   1      35.729  30.268  28.024  1.00  0.00     0.039 A 
ATOM     31  C   UNL A   1      35.758  29.641  29.273  1.00  0.00     0.014 A 
ATOM     32  C   UNL A   1      36.920  30.451  27.315  1.00  0.00     0.014 A 
ATOM     33  C   UNL A   1      36.965  29.165  29.792  1.00  0.00     0.010 A 
ATOM     34  C   UNL A   1      38.116  29.917  27.803  1.00  0.00     0.010 A 
ATOM     35  C   UNL A   1      38.152  29.279  29.052  1.00  0.00    -0.014 A 
BRANCH  35  36
ATOM     36  C   UNL A   1      39.431  28.744  29.592  1.00  0.00     0.031 A 
ATOM     37  C   UNL A   1      40.036  29.330  30.839  1.00  0.00     0.074 A 
ATOM     38  C   UNL A   1      40.055  27.740  28.945  1.00  0.00     0.049 A 
ATOM     39  N   UNL A   1      41.131  28.985  31.469  1.00  0.00    -0.248 NA
ATOM     40  C   UNL A   1      39.332  30.470  31.442  1.00  0.00     0.031 C 
ATOM     41  C   UNL A   1      39.593  27.126  27.698  1.00  0.00     0.029 A 
ATOM     42  N   UNL A   1      41.205  27.056  29.244  1.00  0.00    -0.354 N 
ATOM     43  C   UNL A   1      41.251  29.869  32.538  1.00  0.00     0.074 A 
ATOM     44  C   UNL A   1      40.150  30.803  32.429  1.00  0.00     0.031 C 
ATOM     45  C   UNL A   1      40.434  26.138  27.357  1.00  0.00     0.029 A 
ATOM     46  C   UNL A   1      41.509  26.064  28.341  1.00  0.00     0.049 A 
ATOM     47  H   UNL A   1      41.762  27.258  30.030  1.00  0.00     0.167 HD
ATOM     48  C   UNL A   1      42.178  29.885  33.529  1.00  0.00     0.034 A 
ATOM     49  C   UNL A   1      42.535  25.191  28.312  1.00  0.00     0.034 A 
ATOM     50  C   UNL A   1      43.265  28.939  33.627  1.00  0.00     0.049 A 
ATOM     51  C   UNL A   1      43.543  25.216  29.431  1.00  0.00     0.074 A 
ATOM     52  C   UNL A   1      44.232  28.832  34.612  1.00  0.00     0.029 A 
ATOM     53  N   UNL A   1      43.535  27.939  32.701  1.00  0.00    -0.354 N 
ATOM     54  N   UNL A   1      43.608  26.021  30.467  1.00  0.00    -0.248 NA
ATOM     55  C   UNL A   1      44.603  24.202  29.387  1.00  0.00     0.031 C 
ATOM     56  C   UNL A   1      45.117  27.808  34.252  1.00  0.00     0.029 A 
ATOM     57  C   UNL A   1      44.664  27.227  33.079  1.00  0.00     0.049 A 
ATOM     58  H   UNL A   1      43.001  27.760  31.894  1.00  0.00     0.167 HD
ATOM     59  C   UNL A   1      44.704  25.591  31.211  1.00  0.00     0.074 A 
ATOM     60  C   UNL A   1      45.251  24.444  30.516  1.00  0.00     0.031 C 
ATOM     61  C   UNL A   1      45.211  26.097  32.366  1.00  0.00     0.034 A 
BRANCH  48  62
ATOM     62  C   UNL A   1      42.061  30.977  34.568  1.00  0.00     0.023 A 
ATOM     63  C   UNL A   1      42.746  32.198  34.437  1.00  0.00     0.031 A 
ATOM     64  C   UNL A   1      41.284  30.782  35.724  1.00  0.00     0.131 A 
ATOM     65  C   UNL A   1      42.705  33.141  35.474  1.00  0.00     0.055 A 
ATOM     66  C   UNL A   1      41.182  31.760  36.716  1.00  0.00     0.041 A 
ATOM     67  F   UNL A   1      40.623  29.630  35.918  1.00  0.00    -0.206 F 
ATOM     68  C   UNL A   1      41.908  32.941  36.603  1.00  0.00     0.022 A 
BRANCH  65  69
ATOM     69  S   UNL A   1      43.825  34.567  35.395  1.00  0.00     0.124 S 
ATOM     70  O   UNL A   1      45.127  33.928  35.572  1.00  0.00    -0.237 OA
ATOM     71  O   UNL A   1      43.552  35.108  34.069  1.00  0.00    -0.237 OA
ATOM     72  O   UNL A   1      43.393  35.404  36.512  1.00  0.00    -0.744 OA
ENDBRANCH  65  69
ENDBRANCH  48  62
BRANCH  49  73
ATOM     73  C   UNL A   1      42.657  24.209  27.198  1.00  0.00     0.023 A 
ATOM     74  C   UNL A   1      42.035  22.952  27.267  1.00  0.00     0.031 A 
ATOM     75  C   UNL A   1      43.430  24.501  26.061  1.00  0.00     0.131 A 
ATOM     76  C   UNL A   1      42.232  22.016  26.240  1.00  0.00     0.055 A 
ATOM     77  C   UNL A   1      43.585  23.585  25.019  1.00  0.00     0.041 A 
ATOM     78  F   UNL A   1      44.040  25.692  25.942  1.00  0.00    -0.206 F 
ATOM     79  C   UNL A   1      42.994  22.328  25.112  1.00  0.00     0.022 A 
BRANCH  76  80
ATOM     80  S   UNL A   1      41.539  20.352  26.436  1.00  0.00     0.124 S 
ATOM     81  O   UNL A   1      40.115  20.596  26.238  1.00  0.00    -0.237 OA
ATOM     82  O   UNL A   1      42.217  19.616  25.374  1.00  0.00    -0.237 OA
ATOM     83  O   UNL A   1      41.925  19.980  27.795  1.00  0.00    -0.744 OA
ENDBRANCH  76  80
ENDBRANCH  49  73
BRANCH  61  84
ATOM     84  C   UNL A   1      46.401  25.379  32.954  1.00  0.00     0.023 A 
ATOM     85  C   UNL A   1      46.247  24.325  33.872  1.00  0.00     0.031 A 
ATOM     86  C   UNL A   1      47.706  25.781  32.621  1.00  0.00     0.131 A 
ATOM     87  C   UNL A   1      47.377  23.758  34.480  1.00  0.00     0.055 A 
ATOM     88  C   UNL A   1      48.828  25.171  33.183  1.00  0.00     0.041 A 
ATOM     89  F   UNL A   1      47.913  26.783  31.751  1.00  0.00    -0.206 F 
ATOM     90  C   UNL A   1      48.667  24.164  34.131  1.00  0.00     0.022 A 
BRANCH  87  91
ATOM     91  S   UNL A   1      47.133  22.560  35.822  1.00  0.00     0.124 S 
ATOM     92  O   UNL A   1      45.807  22.920  36.313  1.00  0.00    -0.237 OA
ATOM     93  O   UNL A   1      47.227  21.284  35.120  1.00  0.00    -0.237 OA
ATOM     94  O   UNL A   1      48.233  22.846  36.740  1.00  0.00    -0.744 OA
ENDBRANCH  87  91
ENDBRANCH  61  84
ENDBRANCH  35  36
ENDBRANCH  27  30
ENDBRANCH  25  26
ENDBRANCH  24  25
ENDBRANCH   1  24
TORSDOF 20
ENDMDL
MODEL 2
REMARK VINA RESULT:     -10.7      1.918      2.545
REMARK SMILES CC1=C(C)C(=O)N(C[C@H](CC(C)C)C(=O)NCCCCCCNC(=O)c2ccc(-c3c4nc(c(-c5cc(S(=O)(=O)[O-])ccc5F)c5ccc([nH]5)c(-c5cc(S(=O)(=O)[O-])ccc5F)c5nc(c(-c6cc(S(=O)(=O)[O-])ccc6F)c6ccc3[nH]6)C=C5)C=C4)cc2)C1=O
REMARK SMILES IDX 20 1 19 2 18 3 17 4 16 5 14 6 15 7 9 9 8 10 7 11 1 12 2 13
REMARK SMILES IDX 3 14 89 15 4 16 5 17 90 18 6 19 10 20 11 21 12 22 13 23
REMARK SMILES IDX 21 24 22 25 23 26 24 27 25 29 26 30 27 31 88 32 28 33 87 34
REMARK SMILES IDX 29 35 30 36 31 37 81 38 32 39 86 40 80 41 82 42 33 43 85 44
REMARK SMILES IDX 79 45 78 46 34 48 66 49 46 50 65 51 47 52 50 53 64 54 83 55
REMARK SMILES IDX 48 56 49 57 63 59 84 60 51 61 35 62 36 63 44 64 37 65 43 66
REMARK SMILES IDX 45 67 42 68 38 69 39 70 40 71 41 72 67 73 68 74 76 75 69 76
REMARK SMILES IDX 75 77 77 78 74 79 70 80 71 81 72 82 73 83 52 84 53 85 61 86
REMARK SMILES IDX 54 87 60 88 62 89 59 90 55 91 56 92 57 93 58 94
REMARK H PARENT 16 8 23 28 82 47 50 58
REMARK Flexibility Score: inf
ROOT
ATOM      1  C   UNL A   1      31.552  28.044  25.864  1.00  0.00     0.002 C 
ENDROOT
BRANCH   1   2
ATOM      2  C   UNL A   1      30.897  28.333  24.512  1.00  0.00     0.002 C 
BRANCH   2   3
ATOM      3  C   UNL A   1      31.669  27.903  23.262  1.00  0.00     0.021 C 
BRANCH   3   4
ATOM      4  C   UNL A   1      30.987  26.880  22.362  1.00  0.00     0.116 C 
BRANCH   4   5
ATOM      5  N   UNL A   1      31.822  26.413  21.277  1.00  0.00    -0.356 N 
ATOM      6  C   UNL A   1      32.696  25.375  21.230  1.00  0.00     0.224 C 
ATOM      7  O   UNL A   1      33.221  25.133  20.137  1.00  0.00    -0.275 OA
ATOM      8  H   UNL A   1      31.746  26.930  20.442  1.00  0.00     0.163 HD
BRANCH   6   9
ATOM      9  C   UNL A   1      33.008  24.488  22.442  1.00  0.00     0.099 C 
BRANCH   9  10
ATOM     10  C   UNL A   1      34.265  24.943  23.215  1.00  0.00     0.142 C 
BRANCH  10  11
ATOM     11  N   UNL A   1      34.854  23.906  24.048  1.00  0.00    -0.274 N 
ATOM     12  C   UNL A   1      34.743  21.793  27.036  1.00  0.00     0.051 C 
ATOM     13  C   UNL A   1      35.143  22.450  25.772  1.00  0.00     0.023 C 
ATOM     14  C   UNL A   1      36.045  22.129  24.838  1.00  0.00     0.023 C 
ATOM     15  C   UNL A   1      34.490  23.686  25.335  1.00  0.00     0.256 C 
ATOM     16  C   UNL A   1      37.048  21.043  24.835  1.00  0.00     0.051 C 
ATOM     17  C   UNL A   1      35.869  23.072  23.712  1.00  0.00     0.256 C 
ATOM     18  O   UNL A   1      33.797  24.377  26.056  1.00  0.00    -0.269 OA
ATOM     19  O   UNL A   1      36.543  23.069  22.695  1.00  0.00    -0.269 OA
ENDBRANCH  10  11
ENDBRANCH   9  10
BRANCH   9  20
ATOM     20  C   UNL A   1      32.851  22.973  22.120  1.00  0.00     0.018 C 
BRANCH  20  21
ATOM     21  C   UNL A   1      31.866  22.135  22.968  1.00  0.00    -0.017 C 
ATOM     22  C   UNL A   1      32.580  20.981  23.673  1.00  0.00     0.007 C 
ATOM     23  C   UNL A   1      31.167  23.008  24.020  1.00  0.00     0.007 C 
ENDBRANCH  20  21
ENDBRANCH   9  20
ENDBRANCH   6   9
ENDBRANCH   4   5
ENDBRANCH   3   4
ENDBRANCH   2   3
ENDBRANCH   1   2
BRANCH   1  24
ATOM     24  C   UNL A   1      33.070  27.850  25.871  1.00  0.00     0.021 C 
BRANCH  24  25
ATOM     25  C   UNL A   1      33.912  29.086  25.569  1.00  0.00     0.116 C 
BRANCH  25  26
ATOM     26  N   UNL A   1      33.302  30.317  26.032  1.00  0.00    -0.352 N 
ATOM     27  C   UNL A   1      33.656  31.140  27.072  1.00  0.00     0.251 C 
ATOM     28  H   UNL A   1      32.512  30.609  25.520  1.00  0.00     0.163 HD
ATOM     29  O   UNL A   1      32.922  32.082  27.359  1.00  0.00    -0.269 OA
BRANCH  27  30
ATOM     30  C   UNL A   1      34.882  30.888  27.868  1.00  0.00     0.039 A 
ATOM     31  C   UNL A   1      34.983  29.674  28.554  1.00  0.00     0.014 A 
ATOM     32  C   UNL A   1      35.905  31.835  27.986  1.00  0.00     0.014 A 
ATOM     33  C   UNL A   1      36.117  29.393  29.321  1.00  0.00     0.010 A 
ATOM     34  C   UNL A   1      37.066  31.528  28.698  1.00  0.00     0.010 A 
ATOM     35  C   UNL A   1      37.180  30.309  29.383  1.00  0.00    -0.014 A 
BRANCH  35  36
ATOM     36  C   UNL A   1      38.399  29.995  30.175  1.00  0.00     0.031 A 
ATOM     37  C   UNL A   1      38.590  30.582  31.546  1.00  0.00     0.074 A 
ATOM     38  C   UNL A   1      39.344  29.192  29.646  1.00  0.00     0.049 A 
ATOM     39  N   UNL A   1      39.575  30.411  32.392  1.00  0.00    -0.248 NA
ATOM     40  C   UNL A   1      37.549  31.506  32.019  1.00  0.00     0.031 C 
ATOM     41  C   UNL A   1      39.296  28.605  28.305  1.00  0.00     0.029 A 
ATOM     42  N   UNL A   1      40.524  28.727  30.168  1.00  0.00    -0.354 N 
ATOM     43  C   UNL A   1      39.277  31.208  33.493  1.00  0.00     0.074 A 
ATOM     44  C   UNL A   1      38.052  31.911  33.176  1.00  0.00     0.031 C 
ATOM     45  C   UNL A   1      40.379  27.834  28.123  1.00  0.00     0.029 A 
ATOM     46  C   UNL A   1      41.214  27.894  29.319  1.00  0.00     0.049 A 
ATOM     47  H   UNL A   1      40.846  28.969  31.066  1.00  0.00     0.167 HD
ATOM     48  C   UNL A   1      39.949  31.325  34.666  1.00  0.00     0.034 A 
ATOM     49  C   UNL A   1      42.384  27.247  29.487  1.00  0.00     0.034 A 
ATOM     50  C   UNL A   1      41.166  30.609  34.968  1.00  0.00     0.049 A 
ATOM     51  C   UNL A   1      43.105  27.378  30.803  1.00  0.00     0.074 A 
ATOM     52  C   UNL A   1      41.904  30.613  36.140  1.00  0.00     0.029 A 
ATOM     53  N   UNL A   1      41.831  29.763  34.089  1.00  0.00    -0.354 N 
ATOM     54  N   UNL A   1      42.778  28.091  31.857  1.00  0.00    -0.248 NA
ATOM     55  C   UNL A   1      44.341  26.602  30.959  1.00  0.00     0.031 C 
ATOM     56  C   UNL A   1      43.041  29.819  35.949  1.00  0.00     0.029 A 
ATOM     57  C   UNL A   1      42.980  29.260  34.683  1.00  0.00     0.049 A 
ATOM     58  H   UNL A   1      41.529  29.549  33.177  1.00  0.00     0.167 HD
ATOM     59  C   UNL A   1      43.758  27.826  32.810  1.00  0.00     0.074 A 
ATOM     60  C   UNL A   1      44.670  26.873  32.213  1.00  0.00     0.031 C 
ATOM     61  C   UNL A   1      43.891  28.325  34.067  1.00  0.00     0.034 A 
BRANCH  48  62
ATOM     62  C   UNL A   1      39.388  32.281  35.694  1.00  0.00     0.023 A 
ATOM     63  C   UNL A   1      39.795  33.626  35.751  1.00  0.00     0.031 A 
ATOM     64  C   UNL A   1      38.460  31.836  36.652  1.00  0.00     0.131 A 
ATOM     65  C   UNL A   1      39.339  34.454  36.788  1.00  0.00     0.055 A 
ATOM     66  C   UNL A   1      37.947  32.688  37.632  1.00  0.00     0.041 A 
ATOM     67  F   UNL A   1      38.048  30.559  36.662  1.00  0.00    -0.206 F 
ATOM     68  C   UNL A   1      38.398  34.001  37.715  1.00  0.00     0.022 A 
BRANCH  65  69
ATOM     69  S   UNL A   1      40.106  36.085  36.996  1.00  0.00     0.124 S 
ATOM     70  O   UNL A   1      41.504  35.727  37.221  1.00  0.00    -0.237 OA
ATOM     71  O   UNL A   1      39.808  36.738  35.726  1.00  0.00    -0.237 OA
ATOM     72  O   UNL A   1      39.418  36.642  38.159  1.00  0.00    -0.744 OA
ENDBRANCH  65  69
ENDBRANCH  48  62
BRANCH  49  73
ATOM     73  C   UNL A   1      42.943  26.405  28.392  1.00  0.00     0.023 A 
ATOM     74  C   UNL A   1      42.532  25.074  28.218  1.00  0.00     0.031 A 
ATOM     75  C   UNL A   1      43.927  26.911  27.524  1.00  0.00     0.131 A 
ATOM     76  C   UNL A   1      43.133  24.280  27.230  1.00  0.00     0.055 A 
ATOM     77  C   UNL A   1      44.488  26.131  26.512  1.00  0.00     0.041 A 
ATOM     78  F   UNL A   1      44.350  28.180  27.643  1.00  0.00    -0.206 F 
ATOM     79  C   UNL A   1      44.100  24.802  26.368  1.00  0.00     0.022 A 
BRANCH  76  80
ATOM     80  S   UNL A   1      42.685  22.525  27.134  1.00  0.00     0.124 S 
ATOM     81  O   UNL A   1      41.336  22.590  26.586  1.00  0.00    -0.237 OA
ATOM     82  O   UNL A   1      43.715  21.999  26.245  1.00  0.00    -0.237 OA
ATOM     83  O   UNL A   1      42.774  22.075  28.522  1.00  0.00    -0.744 OA
ENDBRANCH  76  80
ENDBRANCH  49  73
BRANCH  61  84
ATOM     84  C   UNL A   1      45.056  27.810  34.879  1.00  0.00     0.023 A 
ATOM     85  C   UNL A   1      44.924  26.706  35.740  1.00  0.00     0.031 A 
ATOM     86  C   UNL A   1      46.301  28.458  34.820  1.00  0.00     0.131 A 
ATOM     87  C   UNL A   1      45.998  26.329  36.560  1.00  0.00     0.055 A 
ATOM     88  C   UNL A   1      47.385  28.038  35.592  1.00  0.00     0.041 A 
ATOM     89  F   UNL A   1      46.484  29.518  34.016  1.00  0.00    -0.206 F 
ATOM     90  C   UNL A   1      47.231  26.978  36.481  1.00  0.00     0.022 A 
BRANCH  87  91
ATOM     91  S   UNL A   1      45.723  25.049  37.817  1.00  0.00     0.124 S 
ATOM     92  O   UNL A   1      46.446  23.912  37.257  1.00  0.00    -0.237 OA
ATOM     93  O   UNL A   1      46.310  25.653  39.009  1.00  0.00    -0.237 OA
ATOM     94  O   UNL A   1      44.269  24.905  37.848  1.00  0.00    -0.744 OA
ENDBRANCH  87  91
ENDBRANCH  61  84
ENDBRANCH  35  36
ENDBRANCH  27  30
ENDBRANCH  25  26
ENDBRANCH  24  25
ENDBRANCH   1  24
TORSDOF 20
ENDMDL
MODEL 3
REMARK VINA RESULT:     -10.7      3.597      8.514
REMARK SMILES CC1=C(C)C(=O)N(C[C@H](CC(C)C)C(=O)NCCCCCCNC(=O)c2ccc(-c3c4nc(c(-c5cc(S(=O)(=O)[O-])ccc5F)c5ccc([nH]5)c(-c5cc(S(=O)(=O)[O-])ccc5F)c5nc(c(-c6cc(S(=O)(=O)[O-])ccc6F)c6ccc3[nH]6)C=C5)C=C4)cc2)C1=O
REMARK SMILES IDX 20 1 19 2 18 3 17 4 16 5 14 6 15 7 9 9 8 10 7 11 1 12 2 13
REMARK SMILES IDX 3 14 89 15 4 16 5 17 90 18 6 19 10 20 11 21 12 22 13 23
REMARK SMILES IDX 21 24 22 25 23 26 24 27 25 29 26 30 27 31 88 32 28 33 87 34
REMARK SMILES IDX 29 35 30 36 31 37 81 38 32 39 86 40 80 41 82 42 33 43 85 44
REMARK SMILES IDX 79 45 78 46 34 48 66 49 46 50 65 51 47 52 50 53 64 54 83 55
REMARK SMILES IDX 48 56 49 57 63 59 84 60 51 61 35 62 36 63 44 64 37 65 43 66
REMARK SMILES IDX 45 67 42 68 38 69 39 70 40 71 41 72 67 73 68 74 76 75 69 76
REMARK SMILES IDX 75 77 77 78 74 79 70 80 71 81 72 82 73 83 52 84 53 85 61 86
REMARK SMILES IDX 54 87 60 88 62 89 59 90 55 91 56 92 57 93 58 94
REMARK H PARENT 16 8 23 28 82 47 50 58
REMARK Flexibility Score: inf
ROOT
ATOM      1  C   UNL A   1      31.484  30.801  25.972  1.00  0.00     0.002 C 
ENDROOT
BRANCH   1   2
ATOM      2  C   UNL A   1      31.794  29.569  26.824  1.00  0.00     0.002 C 
BRANCH   2   3
ATOM      3  C   UNL A   1      33.244  29.390  27.282  1.00  0.00     0.021 C 
BRANCH   3   4
ATOM      4  C   UNL A   1      34.088  28.397  26.493  1.00  0.00     0.116 C 
BRANCH   4   5
ATOM      5  N   UNL A   1      34.277  28.767  25.107  1.00  0.00    -0.356 N 
ATOM      6  C   UNL A   1      33.901  28.125  23.971  1.00  0.00     0.224 C 
ATOM      7  O   UNL A   1      34.107  28.710  22.902  1.00  0.00    -0.275 OA
ATOM      8  H   UNL A   1      34.755  29.616  24.966  1.00  0.00     0.163 HD
BRANCH   6   9
ATOM      9  C   UNL A   1      33.204  26.758  23.974  1.00  0.00     0.099 C 
BRANCH   9  10
ATOM     10  C   UNL A   1      34.127  25.610  23.509  1.00  0.00     0.142 C 
BRANCH  10  11
ATOM     11  N   UNL A   1      33.503  24.297  23.553  1.00  0.00    -0.274 N 
ATOM     12  C   UNL A   1      31.740  21.685  25.417  1.00  0.00     0.051 C 
ATOM     13  C   UNL A   1      32.427  22.463  24.364  1.00  0.00     0.023 C 
ATOM     14  C   UNL A   1      32.475  22.329  23.033  1.00  0.00     0.023 C 
ATOM     15  C   UNL A   1      33.225  23.642  24.707  1.00  0.00     0.256 C 
ATOM     16  C   UNL A   1      31.938  21.250  22.178  1.00  0.00     0.051 C 
ATOM     17  C   UNL A   1      33.176  23.514  22.495  1.00  0.00     0.256 C 
ATOM     18  O   UNL A   1      33.587  23.908  25.837  1.00  0.00    -0.269 OA
ATOM     19  O   UNL A   1      33.406  23.706  21.312  1.00  0.00    -0.269 OA
ENDBRANCH  10  11
ENDBRANCH   9  10
BRANCH   9  20
ATOM     20  C   UNL A   1      31.765  26.830  23.385  1.00  0.00     0.018 C 
BRANCH  20  21
ATOM     21  C   UNL A   1      30.564  26.722  24.354  1.00  0.00    -0.017 C 
ATOM     22  C   UNL A   1      29.535  25.706  23.855  1.00  0.00     0.007 C 
ATOM     23  C   UNL A   1      31.027  26.317  25.760  1.00  0.00     0.007 C 
ENDBRANCH  20  21
ENDBRANCH   9  20
ENDBRANCH   6   9
ENDBRANCH   4   5
ENDBRANCH   3   4
ENDBRANCH   2   3
ENDBRANCH   1   2
BRANCH   1  24
ATOM     24  C   UNL A   1      31.373  32.141  26.705  1.00  0.00     0.021 C 
BRANCH  24  25
ATOM     25  C   UNL A   1      32.679  32.749  27.205  1.00  0.00     0.116 C 
BRANCH  25  26
ATOM     26  N   UNL A   1      32.526  34.106  27.694  1.00  0.00    -0.352 N 
ATOM     27  C   UNL A   1      33.204  34.768  28.685  1.00  0.00     0.251 C 
ATOM     28  H   UNL A   1      31.825  34.634  27.244  1.00  0.00     0.163 HD
ATOM     29  O   UNL A   1      32.828  35.890  29.014  1.00  0.00    -0.269 OA
BRANCH  27  30
ATOM     30  C   UNL A   1      34.354  34.139  29.381  1.00  0.00     0.039 A 
ATOM     31  C   UNL A   1      34.085  33.272  30.444  1.00  0.00     0.014 A 
ATOM     32  C   UNL A   1      35.681  34.421  29.038  1.00  0.00     0.014 A 
ATOM     33  C   UNL A   1      35.135  32.660  31.133  1.00  0.00     0.010 A 
ATOM     34  C   UNL A   1      36.727  33.759  29.683  1.00  0.00     0.010 A 
ATOM     35  C   UNL A   1      36.466  32.880  30.746  1.00  0.00    -0.014 A 
BRANCH  35  36
ATOM     36  C   UNL A   1      37.581  32.203  31.461  1.00  0.00     0.031 A 
ATOM     37  C   UNL A   1      38.349  31.093  30.798  1.00  0.00     0.074 A 
ATOM     38  C   UNL A   1      37.887  32.580  32.718  1.00  0.00     0.049 A 
ATOM     39  N   UNL A   1      39.361  30.398  31.254  1.00  0.00    -0.248 NA
ATOM     40  C   UNL A   1      37.905  30.693  29.455  1.00  0.00     0.031 C 
ATOM     41  C   UNL A   1      37.179  33.608  33.485  1.00  0.00     0.029 A 
ATOM     42  N   UNL A   1      38.870  32.149  33.571  1.00  0.00    -0.354 N 
ATOM     43  C   UNL A   1      39.670  29.475  30.259  1.00  0.00     0.074 A 
ATOM     44  C   UNL A   1      38.696  29.660  29.204  1.00  0.00     0.031 C 
ATOM     45  C   UNL A   1      37.771  33.749  34.681  1.00  0.00     0.029 A 
ATOM     46  C   UNL A   1      38.880  32.805  34.780  1.00  0.00     0.049 A 
ATOM     47  H   UNL A   1      39.509  31.436  33.340  1.00  0.00     0.167 HD
ATOM     48  C   UNL A   1      40.685  28.575  30.218  1.00  0.00     0.034 A 
ATOM     49  C   UNL A   1      39.693  32.665  35.845  1.00  0.00     0.034 A 
ATOM     50  C   UNL A   1      41.654  28.411  31.276  1.00  0.00     0.049 A 
ATOM     51  C   UNL A   1      40.823  31.671  35.773  1.00  0.00     0.074 A 
ATOM     52  C   UNL A   1      42.751  27.566  31.321  1.00  0.00     0.029 A 
ATOM     53  N   UNL A   1      41.641  29.101  32.482  1.00  0.00    -0.354 N 
ATOM     54  N   UNL A   1      41.137  30.847  34.799  1.00  0.00    -0.248 NA
ATOM     55  C   UNL A   1      41.719  31.604  36.934  1.00  0.00     0.031 C 
ATOM     56  C   UNL A   1      43.363  27.703  32.573  1.00  0.00     0.029 A 
ATOM     57  C   UNL A   1      42.694  28.685  33.285  1.00  0.00     0.049 A 
ATOM     58  H   UNL A   1      40.981  29.788  32.730  1.00  0.00     0.167 HD
ATOM     59  C   UNL A   1      42.284  30.182  35.223  1.00  0.00     0.074 A 
ATOM     60  C   UNL A   1      42.616  30.719  36.527  1.00  0.00     0.031 C 
ATOM     61  C   UNL A   1      43.001  29.216  34.592  1.00  0.00     0.034 A 
BRANCH  48  62
ATOM     62  C   UNL A   1      40.776  27.688  28.997  1.00  0.00     0.023 A 
ATOM     63  C   UNL A   1      41.711  27.932  27.975  1.00  0.00     0.031 A 
ATOM     64  C   UNL A   1      39.895  26.605  28.834  1.00  0.00     0.131 A 
ATOM     65  C   UNL A   1      41.691  27.158  26.806  1.00  0.00     0.055 A 
ATOM     66  C   UNL A   1      39.934  25.787  27.703  1.00  0.00     0.041 A 
ATOM     67  F   UNL A   1      38.967  26.333  29.765  1.00  0.00    -0.206 F 
ATOM     68  C   UNL A   1      40.824  26.071  26.673  1.00  0.00     0.022 A 
BRANCH  65  69
ATOM     69  S   UNL A   1      42.710  27.684  25.399  1.00  0.00     0.124 S 
ATOM     70  O   UNL A   1      41.869  28.716  24.796  1.00  0.00    -0.237 OA
ATOM     71  O   UNL A   1      43.928  28.151  26.050  1.00  0.00    -0.237 OA
ATOM     72  O   UNL A   1      42.853  26.466  24.605  1.00  0.00    -0.744 OA
ENDBRANCH  65  69
ENDBRANCH  48  62
BRANCH  49  73
ATOM     73  C   UNL A   1      39.483  33.492  37.067  1.00  0.00     0.023 A 
ATOM     74  C   UNL A   1      38.878  32.952  38.213  1.00  0.00     0.031 A 
ATOM     75  C   UNL A   1      39.852  34.849  37.092  1.00  0.00     0.131 A 
ATOM     76  C   UNL A   1      38.619  33.774  39.321  1.00  0.00     0.055 A 
ATOM     77  C   UNL A   1      39.635  35.650  38.214  1.00  0.00     0.041 A 
ATOM     78  F   UNL A   1      40.441  35.412  36.025  1.00  0.00    -0.206 F 
ATOM     79  C   UNL A   1      39.003  35.116  39.334  1.00  0.00     0.022 A 
BRANCH  76  80
ATOM     80  S   UNL A   1      37.701  33.079  40.722  1.00  0.00     0.124 S 
ATOM     81  O   UNL A   1      37.952  34.068  41.764  1.00  0.00    -0.237 OA
ATOM     82  O   UNL A   1      36.340  33.032  40.197  1.00  0.00    -0.237 OA
ATOM     83  O   UNL A   1      38.331  31.778  40.931  1.00  0.00    -0.744 OA
ENDBRANCH  76  80
ENDBRANCH  49  73
BRANCH  61  84
ATOM     84  C   UNL A   1      44.232  28.711  35.305  1.00  0.00     0.023 A 
ATOM     85  C   UNL A   1      44.172  27.639  36.213  1.00  0.00     0.031 A 
ATOM     86  C   UNL A   1      45.473  29.339  35.104  1.00  0.00     0.131 A 
ATOM     87  C   UNL A   1      45.315  27.274  36.939  1.00  0.00     0.055 A 
ATOM     88  C   UNL A   1      46.622  28.929  35.783  1.00  0.00     0.041 A 
ATOM     89  F   UNL A   1      45.590  30.368  34.250  1.00  0.00    -0.206 F 
ATOM     90  C   UNL A   1      46.543  27.902  36.719  1.00  0.00     0.022 A 
BRANCH  87  91
ATOM     91  S   UNL A   1      45.148  26.041  38.260  1.00  0.00     0.124 S 
ATOM     92  O   UNL A   1      44.684  24.869  37.526  1.00  0.00    -0.237 OA
ATOM     93  O   UNL A   1      46.507  25.965  38.788  1.00  0.00    -0.237 OA
ATOM     94  O   UNL A   1      44.165  26.636  39.162  1.00  0.00    -0.744 OA
ENDBRANCH  87  91
ENDBRANCH  61  84
ENDBRANCH  35  36
ENDBRANCH  27  30
ENDBRANCH  25  26
ENDBRANCH  24  25
ENDBRANCH   1  24
TORSDOF 20
ENDMDL
