MODEL 1
REMARK VINA RESULT:     -11.5      0.000      0.000
REMARK SMILES Cc1ncccc1NC(=O)NC[C@H]1CCC[C@H]1C(=O)NCCCCCCNC(=O)c1ccc(-c2c3nc(c(-c4cc(S(=O)(=O)[O-])ccc4F)c4ccc([nH]4)c(-c4cc(S(=O)(=O)[O-])ccc4F)c4nc(c(-c5cc(S(=O)(=O)[O-])ccc5F)c5ccc2[nH]5)C=C4)C=C3)cc1
REMARK SMILES IDX 23 1 22 2 21 3 20 4 18 5 19 6 17 8 13 9 14 10 15 11 16 12
REMARK SMILES IDX 12 13 11 14 8 15 9 16 10 18 7 20 1 21 2 22 3 23 4 24 6 25
REMARK SMILES IDX 5 26 24 27 25 28 26 29 27 30 28 31 29 33 30 34 31 35 92 36
REMARK SMILES IDX 32 37 91 38 33 39 34 40 35 41 85 42 36 43 90 44 84 45 86 46
REMARK SMILES IDX 37 47 89 48 83 49 82 50 38 52 70 53 50 54 69 55 51 56 54 57
REMARK SMILES IDX 68 58 87 59 52 60 53 61 67 63 88 64 55 65 39 66 40 67 48 68
REMARK SMILES IDX 41 69 47 70 49 71 46 72 42 73 43 74 44 75 45 76 71 77 72 78
REMARK SMILES IDX 80 79 73 80 79 81 81 82 78 83 74 84 75 85 76 86 77 87 56 88
REMARK SMILES IDX 57 89 65 90 58 91 64 92 66 93 63 94 59 95 60 96 61 97 62 98
REMARK H PARENT 20 7 8 17 11 19 27 32 86 51 54 62
REMARK Flexibility Score: inf
ROOT
ATOM      1  C   UNL A   1      32.602  29.556  25.517  1.00  0.00     0.002 C 
ENDROOT
BRANCH   1   2
ATOM      2  C   UNL A   1      33.175  29.013  24.205  1.00  0.00     0.021 C 
BRANCH   2   3
ATOM      3  C   UNL A   1      33.609  27.538  24.249  1.00  0.00     0.116 C 
BRANCH   3   4
ATOM      4  N   UNL A   1      33.182  26.827  23.047  1.00  0.00    -0.356 N 
ATOM      5  C   UNL A   1      32.063  26.568  22.349  1.00  0.00     0.223 C 
ATOM      6  O   UNL A   1      32.253  25.850  21.352  1.00  0.00    -0.275 OA
ATOM      7  H   UNL A   1      33.958  26.404  22.610  1.00  0.00     0.163 HD
BRANCH   5   8
ATOM      8  C   UNL A   1      30.624  26.990  22.635  1.00  0.00     0.083 C 
ATOM      9  C   UNL A   1      29.870  26.313  23.804  1.00  0.00     0.021 C 
ATOM     10  C   UNL A   1      28.495  26.978  23.643  1.00  0.00     0.006 C 
ATOM     11  C   UNL A   1      28.789  28.440  23.294  1.00  0.00     0.001 C 
ATOM     12  C   UNL A   1      30.176  28.452  22.621  1.00  0.00     0.014 C 
BRANCH   9  13
ATOM     13  C   UNL A   1      30.473  26.476  25.213  1.00  0.00     0.122 C 
BRANCH  13  14
ATOM     14  N   UNL A   1      30.216  25.320  26.049  1.00  0.00    -0.338 N 
ATOM     15  N   UNL A   1      31.453  23.281  25.827  1.00  0.00    -0.306 N 
ATOM     16  C   UNL A   1      30.563  24.093  26.366  1.00  0.00     0.319 C 
ATOM     17  H   UNL A   1      31.565  22.480  26.388  1.00  0.00     0.171 HD
ATOM     18  O   UNL A   1      29.959  23.652  27.356  1.00  0.00    -0.249 OA
ATOM     19  H   UNL A   1      29.453  25.554  26.626  1.00  0.00     0.165 HD
BRANCH  15  20
ATOM     20  C   UNL A   1      32.288  23.201  24.706  1.00  0.00     0.064 A 
ATOM     21  C   UNL A   1      34.169  24.317  26.034  1.00  0.00     0.069 C 
ATOM     22  C   UNL A   1      33.582  23.754  24.768  1.00  0.00     0.061 A 
ATOM     23  N   UNL A   1      34.440  23.742  23.712  1.00  0.00    -0.259 NA
ATOM     24  C   UNL A   1      34.028  23.166  22.569  1.00  0.00     0.111 A 
ATOM     25  C   UNL A   1      31.945  22.555  23.531  1.00  0.00     0.030 A 
ATOM     26  C   UNL A   1      32.804  22.549  22.436  1.00  0.00     0.022 A 
ENDBRANCH  15  20
ENDBRANCH  13  14
ENDBRANCH   9  13
ENDBRANCH   5   8
ENDBRANCH   3   4
ENDBRANCH   2   3
ENDBRANCH   1   2
BRANCH   1  27
ATOM     27  C   UNL A   1      31.250  30.262  25.396  1.00  0.00     0.002 C 
BRANCH  27  28
ATOM     28  C   UNL A   1      31.120  31.600  26.134  1.00  0.00     0.021 C 
BRANCH  28  29
ATOM     29  C   UNL A   1      32.361  32.070  26.891  1.00  0.00     0.116 C 
BRANCH  29  30
ATOM     30  N   UNL A   1      32.307  33.487  27.216  1.00  0.00    -0.352 N 
ATOM     31  C   UNL A   1      33.003  34.217  28.149  1.00  0.00     0.251 C 
ATOM     32  H   UNL A   1      31.667  34.008  26.680  1.00  0.00     0.163 HD
ATOM     33  O   UNL A   1      32.627  35.353  28.422  1.00  0.00    -0.269 OA
BRANCH  31  34
ATOM     34  C   UNL A   1      34.190  33.648  28.828  1.00  0.00     0.039 A 
ATOM     35  C   UNL A   1      35.453  34.174  28.539  1.00  0.00     0.014 A 
ATOM     36  C   UNL A   1      34.072  32.559  29.696  1.00  0.00     0.014 A 
ATOM     37  C   UNL A   1      36.591  33.644  29.159  1.00  0.00     0.010 A 
ATOM     38  C   UNL A   1      35.197  32.077  30.363  1.00  0.00     0.010 A 
ATOM     39  C   UNL A   1      36.469  32.606  30.095  1.00  0.00    -0.014 A 
BRANCH  39  40
ATOM     40  C   UNL A   1      37.658  32.031  30.780  1.00  0.00     0.031 A 
ATOM     41  C   UNL A   1      38.487  30.982  30.086  1.00  0.00     0.074 A 
ATOM     42  C   UNL A   1      37.949  32.390  32.045  1.00  0.00     0.049 A 
ATOM     43  N   UNL A   1      39.474  30.260  30.550  1.00  0.00    -0.248 NA
ATOM     44  C   UNL A   1      38.126  30.686  28.692  1.00  0.00     0.031 C 
ATOM     45  C   UNL A   1      37.209  33.378  32.833  1.00  0.00     0.029 A 
ATOM     46  N   UNL A   1      38.931  31.954  32.899  1.00  0.00    -0.354 N 
ATOM     47  C   UNL A   1      39.840  29.407  29.514  1.00  0.00     0.074 A 
ATOM     48  C   UNL A   1      38.924  29.664  28.422  1.00  0.00     0.031 C 
ATOM     49  C   UNL A   1      37.769  33.477  34.049  1.00  0.00     0.029 A 
ATOM     50  C   UNL A   1      38.874  32.529  34.147  1.00  0.00     0.049 A 
ATOM     51  H   UNL A   1      39.612  31.291  32.642  1.00  0.00     0.167 HD
ATOM     52  C   UNL A   1      40.856  28.508  29.469  1.00  0.00     0.034 A 
ATOM     53  C   UNL A   1      39.613  32.303  35.252  1.00  0.00     0.034 A 
ATOM     54  C   UNL A   1      41.765  28.273  30.566  1.00  0.00     0.049 A 
ATOM     55  C   UNL A   1      40.720  31.281  35.195  1.00  0.00     0.074 A 
ATOM     56  C   UNL A   1      42.855  27.423  30.618  1.00  0.00     0.029 A 
ATOM     57  N   UNL A   1      41.682  28.885  31.812  1.00  0.00    -0.354 N 
ATOM     58  N   UNL A   1      41.076  30.505  34.197  1.00  0.00    -0.248 NA
ATOM     59  C   UNL A   1      41.530  31.112  36.408  1.00  0.00     0.031 C 
ATOM     60  C   UNL A   1      43.388  27.469  31.912  1.00  0.00     0.029 A 
ATOM     61  C   UNL A   1      42.684  28.409  32.646  1.00  0.00     0.049 A 
ATOM     62  H   UNL A   1      41.009  29.557  32.067  1.00  0.00     0.167 HD
ATOM     63  C   UNL A   1      42.175  29.780  34.654  1.00  0.00     0.074 A 
ATOM     64  C   UNL A   1      42.424  30.217  36.012  1.00  0.00     0.031 C 
ATOM     65  C   UNL A   1      42.916  28.847  34.004  1.00  0.00     0.034 A 
BRANCH  52  66
ATOM     66  C   UNL A   1      41.006  27.695  28.202  1.00  0.00     0.023 A 
ATOM     67  C   UNL A   1      40.629  26.341  28.144  1.00  0.00     0.031 A 
ATOM     68  C   UNL A   1      41.582  28.263  27.052  1.00  0.00     0.131 A 
ATOM     69  C   UNL A   1      40.925  25.578  27.004  1.00  0.00     0.055 A 
ATOM     70  C   UNL A   1      41.786  27.522  25.886  1.00  0.00     0.041 A 
ATOM     71  F   UNL A   1      41.979  29.545  27.047  1.00  0.00    -0.206 F 
ATOM     72  C   UNL A   1      41.476  26.165  25.864  1.00  0.00     0.022 A 
BRANCH  69  73
ATOM     73  S   UNL A   1      40.745  23.775  27.101  1.00  0.00     0.124 S 
ATOM     74  O   UNL A   1      41.311  23.494  28.419  1.00  0.00    -0.237 OA
ATOM     75  O   UNL A   1      39.304  23.595  26.972  1.00  0.00    -0.237 OA
ATOM     76  O   UNL A   1      41.540  23.290  25.975  1.00  0.00    -0.744 OA
ENDBRANCH  69  73
ENDBRANCH  52  66
BRANCH  53  77
ATOM     77  C   UNL A   1      39.322  33.046  36.511  1.00  0.00     0.023 A 
ATOM     78  C   UNL A   1      39.855  34.325  36.736  1.00  0.00     0.031 A 
ATOM     79  C   UNL A   1      38.519  32.478  37.517  1.00  0.00     0.131 A 
ATOM     80  C   UNL A   1      39.607  34.981  37.954  1.00  0.00     0.055 A 
ATOM     81  C   UNL A   1      38.236  33.155  38.704  1.00  0.00     0.041 A 
ATOM     82  F   UNL A   1      37.979  31.261  37.348  1.00  0.00    -0.206 F 
ATOM     83  C   UNL A   1      38.791  34.410  38.933  1.00  0.00     0.022 A 
BRANCH  80  84
ATOM     84  S   UNL A   1      40.424  36.570  38.266  1.00  0.00     0.124 S 
ATOM     85  O   UNL A   1      39.338  37.354  38.842  1.00  0.00    -0.237 OA
ATOM     86  O   UNL A   1      41.495  36.187  39.180  1.00  0.00    -0.237 OA
ATOM     87  O   UNL A   1      40.865  36.992  36.938  1.00  0.00    -0.744 OA
ENDBRANCH  80  84
ENDBRANCH  53  77
BRANCH  65  88
ATOM     88  C   UNL A   1      44.106  28.276  34.738  1.00  0.00     0.023 A 
ATOM     89  C   UNL A   1      44.013  27.111  35.519  1.00  0.00     0.031 A 
ATOM     90  C   UNL A   1      45.356  28.916  34.651  1.00  0.00     0.131 A 
ATOM     91  C   UNL A   1      45.138  26.647  36.218  1.00  0.00     0.055 A 
ATOM     92  C   UNL A   1      46.486  28.416  35.301  1.00  0.00     0.041 A 
ATOM     93  F   UNL A   1      45.502  30.034  33.923  1.00  0.00    -0.206 F 
ATOM     94  C   UNL A   1      46.377  27.282  36.100  1.00  0.00     0.022 A 
BRANCH  91  95
ATOM     95  S   UNL A   1      44.945  25.247  37.355  1.00  0.00     0.124 S 
ATOM     96  O   UNL A   1      43.500  25.034  37.334  1.00  0.00    -0.237 OA
ATOM     97  O   UNL A   1      45.752  24.212  36.716  1.00  0.00    -0.237 OA
ATOM     98  O   UNL A   1      45.478  25.754  38.619  1.00  0.00    -0.744 OA
ENDBRANCH  91  95
ENDBRANCH  65  88
ENDBRANCH  39  40
ENDBRANCH  31  34
ENDBRANCH  29  30
ENDBRANCH  28  29
ENDBRANCH  27  28
ENDBRANCH   1  27
TORSDOF 19
ENDMDL
MODEL 2
REMARK VINA RESULT:     -11.3      2.563      8.345
REMARK SMILES Cc1ncccc1NC(=O)NC[C@H]1CCC[C@H]1C(=O)NCCCCCCNC(=O)c1ccc(-c2c3nc(c(-c4cc(S(=O)(=O)[O-])ccc4F)c4ccc([nH]4)c(-c4cc(S(=O)(=O)[O-])ccc4F)c4nc(c(-c5cc(S(=O)(=O)[O-])ccc5F)c5ccc2[nH]5)C=C4)C=C3)cc1
REMARK SMILES IDX 23 1 22 2 21 3 20 4 18 5 19 6 17 8 13 9 14 10 15 11 16 12
REMARK SMILES IDX 12 13 11 14 8 15 9 16 10 18 7 20 1 21 2 22 3 23 4 24 6 25
REMARK SMILES IDX 5 26 24 27 25 28 26 29 27 30 28 31 29 33 30 34 31 35 92 36
REMARK SMILES IDX 32 37 91 38 33 39 34 40 35 41 85 42 36 43 90 44 84 45 86 46
REMARK SMILES IDX 37 47 89 48 83 49 82 50 38 52 70 53 50 54 69 55 51 56 54 57
REMARK SMILES IDX 68 58 87 59 52 60 53 61 67 63 88 64 55 65 39 66 40 67 48 68
REMARK SMILES IDX 41 69 47 70 49 71 46 72 42 73 43 74 44 75 45 76 71 77 72 78
REMARK SMILES IDX 80 79 73 80 79 81 81 82 78 83 74 84 75 85 76 86 77 87 56 88
REMARK SMILES IDX 57 89 65 90 58 91 64 92 66 93 63 94 59 95 60 96 61 97 62 98
REMARK H PARENT 20 7 8 17 11 19 27 32 86 51 54 62
REMARK Flexibility Score: inf
ROOT
ATOM      1  C   UNL A   1      31.381  29.423  25.021  1.00  0.00     0.002 C 
ENDROOT
BRANCH   1   2
ATOM      2  C   UNL A   1      30.489  29.604  23.789  1.00  0.00     0.021 C 
BRANCH   2   3
ATOM      3  C   UNL A   1      29.632  28.379  23.426  1.00  0.00     0.116 C 
BRANCH   3   4
ATOM      4  N   UNL A   1      30.290  27.556  22.414  1.00  0.00    -0.356 N 
ATOM      5  C   UNL A   1      31.338  26.723  22.290  1.00  0.00     0.223 C 
ATOM      6  O   UNL A   1      31.485  26.277  21.139  1.00  0.00    -0.275 OA
ATOM      7  H   UNL A   1      29.820  27.638  21.553  1.00  0.00     0.163 HD
BRANCH   5   8
ATOM      8  C   UNL A   1      32.366  26.297  23.335  1.00  0.00     0.083 C 
ATOM      9  C   UNL A   1      31.873  25.561  24.603  1.00  0.00     0.021 C 
ATOM     10  C   UNL A   1      33.205  25.425  25.357  1.00  0.00     0.006 C 
ATOM     11  C   UNL A   1      34.245  25.084  24.286  1.00  0.00     0.001 C 
ATOM     12  C   UNL A   1      33.707  25.664  22.962  1.00  0.00     0.014 C 
BRANCH   9  13
ATOM     13  C   UNL A   1      31.144  24.218  24.395  1.00  0.00     0.122 C 
BRANCH  13  14
ATOM     14  N   UNL A   1      30.679  23.655  25.647  1.00  0.00    -0.338 N 
ATOM     15  N   UNL A   1      32.087  22.314  27.047  1.00  0.00    -0.306 N 
ATOM     16  C   UNL A   1      30.981  22.957  26.718  1.00  0.00     0.319 C 
ATOM     17  H   UNL A   1      32.035  22.007  27.980  1.00  0.00     0.171 HD
ATOM     18  O   UNL A   1      30.070  22.931  27.560  1.00  0.00    -0.249 OA
ATOM     19  H   UNL A   1      29.729  23.899  25.729  1.00  0.00     0.165 HD
BRANCH  15  20
ATOM     20  C   UNL A   1      33.309  21.933  26.483  1.00  0.00     0.064 A 
ATOM     21  C   UNL A   1      32.076  20.371  24.875  1.00  0.00     0.069 C 
ATOM     22  C   UNL A   1      33.329  20.948  25.476  1.00  0.00     0.061 A 
ATOM     23  N   UNL A   1      34.480  20.504  24.901  1.00  0.00    -0.259 NA
ATOM     24  C   UNL A   1      35.641  21.044  25.312  1.00  0.00     0.111 A 
ATOM     25  C   UNL A   1      34.525  22.507  26.813  1.00  0.00     0.030 A 
ATOM     26  C   UNL A   1      35.713  22.052  26.247  1.00  0.00     0.022 A 
ENDBRANCH  15  20
ENDBRANCH  13  14
ENDBRANCH   9  13
ENDBRANCH   5   8
ENDBRANCH   3   4
ENDBRANCH   2   3
ENDBRANCH   1   2
BRANCH   1  27
ATOM     27  C   UNL A   1      32.884  29.396  24.740  1.00  0.00     0.002 C 
BRANCH  27  28
ATOM     28  C   UNL A   1      33.781  28.973  25.909  1.00  0.00     0.021 C 
BRANCH  28  29
ATOM     29  C   UNL A   1      33.397  29.526  27.281  1.00  0.00     0.116 C 
BRANCH  29  30
ATOM     30  N   UNL A   1      33.588  30.965  27.371  1.00  0.00    -0.352 N 
ATOM     31  C   UNL A   1      34.555  31.699  28.016  1.00  0.00     0.251 C 
ATOM     32  H   UNL A   1      32.916  31.501  26.893  1.00  0.00     0.163 HD
ATOM     33  O   UNL A   1      34.389  32.906  28.167  1.00  0.00    -0.269 OA
BRANCH  31  34
ATOM     34  C   UNL A   1      35.782  31.052  28.534  1.00  0.00     0.039 A 
ATOM     35  C   UNL A   1      35.658  29.956  29.395  1.00  0.00     0.014 A 
ATOM     36  C   UNL A   1      37.049  31.556  28.230  1.00  0.00     0.014 A 
ATOM     37  C   UNL A   1      36.803  29.336  29.908  1.00  0.00     0.010 A 
ATOM     38  C   UNL A   1      38.189  30.897  28.687  1.00  0.00     0.010 A 
ATOM     39  C   UNL A   1      38.080  29.786  29.538  1.00  0.00    -0.014 A 
BRANCH  39  40
ATOM     40  C   UNL A   1      39.315  29.139  30.055  1.00  0.00     0.031 A 
ATOM     41  C   UNL A   1      40.007  29.709  31.266  1.00  0.00     0.074 A 
ATOM     42  C   UNL A   1      39.856  28.094  29.401  1.00  0.00     0.049 A 
ATOM     43  N   UNL A   1      41.158  29.384  31.797  1.00  0.00    -0.248 NA
ATOM     44  C   UNL A   1      39.322  30.819  31.945  1.00  0.00     0.031 C 
ATOM     45  C   UNL A   1      39.293  27.466  28.204  1.00  0.00     0.029 A 
ATOM     46  N   UNL A   1      41.009  27.387  29.635  1.00  0.00    -0.354 N 
ATOM     47  C   UNL A   1      41.348  30.263  32.858  1.00  0.00     0.074 A 
ATOM     48  C   UNL A   1      40.219  31.171  32.852  1.00  0.00     0.031 C 
ATOM     49  C   UNL A   1      40.097  26.463  27.816  1.00  0.00     0.029 A 
ATOM     50  C   UNL A   1      41.255  26.406  28.703  1.00  0.00     0.049 A 
ATOM     51  H   UNL A   1      41.603  27.566  30.400  1.00  0.00     0.167 HD
ATOM     52  C   UNL A   1      42.357  30.297  33.766  1.00  0.00     0.034 A 
ATOM     53  C   UNL A   1      42.304  25.570  28.565  1.00  0.00     0.034 A 
ATOM     54  C   UNL A   1      43.468  29.376  33.760  1.00  0.00     0.049 A 
ATOM     55  C   UNL A   1      43.430  25.640  29.564  1.00  0.00     0.074 A 
ATOM     56  C   UNL A   1      44.521  29.286  34.653  1.00  0.00     0.029 A 
ATOM     57  N   UNL A   1      43.677  28.387  32.805  1.00  0.00    -0.354 N 
ATOM     58  N   UNL A   1      43.581  26.454  30.583  1.00  0.00    -0.248 NA
ATOM     59  C   UNL A   1      44.523  24.672  29.401  1.00  0.00     0.031 C 
ATOM     60  C   UNL A   1      45.399  28.294  34.202  1.00  0.00     0.029 A 
ATOM     61  C   UNL A   1      44.855  27.704  33.073  1.00  0.00     0.049 A 
ATOM     62  H   UNL A   1      43.077  28.199  32.048  1.00  0.00     0.167 HD
ATOM     63  C   UNL A   1      44.769  26.072  31.203  1.00  0.00     0.074 A 
ATOM     64  C   UNL A   1      45.289  24.952  30.445  1.00  0.00     0.031 C 
ATOM     65  C   UNL A   1      45.368  26.593  32.303  1.00  0.00     0.034 A 
BRANCH  52  66
ATOM     66  C   UNL A   1      42.311  31.389  34.811  1.00  0.00     0.023 A 
ATOM     67  C   UNL A   1      42.978  32.615  34.630  1.00  0.00     0.031 A 
ATOM     68  C   UNL A   1      41.638  31.186  36.028  1.00  0.00     0.131 A 
ATOM     69  C   UNL A   1      43.044  33.541  35.681  1.00  0.00     0.055 A 
ATOM     70  C   UNL A   1      41.626  32.154  37.036  1.00  0.00     0.041 A 
ATOM     71  F   UNL A   1      40.996  30.032  36.272  1.00  0.00    -0.206 F 
ATOM     72  C   UNL A   1      42.350  33.331  36.874  1.00  0.00     0.022 A 
BRANCH  69  73
ATOM     73  S   UNL A   1      44.195  34.936  35.532  1.00  0.00     0.124 S 
ATOM     74  O   UNL A   1      43.353  35.947  34.898  1.00  0.00    -0.237 OA
ATOM     75  O   UNL A   1      44.565  35.189  36.920  1.00  0.00    -0.237 OA
ATOM     76  O   UNL A   1      45.264  34.408  34.687  1.00  0.00    -0.744 OA
ENDBRANCH  69  73
ENDBRANCH  52  66
BRANCH  53  77
ATOM     77  C   UNL A   1      42.348  24.606  27.429  1.00  0.00     0.023 A 
ATOM     78  C   UNL A   1      41.597  23.421  27.455  1.00  0.00     0.031 A 
ATOM     79  C   UNL A   1      43.156  24.851  26.304  1.00  0.00     0.131 A 
ATOM     80  C   UNL A   1      41.697  22.506  26.395  1.00  0.00     0.055 A 
ATOM     81  C   UNL A   1      43.214  23.961  25.230  1.00  0.00     0.041 A 
ATOM     82  F   UNL A   1      43.888  25.974  26.224  1.00  0.00    -0.206 F 
ATOM     83  C   UNL A   1      42.490  22.774  25.277  1.00  0.00     0.022 A 
BRANCH  80  84
ATOM     84  S   UNL A   1      40.821  20.923  26.527  1.00  0.00     0.124 S 
ATOM     85  O   UNL A   1      41.670  20.046  25.729  1.00  0.00    -0.237 OA
ATOM     86  O   UNL A   1      40.830  20.691  27.968  1.00  0.00    -0.237 OA
ATOM     87  O   UNL A   1      39.508  21.213  25.955  1.00  0.00    -0.744 OA
ENDBRANCH  80  84
ENDBRANCH  53  77
BRANCH  65  88
ATOM     88  C   UNL A   1      46.628  25.917  32.789  1.00  0.00     0.023 A 
ATOM     89  C   UNL A   1      46.600  24.873  33.731  1.00  0.00     0.031 A 
ATOM     90  C   UNL A   1      47.880  26.328  32.295  1.00  0.00     0.131 A 
ATOM     91  C   UNL A   1      47.802  24.309  34.184  1.00  0.00     0.055 A 
ATOM     92  C   UNL A   1      49.068  25.722  32.706  1.00  0.00     0.041 A 
ATOM     93  F   UNL A   1      47.967  27.322  31.397  1.00  0.00    -0.206 F 
ATOM     94  C   UNL A   1      49.034  24.714  33.664  1.00  0.00     0.022 A 
BRANCH  91  95
ATOM     95  S   UNL A   1      47.744  23.090  35.527  1.00  0.00     0.124 S 
ATOM     96  O   UNL A   1      48.505  23.759  36.578  1.00  0.00    -0.237 OA
ATOM     97  O   UNL A   1      46.310  22.956  35.765  1.00  0.00    -0.237 OA
ATOM     98  O   UNL A   1      48.388  21.911  34.949  1.00  0.00    -0.744 OA
ENDBRANCH  91  95
ENDBRANCH  65  88
ENDBRANCH  39  40
ENDBRANCH  31  34
ENDBRANCH  29  30
ENDBRANCH  28  29
ENDBRANCH  27  28
ENDBRANCH   1  27
TORSDOF 19
ENDMDL
MODEL 3
REMARK VINA RESULT:     -11.1      6.005     10.139
REMARK SMILES Cc1ncccc1NC(=O)NC[C@H]1CCC[C@H]1C(=O)NCCCCCCNC(=O)c1ccc(-c2c3nc(c(-c4cc(S(=O)(=O)[O-])ccc4F)c4ccc([nH]4)c(-c4cc(S(=O)(=O)[O-])ccc4F)c4nc(c(-c5cc(S(=O)(=O)[O-])ccc5F)c5ccc2[nH]5)C=C4)C=C3)cc1
REMARK SMILES IDX 23 1 22 2 21 3 20 4 18 5 19 6 17 8 13 9 14 10 15 11 16 12
REMARK SMILES IDX 12 13 11 14 8 15 9 16 10 18 7 20 1 21 2 22 3 23 4 24 6 25
REMARK SMILES IDX 5 26 24 27 25 28 26 29 27 30 28 31 29 33 30 34 31 35 92 36
REMARK SMILES IDX 32 37 91 38 33 39 34 40 35 41 85 42 36 43 90 44 84 45 86 46
REMARK SMILES IDX 37 47 89 48 83 49 82 50 38 52 70 53 50 54 69 55 51 56 54 57
REMARK SMILES IDX 68 58 87 59 52 60 53 61 67 63 88 64 55 65 39 66 40 67 48 68
REMARK SMILES IDX 41 69 47 70 49 71 46 72 42 73 43 74 44 75 45 76 71 77 72 78
REMARK SMILES IDX 80 79 73 80 79 81 81 82 78 83 74 84 75 85 76 86 77 87 56 88
REMARK SMILES IDX 57 89 65 90 58 91 64 92 66 93 63 94 59 95 60 96 61 97 62 98
REMARK H PARENT 20 7 8 17 11 19 27 32 86 51 54 62
REMARK Flexibility Score: inf
ROOT
ATOM      1  C   UNL A   1      40.486  22.553  26.517  1.00  0.00     0.002 C 
ENDROOT
BRANCH   1   2
ATOM      2  C   UNL A   1      39.022  22.975  26.365  1.00  0.00     0.021 C 
BRANCH   2   3
ATOM      3  C   UNL A   1      38.111  21.927  25.702  1.00  0.00     0.116 C 
BRANCH   3   4
ATOM      4  N   UNL A   1      37.501  22.454  24.484  1.00  0.00    -0.356 N 
ATOM      5  C   UNL A   1      36.484  23.248  24.105  1.00  0.00     0.223 C 
ATOM      6  O   UNL A   1      36.375  23.361  22.872  1.00  0.00    -0.275 OA
ATOM      7  H   UNL A   1      37.985  22.124  23.693  1.00  0.00     0.163 HD
BRANCH   5   8
ATOM      8  C   UNL A   1      35.451  23.975  24.962  1.00  0.00     0.083 C 
ATOM      9  C   UNL A   1      34.317  24.753  24.255  1.00  0.00     0.021 C 
ATOM     10  C   UNL A   1      33.615  25.358  25.481  1.00  0.00     0.006 C 
ATOM     11  C   UNL A   1      33.624  24.252  26.540  1.00  0.00     0.001 C 
ATOM     12  C   UNL A   1      34.832  23.351  26.213  1.00  0.00     0.014 C 
BRANCH   9  13
ATOM     13  C   UNL A   1      33.374  23.943  23.343  1.00  0.00     0.122 C 
BRANCH  13  14
ATOM     14  N   UNL A   1      33.203  24.570  22.047  1.00  0.00    -0.338 N 
ATOM     15  N   UNL A   1      32.831  26.923  21.803  1.00  0.00    -0.306 N 
ATOM     16  C   UNL A   1      33.030  25.689  21.380  1.00  0.00     0.319 C 
ATOM     17  H   UNL A   1      32.877  27.551  21.046  1.00  0.00     0.171 HD
ATOM     18  O   UNL A   1      33.092  25.541  20.150  1.00  0.00    -0.249 OA
ATOM     19  H   UNL A   1      33.227  23.846  21.380  1.00  0.00     0.165 HD
BRANCH  15  20
ATOM     20  C   UNL A   1      32.576  27.619  22.989  1.00  0.00     0.064 A 
ATOM     21  C   UNL A   1      30.368  26.355  23.252  1.00  0.00     0.069 C 
ATOM     22  C   UNL A   1      31.362  27.405  23.670  1.00  0.00     0.061 A 
ATOM     23  N   UNL A   1      31.030  28.064  24.813  1.00  0.00    -0.259 NA
ATOM     24  C   UNL A   1      31.911  28.949  25.310  1.00  0.00     0.111 A 
ATOM     25  C   UNL A   1      33.477  28.484  23.587  1.00  0.00     0.030 A 
ATOM     26  C   UNL A   1      33.146  29.181  24.746  1.00  0.00     0.022 A 
ENDBRANCH  15  20
ENDBRANCH  13  14
ENDBRANCH   9  13
ENDBRANCH   5   8
ENDBRANCH   3   4
ENDBRANCH   2   3
ENDBRANCH   1   2
BRANCH   1  27
ATOM     27  C   UNL A   1      40.776  21.617  27.691  1.00  0.00     0.002 C 
BRANCH  27  28
ATOM     28  C   UNL A   1      41.371  20.250  27.332  1.00  0.00     0.021 C 
BRANCH  28  29
ATOM     29  C   UNL A   1      41.425  19.914  25.843  1.00  0.00     0.116 C 
BRANCH  29  30
ATOM     30  N   UNL A   1      42.734  19.433  25.431  1.00  0.00    -0.352 N 
ATOM     31  C   UNL A   1      43.899  20.118  25.178  1.00  0.00     0.251 C 
ATOM     32  H   UNL A   1      42.797  18.458  25.314  1.00  0.00     0.163 HD
ATOM     33  O   UNL A   1      44.820  19.542  24.607  1.00  0.00    -0.269 OA
BRANCH  31  34
ATOM     34  C   UNL A   1      44.048  21.536  25.578  1.00  0.00     0.039 A 
ATOM     35  C   UNL A   1      44.439  21.833  26.888  1.00  0.00     0.014 A 
ATOM     36  C   UNL A   1      43.745  22.573  24.692  1.00  0.00     0.014 A 
ATOM     37  C   UNL A   1      44.574  23.165  27.294  1.00  0.00     0.010 A 
ATOM     38  C   UNL A   1      43.945  23.898  25.076  1.00  0.00     0.010 A 
ATOM     39  C   UNL A   1      44.351  24.210  26.383  1.00  0.00    -0.014 A 
BRANCH  39  40
ATOM     40  C   UNL A   1      44.501  25.636  26.780  1.00  0.00     0.031 A 
ATOM     41  C   UNL A   1      45.860  26.283  26.745  1.00  0.00     0.074 A 
ATOM     42  C   UNL A   1      43.439  26.324  27.241  1.00  0.00     0.049 A 
ATOM     43  N   UNL A   1      46.232  27.463  27.173  1.00  0.00    -0.248 NA
ATOM     44  C   UNL A   1      46.952  25.475  26.183  1.00  0.00     0.031 C 
ATOM     45  C   UNL A   1      42.075  25.801  27.345  1.00  0.00     0.029 A 
ATOM     46  N   UNL A   1      43.341  27.603  27.728  1.00  0.00    -0.354 N 
ATOM     47  C   UNL A   1      47.604  27.531  26.954  1.00  0.00     0.074 A 
ATOM     48  C   UNL A   1      48.001  26.248  26.412  1.00  0.00     0.031 C 
ATOM     49  C   UNL A   1      41.278  26.753  27.854  1.00  0.00     0.029 A 
ATOM     50  C   UNL A   1      42.078  27.936  28.158  1.00  0.00     0.049 A 
ATOM     51  H   UNL A   1      44.104  28.225  27.765  1.00  0.00     0.167 HD
ATOM     52  C   UNL A   1      48.449  28.572  27.165  1.00  0.00     0.034 A 
ATOM     53  C   UNL A   1      41.620  29.057  28.751  1.00  0.00     0.034 A 
ATOM     54  C   UNL A   1      48.030  29.846  27.698  1.00  0.00     0.049 A 
ATOM     55  C   UNL A   1      42.577  30.193  29.006  1.00  0.00     0.074 A 
ATOM     56  C   UNL A   1      48.787  30.985  27.911  1.00  0.00     0.029 A 
ATOM     57  N   UNL A   1      46.738  30.149  28.112  1.00  0.00    -0.354 N 
ATOM     58  N   UNL A   1      43.866  30.257  28.763  1.00  0.00    -0.248 NA
ATOM     59  C   UNL A   1      42.017  31.412  29.603  1.00  0.00     0.031 C 
ATOM     60  C   UNL A   1      47.973  31.949  28.516  1.00  0.00     0.029 A 
ATOM     61  C   UNL A   1      46.685  31.445  28.605  1.00  0.00     0.049 A 
ATOM     62  H   UNL A   1      45.971  29.533  28.064  1.00  0.00     0.167 HD
ATOM     63  C   UNL A   1      44.263  31.536  29.147  1.00  0.00     0.074 A 
ATOM     64  C   UNL A   1      43.075  32.209  29.632  1.00  0.00     0.031 C 
ATOM     65  C   UNL A   1      45.495  32.104  29.094  1.00  0.00     0.034 A 
BRANCH  52  66
ATOM     66  C   UNL A   1      49.912  28.350  26.849  1.00  0.00     0.023 A 
ATOM     67  C   UNL A   1      50.447  28.643  25.581  1.00  0.00     0.031 A 
ATOM     68  C   UNL A   1      50.773  27.789  27.808  1.00  0.00     0.131 A 
ATOM     69  C   UNL A   1      51.768  28.281  25.276  1.00  0.00     0.055 A 
ATOM     70  C   UNL A   1      52.115  27.520  27.528  1.00  0.00     0.041 A 
ATOM     71  F   UNL A   1      50.321  27.470  29.031  1.00  0.00    -0.206 F 
ATOM     72  C   UNL A   1      52.614  27.746  26.249  1.00  0.00     0.022 A 
BRANCH  69  73
ATOM     73  S   UNL A   1      52.304  28.353  23.544  1.00  0.00     0.124 S 
ATOM     74  O   UNL A   1      51.944  27.019  23.069  1.00  0.00    -0.237 OA
ATOM     75  O   UNL A   1      51.511  29.456  23.014  1.00  0.00    -0.237 OA
ATOM     76  O   UNL A   1      53.740  28.605  23.640  1.00  0.00    -0.744 OA
ENDBRANCH  69  73
ENDBRANCH  52  66
BRANCH  53  77
ATOM     77  C   UNL A   1      40.190  29.156  29.160  1.00  0.00     0.023 A 
ATOM     78  C   UNL A   1      39.814  29.060  30.509  1.00  0.00     0.031 A 
ATOM     79  C   UNL A   1      39.175  29.332  28.203  1.00  0.00     0.131 A 
ATOM     80  C   UNL A   1      38.455  29.105  30.862  1.00  0.00     0.055 A 
ATOM     81  C   UNL A   1      37.829  29.425  28.564  1.00  0.00     0.041 A 
ATOM     82  F   UNL A   1      39.480  29.438  26.900  1.00  0.00    -0.206 F 
ATOM     83  C   UNL A   1      37.462  29.300  29.900  1.00  0.00     0.022 A 
BRANCH  80  84
ATOM     84  S   UNL A   1      37.999  28.839  32.597  1.00  0.00     0.124 S 
ATOM     85  O   UNL A   1      38.999  29.638  33.294  1.00  0.00    -0.237 OA
ATOM     86  O   UNL A   1      36.631  29.347  32.632  1.00  0.00    -0.237 OA
ATOM     87  O   UNL A   1      38.126  27.393  32.764  1.00  0.00    -0.744 OA
ENDBRANCH  80  84
ENDBRANCH  53  77
BRANCH  65  88
ATOM     88  C   UNL A   1      45.608  33.548  29.519  1.00  0.00     0.023 A 
ATOM     89  C   UNL A   1      45.338  34.609  28.637  1.00  0.00     0.031 A 
ATOM     90  C   UNL A   1      45.992  33.865  30.835  1.00  0.00     0.131 A 
ATOM     91  C   UNL A   1      45.502  35.935  29.068  1.00  0.00     0.055 A 
ATOM     92  C   UNL A   1      46.096  35.185  31.275  1.00  0.00     0.041 A 
ATOM     93  F   UNL A   1      46.265  32.892  31.719  1.00  0.00    -0.206 F 
ATOM     94  C   UNL A   1      45.861  36.229  30.386  1.00  0.00     0.022 A 
BRANCH  91  95
ATOM     95  S   UNL A   1      45.320  37.276  27.860  1.00  0.00     0.124 S 
ATOM     96  O   UNL A   1      44.870  36.556  26.672  1.00  0.00    -0.237 OA
ATOM     97  O   UNL A   1      44.329  38.138  28.497  1.00  0.00    -0.237 OA
ATOM     98  O   UNL A   1      46.665  37.842  27.769  1.00  0.00    -0.744 OA
ENDBRANCH  91  95
ENDBRANCH  65  88
ENDBRANCH  39  40
ENDBRANCH  31  34
ENDBRANCH  29  30
ENDBRANCH  28  29
ENDBRANCH  27  28
ENDBRANCH   1  27
TORSDOF 19
ENDMDL
