MODEL 1
REMARK VINA RESULT:     -11.5      0.000      0.000
REMARK SMILES O=C(NCCCCCCNC(=O)[C@@H]1CC=CC[C@@H]1C(=O)Nc1sc2c(c1C(=O)N1CCCCC1)CCCC2)c1ccc(-c2c3nc(c(-c4cc(S(=O)(=O)[O-])ccc4F)c4ccc([nH]4)c(-c4cc(S(=O)(=O)[O-])ccc4F)c4nc(c(-c5cc(S(=O)(=O)[O-])ccc5F)c5ccc2[nH]5)C=C4)C=C3)cc1
REMARK SMILES IDX 6 1 5 2 4 3 3 4 1 5 2 6 39 8 40 9 101 10 41 11 100 12 42 13
REMARK SMILES IDX 43 14 44 15 94 16 45 17 99 18 93 19 95 20 46 21 98 22 92 23
REMARK SMILES IDX 91 24 47 26 79 27 59 28 78 29 60 30 63 31 77 32 96 33 61 34
REMARK SMILES IDX 62 35 76 37 97 38 64 39 48 40 49 41 57 42 50 43 56 44 58 45
REMARK SMILES IDX 55 46 51 47 52 48 53 49 54 50 80 51 81 52 89 53 82 54 88 55
REMARK SMILES IDX 90 56 87 57 83 58 84 59 85 60 86 61 65 62 66 63 74 64 67 65
REMARK SMILES IDX 73 66 75 67 72 68 68 69 69 70 70 71 71 72 7 73 8 74 9 75
REMARK SMILES IDX 10 76 11 77 12 79 13 80 14 81 18 82 15 83 17 84 16 85 19 86
REMARK SMILES IDX 20 87 21 88 22 90 23 91 26 92 24 93 25 94 38 95 35 96 37 97
REMARK SMILES IDX 36 98 27 99 28 100 29 101 30 102 34 103 31 104 33 105 32 106
REMARK H PARENT 3 7 95 25 63 36 10 78 21 89
REMARK Flexibility Score: inf
ROOT
ATOM      1  C   UNL A   1      39.855  21.832  26.451  1.00  0.00     0.002 C 
ENDROOT
BRANCH   1   2
ATOM      2  C   UNL A   1      40.181  20.342  26.371  1.00  0.00     0.021 C 
BRANCH   2   3
ATOM      3  C   UNL A   1      41.552  19.969  26.915  1.00  0.00     0.116 C 
BRANCH   3   4
ATOM      4  N   UNL A   1      42.427  19.415  25.893  1.00  0.00    -0.352 N 
ATOM      5  O   UNL A   1      43.962  19.500  24.237  1.00  0.00    -0.269 OA
ATOM      6  C   UNL A   1      43.411  20.056  25.180  1.00  0.00     0.251 C 
ATOM      7  H   UNL A   1      42.297  18.460  25.688  1.00  0.00     0.163 HD
BRANCH   6   8
ATOM      8  C   UNL A   1      43.773  21.440  25.554  1.00  0.00     0.039 A 
ATOM      9  C   UNL A   1      44.425  21.690  26.764  1.00  0.00     0.014 A 
ATOM     10  C   UNL A   1      43.412  22.496  24.714  1.00  0.00     0.014 A 
ATOM     11  C   UNL A   1      44.577  22.997  27.205  1.00  0.00     0.010 A 
ATOM     12  C   UNL A   1      43.657  23.812  25.118  1.00  0.00     0.010 A 
ATOM     13  C   UNL A   1      44.211  24.075  26.381  1.00  0.00    -0.014 A 
BRANCH  13  14
ATOM     14  C   UNL A   1      44.465  25.462  26.853  1.00  0.00     0.031 A 
ATOM     15  C   UNL A   1      45.818  26.102  26.705  1.00  0.00     0.074 A 
ATOM     16  C   UNL A   1      43.440  26.155  27.387  1.00  0.00     0.049 A 
ATOM     17  N   UNL A   1      46.199  27.309  27.036  1.00  0.00    -0.248 NA
ATOM     18  C   UNL A   1      46.884  25.277  26.120  1.00  0.00     0.031 C 
ATOM     19  C   UNL A   1      42.084  25.632  27.582  1.00  0.00     0.029 A 
ATOM     20  N   UNL A   1      43.362  27.447  27.835  1.00  0.00    -0.354 N 
ATOM     21  C   UNL A   1      47.553  27.385  26.724  1.00  0.00     0.074 A 
ATOM     22  C   UNL A   1      47.931  26.086  26.207  1.00  0.00     0.031 C 
ATOM     23  C   UNL A   1      41.298  26.611  28.047  1.00  0.00     0.029 A 
ATOM     24  C   UNL A   1      42.103  27.806  28.261  1.00  0.00     0.049 A 
ATOM     25  H   UNL A   1      44.132  28.060  27.852  1.00  0.00     0.167 HD
ATOM     26  C   UNL A   1      48.396  28.442  26.852  1.00  0.00     0.034 A 
ATOM     27  C   UNL A   1      41.651  28.961  28.783  1.00  0.00     0.034 A 
ATOM     28  C   UNL A   1      47.993  29.733  27.366  1.00  0.00     0.049 A 
ATOM     29  C   UNL A   1      42.615  30.102  28.951  1.00  0.00     0.074 A 
ATOM     30  C   UNL A   1      48.752  30.883  27.501  1.00  0.00     0.029 A 
ATOM     31  N   UNL A   1      46.723  30.042  27.842  1.00  0.00    -0.354 N 
ATOM     32  N   UNL A   1      43.887  30.163  28.630  1.00  0.00    -0.248 NA
ATOM     33  C   UNL A   1      42.081  31.329  29.551  1.00  0.00     0.031 C 
ATOM     34  C   UNL A   1      47.967  31.859  28.125  1.00  0.00     0.029 A 
ATOM     35  C   UNL A   1      46.691  31.351  28.305  1.00  0.00     0.049 A 
ATOM     36  H   UNL A   1      45.959  29.423  27.850  1.00  0.00     0.167 HD
ATOM     37  C   UNL A   1      44.299  31.449  28.967  1.00  0.00     0.074 A 
ATOM     38  C   UNL A   1      43.134  32.131  29.495  1.00  0.00     0.031 C 
ATOM     39  C   UNL A   1      45.528  32.014  28.849  1.00  0.00     0.034 A 
BRANCH  26  40
ATOM     40  C   UNL A   1      49.846  28.227  26.481  1.00  0.00     0.023 A 
ATOM     41  C   UNL A   1      50.339  28.509  25.194  1.00  0.00     0.031 A 
ATOM     42  C   UNL A   1      50.749  27.704  27.426  1.00  0.00     0.131 A 
ATOM     43  C   UNL A   1      51.667  28.194  24.865  1.00  0.00     0.055 A 
ATOM     44  C   UNL A   1      52.091  27.471  27.117  1.00  0.00     0.041 A 
ATOM     45  F   UNL A   1      50.338  27.395  28.666  1.00  0.00    -0.206 F 
ATOM     46  C   UNL A   1      52.553  27.701  25.825  1.00  0.00     0.022 A 
BRANCH  43  47
ATOM     47  S   UNL A   1      52.176  28.291  23.126  1.00  0.00     0.124 S 
ATOM     48  O   UNL A   1      51.154  29.171  22.565  1.00  0.00    -0.237 OA
ATOM     49  O   UNL A   1      53.519  28.853  23.221  1.00  0.00    -0.237 OA
ATOM     50  O   UNL A   1      52.110  26.904  22.670  1.00  0.00    -0.744 OA
ENDBRANCH  43  47
ENDBRANCH  26  40
BRANCH  27  51
ATOM     51  C   UNL A   1      40.226  29.088  29.200  1.00  0.00     0.023 A 
ATOM     52  C   UNL A   1      39.855  28.965  30.548  1.00  0.00     0.031 A 
ATOM     53  C   UNL A   1      39.211  29.313  28.253  1.00  0.00     0.131 A 
ATOM     54  C   UNL A   1      38.500  29.026  30.906  1.00  0.00     0.055 A 
ATOM     55  C   UNL A   1      37.871  29.430  28.622  1.00  0.00     0.041 A 
ATOM     56  F   UNL A   1      39.513  29.444  26.951  1.00  0.00    -0.206 F 
ATOM     57  C   UNL A   1      37.508  29.274  29.955  1.00  0.00     0.022 A 
BRANCH  54  58
ATOM     58  S   UNL A   1      38.045  28.696  32.630  1.00  0.00     0.124 S 
ATOM     59  O   UNL A   1      36.700  29.255  32.694  1.00  0.00    -0.237 OA
ATOM     60  O   UNL A   1      38.140  27.242  32.694  1.00  0.00    -0.237 OA
ATOM     61  O   UNL A   1      39.059  29.419  33.394  1.00  0.00    -0.744 OA
ENDBRANCH  54  58
ENDBRANCH  27  51
BRANCH  39  62
ATOM     62  C   UNL A   1      45.649  33.461  29.263  1.00  0.00     0.023 A 
ATOM     63  C   UNL A   1      45.220  34.508  28.428  1.00  0.00     0.031 A 
ATOM     64  C   UNL A   1      46.241  33.798  30.494  1.00  0.00     0.131 A 
ATOM     65  C   UNL A   1      45.454  35.840  28.801  1.00  0.00     0.055 A 
ATOM     66  C   UNL A   1      46.409  35.125  30.889  1.00  0.00     0.041 A 
ATOM     67  F   UNL A   1      46.673  32.840  31.329  1.00  0.00    -0.206 F 
ATOM     68  C   UNL A   1      46.030  36.156  30.034  1.00  0.00     0.022 A 
BRANCH  65  69
ATOM     69  S   UNL A   1      45.100  37.155  27.601  1.00  0.00     0.124 S 
ATOM     70  O   UNL A   1      43.973  36.596  26.863  1.00  0.00    -0.237 OA
ATOM     71  O   UNL A   1      44.797  38.292  28.465  1.00  0.00    -0.237 OA
ATOM     72  O   UNL A   1      46.345  37.269  26.842  1.00  0.00    -0.744 OA
ENDBRANCH  65  69
ENDBRANCH  39  62
ENDBRANCH  13  14
ENDBRANCH   6   8
ENDBRANCH   3   4
ENDBRANCH   2   3
ENDBRANCH   1   2
BRANCH   1  73
ATOM     73  C   UNL A   1      38.533  22.232  25.787  1.00  0.00     0.002 C 
BRANCH  73  74
ATOM     74  C   UNL A   1      38.018  23.631  26.161  1.00  0.00     0.021 C 
BRANCH  74  75
ATOM     75  C   UNL A   1      36.495  23.752  26.138  1.00  0.00     0.116 C 
BRANCH  75  76
ATOM     76  N   UNL A   1      36.068  24.044  24.786  1.00  0.00    -0.356 N 
ATOM     77  C   UNL A   1      35.135  23.383  24.046  1.00  0.00     0.224 C 
ATOM     78  H   UNL A   1      36.504  24.812  24.349  1.00  0.00     0.163 HD
ATOM     79  O   UNL A   1      35.313  23.304  22.832  1.00  0.00    -0.275 OA
BRANCH  77  80
ATOM     80  C   UNL A   1      33.923  22.801  24.754  1.00  0.00     0.095 C 
ATOM     81  C   UNL A   1      33.593  21.480  24.054  1.00  0.00     0.041 C 
ATOM     82  C   UNL A   1      32.732  23.782  24.879  1.00  0.00     0.095 C 
ATOM     83  C   UNL A   1      32.309  20.876  24.516  1.00  0.00    -0.030 C 
ATOM     84  C   UNL A   1      31.442  23.067  25.364  1.00  0.00     0.041 C 
ATOM     85  C   UNL A   1      31.348  21.592  25.110  1.00  0.00    -0.030 C 
BRANCH  82  86
ATOM     86  C   UNL A   1      32.449  24.654  23.651  1.00  0.00     0.229 C 
ATOM     87  O   UNL A   1      32.336  24.112  22.541  1.00  0.00    -0.274 OA
ATOM     88  N   UNL A   1      32.274  26.014  23.681  1.00  0.00    -0.317 N 
ATOM     89  H   UNL A   1      31.953  26.369  22.820  1.00  0.00     0.170 HD
BRANCH  88  90
ATOM     90  C   UNL A   1      32.439  27.013  24.635  1.00  0.00     0.108 A 
ATOM     91  S   UNL A   1      33.634  26.924  25.830  1.00  0.00    -0.122 S 
ATOM     92  C   UNL A   1      31.665  28.176  24.780  1.00  0.00     0.078 A 
ATOM     93  C   UNL A   1      33.503  28.557  26.191  1.00  0.00     0.011 A 
ATOM     94  C   UNL A   1      32.337  29.106  25.694  1.00  0.00    -0.019 A 
ATOM     95  C   UNL A   1      34.544  29.267  26.994  1.00  0.00     0.047 C 
ATOM     96  C   UNL A   1      31.942  30.496  26.104  1.00  0.00     0.037 C 
ATOM     97  C   UNL A   1      33.906  30.427  27.755  1.00  0.00     0.006 C 
ATOM     98  C   UNL A   1      33.053  31.286  26.819  1.00  0.00     0.005 C 
BRANCH  92  99
ATOM     99  C   UNL A   1      30.388  28.332  24.047  1.00  0.00     0.257 C 
ATOM    100  O   UNL A   1      29.510  27.462  24.069  1.00  0.00    -0.269 OA
ATOM    101  N   UNL A   1      30.121  29.583  23.507  1.00  0.00    -0.339 N 
ATOM    102  C   UNL A   1      29.026  30.354  24.079  1.00  0.00     0.120 C 
ATOM    103  C   UNL A   1      30.504  29.892  22.135  1.00  0.00     0.120 C 
ATOM    104  C   UNL A   1      27.829  30.474  23.138  1.00  0.00     0.022 C 
ATOM    105  C   UNL A   1      29.316  30.025  21.188  1.00  0.00     0.022 C 
ATOM    106  C   UNL A   1      28.266  30.970  21.763  1.00  0.00     0.004 C 
ENDBRANCH  92  99
ENDBRANCH  88  90
ENDBRANCH  82  86
ENDBRANCH  77  80
ENDBRANCH  75  76
ENDBRANCH  74  75
ENDBRANCH  73  74
ENDBRANCH   1  73
TORSDOF 19
ENDMDL
MODEL 2
REMARK VINA RESULT:     -11.3      5.556     10.421
REMARK SMILES O=C(NCCCCCCNC(=O)[C@@H]1CC=CC[C@@H]1C(=O)Nc1sc2c(c1C(=O)N1CCCCC1)CCCC2)c1ccc(-c2c3nc(c(-c4cc(S(=O)(=O)[O-])ccc4F)c4ccc([nH]4)c(-c4cc(S(=O)(=O)[O-])ccc4F)c4nc(c(-c5cc(S(=O)(=O)[O-])ccc5F)c5ccc2[nH]5)C=C4)C=C3)cc1
REMARK SMILES IDX 6 1 5 2 4 3 3 4 1 5 2 6 39 8 40 9 101 10 41 11 100 12 42 13
REMARK SMILES IDX 43 14 44 15 94 16 45 17 99 18 93 19 95 20 46 21 98 22 92 23
REMARK SMILES IDX 91 24 47 26 79 27 59 28 78 29 60 30 63 31 77 32 96 33 61 34
REMARK SMILES IDX 62 35 76 37 97 38 64 39 48 40 49 41 57 42 50 43 56 44 58 45
REMARK SMILES IDX 55 46 51 47 52 48 53 49 54 50 80 51 81 52 89 53 82 54 88 55
REMARK SMILES IDX 90 56 87 57 83 58 84 59 85 60 86 61 65 62 66 63 74 64 67 65
REMARK SMILES IDX 73 66 75 67 72 68 68 69 69 70 70 71 71 72 7 73 8 74 9 75
REMARK SMILES IDX 10 76 11 77 12 79 13 80 14 81 18 82 15 83 17 84 16 85 19 86
REMARK SMILES IDX 20 87 21 88 22 90 23 91 26 92 24 93 25 94 38 95 35 96 37 97
REMARK SMILES IDX 36 98 27 99 28 100 29 101 30 102 34 103 31 104 33 105 32 106
REMARK H PARENT 3 7 95 25 63 36 10 78 21 89
REMARK Flexibility Score: inf
ROOT
ATOM      1  C   UNL A   1      31.436  31.102  26.145  1.00  0.00     0.002 C 
ENDROOT
BRANCH   1   2
ATOM      2  C   UNL A   1      31.431  32.580  26.530  1.00  0.00     0.021 C 
BRANCH   2   3
ATOM      3  C   UNL A   1      32.706  33.057  27.210  1.00  0.00     0.116 C 
BRANCH   3   4
ATOM      4  N   UNL A   1      32.577  34.395  27.765  1.00  0.00    -0.352 N 
ATOM      5  O   UNL A   1      32.937  36.037  29.276  1.00  0.00    -0.269 OA
ATOM      6  C   UNL A   1      33.264  34.948  28.819  1.00  0.00     0.251 C 
ATOM      7  H   UNL A   1      31.914  34.979  27.329  1.00  0.00     0.163 HD
BRANCH   6   8
ATOM      8  C   UNL A   1      34.389  34.190  29.409  1.00  0.00     0.039 A 
ATOM      9  C   UNL A   1      34.147  33.237  30.401  1.00  0.00     0.014 A 
ATOM     10  C   UNL A   1      35.695  34.472  29.002  1.00  0.00     0.014 A 
ATOM     11  C   UNL A   1      35.214  32.680  31.092  1.00  0.00     0.010 A 
ATOM     12  C   UNL A   1      36.766  33.834  29.636  1.00  0.00     0.010 A 
ATOM     13  C   UNL A   1      36.537  32.958  30.709  1.00  0.00    -0.014 A 
BRANCH  13  14
ATOM     14  C   UNL A   1      37.651  32.278  31.420  1.00  0.00     0.031 A 
ATOM     15  C   UNL A   1      38.430  31.168  30.771  1.00  0.00     0.074 A 
ATOM     16  C   UNL A   1      37.979  32.707  32.655  1.00  0.00     0.049 A 
ATOM     17  N   UNL A   1      39.448  30.491  31.241  1.00  0.00    -0.248 NA
ATOM     18  C   UNL A   1      38.005  30.754  29.426  1.00  0.00     0.031 C 
ATOM     19  C   UNL A   1      37.289  33.777  33.382  1.00  0.00     0.029 A 
ATOM     20  N   UNL A   1      38.983  32.325  33.505  1.00  0.00    -0.354 N 
ATOM     21  C   UNL A   1      39.773  29.556  30.262  1.00  0.00     0.074 A 
ATOM     22  C   UNL A   1      38.818  29.734  29.187  1.00  0.00     0.031 C 
ATOM     23  C   UNL A   1      37.929  34.008  34.536  1.00  0.00     0.029 A 
ATOM     24  C   UNL A   1      39.022  33.054  34.671  1.00  0.00     0.049 A 
ATOM     25  H   UNL A   1      39.615  31.599  33.302  1.00  0.00     0.167 HD
ATOM     26  C   UNL A   1      40.777  28.641  30.263  1.00  0.00     0.034 A 
ATOM     27  C   UNL A   1      39.834  32.956  35.739  1.00  0.00     0.034 A 
ATOM     28  C   UNL A   1      41.722  28.487  31.347  1.00  0.00     0.049 A 
ATOM     29  C   UNL A   1      40.912  31.908  35.730  1.00  0.00     0.074 A 
ATOM     30  C   UNL A   1      42.800  27.623  31.435  1.00  0.00     0.029 A 
ATOM     31  N   UNL A   1      41.695  29.204  32.539  1.00  0.00    -0.354 N 
ATOM     32  N   UNL A   1      41.219  31.046  34.788  1.00  0.00    -0.248 NA
ATOM     33  C   UNL A   1      41.753  31.820  36.929  1.00  0.00     0.031 C 
ATOM     34  C   UNL A   1      43.376  27.763  32.703  1.00  0.00     0.029 A 
ATOM     35  C   UNL A   1      42.713  28.774  33.379  1.00  0.00     0.049 A 
ATOM     36  H   UNL A   1      41.048  29.913  32.754  1.00  0.00     0.167 HD
ATOM     37  C   UNL A   1      42.309  30.330  35.273  1.00  0.00     0.074 A 
ATOM     38  C   UNL A   1      42.615  30.877  36.580  1.00  0.00     0.031 C 
ATOM     39  C   UNL A   1      42.995  29.314  34.690  1.00  0.00     0.034 A 
BRANCH  26  40
ATOM     40  C   UNL A   1      40.867  27.704  29.079  1.00  0.00     0.023 A 
ATOM     41  C   UNL A   1      41.822  27.876  28.061  1.00  0.00     0.031 A 
ATOM     42  C   UNL A   1      39.963  26.633  28.954  1.00  0.00     0.131 A 
ATOM     43  C   UNL A   1      41.799  27.045  26.929  1.00  0.00     0.055 A 
ATOM     44  C   UNL A   1      40.000  25.757  27.866  1.00  0.00     0.041 A 
ATOM     45  F   UNL A   1      39.015  26.426  29.881  1.00  0.00    -0.206 F 
ATOM     46  C   UNL A   1      40.911  25.971  26.837  1.00  0.00     0.022 A 
BRANCH  43  47
ATOM     47  S   UNL A   1      42.842  27.483  25.510  1.00  0.00     0.124 S 
ATOM     48  O   UNL A   1      42.069  28.560  24.895  1.00  0.00    -0.237 OA
ATOM     49  O   UNL A   1      44.092  27.880  26.148  1.00  0.00    -0.237 OA
ATOM     50  O   UNL A   1      42.901  26.248  24.732  1.00  0.00    -0.744 OA
ENDBRANCH  43  47
ENDBRANCH  26  40
BRANCH  27  51
ATOM     51  C   UNL A   1      39.648  33.859  36.909  1.00  0.00     0.023 A 
ATOM     52  C   UNL A   1      39.063  33.392  38.096  1.00  0.00     0.031 A 
ATOM     53  C   UNL A   1      40.033  35.210  36.850  1.00  0.00     0.131 A 
ATOM     54  C   UNL A   1      38.842  34.278  39.161  1.00  0.00     0.055 A 
ATOM     55  C   UNL A   1      39.863  36.074  37.933  1.00  0.00     0.041 A 
ATOM     56  F   UNL A   1      40.602  35.707  35.740  1.00  0.00    -0.206 F 
ATOM     57  C   UNL A   1      39.252  35.611  39.093  1.00  0.00     0.022 A 
BRANCH  54  58
ATOM     58  S   UNL A   1      37.933  33.679  40.611  1.00  0.00     0.124 S 
ATOM     59  O   UNL A   1      38.902  32.771  41.214  1.00  0.00    -0.237 OA
ATOM     60  O   UNL A   1      37.674  34.917  41.338  1.00  0.00    -0.237 OA
ATOM     61  O   UNL A   1      36.754  33.039  40.033  1.00  0.00    -0.744 OA
ENDBRANCH  54  58
ENDBRANCH  27  51
BRANCH  39  62
ATOM     62  C   UNL A   1      44.174  28.767  35.458  1.00  0.00     0.023 A 
ATOM     63  C   UNL A   1      44.047  27.667  36.325  1.00  0.00     0.031 A 
ATOM     64  C   UNL A   1      45.435  29.382  35.352  1.00  0.00     0.131 A 
ATOM     65  C   UNL A   1      45.141  27.261  37.105  1.00  0.00     0.055 A 
ATOM     66  C   UNL A   1      46.536  28.931  36.080  1.00  0.00     0.041 A 
ATOM     67  F   UNL A   1      45.613  30.438  34.544  1.00  0.00    -0.206 F 
ATOM     68  C   UNL A   1      46.389  27.876  36.976  1.00  0.00     0.022 A 
BRANCH  65  69
ATOM     69  S   UNL A   1      44.880  25.995  38.378  1.00  0.00     0.124 S 
ATOM     70  O   UNL A   1      46.212  25.413  38.504  1.00  0.00    -0.237 OA
ATOM     71  O   UNL A   1      44.419  26.786  39.515  1.00  0.00    -0.237 OA
ATOM     72  O   UNL A   1      43.872  25.116  37.786  1.00  0.00    -0.744 OA
ENDBRANCH  65  69
ENDBRANCH  39  62
ENDBRANCH  13  14
ENDBRANCH   6   8
ENDBRANCH   3   4
ENDBRANCH   2   3
ENDBRANCH   1   2
BRANCH   1  73
ATOM     73  C   UNL A   1      32.102  30.179  27.171  1.00  0.00     0.002 C 
BRANCH  73  74
ATOM     74  C   UNL A   1      31.731  28.693  27.042  1.00  0.00     0.021 C 
BRANCH  74  75
ATOM     75  C   UNL A   1      31.797  28.165  25.609  1.00  0.00     0.116 C 
BRANCH  75  76
ATOM     76  N   UNL A   1      33.048  27.458  25.428  1.00  0.00    -0.356 N 
ATOM     77  C   UNL A   1      33.348  26.185  25.811  1.00  0.00     0.224 C 
ATOM     78  H   UNL A   1      33.768  27.956  24.975  1.00  0.00     0.163 HD
ATOM     79  O   UNL A   1      34.499  25.948  26.170  1.00  0.00    -0.275 OA
BRANCH  77  80
ATOM     80  C   UNL A   1      32.255  25.131  25.752  1.00  0.00     0.095 C 
ATOM     81  C   UNL A   1      32.641  24.037  26.752  1.00  0.00     0.041 C 
ATOM     82  C   UNL A   1      31.943  24.621  24.324  1.00  0.00     0.095 C 
ATOM     83  C   UNL A   1      31.759  22.835  26.677  1.00  0.00    -0.030 C 
ATOM     84  C   UNL A   1      31.022  23.372  24.344  1.00  0.00     0.041 C 
ATOM     85  C   UNL A   1      31.028  22.544  25.595  1.00  0.00    -0.030 C 
BRANCH  82  86
ATOM     86  C   UNL A   1      33.155  24.396  23.412  1.00  0.00     0.229 C 
ATOM     87  O   UNL A   1      33.683  25.374  22.861  1.00  0.00    -0.274 OA
ATOM     88  N   UNL A   1      33.740  23.178  23.175  1.00  0.00    -0.317 N 
ATOM     89  H   UNL A   1      34.591  23.261  22.688  1.00  0.00     0.170 HD
BRANCH  88  90
ATOM     90  C   UNL A   1      33.420  21.854  23.457  1.00  0.00     0.108 A 
ATOM     91  S   UNL A   1      32.114  21.069  22.719  1.00  0.00    -0.122 S 
ATOM     92  C   UNL A   1      34.066  21.008  24.373  1.00  0.00     0.078 A 
ATOM     93  C   UNL A   1      32.677  19.552  23.163  1.00  0.00     0.011 A 
ATOM     94  C   UNL A   1      33.631  19.624  24.159  1.00  0.00    -0.019 A 
ATOM     95  C   UNL A   1      32.139  18.305  22.540  1.00  0.00     0.047 C 
ATOM     96  C   UNL A   1      34.088  18.363  24.837  1.00  0.00     0.037 C 
ATOM     97  C   UNL A   1      32.242  17.148  23.531  1.00  0.00     0.006 C 
ATOM     98  C   UNL A   1      33.648  17.069  24.129  1.00  0.00     0.005 C 
BRANCH  92  99
ATOM     99  C   UNL A   1      35.039  21.551  25.349  1.00  0.00     0.257 C 
ATOM    100  O   UNL A   1      34.845  21.494  26.568  1.00  0.00    -0.269 OA
ATOM    101  N   UNL A   1      36.277  21.937  24.853  1.00  0.00    -0.339 N 
ATOM    102  C   UNL A   1      37.443  21.159  25.250  1.00  0.00     0.120 C 
ATOM    103  C   UNL A   1      36.510  23.313  24.433  1.00  0.00     0.120 C 
ATOM    104  C   UNL A   1      38.373  21.921  26.192  1.00  0.00     0.022 C 
ATOM    105  C   UNL A   1      37.446  24.080  25.362  1.00  0.00     0.022 C 
ATOM    106  C   UNL A   1      38.724  23.291  25.619  1.00  0.00     0.004 C 
ENDBRANCH  92  99
ENDBRANCH  88  90
ENDBRANCH  82  86
ENDBRANCH  77  80
ENDBRANCH  75  76
ENDBRANCH  74  75
ENDBRANCH  73  74
ENDBRANCH   1  73
TORSDOF 19
ENDMDL
MODEL 3
REMARK VINA RESULT:     -11.3      0.739      7.320
REMARK SMILES O=C(NCCCCCCNC(=O)[C@@H]1CC=CC[C@@H]1C(=O)Nc1sc2c(c1C(=O)N1CCCCC1)CCCC2)c1ccc(-c2c3nc(c(-c4cc(S(=O)(=O)[O-])ccc4F)c4ccc([nH]4)c(-c4cc(S(=O)(=O)[O-])ccc4F)c4nc(c(-c5cc(S(=O)(=O)[O-])ccc5F)c5ccc2[nH]5)C=C4)C=C3)cc1
REMARK SMILES IDX 6 1 5 2 4 3 3 4 1 5 2 6 39 8 40 9 101 10 41 11 100 12 42 13
REMARK SMILES IDX 43 14 44 15 94 16 45 17 99 18 93 19 95 20 46 21 98 22 92 23
REMARK SMILES IDX 91 24 47 26 79 27 59 28 78 29 60 30 63 31 77 32 96 33 61 34
REMARK SMILES IDX 62 35 76 37 97 38 64 39 48 40 49 41 57 42 50 43 56 44 58 45
REMARK SMILES IDX 55 46 51 47 52 48 53 49 54 50 80 51 81 52 89 53 82 54 88 55
REMARK SMILES IDX 90 56 87 57 83 58 84 59 85 60 86 61 65 62 66 63 74 64 67 65
REMARK SMILES IDX 73 66 75 67 72 68 68 69 69 70 70 71 71 72 7 73 8 74 9 75
REMARK SMILES IDX 10 76 11 77 12 79 13 80 14 81 18 82 15 83 17 84 16 85 19 86
REMARK SMILES IDX 20 87 21 88 22 90 23 91 26 92 24 93 25 94 38 95 35 96 37 97
REMARK SMILES IDX 36 98 27 99 28 100 29 101 30 102 34 103 31 104 33 105 32 106
REMARK H PARENT 3 7 95 25 63 36 10 78 21 89
REMARK Flexibility Score: inf
ROOT
ATOM      1  C   UNL A   1      40.139  21.814  26.722  1.00  0.00     0.002 C 
ENDROOT
BRANCH   1   2
ATOM      2  C   UNL A   1      40.423  20.323  26.552  1.00  0.00     0.021 C 
BRANCH   2   3
ATOM      3  C   UNL A   1      41.782  19.879  27.074  1.00  0.00     0.116 C 
BRANCH   3   4
ATOM      4  N   UNL A   1      42.616  19.294  26.034  1.00  0.00    -0.352 N 
ATOM      5  O   UNL A   1      44.056  19.330  24.293  1.00  0.00    -0.269 OA
ATOM      6  C   UNL A   1      43.541  19.922  25.235  1.00  0.00     0.251 C 
ATOM      7  H   UNL A   1      42.502  18.327  25.886  1.00  0.00     0.163 HD
BRANCH   6   8
ATOM      8  C   UNL A   1      43.883  21.332  25.517  1.00  0.00     0.039 A 
ATOM      9  C   UNL A   1      44.776  21.643  26.546  1.00  0.00     0.014 A 
ATOM     10  C   UNL A   1      43.269  22.349  24.783  1.00  0.00     0.014 A 
ATOM     11  C   UNL A   1      44.935  22.965  26.940  1.00  0.00     0.010 A 
ATOM     12  C   UNL A   1      43.509  23.684  25.120  1.00  0.00     0.010 A 
ATOM     13  C   UNL A   1      44.318  24.003  26.222  1.00  0.00    -0.014 A 
BRANCH  13  14
ATOM     14  C   UNL A   1      44.578  25.411  26.624  1.00  0.00     0.031 A 
ATOM     15  C   UNL A   1      43.516  26.244  27.286  1.00  0.00     0.074 A 
ATOM     16  C   UNL A   1      45.809  25.918  26.417  1.00  0.00     0.049 A 
ATOM     17  N   UNL A   1      43.588  27.475  27.724  1.00  0.00    -0.248 NA
ATOM     18  C   UNL A   1      42.198  25.619  27.470  1.00  0.00     0.031 C 
ATOM     19  C   UNL A   1      46.917  25.200  25.780  1.00  0.00     0.029 A 
ATOM     20  N   UNL A   1      46.349  27.136  26.739  1.00  0.00    -0.354 N 
ATOM     21  C   UNL A   1      42.322  27.784  28.215  1.00  0.00     0.074 A 
ATOM     22  C   UNL A   1      41.495  26.617  27.987  1.00  0.00     0.031 C 
ATOM     23  C   UNL A   1      48.017  25.963  25.818  1.00  0.00     0.029 A 
ATOM     24  C   UNL A   1      47.678  27.253  26.406  1.00  0.00     0.049 A 
ATOM     25  H   UNL A   1      45.834  27.857  27.168  1.00  0.00     0.167 HD
ATOM     26  C   UNL A   1      41.897  28.932  28.804  1.00  0.00     0.034 A 
ATOM     27  C   UNL A   1      48.528  28.288  26.540  1.00  0.00     0.034 A 
ATOM     28  C   UNL A   1      42.745  30.082  29.026  1.00  0.00     0.049 A 
ATOM     29  C   UNL A   1      48.019  29.560  27.159  1.00  0.00     0.074 A 
ATOM     30  C   UNL A   1      42.431  31.278  29.648  1.00  0.00     0.029 A 
ATOM     31  N   UNL A   1      44.073  30.187  28.622  1.00  0.00    -0.354 N 
ATOM     32  N   UNL A   1      46.826  29.828  27.637  1.00  0.00    -0.248 NA
ATOM     33  C   UNL A   1      48.974  30.669  27.257  1.00  0.00     0.031 C 
ATOM     34  C   UNL A   1      43.538  32.129  29.554  1.00  0.00     0.029 A 
ATOM     35  C   UNL A   1      44.576  31.439  28.948  1.00  0.00     0.049 A 
ATOM     36  H   UNL A   1      44.581  29.475  28.170  1.00  0.00     0.167 HD
ATOM     37  C   UNL A   1      46.896  31.132  28.118  1.00  0.00     0.074 A 
ATOM     38  C   UNL A   1      48.254  31.584  27.889  1.00  0.00     0.031 C 
ATOM     39  C   UNL A   1      45.927  31.886  28.696  1.00  0.00     0.034 A 
BRANCH  26  40
ATOM     40  C   UNL A   1      40.440  29.015  29.197  1.00  0.00     0.023 A 
ATOM     41  C   UNL A   1      40.020  28.921  30.536  1.00  0.00     0.031 A 
ATOM     42  C   UNL A   1      39.447  29.166  28.211  1.00  0.00     0.131 A 
ATOM     43  C   UNL A   1      38.650  28.897  30.844  1.00  0.00     0.055 A 
ATOM     44  C   UNL A   1      38.089  29.226  28.531  1.00  0.00     0.041 A 
ATOM     45  F   UNL A   1      39.780  29.241  26.912  1.00  0.00    -0.206 F 
ATOM     46  C   UNL A   1      37.682  29.075  29.853  1.00  0.00     0.022 A 
BRANCH  43  47
ATOM     47  S   UNL A   1      38.148  28.475  32.535  1.00  0.00     0.124 S 
ATOM     48  O   UNL A   1      38.172  27.014  32.497  1.00  0.00    -0.237 OA
ATOM     49  O   UNL A   1      39.186  29.108  33.341  1.00  0.00    -0.237 OA
ATOM     50  O   UNL A   1      36.816  29.064  32.656  1.00  0.00    -0.744 OA
ENDBRANCH  43  47
ENDBRANCH  26  40
BRANCH  27  51
ATOM     51  C   UNL A   1      49.934  28.171  26.064  1.00  0.00     0.023 A 
ATOM     52  C   UNL A   1      50.270  28.446  24.730  1.00  0.00     0.031 A 
ATOM     53  C   UNL A   1      50.962  27.760  26.932  1.00  0.00     0.131 A 
ATOM     54  C   UNL A   1      51.591  28.268  24.292  1.00  0.00     0.055 A 
ATOM     55  C   UNL A   1      52.285  27.639  26.506  1.00  0.00     0.041 A 
ATOM     56  F   UNL A   1      50.695  27.490  28.221  1.00  0.00    -0.206 F 
ATOM     57  C   UNL A   1      52.603  27.882  25.174  1.00  0.00     0.022 A 
BRANCH  54  58
ATOM     58  S   UNL A   1      51.953  28.471  22.527  1.00  0.00     0.124 S 
ATOM     59  O   UNL A   1      53.396  28.678  22.542  1.00  0.00    -0.237 OA
ATOM     60  O   UNL A   1      51.491  27.201  21.976  1.00  0.00    -0.237 OA
ATOM     61  O   UNL A   1      51.158  29.638  22.149  1.00  0.00    -0.744 OA
ENDBRANCH  54  58
ENDBRANCH  27  51
BRANCH  39  62
ATOM     62  C   UNL A   1      46.330  33.265  29.160  1.00  0.00     0.023 A 
ATOM     63  C   UNL A   1      46.184  34.395  28.335  1.00  0.00     0.031 A 
ATOM     64  C   UNL A   1      46.907  33.444  30.430  1.00  0.00     0.131 A 
ATOM     65  C   UNL A   1      46.675  35.639  28.761  1.00  0.00     0.055 A 
ATOM     66  C   UNL A   1      47.332  34.696  30.874  1.00  0.00     0.041 A 
ATOM     67  F   UNL A   1      47.075  32.400  31.257  1.00  0.00    -0.206 F 
ATOM     68  C   UNL A   1      47.233  35.800  30.032  1.00  0.00     0.022 A 
BRANCH  65  69
ATOM     69  S   UNL A   1      46.681  37.021  27.585  1.00  0.00     0.124 S 
ATOM     70  O   UNL A   1      45.258  37.199  27.320  1.00  0.00    -0.237 OA
ATOM     71  O   UNL A   1      47.325  38.081  28.354  1.00  0.00    -0.237 OA
ATOM     72  O   UNL A   1      47.464  36.510  26.460  1.00  0.00    -0.744 OA
ENDBRANCH  65  69
ENDBRANCH  39  62
ENDBRANCH  13  14
ENDBRANCH   6   8
ENDBRANCH   3   4
ENDBRANCH   2   3
ENDBRANCH   1   2
BRANCH   1  73
ATOM     73  C   UNL A   1      38.844  22.297  26.060  1.00  0.00     0.002 C 
BRANCH  73  74
ATOM     74  C   UNL A   1      38.364  23.685  26.512  1.00  0.00     0.021 C 
BRANCH  74  75
ATOM     75  C   UNL A   1      36.907  23.977  26.157  1.00  0.00     0.116 C 
BRANCH  75  76
ATOM     76  N   UNL A   1      36.749  23.892  24.719  1.00  0.00    -0.356 N 
ATOM     77  C   UNL A   1      36.038  22.968  24.014  1.00  0.00     0.224 C 
ATOM     78  H   UNL A   1      37.209  24.582  24.189  1.00  0.00     0.163 HD
ATOM     79  O   UNL A   1      36.468  22.629  22.914  1.00  0.00    -0.275 OA
BRANCH  77  80
ATOM     80  C   UNL A   1      34.751  22.427  24.614  1.00  0.00     0.095 C 
ATOM     81  C   UNL A   1      34.461  21.097  23.912  1.00  0.00     0.041 C 
ATOM     82  C   UNL A   1      33.575  23.434  24.603  1.00  0.00     0.095 C 
ATOM     83  C   UNL A   1      33.124  20.530  24.259  1.00  0.00    -0.030 C 
ATOM     84  C   UNL A   1      32.229  22.756  24.976  1.00  0.00     0.041 C 
ATOM     85  C   UNL A   1      32.127  21.278  24.743  1.00  0.00    -0.030 C 
BRANCH  82  86
ATOM     86  C   UNL A   1      33.431  24.284  23.336  1.00  0.00     0.229 C 
ATOM     87  O   UNL A   1      33.594  23.748  22.230  1.00  0.00    -0.274 OA
ATOM     88  N   UNL A   1      33.097  25.615  23.320  1.00  0.00    -0.317 N 
ATOM     89  H   UNL A   1      32.906  25.941  22.411  1.00  0.00     0.170 HD
BRANCH  88  90
ATOM     90  C   UNL A   1      32.962  26.613  24.280  1.00  0.00     0.108 A 
ATOM     91  S   UNL A   1      33.882  26.624  25.699  1.00  0.00    -0.122 S 
ATOM     92  C   UNL A   1      32.065  27.694  24.249  1.00  0.00     0.078 A 
ATOM     93  C   UNL A   1      33.521  28.233  26.011  1.00  0.00     0.011 A 
ATOM     94  C   UNL A   1      32.438  28.673  25.276  1.00  0.00    -0.019 A 
ATOM     95  C   UNL A   1      34.297  29.030  27.009  1.00  0.00     0.047 C 
ATOM     96  C   UNL A   1      31.833  30.014  25.583  1.00  0.00     0.037 C 
ATOM     97  C   UNL A   1      33.405  30.114  27.609  1.00  0.00     0.006 C 
ATOM     98  C   UNL A   1      32.688  30.898  26.508  1.00  0.00     0.005 C 
BRANCH  92  99
ATOM     99  C   UNL A   1      30.961  27.735  23.264  1.00  0.00     0.257 C 
ATOM    100  O   UNL A   1      30.729  26.791  22.501  1.00  0.00    -0.269 OA
ATOM    101  N   UNL A   1      30.060  28.786  23.373  1.00  0.00    -0.339 N 
ATOM    102  C   UNL A   1      28.695  28.475  23.775  1.00  0.00     0.120 C 
ATOM    103  C   UNL A   1      30.266  30.017  22.620  1.00  0.00     0.120 C 
ATOM    104  C   UNL A   1      27.686  28.659  22.642  1.00  0.00     0.022 C 
ATOM    105  C   UNL A   1      29.257  30.216  21.493  1.00  0.00     0.022 C 
ATOM    106  C   UNL A   1      27.832  30.036  22.002  1.00  0.00     0.004 C 
ENDBRANCH  92  99
ENDBRANCH  88  90
ENDBRANCH  82  86
ENDBRANCH  77  80
ENDBRANCH  75  76
ENDBRANCH  74  75
ENDBRANCH  73  74
ENDBRANCH   1  73
TORSDOF 19
ENDMDL
