MODEL 1
REMARK VINA RESULT:     -11.0      0.000      0.000
REMARK SMILES COC(=O)[C@H]1Sc2nnc(CCC(=O)NCCCCCCNC(=O)c3ccc(-c4c5nc(c(-c6cc(S(=O)(=O)[O-])ccc6F)c6ccc([nH]6)c(-c6cc(S(=O)(=O)[O-])ccc6F)c6nc(c(-c7cc(S(=O)(=O)[O-])ccc7F)c7ccc4[nH]7)C=C6)C=C5)cc3)c(=O)n2N=C1C
REMARK SMILES IDX 18 1 17 2 16 3 15 4 13 5 14 6 12 8 11 9 10 10 5 11 6 12
REMARK SMILES IDX 92 13 7 14 91 15 93 16 8 17 90 18 9 19 88 20 89 21 3 22 4 23
REMARK SMILES IDX 2 24 1 25 19 26 20 27 21 28 22 29 23 30 24 32 25 33 26 34
REMARK SMILES IDX 87 35 27 36 86 37 28 38 29 39 30 40 80 41 31 42 85 43 79 44
REMARK SMILES IDX 81 45 32 46 84 47 78 48 77 49 33 51 65 52 45 53 64 54 46 55
REMARK SMILES IDX 49 56 63 57 82 58 47 59 48 60 62 62 83 63 50 64 34 65 35 66
REMARK SMILES IDX 43 67 36 68 42 69 44 70 41 71 37 72 38 73 39 74 40 75 66 76
REMARK SMILES IDX 67 77 75 78 68 79 74 80 76 81 73 82 69 83 70 84 71 85 72 86
REMARK SMILES IDX 51 87 52 88 60 89 53 90 59 91 61 92 58 93 54 94 55 95 56 96
REMARK SMILES IDX 57 97
REMARK H PARENT 15 7 22 31 81 50 49 61
REMARK Flexibility Score: inf
ROOT
ATOM      1  C   UNL A   1      33.943  23.547  22.509  1.00  0.00     0.002 C 
ENDROOT
BRANCH   1   2
ATOM      2  C   UNL A   1      32.936  24.700  22.515  1.00  0.00     0.021 C 
BRANCH   2   3
ATOM      3  C   UNL A   1      33.256  25.977  21.735  1.00  0.00     0.116 C 
BRANCH   3   4
ATOM      4  N   UNL A   1      32.189  26.965  21.868  1.00  0.00    -0.356 N 
ATOM      5  C   UNL A   1      32.040  28.036  22.697  1.00  0.00     0.220 C 
ATOM      6  O   UNL A   1      30.984  28.671  22.641  1.00  0.00    -0.275 OA
ATOM      7  H   UNL A   1      31.440  26.831  21.243  1.00  0.00     0.163 HD
BRANCH   5   8
ATOM      8  C   UNL A   1      33.138  28.467  23.652  1.00  0.00     0.106 C 
BRANCH   8   9
ATOM      9  C   UNL A   1      32.704  28.393  25.113  1.00  0.00     0.074 C 
BRANCH   9  10
ATOM     10  C   UNL A   1      32.919  27.008  25.671  1.00  0.00     0.131 A 
ATOM     11  C   UNL A   1      31.713  22.170  26.483  1.00  0.00     0.210 C 
ATOM     12  S   UNL A   1      33.300  22.830  27.069  1.00  0.00    -0.063 SA
ATOM     13  C   UNL A   1      30.621  23.134  26.906  1.00  0.00     0.061 C 
ATOM     14  C   UNL A   1      33.112  24.452  26.436  1.00  0.00     0.214 A 
ATOM     15  N   UNL A   1      30.729  24.423  26.975  1.00  0.00    -0.171 NA
ATOM     16  C   UNL A   1      29.243  22.621  27.255  1.00  0.00     0.065 C 
ATOM     17  N   UNL A   1      34.140  25.043  25.919  1.00  0.00    -0.123 NA
ATOM     18  N   UNL A   1      31.888  25.048  26.602  1.00  0.00    -0.169 N 
ATOM     19  N   UNL A   1      34.000  26.343  25.400  1.00  0.00    -0.147 NA
ATOM     20  C   UNL A   1      31.805  26.415  26.476  1.00  0.00     0.296 A 
ATOM     21  O   UNL A   1      30.932  27.153  26.921  1.00  0.00    -0.265 OA
BRANCH  11  22
ATOM     22  C   UNL A   1      31.864  21.906  24.994  1.00  0.00     0.325 C 
ATOM     23  O   UNL A   1      31.178  22.417  24.121  1.00  0.00    -0.250 OA
BRANCH  22  24
ATOM     24  O   UNL A   1      32.910  21.067  24.759  1.00  0.00    -0.468 OA
ATOM     25  C   UNL A   1      32.611  19.748  24.274  1.00  0.00     0.282 C 
ENDBRANCH  22  24
ENDBRANCH  11  22
ENDBRANCH   9  10
ENDBRANCH   8   9
ENDBRANCH   5   8
ENDBRANCH   3   4
ENDBRANCH   2   3
ENDBRANCH   1   2
BRANCH   1  26
ATOM     26  C   UNL A   1      35.251  23.663  23.316  1.00  0.00     0.002 C 
BRANCH  26  27
ATOM     27  C   UNL A   1      35.995  22.419  23.838  1.00  0.00     0.021 C 
BRANCH  27  28
ATOM     28  C   UNL A   1      36.710  22.440  25.197  1.00  0.00     0.116 C 
BRANCH  28  29
ATOM     29  N   UNL A   1      37.654  21.372  25.457  1.00  0.00    -0.352 N 
ATOM     30  C   UNL A   1      38.912  21.445  26.032  1.00  0.00     0.251 C 
ATOM     31  H   UNL A   1      37.361  20.471  25.189  1.00  0.00     0.163 HD
ATOM     32  O   UNL A   1      39.585  20.423  26.139  1.00  0.00    -0.269 OA
BRANCH  30  33
ATOM     33  C   UNL A   1      39.481  22.737  26.510  1.00  0.00     0.039 A 
ATOM     34  C   UNL A   1      40.437  22.734  27.526  1.00  0.00     0.014 A 
ATOM     35  C   UNL A   1      39.002  23.964  26.048  1.00  0.00     0.014 A 
ATOM     36  C   UNL A   1      40.953  23.946  28.020  1.00  0.00     0.010 A 
ATOM     37  C   UNL A   1      39.547  25.176  26.511  1.00  0.00     0.010 A 
ATOM     38  C   UNL A   1      40.542  25.187  27.499  1.00  0.00    -0.014 A 
BRANCH  38  39
ATOM     39  C   UNL A   1      41.183  26.460  27.967  1.00  0.00     0.031 A 
ATOM     40  C   UNL A   1      42.632  26.783  27.688  1.00  0.00     0.074 A 
ATOM     41  C   UNL A   1      40.449  27.362  28.655  1.00  0.00     0.049 A 
ATOM     42  N   UNL A   1      43.295  27.887  27.946  1.00  0.00    -0.248 NA
ATOM     43  C   UNL A   1      43.442  25.738  27.049  1.00  0.00     0.031 C 
ATOM     44  C   UNL A   1      39.048  27.190  29.038  1.00  0.00     0.029 A 
ATOM     45  N   UNL A   1      40.769  28.612  29.137  1.00  0.00    -0.354 N 
ATOM     46  C   UNL A   1      44.589  27.681  27.480  1.00  0.00     0.074 A 
ATOM     47  C   UNL A   1      44.635  26.318  26.989  1.00  0.00     0.031 C 
ATOM     48  C   UNL A   1      38.619  28.301  29.655  1.00  0.00     0.029 A 
ATOM     49  C   UNL A   1      39.714  29.263  29.734  1.00  0.00     0.049 A 
ATOM     50  H   UNL A   1      41.670  29.002  29.062  1.00  0.00     0.167 HD
ATOM     51  C   UNL A   1      45.633  28.547  27.429  1.00  0.00     0.034 A 
ATOM     52  C   UNL A   1      39.617  30.497  30.272  1.00  0.00     0.034 A 
ATOM     53  C   UNL A   1      45.601  29.909  27.910  1.00  0.00     0.049 A 
ATOM     54  C   UNL A   1      40.801  31.426  30.252  1.00  0.00     0.074 A 
ATOM     55  C   UNL A   1      46.596  30.871  27.833  1.00  0.00     0.029 A 
ATOM     56  N   UNL A   1      44.533  30.502  28.565  1.00  0.00    -0.354 N 
ATOM     57  N   UNL A   1      41.997  31.225  29.755  1.00  0.00    -0.248 NA
ATOM     58  C   UNL A   1      40.617  32.754  30.859  1.00  0.00     0.031 C 
ATOM     59  C   UNL A   1      46.156  32.020  28.499  1.00  0.00     0.029 A 
ATOM     60  C   UNL A   1      44.860  31.801  28.932  1.00  0.00     0.049 A 
ATOM     61  H   UNL A   1      43.668  30.066  28.745  1.00  0.00     0.167 HD
ATOM     62  C   UNL A   1      42.701  32.408  29.969  1.00  0.00     0.074 A 
ATOM     63  C   UNL A   1      41.797  33.319  30.637  1.00  0.00     0.031 C 
ATOM     64  C   UNL A   1      43.977  32.708  29.626  1.00  0.00     0.034 A 
BRANCH  51  65
ATOM     65  C   UNL A   1      46.923  28.053  26.820  1.00  0.00     0.023 A 
ATOM     66  C   UNL A   1      47.132  28.088  25.431  1.00  0.00     0.031 A 
ATOM     67  C   UNL A   1      47.965  27.574  27.634  1.00  0.00     0.131 A 
ATOM     68  C   UNL A   1      48.334  27.607  24.892  1.00  0.00     0.055 A 
ATOM     69  C   UNL A   1      49.185  27.158  27.096  1.00  0.00     0.041 A 
ATOM     70  F   UNL A   1      47.816  27.509  28.966  1.00  0.00    -0.206 F 
ATOM     71  C   UNL A   1      49.371  27.163  25.716  1.00  0.00     0.022 A 
BRANCH  68  72
ATOM     72  S   UNL A   1      48.485  27.479  23.090  1.00  0.00     0.124 S 
ATOM     73  O   UNL A   1      47.316  28.235  22.644  1.00  0.00    -0.237 OA
ATOM     74  O   UNL A   1      49.781  28.098  22.836  1.00  0.00    -0.237 OA
ATOM     75  O   UNL A   1      48.421  26.040  22.842  1.00  0.00    -0.744 OA
ENDBRANCH  68  72
ENDBRANCH  51  65
BRANCH  52  76
ATOM     76  C   UNL A   1      38.328  30.937  30.873  1.00  0.00     0.023 A 
ATOM     77  C   UNL A   1      37.377  31.634  30.111  1.00  0.00     0.031 A 
ATOM     78  C   UNL A   1      38.029  30.657  32.217  1.00  0.00     0.131 A 
ATOM     79  C   UNL A   1      36.176  32.046  30.708  1.00  0.00     0.055 A 
ATOM     80  C   UNL A   1      36.820  31.040  32.796  1.00  0.00     0.041 A 
ATOM     81  F   UNL A   1      38.904  29.979  32.977  1.00  0.00    -0.206 F 
ATOM     82  C   UNL A   1      35.886  31.743  32.041  1.00  0.00     0.022 A 
BRANCH  79  83
ATOM     83  S   UNL A   1      34.990  32.996  29.716  1.00  0.00     0.124 S 
ATOM     84  O   UNL A   1      34.325  31.943  28.959  1.00  0.00    -0.237 OA
ATOM     85  O   UNL A   1      34.190  33.652  30.745  1.00  0.00    -0.237 OA
ATOM     86  O   UNL A   1      35.843  33.889  28.934  1.00  0.00    -0.744 OA
ENDBRANCH  79  83
ENDBRANCH  52  76
BRANCH  64  87
ATOM     87  C   UNL A   1      44.486  34.089  29.954  1.00  0.00     0.023 A 
ATOM     88  C   UNL A   1      45.176  34.355  31.149  1.00  0.00     0.031 A 
ATOM     89  C   UNL A   1      44.310  35.145  29.042  1.00  0.00     0.131 A 
ATOM     90  C   UNL A   1      45.643  35.652  31.413  1.00  0.00     0.055 A 
ATOM     91  C   UNL A   1      44.814  36.423  29.290  1.00  0.00     0.041 A 
ATOM     92  F   UNL A   1      43.658  34.945  27.885  1.00  0.00    -0.206 F 
ATOM     93  C   UNL A   1      45.481  36.683  30.484  1.00  0.00     0.022 A 
BRANCH  90  94
ATOM     94  S   UNL A   1      46.442  35.989  33.007  1.00  0.00     0.124 S 
ATOM     95  O   UNL A   1      47.696  36.609  32.591  1.00  0.00    -0.237 OA
ATOM     96  O   UNL A   1      45.481  36.870  33.662  1.00  0.00    -0.237 OA
ATOM     97  O   UNL A   1      46.576  34.664  33.612  1.00  0.00    -0.744 OA
ENDBRANCH  90  94
ENDBRANCH  64  87
ENDBRANCH  38  39
ENDBRANCH  30  33
ENDBRANCH  28  29
ENDBRANCH  27  28
ENDBRANCH  26  27
ENDBRANCH   1  26
TORSDOF 20
ENDMDL
MODEL 2
REMARK VINA RESULT:     -10.4      1.106      7.386
REMARK SMILES COC(=O)[C@H]1Sc2nnc(CCC(=O)NCCCCCCNC(=O)c3ccc(-c4c5nc(c(-c6cc(S(=O)(=O)[O-])ccc6F)c6ccc([nH]6)c(-c6cc(S(=O)(=O)[O-])ccc6F)c6nc(c(-c7cc(S(=O)(=O)[O-])ccc7F)c7ccc4[nH]7)C=C6)C=C5)cc3)c(=O)n2N=C1C
REMARK SMILES IDX 18 1 17 2 16 3 15 4 13 5 14 6 12 8 11 9 10 10 5 11 6 12
REMARK SMILES IDX 92 13 7 14 91 15 93 16 8 17 90 18 9 19 88 20 89 21 3 22 4 23
REMARK SMILES IDX 2 24 1 25 19 26 20 27 21 28 22 29 23 30 24 32 25 33 26 34
REMARK SMILES IDX 87 35 27 36 86 37 28 38 29 39 30 40 80 41 31 42 85 43 79 44
REMARK SMILES IDX 81 45 32 46 84 47 78 48 77 49 33 51 65 52 45 53 64 54 46 55
REMARK SMILES IDX 49 56 63 57 82 58 47 59 48 60 62 62 83 63 50 64 34 65 35 66
REMARK SMILES IDX 43 67 36 68 42 69 44 70 41 71 37 72 38 73 39 74 40 75 66 76
REMARK SMILES IDX 67 77 75 78 68 79 74 80 76 81 73 82 69 83 70 84 71 85 72 86
REMARK SMILES IDX 51 87 52 88 60 89 53 90 59 91 61 92 58 93 54 94 55 95 56 96
REMARK SMILES IDX 57 97
REMARK H PARENT 15 7 22 31 81 50 49 61
REMARK Flexibility Score: inf
ROOT
ATOM      1  C   UNL A   1      33.983  23.429  22.197  1.00  0.00     0.002 C 
ENDROOT
BRANCH   1   2
ATOM      2  C   UNL A   1      32.914  24.521  22.098  1.00  0.00     0.021 C 
BRANCH   2   3
ATOM      3  C   UNL A   1      33.347  25.983  21.974  1.00  0.00     0.116 C 
BRANCH   3   4
ATOM      4  N   UNL A   1      32.198  26.883  21.996  1.00  0.00    -0.356 N 
ATOM      5  C   UNL A   1      31.932  27.999  22.732  1.00  0.00     0.220 C 
ATOM      6  O   UNL A   1      30.829  28.535  22.595  1.00  0.00    -0.275 OA
ATOM      7  H   UNL A   1      31.485  26.639  21.363  1.00  0.00     0.163 HD
BRANCH   5   8
ATOM      8  C   UNL A   1      32.956  28.594  23.681  1.00  0.00     0.106 C 
BRANCH   8   9
ATOM      9  C   UNL A   1      32.543  28.464  25.144  1.00  0.00     0.074 C 
BRANCH   9  10
ATOM     10  C   UNL A   1      32.787  27.064  25.652  1.00  0.00     0.131 A 
ATOM     11  C   UNL A   1      31.659  22.187  26.329  1.00  0.00     0.210 C 
ATOM     12  S   UNL A   1      33.249  22.849  26.903  1.00  0.00    -0.063 SA
ATOM     13  C   UNL A   1      30.564  23.123  26.806  1.00  0.00     0.061 C 
ATOM     14  C   UNL A   1      33.028  24.487  26.328  1.00  0.00     0.214 A 
ATOM     15  N   UNL A   1      30.657  24.410  26.916  1.00  0.00    -0.171 NA
ATOM     16  C   UNL A   1      29.200  22.580  27.167  1.00  0.00     0.065 C 
ATOM     17  N   UNL A   1      34.037  25.108  25.809  1.00  0.00    -0.123 NA
ATOM     18  N   UNL A   1      31.800  25.062  26.539  1.00  0.00    -0.169 N 
ATOM     19  N   UNL A   1      33.870  26.423  25.336  1.00  0.00    -0.147 NA
ATOM     20  C   UNL A   1      31.698  26.431  26.460  1.00  0.00     0.296 A 
ATOM     21  O   UNL A   1      30.826  27.143  26.947  1.00  0.00    -0.265 OA
BRANCH  11  22
ATOM     22  C   UNL A   1      31.781  21.974  24.829  1.00  0.00     0.325 C 
ATOM     23  O   UNL A   1      31.140  22.580  23.983  1.00  0.00    -0.250 OA
BRANCH  22  24
ATOM     24  O   UNL A   1      32.747  21.056  24.552  1.00  0.00    -0.468 OA
ATOM     25  C   UNL A   1      32.538  19.709  25.006  1.00  0.00     0.282 C 
ENDBRANCH  22  24
ENDBRANCH  11  22
ENDBRANCH   9  10
ENDBRANCH   8   9
ENDBRANCH   5   8
ENDBRANCH   3   4
ENDBRANCH   2   3
ENDBRANCH   1   2
BRANCH   1  26
ATOM     26  C   UNL A   1      35.027  23.474  23.329  1.00  0.00     0.002 C 
BRANCH  26  27
ATOM     27  C   UNL A   1      35.864  22.238  23.710  1.00  0.00     0.021 C 
BRANCH  27  28
ATOM     28  C   UNL A   1      36.368  22.038  25.148  1.00  0.00     0.116 C 
BRANCH  28  29
ATOM     29  N   UNL A   1      37.266  20.925  25.378  1.00  0.00    -0.352 N 
ATOM     30  C   UNL A   1      38.591  20.946  25.781  1.00  0.00     0.251 C 
ATOM     31  H   UNL A   1      36.882  20.030  25.227  1.00  0.00     0.163 HD
ATOM     32  O   UNL A   1      39.203  19.887  25.890  1.00  0.00    -0.269 OA
BRANCH  30  33
ATOM     33  C   UNL A   1      39.302  22.223  26.071  1.00  0.00     0.039 A 
ATOM     34  C   UNL A   1      38.624  23.435  25.931  1.00  0.00     0.014 A 
ATOM     35  C   UNL A   1      40.665  22.251  26.369  1.00  0.00     0.014 A 
ATOM     36  C   UNL A   1      39.292  24.652  26.158  1.00  0.00     0.010 A 
ATOM     37  C   UNL A   1      41.324  23.466  26.636  1.00  0.00     0.010 A 
ATOM     38  C   UNL A   1      40.644  24.689  26.546  1.00  0.00    -0.014 A 
BRANCH  38  39
ATOM     39  C   UNL A   1      41.305  25.993  26.884  1.00  0.00     0.031 A 
ATOM     40  C   UNL A   1      40.620  27.052  27.715  1.00  0.00     0.074 A 
ATOM     41  C   UNL A   1      42.559  26.237  26.446  1.00  0.00     0.049 A 
ATOM     42  N   UNL A   1      41.105  28.185  28.167  1.00  0.00    -0.248 NA
ATOM     43  C   UNL A   1      39.216  26.819  28.076  1.00  0.00     0.031 C 
ATOM     44  C   UNL A   1      43.347  25.337  25.605  1.00  0.00     0.029 A 
ATOM     45  N   UNL A   1      43.402  27.305  26.661  1.00  0.00    -0.354 N 
ATOM     46  C   UNL A   1      40.077  28.788  28.886  1.00  0.00     0.074 A 
ATOM     47  C   UNL A   1      38.920  27.926  28.747  1.00  0.00     0.031 C 
ATOM     48  C   UNL A   1      44.565  25.865  25.411  1.00  0.00     0.029 A 
ATOM     49  C   UNL A   1      44.646  27.154  26.093  1.00  0.00     0.049 A 
ATOM     50  H   UNL A   1      43.138  28.103  27.173  1.00  0.00     0.167 HD
ATOM     51  C   UNL A   1      40.096  29.928  29.623  1.00  0.00     0.034 A 
ATOM     52  C   UNL A   1      45.742  27.941  26.122  1.00  0.00     0.034 A 
ATOM     53  C   UNL A   1      41.242  30.794  29.775  1.00  0.00     0.049 A 
ATOM     54  C   UNL A   1      45.728  29.227  26.903  1.00  0.00     0.074 A 
ATOM     55  C   UNL A   1      41.362  31.932  30.559  1.00  0.00     0.029 A 
ATOM     56  N   UNL A   1      42.459  30.634  29.129  1.00  0.00    -0.354 N 
ATOM     57  N   UNL A   1      44.760  29.745  27.619  1.00  0.00    -0.248 NA
ATOM     58  C   UNL A   1      46.961  30.031  26.886  1.00  0.00     0.031 C 
ATOM     59  C   UNL A   1      42.623  32.494  30.335  1.00  0.00     0.029 A 
ATOM     60  C   UNL A   1      43.317  31.672  29.465  1.00  0.00     0.049 A 
ATOM     61  H   UNL A   1      42.681  29.893  28.520  1.00  0.00     0.167 HD
ATOM     62  C   UNL A   1      45.274  30.923  28.156  1.00  0.00     0.074 A 
ATOM     63  C   UNL A   1      46.638  31.040  27.684  1.00  0.00     0.031 C 
ATOM     64  C   UNL A   1      44.668  31.815  28.977  1.00  0.00     0.034 A 
BRANCH  51  65
ATOM     65  C   UNL A   1      38.827  30.317  30.341  1.00  0.00     0.023 A 
ATOM     66  C   UNL A   1      37.921  31.231  29.776  1.00  0.00     0.031 A 
ATOM     67  C   UNL A   1      38.500  29.745  31.583  1.00  0.00     0.131 A 
ATOM     68  C   UNL A   1      36.758  31.586  30.474  1.00  0.00     0.055 A 
ATOM     69  C   UNL A   1      37.307  30.052  32.242  1.00  0.00     0.041 A 
ATOM     70  F   UNL A   1      39.332  28.873  32.174  1.00  0.00    -0.206 F 
ATOM     71  C   UNL A   1      36.433  30.985  31.692  1.00  0.00     0.022 A 
BRANCH  68  72
ATOM     72  S   UNL A   1      35.722  32.916  29.809  1.00  0.00     0.124 S 
ATOM     73  O   UNL A   1      36.511  33.356  28.661  1.00  0.00    -0.237 OA
ATOM     74  O   UNL A   1      34.476  32.224  29.500  1.00  0.00    -0.237 OA
ATOM     75  O   UNL A   1      35.647  33.875  30.910  1.00  0.00    -0.744 OA
ENDBRANCH  68  72
ENDBRANCH  51  65
BRANCH  52  76
ATOM     76  C   UNL A   1      46.968  27.521  25.389  1.00  0.00     0.023 A 
ATOM     77  C   UNL A   1      47.134  27.823  24.029  1.00  0.00     0.031 A 
ATOM     78  C   UNL A   1      47.992  26.818  26.045  1.00  0.00     0.131 A 
ATOM     79  C   UNL A   1      48.296  27.404  23.361  1.00  0.00     0.055 A 
ATOM     80  C   UNL A   1      49.159  26.432  25.386  1.00  0.00     0.041 A 
ATOM     81  F   UNL A   1      47.881  26.522  27.351  1.00  0.00    -0.206 F 
ATOM     82  C   UNL A   1      49.313  26.721  24.033  1.00  0.00     0.022 A 
BRANCH  79  83
ATOM     83  S   UNL A   1      48.458  27.757  21.589  1.00  0.00     0.124 S 
ATOM     84  O   UNL A   1      47.123  28.242  21.259  1.00  0.00    -0.237 OA
ATOM     85  O   UNL A   1      49.526  28.751  21.574  1.00  0.00    -0.237 OA
ATOM     86  O   UNL A   1      48.814  26.460  21.017  1.00  0.00    -0.744 OA
ENDBRANCH  79  83
ENDBRANCH  52  76
BRANCH  64  87
ATOM     87  C   UNL A   1      45.472  33.004  29.438  1.00  0.00     0.023 A 
ATOM     88  C   UNL A   1      46.226  32.968  30.623  1.00  0.00     0.031 A 
ATOM     89  C   UNL A   1      45.516  34.176  28.660  1.00  0.00     0.131 A 
ATOM     90  C   UNL A   1      46.971  34.093  31.013  1.00  0.00     0.055 A 
ATOM     91  C   UNL A   1      46.293  35.275  29.030  1.00  0.00     0.041 A 
ATOM     92  F   UNL A   1      44.816  34.263  27.518  1.00  0.00    -0.206 F 
ATOM     93  C   UNL A   1      47.022  35.239  30.215  1.00  0.00     0.022 A 
BRANCH  90  94
ATOM     94  S   UNL A   1      47.852  34.054  32.598  1.00  0.00     0.124 S 
ATOM     95  O   UNL A   1      46.780  33.725  33.532  1.00  0.00    -0.237 OA
ATOM     96  O   UNL A   1      48.850  33.011  32.380  1.00  0.00    -0.237 OA
ATOM     97  O   UNL A   1      48.392  35.407  32.726  1.00  0.00    -0.744 OA
ENDBRANCH  90  94
ENDBRANCH  64  87
ENDBRANCH  38  39
ENDBRANCH  30  33
ENDBRANCH  28  29
ENDBRANCH  27  28
ENDBRANCH  26  27
ENDBRANCH   1  26
TORSDOF 20
ENDMDL
MODEL 3
REMARK VINA RESULT:     -10.3      7.617     16.510
REMARK SMILES COC(=O)[C@H]1Sc2nnc(CCC(=O)NCCCCCCNC(=O)c3ccc(-c4c5nc(c(-c6cc(S(=O)(=O)[O-])ccc6F)c6ccc([nH]6)c(-c6cc(S(=O)(=O)[O-])ccc6F)c6nc(c(-c7cc(S(=O)(=O)[O-])ccc7F)c7ccc4[nH]7)C=C6)C=C5)cc3)c(=O)n2N=C1C
REMARK SMILES IDX 18 1 17 2 16 3 15 4 13 5 14 6 12 8 11 9 10 10 5 11 6 12
REMARK SMILES IDX 92 13 7 14 91 15 93 16 8 17 90 18 9 19 88 20 89 21 3 22 4 23
REMARK SMILES IDX 2 24 1 25 19 26 20 27 21 28 22 29 23 30 24 32 25 33 26 34
REMARK SMILES IDX 87 35 27 36 86 37 28 38 29 39 30 40 80 41 31 42 85 43 79 44
REMARK SMILES IDX 81 45 32 46 84 47 78 48 77 49 33 51 65 52 45 53 64 54 46 55
REMARK SMILES IDX 49 56 63 57 82 58 47 59 48 60 62 62 83 63 50 64 34 65 35 66
REMARK SMILES IDX 43 67 36 68 42 69 44 70 41 71 37 72 38 73 39 74 40 75 66 76
REMARK SMILES IDX 67 77 75 78 68 79 74 80 76 81 73 82 69 83 70 84 71 85 72 86
REMARK SMILES IDX 51 87 52 88 60 89 53 90 59 91 61 92 58 93 54 94 55 95 56 96
REMARK SMILES IDX 57 97
REMARK H PARENT 15 7 22 31 81 50 49 61
REMARK Flexibility Score: inf
ROOT
ATOM      1  C   UNL A   1      42.622  40.832  27.460  1.00  0.00     0.002 C 
ENDROOT
BRANCH   1   2
ATOM      2  C   UNL A   1      43.113  40.667  26.020  1.00  0.00     0.021 C 
BRANCH   2   3
ATOM      3  C   UNL A   1      43.227  41.901  25.122  1.00  0.00     0.116 C 
BRANCH   3   4
ATOM      4  N   UNL A   1      42.019  42.094  24.325  1.00  0.00    -0.356 N 
ATOM      5  C   UNL A   1      41.812  42.699  23.121  1.00  0.00     0.220 C 
ATOM      6  O   UNL A   1      40.654  42.783  22.705  1.00  0.00    -0.275 OA
ATOM      7  H   UNL A   1      41.206  41.718  24.732  1.00  0.00     0.163 HD
BRANCH   5   8
ATOM      8  C   UNL A   1      42.961  43.240  22.290  1.00  0.00     0.106 C 
BRANCH   8   9
ATOM      9  C   UNL A   1      43.151  42.473  20.984  1.00  0.00     0.074 C 
BRANCH   9  10
ATOM     10  C   UNL A   1      43.826  43.333  19.945  1.00  0.00     0.131 A 
ATOM     11  C   UNL A   1      44.430  47.496  17.149  1.00  0.00     0.210 C 
ATOM     12  S   UNL A   1      45.631  46.139  17.044  1.00  0.00    -0.063 SA
ATOM     13  C   UNL A   1      43.040  46.900  17.035  1.00  0.00     0.061 C 
ATOM     14  C   UNL A   1      44.899  45.101  18.248  1.00  0.00     0.214 A 
ATOM     15  N   UNL A   1      42.665  45.750  17.498  1.00  0.00    -0.171 NA
ATOM     16  C   UNL A   1      41.927  47.677  16.369  1.00  0.00     0.065 C 
ATOM     17  N   UNL A   1      45.665  44.451  19.062  1.00  0.00    -0.123 NA
ATOM     18  N   UNL A   1      43.534  44.966  18.208  1.00  0.00    -0.169 N 
ATOM     19  N   UNL A   1      45.089  43.620  20.040  1.00  0.00    -0.147 NA
ATOM     20  C   UNL A   1      42.965  43.897  18.860  1.00  0.00     0.296 A 
ATOM     21  O   UNL A   1      41.859  43.404  18.659  1.00  0.00    -0.265 OA
BRANCH  11  22
ATOM     22  C   UNL A   1      44.747  48.274  18.415  1.00  0.00     0.325 C 
ATOM     23  O   UNL A   1      45.868  48.424  18.880  1.00  0.00    -0.250 OA
BRANCH  22  24
ATOM     24  O   UNL A   1      43.619  48.834  18.931  1.00  0.00    -0.468 OA
ATOM     25  C   UNL A   1      43.503  50.265  18.884  1.00  0.00     0.282 C 
ENDBRANCH  22  24
ENDBRANCH  11  22
ENDBRANCH   9  10
ENDBRANCH   8   9
ENDBRANCH   5   8
ENDBRANCH   3   4
ENDBRANCH   2   3
ENDBRANCH   1   2
BRANCH   1  26
ATOM     26  C   UNL A   1      42.803  39.685  28.472  1.00  0.00     0.002 C 
BRANCH  26  27
ATOM     27  C   UNL A   1      43.875  38.596  28.280  1.00  0.00     0.021 C 
BRANCH  27  28
ATOM     28  C   UNL A   1      44.904  38.298  29.382  1.00  0.00     0.116 C 
BRANCH  28  29
ATOM     29  N   UNL A   1      46.289  38.185  28.972  1.00  0.00    -0.352 N 
ATOM     30  C   UNL A   1      47.004  37.050  28.629  1.00  0.00     0.251 C 
ATOM     31  H   UNL A   1      46.791  39.032  28.932  1.00  0.00     0.163 HD
ATOM     32  O   UNL A   1      48.193  37.153  28.338  1.00  0.00    -0.269 OA
BRANCH  30  33
ATOM     33  C   UNL A   1      46.373  35.700  28.619  1.00  0.00     0.039 A 
ATOM     34  C   UNL A   1      45.526  35.343  27.569  1.00  0.00     0.014 A 
ATOM     35  C   UNL A   1      46.514  34.818  29.692  1.00  0.00     0.014 A 
ATOM     36  C   UNL A   1      44.887  34.090  27.566  1.00  0.00     0.010 A 
ATOM     37  C   UNL A   1      45.909  33.547  29.670  1.00  0.00     0.010 A 
ATOM     38  C   UNL A   1      45.094  33.156  28.599  1.00  0.00    -0.014 A 
BRANCH  38  39
ATOM     39  C   UNL A   1      44.486  31.786  28.521  1.00  0.00     0.031 A 
ATOM     40  C   UNL A   1      43.178  31.446  29.195  1.00  0.00     0.074 A 
ATOM     41  C   UNL A   1      45.114  30.818  27.820  1.00  0.00     0.049 A 
ATOM     42  N   UNL A   1      42.484  30.333  29.133  1.00  0.00    -0.248 NA
ATOM     43  C   UNL A   1      42.575  32.475  30.053  1.00  0.00     0.031 C 
ATOM     44  C   UNL A   1      46.400  30.971  27.140  1.00  0.00     0.029 A 
ATOM     45  N   UNL A   1      44.749  29.519  27.543  1.00  0.00    -0.354 N 
ATOM     46  C   UNL A   1      41.354  30.534  29.919  1.00  0.00     0.074 A 
ATOM     47  C   UNL A   1      41.494  31.852  30.506  1.00  0.00     0.031 C 
ATOM     48  C   UNL A   1      46.696  29.833  26.493  1.00  0.00     0.029 A 
ATOM     49  C   UNL A   1      45.636  28.856  26.725  1.00  0.00     0.049 A 
ATOM     50  H   UNL A   1      43.931  29.103  27.899  1.00  0.00     0.167 HD
ATOM     51  C   UNL A   1      40.283  29.722  30.110  1.00  0.00     0.034 A 
ATOM     52  C   UNL A   1      45.606  27.613  26.199  1.00  0.00     0.034 A 
ATOM     53  C   UNL A   1      40.128  28.409  29.529  1.00  0.00     0.049 A 
ATOM     54  C   UNL A   1      44.434  26.708  26.464  1.00  0.00     0.074 A 
ATOM     55  C   UNL A   1      39.042  27.551  29.621  1.00  0.00     0.029 A 
ATOM     56  N   UNL A   1      41.080  27.755  28.762  1.00  0.00    -0.354 N 
ATOM     57  N   UNL A   1      43.353  26.945  27.166  1.00  0.00    -0.248 NA
ATOM     58  C   UNL A   1      44.475  25.368  25.857  1.00  0.00     0.031 C 
ATOM     59  C   UNL A   1      39.364  26.357  28.968  1.00  0.00     0.029 A 
ATOM     60  C   UNL A   1      40.622  26.492  28.409  1.00  0.00     0.049 A 
ATOM     61  H   UNL A   1      41.953  28.130  28.505  1.00  0.00     0.167 HD
ATOM     62  C   UNL A   1      42.576  25.794  27.066  1.00  0.00     0.074 A 
ATOM     63  C   UNL A   1      43.309  24.863  26.234  1.00  0.00     0.031 C 
ATOM     64  C   UNL A   1      41.358  25.544  27.607  1.00  0.00     0.034 A 
BRANCH  51  65
ATOM     65  C   UNL A   1      39.169  30.231  30.993  1.00  0.00     0.023 A 
ATOM     66  C   UNL A   1      38.118  31.001  30.467  1.00  0.00     0.031 A 
ATOM     67  C   UNL A   1      39.137  29.915  32.362  1.00  0.00     0.131 A 
ATOM     68  C   UNL A   1      37.105  31.473  31.314  1.00  0.00     0.055 A 
ATOM     69  C   UNL A   1      38.090  30.333  33.188  1.00  0.00     0.041 A 
ATOM     70  F   UNL A   1      40.119  29.191  32.920  1.00  0.00    -0.206 F 
ATOM     71  C   UNL A   1      37.071  31.126  32.666  1.00  0.00     0.022 A 
BRANCH  68  72
ATOM     72  S   UNL A   1      35.883  32.630  30.640  1.00  0.00     0.124 S 
ATOM     73  O   UNL A   1      35.878  32.260  29.226  1.00  0.00    -0.237 OA
ATOM     74  O   UNL A   1      34.679  32.294  31.392  1.00  0.00    -0.237 OA
ATOM     75  O   UNL A   1      36.455  33.943  30.932  1.00  0.00    -0.744 OA
ENDBRANCH  68  72
ENDBRANCH  51  65
BRANCH  52  76
ATOM     76  C   UNL A   1      46.734  27.151  25.344  1.00  0.00     0.023 A 
ATOM     77  C   UNL A   1      46.914  27.660  24.048  1.00  0.00     0.031 A 
ATOM     78  C   UNL A   1      47.651  26.199  25.819  1.00  0.00     0.131 A 
ATOM     79  C   UNL A   1      47.980  27.196  23.262  1.00  0.00     0.055 A 
ATOM     80  C   UNL A   1      48.728  25.765  25.045  1.00  0.00     0.041 A 
ATOM     81  F   UNL A   1      47.525  25.697  27.058  1.00  0.00    -0.206 F 
ATOM     82  C   UNL A   1      48.893  26.261  23.756  1.00  0.00     0.022 A 
BRANCH  79  83
ATOM     83  S   UNL A   1      48.154  27.827  21.570  1.00  0.00     0.124 S 
ATOM     84  O   UNL A   1      48.635  26.648  20.861  1.00  0.00    -0.237 OA
ATOM     85  O   UNL A   1      46.793  28.252  21.262  1.00  0.00    -0.237 OA
ATOM     86  O   UNL A   1      49.122  28.913  21.712  1.00  0.00    -0.744 OA
ENDBRANCH  79  83
ENDBRANCH  52  76
BRANCH  64  87
ATOM     87  C   UNL A   1      40.720  24.210  27.312  1.00  0.00     0.023 A 
ATOM     88  C   UNL A   1      39.523  24.111  26.583  1.00  0.00     0.031 A 
ATOM     89  C   UNL A   1      41.337  23.019  27.735  1.00  0.00     0.131 A 
ATOM     90  C   UNL A   1      38.966  22.849  26.320  1.00  0.00     0.055 A 
ATOM     91  C   UNL A   1      40.802  21.766  27.434  1.00  0.00     0.041 A 
ATOM     92  F   UNL A   1      42.483  23.056  28.435  1.00  0.00    -0.206 F 
ATOM     93  C   UNL A   1      39.607  21.676  26.726  1.00  0.00     0.022 A 
BRANCH  90  94
ATOM     94  S   UNL A   1      37.369  22.757  25.464  1.00  0.00     0.124 S 
ATOM     95  O   UNL A   1      36.487  23.456  26.393  1.00  0.00    -0.237 OA
ATOM     96  O   UNL A   1      37.644  23.446  24.207  1.00  0.00    -0.237 OA
ATOM     97  O   UNL A   1      37.127  21.321  25.340  1.00  0.00    -0.744 OA
ENDBRANCH  90  94
ENDBRANCH  64  87
ENDBRANCH  38  39
ENDBRANCH  30  33
ENDBRANCH  28  29
ENDBRANCH  27  28
ENDBRANCH  26  27
ENDBRANCH   1  26
TORSDOF 20
ENDMDL
