MODEL 1
REMARK VINA RESULT:     -11.9      0.000      0.000
REMARK SMILES O=C(NCCCCCCNC(=O)c1cc(Br)ccc1OC(=O)c1ccc(F)cc1)c1ccc(-c2c3nc(c(-c4cc(S(=O)(=O)[O-])ccc4F)c4ccc([nH]4)c(-c4cc(S(=O)(=O)[O-])ccc4F)c4nc(c(-c5cc(S(=O)(=O)[O-])ccc5F)c5ccc2[nH]5)C=C4)C=C3)cc1
REMARK SMILES IDX 6 1 5 2 4 3 3 4 1 5 2 6 30 8 31 9 92 10 32 11 91 12 33 13
REMARK SMILES IDX 34 14 35 15 85 16 36 17 90 18 84 19 86 20 37 21 89 22 83 23
REMARK SMILES IDX 82 24 38 26 70 27 50 28 69 29 51 30 54 31 68 32 87 33 52 34
REMARK SMILES IDX 53 35 67 37 88 38 55 39 39 40 40 41 48 42 41 43 47 44 49 45
REMARK SMILES IDX 46 46 42 47 43 48 44 49 45 50 71 51 72 52 80 53 73 54 79 55
REMARK SMILES IDX 81 56 78 57 74 58 75 59 76 60 77 61 56 62 57 63 65 64 58 65
REMARK SMILES IDX 64 66 66 67 63 68 59 69 60 70 61 71 62 72 7 73 8 74 9 75
REMARK SMILES IDX 10 76 11 77 12 79 13 80 14 81 19 82 15 83 18 84 16 85 17 86
REMARK SMILES IDX 20 87 21 88 22 89 23 90 24 91 29 92 25 93 28 94 26 95 27 96
REMARK H PARENT 3 7 86 25 54 36 10 78
REMARK Flexibility Score: inf
ROOT
ATOM      1  C   UNL A   1      35.048  23.798  24.190  1.00  0.00     0.002 C 
ENDROOT
BRANCH   1   2
ATOM      2  C   UNL A   1      35.952  22.573  24.312  1.00  0.00     0.021 C 
BRANCH   2   3
ATOM      3  C   UNL A   1      36.436  22.249  25.719  1.00  0.00     0.116 C 
BRANCH   3   4
ATOM      4  N   UNL A   1      37.376  21.141  25.756  1.00  0.00    -0.352 N 
ATOM      5  O   UNL A   1      39.389  20.132  25.888  1.00  0.00    -0.269 OA
ATOM      6  C   UNL A   1      38.723  21.155  26.034  1.00  0.00     0.251 C 
ATOM      7  H   UNL A   1      36.994  20.256  25.554  1.00  0.00     0.163 HD
BRANCH   6   8
ATOM      8  C   UNL A   1      39.375  22.407  26.483  1.00  0.00     0.039 A 
ATOM      9  C   UNL A   1      38.955  23.646  25.996  1.00  0.00     0.014 A 
ATOM     10  C   UNL A   1      40.422  22.340  27.410  1.00  0.00     0.014 A 
ATOM     11  C   UNL A   1      39.671  24.795  26.318  1.00  0.00     0.010 A 
ATOM     12  C   UNL A   1      41.086  23.508  27.801  1.00  0.00     0.010 A 
ATOM     13  C   UNL A   1      40.736  24.743  27.234  1.00  0.00    -0.014 A 
BRANCH  13  14
ATOM     14  C   UNL A   1      41.414  26.010  27.614  1.00  0.00     0.031 A 
ATOM     15  C   UNL A   1      42.769  26.370  27.072  1.00  0.00     0.074 A 
ATOM     16  C   UNL A   1      40.754  26.873  28.412  1.00  0.00     0.049 A 
ATOM     17  N   UNL A   1      43.453  27.474  27.237  1.00  0.00    -0.248 NA
ATOM     18  C   UNL A   1      43.452  25.361  26.249  1.00  0.00     0.031 C 
ATOM     19  C   UNL A   1      39.439  26.624  29.008  1.00  0.00     0.029 A 
ATOM     20  N   UNL A   1      41.070  28.142  28.823  1.00  0.00    -0.354 N 
ATOM     21  C   UNL A   1      44.650  27.291  26.556  1.00  0.00     0.074 A 
ATOM     22  C   UNL A   1      44.610  25.956  25.994  1.00  0.00     0.031 C 
ATOM     23  C   UNL A   1      39.026  27.732  29.637  1.00  0.00     0.029 A 
ATOM     24  C   UNL A   1      40.069  28.747  29.546  1.00  0.00     0.049 A 
ATOM     25  H   UNL A   1      41.930  28.577  28.621  1.00  0.00     0.167 HD
ATOM     26  C   UNL A   1      45.682  28.158  26.409  1.00  0.00     0.034 A 
ATOM     27  C   UNL A   1      39.993  29.981  30.079  1.00  0.00     0.034 A 
ATOM     28  C   UNL A   1      45.700  29.493  26.957  1.00  0.00     0.049 A 
ATOM     29  C   UNL A   1      41.151  30.918  29.916  1.00  0.00     0.074 A 
ATOM     30  C   UNL A   1      46.675  30.467  26.821  1.00  0.00     0.029 A 
ATOM     31  N   UNL A   1      44.702  30.040  27.752  1.00  0.00    -0.354 N 
ATOM     32  N   UNL A   1      42.277  30.725  29.270  1.00  0.00    -0.248 NA
ATOM     33  C   UNL A   1      41.040  32.232  30.563  1.00  0.00     0.031 C 
ATOM     34  C   UNL A   1      46.293  31.579  27.580  1.00  0.00     0.029 A 
ATOM     35  C   UNL A   1      45.053  31.324  28.141  1.00  0.00     0.049 A 
ATOM     36  H   UNL A   1      43.866  29.583  28.004  1.00  0.00     0.167 HD
ATOM     37  C   UNL A   1      43.012  31.892  29.436  1.00  0.00     0.074 A 
ATOM     38  C   UNL A   1      42.197  32.789  30.232  1.00  0.00     0.031 C 
ATOM     39  C   UNL A   1      44.247  32.193  28.965  1.00  0.00     0.034 A 
BRANCH  26  40
ATOM     40  C   UNL A   1      46.898  27.678  25.658  1.00  0.00     0.023 A 
ATOM     41  C   UNL A   1      47.090  27.964  24.296  1.00  0.00     0.031 A 
ATOM     42  C   UNL A   1      47.887  26.931  26.322  1.00  0.00     0.131 A 
ATOM     43  C   UNL A   1      48.220  27.464  23.630  1.00  0.00     0.055 A 
ATOM     44  C   UNL A   1      49.039  26.489  25.670  1.00  0.00     0.041 A 
ATOM     45  F   UNL A   1      47.747  26.616  27.620  1.00  0.00    -0.206 F 
ATOM     46  C   UNL A   1      49.206  26.747  24.312  1.00  0.00     0.022 A 
BRANCH  43  47
ATOM     47  S   UNL A   1      48.341  27.687  21.834  1.00  0.00     0.124 S 
ATOM     48  O   UNL A   1      47.047  28.291  21.523  1.00  0.00    -0.237 OA
ATOM     49  O   UNL A   1      49.501  28.559  21.700  1.00  0.00    -0.237 OA
ATOM     50  O   UNL A   1      48.522  26.327  21.331  1.00  0.00    -0.744 OA
ENDBRANCH  43  47
ENDBRANCH  26  40
BRANCH  27  51
ATOM     51  C   UNL A   1      38.771  30.371  30.830  1.00  0.00     0.023 A 
ATOM     52  C   UNL A   1      37.766  31.140  30.226  1.00  0.00     0.031 A 
ATOM     53  C   UNL A   1      38.566  29.914  32.143  1.00  0.00     0.131 A 
ATOM     54  C   UNL A   1      36.592  31.430  30.940  1.00  0.00     0.055 A 
ATOM     55  C   UNL A   1      37.385  30.178  32.837  1.00  0.00     0.041 A 
ATOM     56  F   UNL A   1      39.494  29.158  32.750  1.00  0.00    -0.206 F 
ATOM     57  C   UNL A   1      36.390  30.941  32.235  1.00  0.00     0.022 A 
BRANCH  54  58
ATOM     58  S   UNL A   1      35.311  32.439  30.146  1.00  0.00     0.124 S 
ATOM     59  O   UNL A   1      34.344  32.596  31.226  1.00  0.00    -0.237 OA
ATOM     60  O   UNL A   1      36.052  33.638  29.766  1.00  0.00    -0.237 OA
ATOM     61  O   UNL A   1      34.870  31.608  29.027  1.00  0.00    -0.744 OA
ENDBRANCH  54  58
ENDBRANCH  27  51
BRANCH  39  62
ATOM     62  C   UNL A   1      44.795  33.553  29.297  1.00  0.00     0.023 A 
ATOM     63  C   UNL A   1      44.592  34.649  28.444  1.00  0.00     0.031 A 
ATOM     64  C   UNL A   1      45.498  33.757  30.496  1.00  0.00     0.131 A 
ATOM     65  C   UNL A   1      45.108  35.905  28.794  1.00  0.00     0.055 A 
ATOM     66  C   UNL A   1      45.976  35.017  30.858  1.00  0.00     0.041 A 
ATOM     67  F   UNL A   1      45.714  32.737  31.342  1.00  0.00    -0.206 F 
ATOM     68  C   UNL A   1      45.785  36.099  30.003  1.00  0.00     0.022 A 
BRANCH  65  69
ATOM     69  S   UNL A   1      44.900  37.292  27.644  1.00  0.00     0.124 S 
ATOM     70  O   UNL A   1      45.077  38.442  28.525  1.00  0.00    -0.237 OA
ATOM     71  O   UNL A   1      45.964  37.064  26.671  1.00  0.00    -0.237 OA
ATOM     72  O   UNL A   1      43.545  37.108  27.127  1.00  0.00    -0.744 OA
ENDBRANCH  65  69
ENDBRANCH  39  62
ENDBRANCH  13  14
ENDBRANCH   6   8
ENDBRANCH   3   4
ENDBRANCH   2   3
ENDBRANCH   1   2
BRANCH   1  73
ATOM     73  C   UNL A   1      35.108  24.800  25.346  1.00  0.00     0.002 C 
BRANCH  73  74
ATOM     74  C   UNL A   1      33.825  25.582  25.638  1.00  0.00     0.021 C 
BRANCH  74  75
ATOM     75  C   UNL A   1      33.517  26.745  24.696  1.00  0.00     0.116 C 
BRANCH  75  76
ATOM     76  N   UNL A   1      33.544  26.366  23.293  1.00  0.00    -0.352 N 
ATOM     77  C   UNL A   1      32.511  26.309  22.392  1.00  0.00     0.255 C 
ATOM     78  H   UNL A   1      34.427  26.115  22.939  1.00  0.00     0.163 HD
ATOM     79  O   UNL A   1      32.684  25.847  21.268  1.00  0.00    -0.269 OA
BRANCH  77  80
ATOM     80  C   UNL A   1      31.175  26.801  22.783  1.00  0.00     0.083 A 
ATOM     81  C   UNL A   1      30.849  28.147  22.573  1.00  0.00     0.033 A 
ATOM     82  C   UNL A   1      30.216  25.933  23.319  1.00  0.00     0.144 A 
ATOM     83  C   UNL A   1      29.594  28.619  22.956  1.00  0.00     0.019 A 
ATOM     84  C   UNL A   1      28.954  26.407  23.684  1.00  0.00     0.049 A 
ATOM     85  Br  UNL A   1      29.166  30.443  22.707  1.00  0.00    -0.051 Br
ATOM     86  C   UNL A   1      28.650  27.759  23.519  1.00  0.00     0.019 A 
BRANCH  82  87
ATOM     87  O   UNL A   1      30.415  24.550  23.421  1.00  0.00    -0.422 OA
BRANCH  87  88
ATOM     88  C   UNL A   1      30.758  24.085  24.675  1.00  0.00     0.343 C 
ATOM     89  O   UNL A   1      30.465  24.583  25.752  1.00  0.00    -0.246 OA
BRANCH  88  90
ATOM     90  C   UNL A   1      31.559  22.839  24.535  1.00  0.00     0.060 A 
ATOM     91  C   UNL A   1      31.833  22.262  23.284  1.00  0.00     0.019 A 
ATOM     92  C   UNL A   1      32.023  22.212  25.703  1.00  0.00     0.019 A 
ATOM     93  C   UNL A   1      32.559  21.071  23.206  1.00  0.00     0.040 A 
ATOM     94  C   UNL A   1      32.753  21.023  25.618  1.00  0.00     0.040 A 
ATOM     95  C   UNL A   1      33.011  20.463  24.373  1.00  0.00     0.123 A 
ATOM     96  F   UNL A   1      33.702  19.318  24.292  1.00  0.00    -0.207 F 
ENDBRANCH  88  90
ENDBRANCH  87  88
ENDBRANCH  82  87
ENDBRANCH  77  80
ENDBRANCH  75  76
ENDBRANCH  74  75
ENDBRANCH  73  74
ENDBRANCH   1  73
TORSDOF 19
ENDMDL
MODEL 2
REMARK VINA RESULT:     -11.8      5.260      9.933
REMARK SMILES O=C(NCCCCCCNC(=O)c1cc(Br)ccc1OC(=O)c1ccc(F)cc1)c1ccc(-c2c3nc(c(-c4cc(S(=O)(=O)[O-])ccc4F)c4ccc([nH]4)c(-c4cc(S(=O)(=O)[O-])ccc4F)c4nc(c(-c5cc(S(=O)(=O)[O-])ccc5F)c5ccc2[nH]5)C=C4)C=C3)cc1
REMARK SMILES IDX 6 1 5 2 4 3 3 4 1 5 2 6 30 8 31 9 92 10 32 11 91 12 33 13
REMARK SMILES IDX 34 14 35 15 85 16 36 17 90 18 84 19 86 20 37 21 89 22 83 23
REMARK SMILES IDX 82 24 38 26 70 27 50 28 69 29 51 30 54 31 68 32 87 33 52 34
REMARK SMILES IDX 53 35 67 37 88 38 55 39 39 40 40 41 48 42 41 43 47 44 49 45
REMARK SMILES IDX 46 46 42 47 43 48 44 49 45 50 71 51 72 52 80 53 73 54 79 55
REMARK SMILES IDX 81 56 78 57 74 58 75 59 76 60 77 61 56 62 57 63 65 64 58 65
REMARK SMILES IDX 64 66 66 67 63 68 59 69 60 70 61 71 62 72 7 73 8 74 9 75
REMARK SMILES IDX 10 76 11 77 12 79 13 80 14 81 19 82 15 83 18 84 16 85 17 86
REMARK SMILES IDX 20 87 21 88 22 89 23 90 24 91 29 92 25 93 28 94 26 95 27 96
REMARK H PARENT 3 7 86 25 54 36 10 78
REMARK Flexibility Score: inf
ROOT
ATOM      1  C   UNL A   1      33.676  27.408  23.346  1.00  0.00     0.002 C 
ENDROOT
BRANCH   1   2
ATOM      2  C   UNL A   1      33.551  28.848  23.842  1.00  0.00     0.021 C 
BRANCH   2   3
ATOM      3  C   UNL A   1      33.764  29.050  25.336  1.00  0.00     0.116 C 
BRANCH   3   4
ATOM      4  N   UNL A   1      33.150  30.269  25.838  1.00  0.00    -0.352 N 
ATOM      5  O   UNL A   1      32.805  31.981  27.264  1.00  0.00    -0.269 OA
ATOM      6  C   UNL A   1      33.525  31.053  26.904  1.00  0.00     0.251 C 
ATOM      7  H   UNL A   1      32.356  30.576  25.344  1.00  0.00     0.163 HD
BRANCH   6   8
ATOM      8  C   UNL A   1      34.781  30.762  27.634  1.00  0.00     0.039 A 
ATOM      9  C   UNL A   1      34.972  29.531  28.264  1.00  0.00     0.014 A 
ATOM     10  C   UNL A   1      35.784  31.735  27.686  1.00  0.00     0.014 A 
ATOM     11  C   UNL A   1      36.093  29.330  29.063  1.00  0.00     0.010 A 
ATOM     12  C   UNL A   1      36.953  31.498  28.419  1.00  0.00     0.010 A 
ATOM     13  C   UNL A   1      37.103  30.305  29.140  1.00  0.00    -0.014 A 
BRANCH  13  14
ATOM     14  C   UNL A   1      38.324  30.008  29.936  1.00  0.00     0.031 A 
ATOM     15  C   UNL A   1      38.490  30.519  31.339  1.00  0.00     0.074 A 
ATOM     16  C   UNL A   1      39.261  29.206  29.393  1.00  0.00     0.049 A 
ATOM     17  N   UNL A   1      39.451  30.275  32.194  1.00  0.00    -0.248 NA
ATOM     18  C   UNL A   1      37.453  31.428  31.850  1.00  0.00     0.031 C 
ATOM     19  C   UNL A   1      39.212  28.662  28.034  1.00  0.00     0.029 A 
ATOM     20  N   UNL A   1      40.408  28.674  29.923  1.00  0.00    -0.354 N 
ATOM     21  C   UNL A   1      39.149  31.010  33.334  1.00  0.00     0.074 A 
ATOM     22  C   UNL A   1      37.923  31.730  33.053  1.00  0.00     0.031 C 
ATOM     23  C   UNL A   1      40.233  27.810  27.865  1.00  0.00     0.029 A 
ATOM     24  C   UNL A   1      41.044  27.796  29.077  1.00  0.00     0.049 A 
ATOM     25  H   UNL A   1      40.743  28.898  30.821  1.00  0.00     0.167 HD
ATOM     26  C   UNL A   1      39.828  31.072  34.506  1.00  0.00     0.034 A 
ATOM     27  C   UNL A   1      42.157  27.058  29.250  1.00  0.00     0.034 A 
ATOM     28  C   UNL A   1      41.037  30.334  34.779  1.00  0.00     0.049 A 
ATOM     29  C   UNL A   1      42.899  27.153  30.549  1.00  0.00     0.074 A 
ATOM     30  C   UNL A   1      41.772  30.288  35.953  1.00  0.00     0.029 A 
ATOM     31  N   UNL A   1      41.695  29.519  33.868  1.00  0.00    -0.354 N 
ATOM     32  N   UNL A   1      42.598  27.857  31.615  1.00  0.00    -0.248 NA
ATOM     33  C   UNL A   1      44.136  26.371  30.667  1.00  0.00     0.031 C 
ATOM     34  C   UNL A   1      42.902  29.492  35.732  1.00  0.00     0.029 A 
ATOM     35  C   UNL A   1      42.843  28.993  34.442  1.00  0.00     0.049 A 
ATOM     36  H   UNL A   1      41.391  29.339  32.948  1.00  0.00     0.167 HD
ATOM     37  C   UNL A   1      43.611  27.605  32.531  1.00  0.00     0.074 A 
ATOM     38  C   UNL A   1      44.526  26.675  31.898  1.00  0.00     0.031 C 
ATOM     39  C   UNL A   1      43.764  28.096  33.786  1.00  0.00     0.034 A 
BRANCH  26  40
ATOM     40  C   UNL A   1      39.302  32.001  35.571  1.00  0.00     0.023 A 
ATOM     41  C   UNL A   1      39.752  33.327  35.686  1.00  0.00     0.031 A 
ATOM     42  C   UNL A   1      38.325  31.553  36.477  1.00  0.00     0.131 A 
ATOM     43  C   UNL A   1      39.260  34.144  36.717  1.00  0.00     0.055 A 
ATOM     44  C   UNL A   1      37.794  32.389  37.461  1.00  0.00     0.041 A 
ATOM     45  F   UNL A   1      37.871  30.291  36.421  1.00  0.00    -0.206 F 
ATOM     46  C   UNL A   1      38.269  33.691  37.592  1.00  0.00     0.022 A 
BRANCH  43  47
ATOM     47  S   UNL A   1      40.001  35.782  36.957  1.00  0.00     0.124 S 
ATOM     48  O   UNL A   1      39.654  36.450  35.705  1.00  0.00    -0.237 OA
ATOM     49  O   UNL A   1      39.316  36.268  38.150  1.00  0.00    -0.237 OA
ATOM     50  O   UNL A   1      41.423  35.494  37.129  1.00  0.00    -0.744 OA
ENDBRANCH  43  47
ENDBRANCH  26  40
BRANCH  27  51
ATOM     51  C   UNL A   1      42.628  26.187  28.143  1.00  0.00     0.023 A 
ATOM     52  C   UNL A   1      42.124  24.888  27.980  1.00  0.00     0.031 A 
ATOM     53  C   UNL A   1      43.538  26.676  27.190  1.00  0.00     0.131 A 
ATOM     54  C   UNL A   1      42.537  24.118  26.881  1.00  0.00     0.055 A 
ATOM     55  C   UNL A   1      43.921  25.917  26.083  1.00  0.00     0.041 A 
ATOM     56  F   UNL A   1      44.028  27.920  27.298  1.00  0.00    -0.206 F 
ATOM     57  C   UNL A   1      43.419  24.629  25.925  1.00  0.00     0.022 A 
BRANCH  54  58
ATOM     58  S   UNL A   1      41.885  22.435  26.698  1.00  0.00     0.124 S 
ATOM     59  O   UNL A   1      42.515  21.748  27.820  1.00  0.00    -0.237 OA
ATOM     60  O   UNL A   1      40.444  22.648  26.802  1.00  0.00    -0.237 OA
ATOM     61  O   UNL A   1      42.353  22.031  25.374  1.00  0.00    -0.744 OA
ENDBRANCH  54  58
ENDBRANCH  27  51
BRANCH  39  62
ATOM     62  C   UNL A   1      44.967  27.635  34.560  1.00  0.00     0.023 A 
ATOM     63  C   UNL A   1      44.923  26.480  35.357  1.00  0.00     0.031 A 
ATOM     64  C   UNL A   1      46.178  28.343  34.471  1.00  0.00     0.131 A 
ATOM     65  C   UNL A   1      46.070  26.075  36.056  1.00  0.00     0.055 A 
ATOM     66  C   UNL A   1      47.326  27.913  35.137  1.00  0.00     0.041 A 
ATOM     67  F   UNL A   1      46.266  29.452  33.720  1.00  0.00    -0.206 F 
ATOM     68  C   UNL A   1      47.275  26.775  35.938  1.00  0.00     0.022 A 
BRANCH  65  69
ATOM     69  S   UNL A   1      45.971  24.623  37.138  1.00  0.00     0.124 S 
ATOM     70  O   UNL A   1      47.175  24.772  37.950  1.00  0.00    -0.237 OA
ATOM     71  O   UNL A   1      44.704  24.827  37.833  1.00  0.00    -0.237 OA
ATOM     72  O   UNL A   1      45.988  23.498  36.204  1.00  0.00    -0.744 OA
ENDBRANCH  65  69
ENDBRANCH  39  62
ENDBRANCH  13  14
ENDBRANCH   6   8
ENDBRANCH   3   4
ENDBRANCH   2   3
ENDBRANCH   1   2
BRANCH   1  73
ATOM     73  C   UNL A   1      33.293  27.162  21.884  1.00  0.00     0.002 C 
BRANCH  73  74
ATOM     74  C   UNL A   1      32.795  25.757  21.537  1.00  0.00     0.021 C 
BRANCH  74  75
ATOM     75  C   UNL A   1      33.145  24.654  22.536  1.00  0.00     0.116 C 
BRANCH  75  76
ATOM     76  N   UNL A   1      32.517  23.380  22.223  1.00  0.00    -0.352 N 
ATOM     77  C   UNL A   1      32.618  22.181  22.883  1.00  0.00     0.255 C 
ATOM     78  H   UNL A   1      31.940  23.377  21.426  1.00  0.00     0.163 HD
ATOM     79  O   UNL A   1      32.116  21.164  22.413  1.00  0.00    -0.269 OA
BRANCH  77  80
ATOM     80  C   UNL A   1      33.343  22.114  24.167  1.00  0.00     0.083 A 
ATOM     81  C   UNL A   1      34.743  22.083  24.166  1.00  0.00     0.033 A 
ATOM     82  C   UNL A   1      32.653  22.127  25.385  1.00  0.00     0.144 A 
ATOM     83  C   UNL A   1      35.431  22.004  25.376  1.00  0.00     0.019 A 
ATOM     84  C   UNL A   1      33.347  22.066  26.595  1.00  0.00     0.049 A 
ATOM     85  Br  UNL A   1      37.319  21.923  25.375  1.00  0.00    -0.051 Br
ATOM     86  C   UNL A   1      34.740  21.985  26.589  1.00  0.00     0.019 A 
BRANCH  82  87
ATOM     87  O   UNL A   1      31.266  22.306  25.471  1.00  0.00    -0.422 OA
BRANCH  87  88
ATOM     88  C   UNL A   1      30.836  23.199  26.433  1.00  0.00     0.343 C 
ATOM     89  O   UNL A   1      30.579  22.956  27.603  1.00  0.00    -0.246 OA
BRANCH  88  90
ATOM     90  C   UNL A   1      30.730  24.557  25.832  1.00  0.00     0.060 A 
ATOM     91  C   UNL A   1      31.181  25.707  26.499  1.00  0.00     0.019 A 
ATOM     92  C   UNL A   1      30.128  24.679  24.570  1.00  0.00     0.019 A 
ATOM     93  C   UNL A   1      31.027  26.964  25.910  1.00  0.00     0.040 A 
ATOM     94  C   UNL A   1      29.981  25.939  23.982  1.00  0.00     0.040 A 
ATOM     95  C   UNL A   1      30.428  27.068  24.658  1.00  0.00     0.123 A 
ATOM     96  F   UNL A   1      30.278  28.277  24.100  1.00  0.00    -0.207 F 
ENDBRANCH  88  90
ENDBRANCH  87  88
ENDBRANCH  82  87
ENDBRANCH  77  80
ENDBRANCH  75  76
ENDBRANCH  74  75
ENDBRANCH  73  74
ENDBRANCH   1  73
TORSDOF 19
ENDMDL
MODEL 3
REMARK VINA RESULT:     -11.7      5.741      8.635
REMARK SMILES O=C(NCCCCCCNC(=O)c1cc(Br)ccc1OC(=O)c1ccc(F)cc1)c1ccc(-c2c3nc(c(-c4cc(S(=O)(=O)[O-])ccc4F)c4ccc([nH]4)c(-c4cc(S(=O)(=O)[O-])ccc4F)c4nc(c(-c5cc(S(=O)(=O)[O-])ccc5F)c5ccc2[nH]5)C=C4)C=C3)cc1
REMARK SMILES IDX 6 1 5 2 4 3 3 4 1 5 2 6 30 8 31 9 92 10 32 11 91 12 33 13
REMARK SMILES IDX 34 14 35 15 85 16 36 17 90 18 84 19 86 20 37 21 89 22 83 23
REMARK SMILES IDX 82 24 38 26 70 27 50 28 69 29 51 30 54 31 68 32 87 33 52 34
REMARK SMILES IDX 53 35 67 37 88 38 55 39 39 40 40 41 48 42 41 43 47 44 49 45
REMARK SMILES IDX 46 46 42 47 43 48 44 49 45 50 71 51 72 52 80 53 73 54 79 55
REMARK SMILES IDX 81 56 78 57 74 58 75 59 76 60 77 61 56 62 57 63 65 64 58 65
REMARK SMILES IDX 64 66 66 67 63 68 59 69 60 70 61 71 62 72 7 73 8 74 9 75
REMARK SMILES IDX 10 76 11 77 12 79 13 80 14 81 19 82 15 83 18 84 16 85 17 86
REMARK SMILES IDX 20 87 21 88 22 89 23 90 24 91 29 92 25 93 28 94 26 95 27 96
REMARK H PARENT 3 7 86 25 54 36 10 78
REMARK Flexibility Score: inf
ROOT
ATOM      1  C   UNL A   1      31.362  30.744  25.687  1.00  0.00     0.002 C 
ENDROOT
BRANCH   1   2
ATOM      2  C   UNL A   1      31.265  32.045  26.483  1.00  0.00     0.021 C 
BRANCH   2   3
ATOM      3  C   UNL A   1      32.579  32.578  27.037  1.00  0.00     0.116 C 
BRANCH   3   4
ATOM      4  N   UNL A   1      32.482  33.951  27.506  1.00  0.00    -0.352 N 
ATOM      5  O   UNL A   1      32.883  35.715  28.853  1.00  0.00    -0.269 OA
ATOM      6  C   UNL A   1      33.193  34.579  28.502  1.00  0.00     0.251 C 
ATOM      7  H   UNL A   1      31.815  34.509  27.045  1.00  0.00     0.163 HD
BRANCH   6   8
ATOM      8  C   UNL A   1      34.314  33.877  29.169  1.00  0.00     0.039 A 
ATOM      9  C   UNL A   1      34.075  32.803  30.029  1.00  0.00     0.014 A 
ATOM     10  C   UNL A   1      35.627  34.298  28.928  1.00  0.00     0.014 A 
ATOM     11  C   UNL A   1      35.125  32.251  30.755  1.00  0.00     0.010 A 
ATOM     12  C   UNL A   1      36.693  33.683  29.594  1.00  0.00     0.010 A 
ATOM     13  C   UNL A   1      36.448  32.674  30.538  1.00  0.00    -0.014 A 
BRANCH  13  14
ATOM     14  C   UNL A   1      37.546  31.993  31.273  1.00  0.00     0.031 A 
ATOM     15  C   UNL A   1      38.386  30.930  30.621  1.00  0.00     0.074 A 
ATOM     16  C   UNL A   1      37.822  32.397  32.528  1.00  0.00     0.049 A 
ATOM     17  N   UNL A   1      39.434  30.306  31.097  1.00  0.00    -0.248 NA
ATOM     18  C   UNL A   1      37.999  30.503  29.269  1.00  0.00     0.031 C 
ATOM     19  C   UNL A   1      37.065  33.412  33.266  1.00  0.00     0.029 A 
ATOM     20  N   UNL A   1      38.830  32.045  33.388  1.00  0.00    -0.354 N 
ATOM     21  C   UNL A   1      39.823  29.403  30.114  1.00  0.00     0.074 A 
ATOM     22  C   UNL A   1      38.880  29.543  29.023  1.00  0.00     0.031 C 
ATOM     23  C   UNL A   1      37.681  33.659  34.430  1.00  0.00     0.029 A 
ATOM     24  C   UNL A   1      38.838  32.778  34.551  1.00  0.00     0.049 A 
ATOM     25  H   UNL A   1      39.485  31.336  33.191  1.00  0.00     0.167 HD
ATOM     26  C   UNL A   1      40.871  28.542  30.122  1.00  0.00     0.034 A 
ATOM     27  C   UNL A   1      39.678  32.750  35.602  1.00  0.00     0.034 A 
ATOM     28  C   UNL A   1      41.814  28.427  31.208  1.00  0.00     0.049 A 
ATOM     29  C   UNL A   1      40.822  31.781  35.595  1.00  0.00     0.074 A 
ATOM     30  C   UNL A   1      42.939  27.623  31.291  1.00  0.00     0.029 A 
ATOM     31  N   UNL A   1      41.740  29.129  32.404  1.00  0.00    -0.354 N 
ATOM     32  N   UNL A   1      41.171  30.932  34.657  1.00  0.00    -0.248 NA
ATOM     33  C   UNL A   1      41.677  31.752  36.789  1.00  0.00     0.031 C 
ATOM     34  C   UNL A   1      43.510  27.797  32.556  1.00  0.00     0.029 A 
ATOM     35  C   UNL A   1      42.779  28.752  33.241  1.00  0.00     0.049 A 
ATOM     36  H   UNL A   1      41.050  29.797  32.625  1.00  0.00     0.167 HD
ATOM     37  C   UNL A   1      42.285  30.264  35.149  1.00  0.00     0.074 A 
ATOM     38  C   UNL A   1      42.558  30.816  36.462  1.00  0.00     0.031 C 
ATOM     39  C   UNL A   1      43.017  29.285  34.562  1.00  0.00     0.034 A 
BRANCH  26  40
ATOM     40  C   UNL A   1      41.032  27.625  28.936  1.00  0.00     0.023 A 
ATOM     41  C   UNL A   1      41.993  27.863  27.940  1.00  0.00     0.031 A 
ATOM     42  C   UNL A   1      40.215  26.488  28.809  1.00  0.00     0.131 A 
ATOM     43  C   UNL A   1      42.082  27.001  26.834  1.00  0.00     0.055 A 
ATOM     44  C   UNL A   1      40.349  25.600  27.739  1.00  0.00     0.041 A 
ATOM     45  F   UNL A   1      39.269  26.222  29.724  1.00  0.00    -0.206 F 
ATOM     46  C   UNL A   1      41.280  25.860  26.738  1.00  0.00     0.022 A 
BRANCH  43  47
ATOM     47  S   UNL A   1      43.198  27.442  25.475  1.00  0.00     0.124 S 
ATOM     48  O   UNL A   1      43.630  26.126  25.008  1.00  0.00    -0.237 OA
ATOM     49  O   UNL A   1      42.323  28.183  24.574  1.00  0.00    -0.237 OA
ATOM     50  O   UNL A   1      44.237  28.236  26.127  1.00  0.00    -0.744 OA
ENDBRANCH  43  47
ENDBRANCH  26  40
BRANCH  27  51
ATOM     51  C   UNL A   1      39.437  33.666  36.747  1.00  0.00     0.023 A 
ATOM     52  C   UNL A   1      38.828  33.208  37.924  1.00  0.00     0.031 A 
ATOM     53  C   UNL A   1      39.884  34.998  36.700  1.00  0.00     0.131 A 
ATOM     54  C   UNL A   1      38.682  34.081  39.014  1.00  0.00     0.055 A 
ATOM     55  C   UNL A   1      39.764  35.852  37.796  1.00  0.00     0.041 A 
ATOM     56  F   UNL A   1      40.491  35.470  35.600  1.00  0.00    -0.206 F 
ATOM     57  C   UNL A   1      39.159  35.394  38.962  1.00  0.00     0.022 A 
BRANCH  54  58
ATOM     58  S   UNL A   1      37.877  33.472  40.521  1.00  0.00     0.124 S 
ATOM     59  O   UNL A   1      37.654  34.709  41.260  1.00  0.00    -0.237 OA
ATOM     60  O   UNL A   1      36.686  32.814  39.992  1.00  0.00    -0.237 OA
ATOM     61  O   UNL A   1      38.873  32.570  41.097  1.00  0.00    -0.744 OA
ENDBRANCH  54  58
ENDBRANCH  27  51
BRANCH  39  62
ATOM     62  C   UNL A   1      44.189  28.749  35.335  1.00  0.00     0.023 A 
ATOM     63  C   UNL A   1      44.034  27.712  36.269  1.00  0.00     0.031 A 
ATOM     64  C   UNL A   1      45.478  29.258  35.106  1.00  0.00     0.131 A 
ATOM     65  C   UNL A   1      45.153  27.230  36.962  1.00  0.00     0.055 A 
ATOM     66  C   UNL A   1      46.594  28.748  35.770  1.00  0.00     0.041 A 
ATOM     67  F   UNL A   1      45.673  30.248  34.221  1.00  0.00    -0.206 F 
ATOM     68  C   UNL A   1      46.435  27.730  36.707  1.00  0.00     0.022 A 
BRANCH  65  69
ATOM     69  S   UNL A   1      44.921  25.943  38.219  1.00  0.00     0.124 S 
ATOM     70  O   UNL A   1      46.294  25.517  38.470  1.00  0.00    -0.237 OA
ATOM     71  O   UNL A   1      44.271  26.670  39.305  1.00  0.00    -0.237 OA
ATOM     72  O   UNL A   1      44.077  24.956  37.547  1.00  0.00    -0.744 OA
ENDBRANCH  65  69
ENDBRANCH  39  62
ENDBRANCH  13  14
ENDBRANCH   6   8
ENDBRANCH   3   4
ENDBRANCH   2   3
ENDBRANCH   1   2
BRANCH   1  73
ATOM     73  C   UNL A   1      32.608  29.890  25.940  1.00  0.00     0.002 C 
BRANCH  73  74
ATOM     74  C   UNL A   1      32.390  28.377  26.022  1.00  0.00     0.021 C 
BRANCH  74  75
ATOM     75  C   UNL A   1      33.454  27.507  25.354  1.00  0.00     0.116 C 
BRANCH  75  76
ATOM     76  N   UNL A   1      33.572  27.747  23.925  1.00  0.00    -0.352 N 
ATOM     77  C   UNL A   1      33.568  26.843  22.892  1.00  0.00     0.255 C 
ATOM     78  H   UNL A   1      33.670  28.690  23.660  1.00  0.00     0.163 HD
ATOM     79  O   UNL A   1      33.802  27.203  21.743  1.00  0.00    -0.269 OA
BRANCH  77  80
ATOM     80  C   UNL A   1      33.285  25.420  23.170  1.00  0.00     0.083 A 
ATOM     81  C   UNL A   1      34.314  24.591  23.634  1.00  0.00     0.033 A 
ATOM     82  C   UNL A   1      31.993  24.901  23.020  1.00  0.00     0.144 A 
ATOM     83  C   UNL A   1      34.054  23.245  23.882  1.00  0.00     0.019 A 
ATOM     84  C   UNL A   1      31.734  23.555  23.287  1.00  0.00     0.049 A 
ATOM     85  Br  UNL A   1      35.451  22.116  24.473  1.00  0.00    -0.051 Br
ATOM     86  C   UNL A   1      32.773  22.721  23.702  1.00  0.00     0.019 A 
BRANCH  82  87
ATOM     87  O   UNL A   1      30.885  25.698  22.705  1.00  0.00    -0.422 OA
BRANCH  87  88
ATOM     88  C   UNL A   1      30.243  26.282  23.778  1.00  0.00     0.343 C 
ATOM     89  O   UNL A   1      30.237  25.892  24.936  1.00  0.00    -0.246 OA
BRANCH  88  90
ATOM     90  C   UNL A   1      29.535  27.508  23.319  1.00  0.00     0.060 A 
ATOM     91  C   UNL A   1      30.218  28.604  22.767  1.00  0.00     0.019 A 
ATOM     92  C   UNL A   1      28.142  27.571  23.481  1.00  0.00     0.019 A 
ATOM     93  C   UNL A   1      29.514  29.748  22.385  1.00  0.00     0.040 A 
ATOM     94  C   UNL A   1      27.441  28.716  23.091  1.00  0.00     0.040 A 
ATOM     95  C   UNL A   1      28.133  29.793  22.551  1.00  0.00     0.123 A 
ATOM     96  F   UNL A   1      27.463  30.895  22.188  1.00  0.00    -0.207 F 
ENDBRANCH  88  90
ENDBRANCH  87  88
ENDBRANCH  82  87
ENDBRANCH  77  80
ENDBRANCH  75  76
ENDBRANCH  74  75
ENDBRANCH  73  74
ENDBRANCH   1  73
TORSDOF 19
ENDMDL
