MODEL 1
REMARK VINA RESULT:     -12.4      0.000      0.000
REMARK SMILES CS(=O)(=O)c1ccc(/C=C(/C(=O)NCCCCCCNC(=O)c2ccc(-c3c4nc(c(-c5cc(S(=O)(=O)[O-])ccc5F)c5ccc([nH]5)c(-c5cc(S(=O)(=O)[O-])ccc5F)c5nc(c(-c6cc(S(=O)(=O)[O-])ccc6F)c6ccc3[nH]6)C=C5)C=C4)cc2)c2ccc(O)cc2)cc1
REMARK SMILES IDX 17 1 16 2 15 3 14 4 13 5 11 6 12 7 10 9 9 10 8 11 5 12 6 13
REMARK SMILES IDX 94 14 7 15 93 16 2 17 1 18 3 19 4 20 86 21 87 22 92 23 88 24
REMARK SMILES IDX 91 25 89 26 90 27 18 29 19 30 20 31 21 32 22 34 23 35 24 36
REMARK SMILES IDX 85 37 25 38 84 39 26 40 27 41 28 42 78 43 29 44 83 45 77 46
REMARK SMILES IDX 79 47 30 48 82 49 76 50 75 51 31 53 63 54 43 55 62 56 44 57
REMARK SMILES IDX 47 58 61 59 80 60 45 61 46 62 60 64 81 65 48 66 32 67 33 68
REMARK SMILES IDX 41 69 34 70 40 71 42 72 39 73 35 74 36 75 37 76 38 77 64 78
REMARK SMILES IDX 65 79 73 80 66 81 72 82 74 83 71 84 67 85 68 86 69 87 70 88
REMARK SMILES IDX 49 89 50 90 58 91 51 92 57 93 59 94 56 95 52 96 53 97 54 98
REMARK SMILES IDX 55 99
REMARK H PARENT 13 8 90 28 20 33 79 52 47 63
REMARK Flexibility Score: inf
ROOT
ATOM      1  C   UNL A   1      32.119  27.618  26.203  1.00  0.00     0.002 C 
ENDROOT
BRANCH   1   2
ATOM      2  C   UNL A   1      30.790  26.868  26.050  1.00  0.00     0.002 C 
BRANCH   2   3
ATOM      3  C   UNL A   1      30.919  25.386  25.659  1.00  0.00     0.021 C 
BRANCH   3   4
ATOM      4  C   UNL A   1      30.253  25.044  24.321  1.00  0.00     0.116 C 
BRANCH   4   5
ATOM      5  N   UNL A   1      31.152  25.371  23.232  1.00  0.00    -0.352 N 
ATOM      6  C   UNL A   1      32.317  24.850  22.768  1.00  0.00     0.251 C 
ATOM      7  O   UNL A   1      32.857  25.475  21.851  1.00  0.00    -0.269 OA
ATOM      8  H   UNL A   1      30.849  26.149  22.710  1.00  0.00     0.163 HD
BRANCH   6   9
ATOM      9  C   UNL A   1      32.898  23.535  23.240  1.00  0.00     0.047 C 
ATOM     10  C   UNL A   1      32.148  22.417  23.378  1.00  0.00     0.022 C 
BRANCH  10  11
ATOM     11  C   UNL A   1      32.574  21.034  23.684  1.00  0.00    -0.025 A 
ATOM     12  C   UNL A   1      33.425  18.376  24.052  1.00  0.00     0.067 A 
ATOM     13  C   UNL A   1      33.774  19.353  24.983  1.00  0.00     0.021 A 
ATOM     14  C   UNL A   1      32.622  18.706  22.957  1.00  0.00     0.021 A 
ATOM     15  C   UNL A   1      33.326  20.669  24.808  1.00  0.00     0.009 A 
ATOM     16  C   UNL A   1      32.200  20.027  22.779  1.00  0.00     0.009 A 
BRANCH  12  17
ATOM     17  S   UNL A   1      33.994  16.698  24.174  1.00  0.00     0.175 S 
ATOM     18  C   UNL A   1      32.768  15.787  25.068  1.00  0.00     0.163 C 
ATOM     19  O   UNL A   1      35.181  16.724  25.005  1.00  0.00    -0.224 OA
ATOM     20  O   UNL A   1      34.027  16.174  22.821  1.00  0.00    -0.224 OA
ENDBRANCH  12  17
ENDBRANCH  10  11
BRANCH   9  21
ATOM     21  C   UNL A   1      34.306  23.569  23.712  1.00  0.00    -0.013 A 
ATOM     22  C   UNL A   1      34.570  24.101  24.988  1.00  0.00     0.013 A 
ATOM     23  C   UNL A   1      35.365  23.029  22.971  1.00  0.00     0.013 A 
ATOM     24  C   UNL A   1      35.855  24.065  25.525  1.00  0.00     0.047 A 
ATOM     25  C   UNL A   1      36.653  22.980  23.517  1.00  0.00     0.047 A 
ATOM     26  C   UNL A   1      36.883  23.489  24.794  1.00  0.00     0.115 A 
BRANCH  26  27
ATOM     27  O   UNL A   1      38.114  23.428  25.376  1.00  0.00    -0.508 OA
ATOM     28  H   UNL A   1      38.430  22.616  25.721  1.00  0.00     0.293 HD
ENDBRANCH  26  27
ENDBRANCH   9  21
ENDBRANCH   6   9
ENDBRANCH   4   5
ENDBRANCH   3   4
ENDBRANCH   2   3
ENDBRANCH   1   2
BRANCH   1  29
ATOM     29  C   UNL A   1      32.836  27.937  24.889  1.00  0.00     0.021 C 
BRANCH  29  30
ATOM     30  C   UNL A   1      33.576  29.270  24.883  1.00  0.00     0.116 C 
BRANCH  30  31
ATOM     31  N   UNL A   1      32.800  30.321  25.521  1.00  0.00    -0.352 N 
ATOM     32  C   UNL A   1      33.004  30.918  26.742  1.00  0.00     0.251 C 
ATOM     33  H   UNL A   1      32.025  30.649  25.010  1.00  0.00     0.163 HD
ATOM     34  O   UNL A   1      32.134  31.634  27.228  1.00  0.00    -0.269 OA
BRANCH  32  35
ATOM     35  C   UNL A   1      34.269  30.674  27.467  1.00  0.00     0.039 A 
ATOM     36  C   UNL A   1      35.157  31.735  27.669  1.00  0.00     0.014 A 
ATOM     37  C   UNL A   1      34.570  29.399  27.955  1.00  0.00     0.014 A 
ATOM     38  C   UNL A   1      36.323  31.528  28.411  1.00  0.00     0.010 A 
ATOM     39  C   UNL A   1      35.700  29.211  28.745  1.00  0.00     0.010 A 
ATOM     40  C   UNL A   1      36.589  30.273  28.979  1.00  0.00    -0.014 A 
BRANCH  40  41
ATOM     41  C   UNL A   1      37.802  30.029  29.804  1.00  0.00     0.031 A 
ATOM     42  C   UNL A   1      38.888  29.131  29.279  1.00  0.00     0.074 A 
ATOM     43  C   UNL A   1      37.886  30.543  31.046  1.00  0.00     0.049 A 
ATOM     44  N   UNL A   1      39.951  28.672  29.887  1.00  0.00    -0.248 NA
ATOM     45  C   UNL A   1      38.733  28.661  27.894  1.00  0.00     0.031 C 
ATOM     46  C   UNL A   1      36.885  31.410  31.672  1.00  0.00     0.029 A 
ATOM     47  N   UNL A   1      38.848  30.396  32.012  1.00  0.00    -0.354 N 
ATOM     48  C   UNL A   1      40.585  27.843  28.966  1.00  0.00     0.074 A 
ATOM     49  C   UNL A   1      39.751  27.821  27.782  1.00  0.00     0.031 C 
ATOM     50  C   UNL A   1      37.292  31.726  32.911  1.00  0.00     0.029 A 
ATOM     51  C   UNL A   1      38.556  31.046  33.189  1.00  0.00     0.049 A 
ATOM     52  H   UNL A   1      39.671  29.873  31.878  1.00  0.00     0.167 HD
ATOM     53  C   UNL A   1      41.759  27.178  29.091  1.00  0.00     0.034 A 
ATOM     54  C   UNL A   1      39.217  31.075  34.362  1.00  0.00     0.034 A 
ATOM     55  C   UNL A   1      42.584  27.225  30.274  1.00  0.00     0.049 A 
ATOM     56  C   UNL A   1      40.506  30.303  34.492  1.00  0.00     0.074 A 
ATOM     57  C   UNL A   1      43.813  26.630  30.495  1.00  0.00     0.029 A 
ATOM     58  N   UNL A   1      42.257  27.902  31.442  1.00  0.00    -0.354 N 
ATOM     59  N   UNL A   1      41.108  29.546  33.603  1.00  0.00    -0.248 NA
ATOM     60  C   UNL A   1      41.208  30.394  35.779  1.00  0.00     0.031 C 
ATOM     61  C   UNL A   1      44.201  26.897  31.812  1.00  0.00     0.029 A 
ATOM     62  C   UNL A   1      43.248  27.718  32.393  1.00  0.00     0.049 A 
ATOM     63  H   UNL A   1      41.440  28.435  31.576  1.00  0.00     0.167 HD
ATOM     64  C   UNL A   1      42.277  29.101  34.214  1.00  0.00     0.074 A 
ATOM     65  C   UNL A   1      42.297  29.675  35.543  1.00  0.00     0.031 C 
ATOM     66  C   UNL A   1      43.251  28.298  33.716  1.00  0.00     0.034 A 
BRANCH  53  67
ATOM     67  C   UNL A   1      42.200  26.326  27.924  1.00  0.00     0.023 A 
ATOM     68  C   UNL A   1      41.716  25.019  27.740  1.00  0.00     0.031 A 
ATOM     69  C   UNL A   1      43.151  26.809  27.007  1.00  0.00     0.131 A 
ATOM     70  C   UNL A   1      42.245  24.211  26.724  1.00  0.00     0.055 A 
ATOM     71  C   UNL A   1      43.610  26.029  25.942  1.00  0.00     0.041 A 
ATOM     72  F   UNL A   1      43.665  28.042  27.140  1.00  0.00    -0.206 F 
ATOM     73  C   UNL A   1      43.171  24.715  25.807  1.00  0.00     0.022 A 
BRANCH  70  74
ATOM     74  S   UNL A   1      41.827  22.447  26.716  1.00  0.00     0.124 S 
ATOM     75  O   UNL A   1      40.381  22.487  26.922  1.00  0.00    -0.237 OA
ATOM     76  O   UNL A   1      42.272  22.023  25.393  1.00  0.00    -0.237 OA
ATOM     77  O   UNL A   1      42.594  21.907  27.836  1.00  0.00    -0.744 OA
ENDBRANCH  70  74
ENDBRANCH  53  67
BRANCH  54  78
ATOM     78  C   UNL A   1      38.673  31.847  35.515  1.00  0.00     0.023 A 
ATOM     79  C   UNL A   1      38.153  31.189  36.642  1.00  0.00     0.031 A 
ATOM     80  C   UNL A   1      38.635  33.252  35.495  1.00  0.00     0.131 A 
ATOM     81  C   UNL A   1      37.580  31.934  37.684  1.00  0.00     0.055 A 
ATOM     82  C   UNL A   1      38.107  33.991  36.555  1.00  0.00     0.041 A 
ATOM     83  F   UNL A   1      39.125  33.929  34.444  1.00  0.00    -0.206 F 
ATOM     84  C   UNL A   1      37.564  33.331  37.653  1.00  0.00     0.022 A 
BRANCH  81  85
ATOM     85  S   UNL A   1      36.789  31.046  39.052  1.00  0.00     0.124 S 
ATOM     86  O   UNL A   1      35.552  31.800  39.219  1.00  0.00    -0.237 OA
ATOM     87  O   UNL A   1      36.653  29.702  38.502  1.00  0.00    -0.237 OA
ATOM     88  O   UNL A   1      37.751  31.175  40.144  1.00  0.00    -0.744 OA
ENDBRANCH  81  85
ENDBRANCH  54  78
BRANCH  66  89
ATOM     89  C   UNL A   1      44.450  28.046  34.595  1.00  0.00     0.023 A 
ATOM     90  C   UNL A   1      44.508  26.955  35.480  1.00  0.00     0.031 A 
ATOM     91  C   UNL A   1      45.557  28.912  34.535  1.00  0.00     0.131 A 
ATOM     92  C   UNL A   1      45.634  26.782  36.299  1.00  0.00     0.055 A 
ATOM     93  C   UNL A   1      46.695  28.705  35.314  1.00  0.00     0.041 A 
ATOM     94  F   UNL A   1      45.552  29.969  33.706  1.00  0.00    -0.206 F 
ATOM     95  C   UNL A   1      46.734  27.640  36.209  1.00  0.00     0.022 A 
BRANCH  92  96
ATOM     96  S   UNL A   1      45.622  25.451  37.532  1.00  0.00     0.124 S 
ATOM     97  O   UNL A   1      44.504  25.840  38.386  1.00  0.00    -0.237 OA
ATOM     98  O   UNL A   1      45.413  24.265  36.710  1.00  0.00    -0.237 OA
ATOM     99  O   UNL A   1      46.941  25.548  38.155  1.00  0.00    -0.744 OA
ENDBRANCH  92  96
ENDBRANCH  66  89
ENDBRANCH  40  41
ENDBRANCH  32  35
ENDBRANCH  30  31
ENDBRANCH  29  30
ENDBRANCH   1  29
TORSDOF 20
ENDMDL
MODEL 2
REMARK VINA RESULT:     -12.3      2.557      7.698
REMARK SMILES CS(=O)(=O)c1ccc(/C=C(/C(=O)NCCCCCCNC(=O)c2ccc(-c3c4nc(c(-c5cc(S(=O)(=O)[O-])ccc5F)c5ccc([nH]5)c(-c5cc(S(=O)(=O)[O-])ccc5F)c5nc(c(-c6cc(S(=O)(=O)[O-])ccc6F)c6ccc3[nH]6)C=C5)C=C4)cc2)c2ccc(O)cc2)cc1
REMARK SMILES IDX 17 1 16 2 15 3 14 4 13 5 11 6 12 7 10 9 9 10 8 11 5 12 6 13
REMARK SMILES IDX 94 14 7 15 93 16 2 17 1 18 3 19 4 20 86 21 87 22 92 23 88 24
REMARK SMILES IDX 91 25 89 26 90 27 18 29 19 30 20 31 21 32 22 34 23 35 24 36
REMARK SMILES IDX 85 37 25 38 84 39 26 40 27 41 28 42 78 43 29 44 83 45 77 46
REMARK SMILES IDX 79 47 30 48 82 49 76 50 75 51 31 53 63 54 43 55 62 56 44 57
REMARK SMILES IDX 47 58 61 59 80 60 45 61 46 62 60 64 81 65 48 66 32 67 33 68
REMARK SMILES IDX 41 69 34 70 40 71 42 72 39 73 35 74 36 75 37 76 38 77 64 78
REMARK SMILES IDX 65 79 73 80 66 81 72 82 74 83 71 84 67 85 68 86 69 87 70 88
REMARK SMILES IDX 49 89 50 90 58 91 51 92 57 93 59 94 56 95 52 96 53 97 54 98
REMARK SMILES IDX 55 99
REMARK H PARENT 13 8 90 28 20 33 79 52 47 63
REMARK Flexibility Score: inf
ROOT
ATOM      1  C   UNL A   1      31.689  28.241  26.814  1.00  0.00     0.002 C 
ENDROOT
BRANCH   1   2
ATOM      2  C   UNL A   1      31.192  27.470  25.584  1.00  0.00     0.002 C 
BRANCH   2   3
ATOM      3  C   UNL A   1      31.057  25.950  25.779  1.00  0.00     0.021 C 
BRANCH   3   4
ATOM      4  C   UNL A   1      30.411  25.234  24.588  1.00  0.00     0.116 C 
BRANCH   4   5
ATOM      5  N   UNL A   1      31.220  25.434  23.402  1.00  0.00    -0.352 N 
ATOM      6  C   UNL A   1      32.280  24.788  22.851  1.00  0.00     0.251 C 
ATOM      7  O   UNL A   1      32.778  25.325  21.857  1.00  0.00    -0.269 OA
ATOM      8  H   UNL A   1      30.937  26.217  22.876  1.00  0.00     0.163 HD
BRANCH   6   9
ATOM      9  C   UNL A   1      32.786  23.444  23.325  1.00  0.00     0.047 C 
ATOM     10  C   UNL A   1      31.999  22.344  23.362  1.00  0.00     0.022 C 
BRANCH  10  11
ATOM     11  C   UNL A   1      32.363  20.940  23.656  1.00  0.00    -0.025 A 
ATOM     12  C   UNL A   1      33.140  18.258  24.011  1.00  0.00     0.067 A 
ATOM     13  C   UNL A   1      33.278  19.166  25.059  1.00  0.00     0.021 A 
ATOM     14  C   UNL A   1      32.582  18.667  22.798  1.00  0.00     0.021 A 
ATOM     15  C   UNL A   1      32.866  20.494  24.885  1.00  0.00     0.009 A 
ATOM     16  C   UNL A   1      32.196  19.999  22.626  1.00  0.00     0.009 A 
BRANCH  12  17
ATOM     17  S   UNL A   1      33.685  16.572  24.135  1.00  0.00     0.175 S 
ATOM     18  C   UNL A   1      35.167  16.563  25.101  1.00  0.00     0.163 C 
ATOM     19  O   UNL A   1      34.058  16.159  22.797  1.00  0.00    -0.224 OA
ATOM     20  O   UNL A   1      32.667  15.864  24.891  1.00  0.00    -0.224 OA
ENDBRANCH  12  17
ENDBRANCH  10  11
BRANCH   9  21
ATOM     21  C   UNL A   1      34.150  23.423  23.912  1.00  0.00    -0.013 A 
ATOM     22  C   UNL A   1      35.207  22.924  23.128  1.00  0.00     0.013 A 
ATOM     23  C   UNL A   1      34.436  23.943  25.181  1.00  0.00     0.013 A 
ATOM     24  C   UNL A   1      36.522  22.975  23.586  1.00  0.00     0.047 A 
ATOM     25  C   UNL A   1      35.758  24.007  25.634  1.00  0.00     0.047 A 
ATOM     26  C   UNL A   1      36.790  23.532  24.827  1.00  0.00     0.115 A 
BRANCH  26  27
ATOM     27  O   UNL A   1      38.094  23.608  25.217  1.00  0.00    -0.508 OA
ATOM     28  H   UNL A   1      38.372  24.293  25.793  1.00  0.00     0.293 HD
ENDBRANCH  26  27
ENDBRANCH   9  21
ENDBRANCH   6   9
ENDBRANCH   4   5
ENDBRANCH   3   4
ENDBRANCH   2   3
ENDBRANCH   1   2
BRANCH   1  29
ATOM     29  C   UNL A   1      33.191  28.124  27.085  1.00  0.00     0.021 C 
BRANCH  29  30
ATOM     30  C   UNL A   1      34.052  29.097  26.287  1.00  0.00     0.116 C 
BRANCH  30  31
ATOM     31  N   UNL A   1      33.817  30.476  26.681  1.00  0.00    -0.352 N 
ATOM     32  C   UNL A   1      34.464  31.216  27.642  1.00  0.00     0.251 C 
ATOM     33  H   UNL A   1      33.098  30.943  26.196  1.00  0.00     0.163 HD
ATOM     34  O   UNL A   1      34.001  32.293  28.003  1.00  0.00    -0.269 OA
BRANCH  32  35
ATOM     35  C   UNL A   1      35.708  30.692  28.247  1.00  0.00     0.039 A 
ATOM     36  C   UNL A   1      35.625  29.862  29.368  1.00  0.00     0.014 A 
ATOM     37  C   UNL A   1      36.952  31.016  27.698  1.00  0.00     0.014 A 
ATOM     38  C   UNL A   1      36.790  29.310  29.906  1.00  0.00     0.010 A 
ATOM     39  C   UNL A   1      38.104  30.416  28.197  1.00  0.00     0.010 A 
ATOM     40  C   UNL A   1      38.035  29.558  29.307  1.00  0.00    -0.014 A 
BRANCH  40  41
ATOM     41  C   UNL A   1      39.289  28.957  29.832  1.00  0.00     0.031 A 
ATOM     42  C   UNL A   1      39.983  29.594  31.005  1.00  0.00     0.074 A 
ATOM     43  C   UNL A   1      39.843  27.900  29.208  1.00  0.00     0.049 A 
ATOM     44  N   UNL A   1      41.152  29.322  31.526  1.00  0.00    -0.248 NA
ATOM     45  C   UNL A   1      39.277  30.709  31.654  1.00  0.00     0.031 C 
ATOM     46  C   UNL A   1      39.274  27.211  28.047  1.00  0.00     0.029 A 
ATOM     47  N   UNL A   1      41.016  27.231  29.448  1.00  0.00    -0.354 N 
ATOM     48  C   UNL A   1      41.332  30.244  32.552  1.00  0.00     0.074 A 
ATOM     49  C   UNL A   1      40.176  31.116  32.538  1.00  0.00     0.031 C 
ATOM     50  C   UNL A   1      40.094  26.211  27.685  1.00  0.00     0.029 A 
ATOM     51  C   UNL A   1      41.269  26.217  28.554  1.00  0.00     0.049 A 
ATOM     52  H   UNL A   1      41.621  27.456  30.191  1.00  0.00     0.167 HD
ATOM     53  C   UNL A   1      42.356  30.342  33.435  1.00  0.00     0.034 A 
ATOM     54  C   UNL A   1      42.334  25.401  28.433  1.00  0.00     0.034 A 
ATOM     55  C   UNL A   1      43.493  29.454  33.442  1.00  0.00     0.049 A 
ATOM     56  C   UNL A   1      43.478  25.546  29.404  1.00  0.00     0.074 A 
ATOM     57  C   UNL A   1      44.566  29.431  34.317  1.00  0.00     0.029 A 
ATOM     58  N   UNL A   1      43.709  28.434  32.525  1.00  0.00    -0.354 N 
ATOM     59  N   UNL A   1      43.622  26.404  30.388  1.00  0.00    -0.248 NA
ATOM     60  C   UNL A   1      44.600  24.610  29.254  1.00  0.00     0.031 C 
ATOM     61  C   UNL A   1      45.457  28.438  33.894  1.00  0.00     0.029 A 
ATOM     62  C   UNL A   1      44.908  27.793  32.797  1.00  0.00     0.049 A 
ATOM     63  H   UNL A   1      43.100  28.199  31.788  1.00  0.00     0.167 HD
ATOM     64  C   UNL A   1      44.835  26.086  30.994  1.00  0.00     0.074 A 
ATOM     65  C   UNL A   1      45.379  24.958  30.268  1.00  0.00     0.031 C 
ATOM     66  C   UNL A   1      45.437  26.669  32.062  1.00  0.00     0.034 A 
BRANCH  53  67
ATOM     67  C   UNL A   1      42.298  31.467  34.441  1.00  0.00     0.023 A 
ATOM     68  C   UNL A   1      41.407  31.438  35.528  1.00  0.00     0.031 A 
ATOM     69  C   UNL A   1      43.111  32.604  34.289  1.00  0.00     0.131 A 
ATOM     70  C   UNL A   1      41.286  32.557  36.366  1.00  0.00     0.055 A 
ATOM     71  C   UNL A   1      43.050  33.679  35.179  1.00  0.00     0.041 A 
ATOM     72  F   UNL A   1      43.969  32.699  33.260  1.00  0.00    -0.206 F 
ATOM     73  C   UNL A   1      42.120  33.667  36.215  1.00  0.00     0.022 A 
BRANCH  70  74
ATOM     74  S   UNL A   1      39.917  32.603  37.554  1.00  0.00     0.124 S 
ATOM     75  O   UNL A   1      39.432  33.971  37.390  1.00  0.00    -0.237 OA
ATOM     76  O   UNL A   1      39.036  31.550  37.061  1.00  0.00    -0.237 OA
ATOM     77  O   UNL A   1      40.564  32.329  38.835  1.00  0.00    -0.744 OA
ENDBRANCH  70  74
ENDBRANCH  53  67
BRANCH  54  78
ATOM     78  C   UNL A   1      42.382  24.381  27.347  1.00  0.00     0.023 A 
ATOM     79  C   UNL A   1      41.567  23.238  27.395  1.00  0.00     0.031 A 
ATOM     80  C   UNL A   1      43.265  24.517  26.262  1.00  0.00     0.131 A 
ATOM     81  C   UNL A   1      41.680  22.256  26.400  1.00  0.00     0.055 A 
ATOM     82  C   UNL A   1      43.340  23.559  25.248  1.00  0.00     0.041 A 
ATOM     83  F   UNL A   1      44.061  25.594  26.165  1.00  0.00    -0.206 F 
ATOM     84  C   UNL A   1      42.553  22.415  25.320  1.00  0.00     0.022 A 
BRANCH  81  85
ATOM     85  S   UNL A   1      40.719  20.728  26.574  1.00  0.00     0.124 S 
ATOM     86  O   UNL A   1      40.878  20.438  27.994  1.00  0.00    -0.237 OA
ATOM     87  O   UNL A   1      39.390  21.157  26.150  1.00  0.00    -0.237 OA
ATOM     88  O   UNL A   1      41.389  19.799  25.667  1.00  0.00    -0.744 OA
ENDBRANCH  81  85
ENDBRANCH  54  78
BRANCH  66  89
ATOM     89  C   UNL A   1      46.726  26.051  32.544  1.00  0.00     0.023 A 
ATOM     90  C   UNL A   1      47.973  26.418  32.009  1.00  0.00     0.031 A 
ATOM     91  C   UNL A   1      46.699  25.086  33.567  1.00  0.00     0.131 A 
ATOM     92  C   UNL A   1      49.140  25.792  32.471  1.00  0.00     0.055 A 
ATOM     93  C   UNL A   1      47.868  24.505  34.059  1.00  0.00     0.041 A 
ATOM     94  F   UNL A   1      45.534  24.701  34.112  1.00  0.00    -0.206 F 
ATOM     95  C   UNL A   1      49.097  24.851  33.504  1.00  0.00     0.022 A 
BRANCH  92  96
ATOM     96  S   UNL A   1      50.718  26.179  31.664  1.00  0.00     0.124 S 
ATOM     97  O   UNL A   1      50.342  27.274  30.775  1.00  0.00    -0.237 OA
ATOM     98  O   UNL A   1      51.567  26.539  32.794  1.00  0.00    -0.237 OA
ATOM     99  O   UNL A   1      51.077  24.931  30.993  1.00  0.00    -0.744 OA
ENDBRANCH  92  96
ENDBRANCH  66  89
ENDBRANCH  40  41
ENDBRANCH  32  35
ENDBRANCH  30  31
ENDBRANCH  29  30
ENDBRANCH   1  29
TORSDOF 20
ENDMDL
MODEL 3
REMARK VINA RESULT:     -12.2      2.250      7.582
REMARK SMILES CS(=O)(=O)c1ccc(/C=C(/C(=O)NCCCCCCNC(=O)c2ccc(-c3c4nc(c(-c5cc(S(=O)(=O)[O-])ccc5F)c5ccc([nH]5)c(-c5cc(S(=O)(=O)[O-])ccc5F)c5nc(c(-c6cc(S(=O)(=O)[O-])ccc6F)c6ccc3[nH]6)C=C5)C=C4)cc2)c2ccc(O)cc2)cc1
REMARK SMILES IDX 17 1 16 2 15 3 14 4 13 5 11 6 12 7 10 9 9 10 8 11 5 12 6 13
REMARK SMILES IDX 94 14 7 15 93 16 2 17 1 18 3 19 4 20 86 21 87 22 92 23 88 24
REMARK SMILES IDX 91 25 89 26 90 27 18 29 19 30 20 31 21 32 22 34 23 35 24 36
REMARK SMILES IDX 85 37 25 38 84 39 26 40 27 41 28 42 78 43 29 44 83 45 77 46
REMARK SMILES IDX 79 47 30 48 82 49 76 50 75 51 31 53 63 54 43 55 62 56 44 57
REMARK SMILES IDX 47 58 61 59 80 60 45 61 46 62 60 64 81 65 48 66 32 67 33 68
REMARK SMILES IDX 41 69 34 70 40 71 42 72 39 73 35 74 36 75 37 76 38 77 64 78
REMARK SMILES IDX 65 79 73 80 66 81 72 82 74 83 71 84 67 85 68 86 69 87 70 88
REMARK SMILES IDX 49 89 50 90 58 91 51 92 57 93 59 94 56 95 52 96 53 97 54 98
REMARK SMILES IDX 55 99
REMARK H PARENT 13 8 90 28 20 33 79 52 47 63
REMARK Flexibility Score: inf
ROOT
ATOM      1  C   UNL A   1      31.611  28.355  26.115  1.00  0.00     0.002 C 
ENDROOT
BRANCH   1   2
ATOM      2  C   UNL A   1      31.137  27.545  24.902  1.00  0.00     0.002 C 
BRANCH   2   3
ATOM      3  C   UNL A   1      30.952  26.039  25.156  1.00  0.00     0.021 C 
BRANCH   3   4
ATOM      4  C   UNL A   1      30.523  25.255  23.911  1.00  0.00     0.116 C 
BRANCH   4   5
ATOM      5  N   UNL A   1      31.508  25.430  22.862  1.00  0.00    -0.352 N 
ATOM      6  C   UNL A   1      32.644  24.778  22.502  1.00  0.00     0.251 C 
ATOM      7  O   UNL A   1      33.290  25.293  21.585  1.00  0.00    -0.269 OA
ATOM      8  H   UNL A   1      31.309  26.197  22.277  1.00  0.00     0.163 HD
BRANCH   6   9
ATOM      9  C   UNL A   1      33.073  23.450  23.086  1.00  0.00     0.047 C 
ATOM     10  C   UNL A   1      32.262  22.368  23.103  1.00  0.00     0.022 C 
BRANCH  10  11
ATOM     11  C   UNL A   1      32.565  20.974  23.497  1.00  0.00    -0.025 A 
ATOM     12  C   UNL A   1      33.189  18.283  24.035  1.00  0.00     0.067 A 
ATOM     13  C   UNL A   1      33.573  19.278  24.932  1.00  0.00     0.021 A 
ATOM     14  C   UNL A   1      32.463  18.615  22.889  1.00  0.00     0.021 A 
ATOM     15  C   UNL A   1      33.237  20.614  24.671  1.00  0.00     0.009 A 
ATOM     16  C   UNL A   1      32.153  19.952  22.626  1.00  0.00     0.009 A 
BRANCH  12  17
ATOM     17  S   UNL A   1      33.619  16.575  24.267  1.00  0.00     0.175 S 
ATOM     18  C   UNL A   1      35.048  16.526  25.309  1.00  0.00     0.163 C 
ATOM     19  O   UNL A   1      34.032  16.074  22.971  1.00  0.00    -0.224 OA
ATOM     20  O   UNL A   1      32.523  15.969  25.000  1.00  0.00    -0.224 OA
ENDBRANCH  12  17
ENDBRANCH  10  11
BRANCH   9  21
ATOM     21  C   UNL A   1      34.377  23.435  23.798  1.00  0.00    -0.013 A 
ATOM     22  C   UNL A   1      35.499  22.915  23.126  1.00  0.00     0.013 A 
ATOM     23  C   UNL A   1      34.546  23.979  25.078  1.00  0.00     0.013 A 
ATOM     24  C   UNL A   1      36.766  22.968  23.704  1.00  0.00     0.047 A 
ATOM     25  C   UNL A   1      35.821  24.045  25.652  1.00  0.00     0.047 A 
ATOM     26  C   UNL A   1      36.920  23.549  24.954  1.00  0.00     0.115 A 
BRANCH  26  27
ATOM     27  O   UNL A   1      38.183  23.626  25.461  1.00  0.00    -0.508 OA
ATOM     28  H   UNL A   1      38.554  24.462  25.668  1.00  0.00     0.293 HD
ENDBRANCH  26  27
ENDBRANCH   9  21
ENDBRANCH   6   9
ENDBRANCH   4   5
ENDBRANCH   3   4
ENDBRANCH   2   3
ENDBRANCH   1   2
BRANCH   1  29
ATOM     29  C   UNL A   1      32.982  27.955  26.664  1.00  0.00     0.021 C 
BRANCH  29  30
ATOM     30  C   UNL A   1      34.116  28.896  26.273  1.00  0.00     0.116 C 
BRANCH  30  31
ATOM     31  N   UNL A   1      33.846  30.265  26.682  1.00  0.00    -0.352 N 
ATOM     32  C   UNL A   1      34.489  31.018  27.635  1.00  0.00     0.251 C 
ATOM     33  H   UNL A   1      33.104  30.713  26.215  1.00  0.00     0.163 HD
ATOM     34  O   UNL A   1      34.000  32.078  28.013  1.00  0.00    -0.269 OA
BRANCH  32  35
ATOM     35  C   UNL A   1      35.760  30.529  28.212  1.00  0.00     0.039 A 
ATOM     36  C   UNL A   1      35.727  29.710  29.344  1.00  0.00     0.014 A 
ATOM     37  C   UNL A   1      36.982  30.874  27.626  1.00  0.00     0.014 A 
ATOM     38  C   UNL A   1      36.918  29.190  29.855  1.00  0.00     0.010 A 
ATOM     39  C   UNL A   1      38.160  30.305  28.100  1.00  0.00     0.010 A 
ATOM     40  C   UNL A   1      38.140  29.459  29.220  1.00  0.00    -0.014 A 
BRANCH  40  41
ATOM     41  C   UNL A   1      39.421  28.892  29.718  1.00  0.00     0.031 A 
ATOM     42  C   UNL A   1      40.151  29.578  30.840  1.00  0.00     0.074 A 
ATOM     43  C   UNL A   1      39.964  27.819  29.111  1.00  0.00     0.049 A 
ATOM     44  N   UNL A   1      41.342  29.338  31.324  1.00  0.00    -0.248 NA
ATOM     45  C   UNL A   1      39.456  30.707  31.475  1.00  0.00     0.031 C 
ATOM     46  C   UNL A   1      39.360  27.082  27.997  1.00  0.00     0.029 A 
ATOM     47  N   UNL A   1      41.154  27.173  29.329  1.00  0.00    -0.354 N 
ATOM     48  C   UNL A   1      41.549  30.299  32.309  1.00  0.00     0.074 A 
ATOM     49  C   UNL A   1      40.382  31.157  32.308  1.00  0.00     0.031 C 
ATOM     50  C   UNL A   1      40.178  26.079  27.641  1.00  0.00     0.029 A 
ATOM     51  C   UNL A   1      41.385  26.130  28.462  1.00  0.00     0.049 A 
ATOM     52  H   UNL A   1      41.784  27.431  30.040  1.00  0.00     0.167 HD
ATOM     53  C   UNL A   1      42.605  30.441  33.147  1.00  0.00     0.034 A 
ATOM     54  C   UNL A   1      42.456  25.322  28.329  1.00  0.00     0.034 A 
ATOM     55  C   UNL A   1      43.753  29.566  33.143  1.00  0.00     0.049 A 
ATOM     56  C   UNL A   1      43.634  25.516  29.249  1.00  0.00     0.074 A 
ATOM     57  C   UNL A   1      44.858  29.587  33.975  1.00  0.00     0.029 A 
ATOM     58  N   UNL A   1      43.947  28.516  32.255  1.00  0.00    -0.354 N 
ATOM     59  N   UNL A   1      43.805  26.410  30.196  1.00  0.00    -0.248 NA
ATOM     60  C   UNL A   1      44.761  24.588  29.089  1.00  0.00     0.031 C 
ATOM     61  C   UNL A   1      45.745  28.590  33.554  1.00  0.00     0.029 A 
ATOM     62  C   UNL A   1      45.163  27.899  32.503  1.00  0.00     0.049 A 
ATOM     63  H   UNL A   1      43.313  28.248  31.550  1.00  0.00     0.167 HD
ATOM     64  C   UNL A   1      45.043  26.128  30.766  1.00  0.00     0.074 A 
ATOM     65  C   UNL A   1      45.574  24.981  30.060  1.00  0.00     0.031 C 
ATOM     66  C   UNL A   1      45.679  26.756  31.788  1.00  0.00     0.034 A 
BRANCH  53  67
ATOM     67  C   UNL A   1      42.571  31.600  34.115  1.00  0.00     0.023 A 
ATOM     68  C   UNL A   1      41.897  31.514  35.346  1.00  0.00     0.031 A 
ATOM     69  C   UNL A   1      43.181  32.823  33.785  1.00  0.00     0.131 A 
ATOM     70  C   UNL A   1      41.773  32.650  36.159  1.00  0.00     0.055 A 
ATOM     71  C   UNL A   1      43.130  33.927  34.640  1.00  0.00     0.041 A 
ATOM     72  F   UNL A   1      43.824  32.973  32.615  1.00  0.00    -0.206 F 
ATOM     73  C   UNL A   1      42.407  33.849  35.827  1.00  0.00     0.022 A 
BRANCH  70  74
ATOM     74  S   UNL A   1      40.640  32.581  37.573  1.00  0.00     0.124 S 
ATOM     75  O   UNL A   1      39.561  31.750  37.045  1.00  0.00    -0.237 OA
ATOM     76  O   UNL A   1      41.466  31.974  38.610  1.00  0.00    -0.237 OA
ATOM     77  O   UNL A   1      40.285  33.981  37.797  1.00  0.00    -0.744 OA
ENDBRANCH  70  74
ENDBRANCH  53  67
BRANCH  54  78
ATOM     78  C   UNL A   1      42.475  24.264  27.279  1.00  0.00     0.023 A 
ATOM     79  C   UNL A   1      41.663  23.124  27.390  1.00  0.00     0.031 A 
ATOM     80  C   UNL A   1      43.329  24.362  26.167  1.00  0.00     0.131 A 
ATOM     81  C   UNL A   1      41.750  22.108  26.427  1.00  0.00     0.055 A 
ATOM     82  C   UNL A   1      43.378  23.369  25.186  1.00  0.00     0.041 A 
ATOM     83  F   UNL A   1      44.121  25.434  26.010  1.00  0.00    -0.206 F 
ATOM     84  C   UNL A   1      42.594  22.228  25.319  1.00  0.00     0.022 A 
BRANCH  81  85
ATOM     85  S   UNL A   1      40.795  20.587  26.681  1.00  0.00     0.124 S 
ATOM     86  O   UNL A   1      41.608  19.605  25.974  1.00  0.00    -0.237 OA
ATOM     87  O   UNL A   1      40.778  20.480  28.136  1.00  0.00    -0.237 OA
ATOM     88  O   UNL A   1      39.504  20.889  26.066  1.00  0.00    -0.744 OA
ENDBRANCH  81  85
ENDBRANCH  54  78
BRANCH  66  89
ATOM     89  C   UNL A   1      46.992  26.171  32.242  1.00  0.00     0.023 A 
ATOM     90  C   UNL A   1      47.064  25.195  33.251  1.00  0.00     0.031 A 
ATOM     91  C   UNL A   1      48.192  26.595  31.642  1.00  0.00     0.131 A 
ATOM     92  C   UNL A   1      48.313  24.704  33.658  1.00  0.00     0.055 A 
ATOM     93  C   UNL A   1      49.427  26.066  32.015  1.00  0.00     0.041 A 
ATOM     94  F   UNL A   1      48.179  27.525  30.674  1.00  0.00    -0.206 F 
ATOM     95  C   UNL A   1      49.493  25.121  33.036  1.00  0.00     0.022 A 
BRANCH  92  96
ATOM     96  S   UNL A   1      48.386  23.553  35.058  1.00  0.00     0.124 S 
ATOM     97  O   UNL A   1      49.671  22.895  34.841  1.00  0.00    -0.237 OA
ATOM     98  O   UNL A   1      48.316  24.451  36.206  1.00  0.00    -0.237 OA
ATOM     99  O   UNL A   1      47.213  22.702  34.866  1.00  0.00    -0.744 OA
ENDBRANCH  92  96
ENDBRANCH  66  89
ENDBRANCH  40  41
ENDBRANCH  32  35
ENDBRANCH  30  31
ENDBRANCH  29  30
ENDBRANCH   1  29
TORSDOF 20
ENDMDL
