MODEL 1
REMARK VINA RESULT:     -12.1      0.000      0.000
REMARK SMILES Cc1ccc(-c2c(C(=O)NCCCCCCNC(=O)c3ccc(-c4c5nc(c(-c6cc(S(=O)(=O)[O-])ccc6F)c6ccc([nH]6)c(-c6cc(S(=O)(=O)[O-])ccc6F)c6nc(c(-c7cc(S(=O)(=O)[O-])ccc7F)c7ccc4[nH]7)C=C6)C=C5)cc3)nnn2Cc2c(F)cccc2Cl)cc1
REMARK SMILES IDX 14 1 13 2 12 3 11 4 10 5 8 6 9 7 7 9 6 10 85 11 83 12 84 13
REMARK SMILES IDX 5 14 1 15 2 16 3 17 96 18 4 19 95 20 86 21 87 22 88 23 93 24
REMARK SMILES IDX 89 25 90 26 92 27 94 28 91 29 15 30 16 31 17 32 18 33 19 35
REMARK SMILES IDX 20 36 21 37 82 38 22 39 81 40 23 41 24 42 25 43 75 44 26 45
REMARK SMILES IDX 80 46 74 47 76 48 27 49 79 50 73 51 72 52 28 54 60 55 40 56
REMARK SMILES IDX 59 57 41 58 44 59 58 60 77 61 42 62 43 63 57 65 78 66 45 67
REMARK SMILES IDX 29 68 30 69 38 70 31 71 37 72 39 73 36 74 32 75 33 76 34 77
REMARK SMILES IDX 35 78 61 79 62 80 70 81 63 82 69 83 71 84 68 85 64 86 65 87
REMARK SMILES IDX 66 88 67 89 46 90 47 91 55 92 48 93 54 94 56 95 53 96 49 97
REMARK SMILES IDX 50 98 51 99 52 100
REMARK H PARENT 10 8 17 34 76 53 44 64
REMARK Flexibility Score: inf
ROOT
ATOM      1  C   UNL A   1      37.899  22.550  25.604  1.00  0.00     0.002 C 
ENDROOT
BRANCH   1   2
ATOM      2  C   UNL A   1      36.835  23.610  25.289  1.00  0.00     0.002 C 
BRANCH   2   3
ATOM      3  C   UNL A   1      35.568  23.658  26.145  1.00  0.00     0.021 C 
BRANCH   3   4
ATOM      4  C   UNL A   1      34.911  22.337  26.519  1.00  0.00     0.116 C 
BRANCH   4   5
ATOM      5  N   UNL A   1      33.688  22.426  27.266  1.00  0.00    -0.351 N 
ATOM      6  C   UNL A   1      32.455  22.927  26.915  1.00  0.00     0.274 C 
ATOM      7  O   UNL A   1      31.585  22.822  27.789  1.00  0.00    -0.267 OA
ATOM      8  H   UNL A   1      33.740  22.069  28.183  1.00  0.00     0.163 HD
BRANCH   6   9
ATOM      9  C   UNL A   1      32.128  23.570  25.628  1.00  0.00     0.178 A 
ATOM     10  C   UNL A   1      32.163  24.870  25.106  1.00  0.00     0.102 A 
ATOM     11  N   UNL A   1      31.838  24.689  23.773  1.00  0.00    -0.239 N 
ATOM     12  N   UNL A   1      31.699  22.724  24.611  1.00  0.00    -0.124 NA
ATOM     13  N   UNL A   1      31.489  23.422  23.513  1.00  0.00    -0.066 NA
BRANCH  10  14
ATOM     14  C   UNL A   1      32.510  26.182  25.633  1.00  0.00     0.002 A 
ATOM     15  C   UNL A   1      33.595  29.951  27.425  1.00  0.00     0.044 C 
ATOM     16  C   UNL A   1      33.195  28.662  26.769  1.00  0.00    -0.051 A 
ATOM     17  C   UNL A   1      34.115  27.967  25.976  1.00  0.00     0.004 A 
ATOM     18  C   UNL A   1      31.914  28.132  26.952  1.00  0.00     0.004 A 
ATOM     19  C   UNL A   1      33.777  26.733  25.412  1.00  0.00     0.011 A 
ATOM     20  C   UNL A   1      31.571  26.905  26.380  1.00  0.00     0.011 A 
ENDBRANCH  10  14
BRANCH  11  21
ATOM     21  C   UNL A   1      31.778  25.650  22.674  1.00  0.00     0.187 C 
BRANCH  21  22
ATOM     22  C   UNL A   1      31.056  26.945  22.955  1.00  0.00     0.028 A 
ATOM     23  C   UNL A   1      29.685  26.866  23.242  1.00  0.00     0.129 A 
ATOM     24  C   UNL A   1      31.619  28.229  22.896  1.00  0.00     0.049 A 
ATOM     25  F   UNL A   1      29.071  25.673  23.215  1.00  0.00    -0.207 F 
ATOM     26  C   UNL A   1      28.917  27.990  23.538  1.00  0.00     0.040 A 
ATOM     27  C   UNL A   1      30.862  29.361  23.228  1.00  0.00     0.021 A 
ATOM     28  Cl  UNL A   1      33.245  28.521  22.392  1.00  0.00    -0.084 Cl
ATOM     29  C   UNL A   1      29.513  29.243  23.556  1.00  0.00     0.005 A 
ENDBRANCH  21  22
ENDBRANCH  11  21
ENDBRANCH   6   9
ENDBRANCH   4   5
ENDBRANCH   3   4
ENDBRANCH   2   3
ENDBRANCH   1   2
BRANCH   1  30
ATOM     30  C   UNL A   1      39.161  23.008  26.334  1.00  0.00     0.021 C 
BRANCH  30  31
ATOM     31  C   UNL A   1      39.892  21.928  27.127  1.00  0.00     0.116 C 
BRANCH  31  32
ATOM     32  N   UNL A   1      40.702  21.041  26.290  1.00  0.00    -0.352 N 
ATOM     33  C   UNL A   1      42.081  21.036  26.116  1.00  0.00     0.251 C 
ATOM     34  H   UNL A   1      40.205  20.358  25.786  1.00  0.00     0.163 HD
ATOM     35  O   UNL A   1      42.651  20.215  25.436  1.00  0.00    -0.269 OA
BRANCH  33  36
ATOM     36  C   UNL A   1      42.862  22.031  26.889  1.00  0.00     0.039 A 
ATOM     37  C   UNL A   1      42.840  21.919  28.282  1.00  0.00     0.014 A 
ATOM     38  C   UNL A   1      43.343  23.178  26.264  1.00  0.00     0.014 A 
ATOM     39  C   UNL A   1      43.070  23.055  29.051  1.00  0.00     0.010 A 
ATOM     40  C   UNL A   1      43.488  24.325  27.022  1.00  0.00     0.010 A 
ATOM     41  C   UNL A   1      43.274  24.277  28.406  1.00  0.00    -0.014 A 
BRANCH  41  42
ATOM     42  C   UNL A   1      43.098  25.553  29.093  1.00  0.00     0.031 A 
ATOM     43  C   UNL A   1      41.869  26.349  28.918  1.00  0.00     0.074 A 
ATOM     44  C   UNL A   1      44.082  26.029  29.888  1.00  0.00     0.049 A 
ATOM     45  N   UNL A   1      41.809  27.634  29.026  1.00  0.00    -0.248 NA
ATOM     46  C   UNL A   1      40.600  25.742  28.545  1.00  0.00     0.031 C 
ATOM     47  C   UNL A   1      44.016  27.168  30.800  1.00  0.00     0.029 A 
ATOM     48  N   UNL A   1      45.437  25.717  29.820  1.00  0.00    -0.354 N 
ATOM     49  C   UNL A   1      40.481  27.995  29.026  1.00  0.00     0.074 A 
ATOM     50  C   UNL A   1      39.778  26.792  28.642  1.00  0.00     0.031 C 
ATOM     51  C   UNL A   1      45.260  27.625  31.009  1.00  0.00     0.029 A 
ATOM     52  C   UNL A   1      46.153  26.880  30.141  1.00  0.00     0.049 A 
ATOM     53  H   UNL A   1      45.822  24.840  29.590  1.00  0.00     0.167 HD
ATOM     54  C   UNL A   1      40.117  29.227  29.489  1.00  0.00     0.034 A 
ATOM     55  C   UNL A   1      47.033  27.433  29.258  1.00  0.00     0.034 A 
ATOM     56  C   UNL A   1      41.284  30.045  29.832  1.00  0.00     0.049 A 
ATOM     57  C   UNL A   1      46.684  28.848  28.850  1.00  0.00     0.074 A 
ATOM     58  C   UNL A   1      41.885  30.368  31.038  1.00  0.00     0.029 A 
ATOM     59  N   UNL A   1      42.165  30.451  28.835  1.00  0.00    -0.354 N 
ATOM     60  N   UNL A   1      45.521  29.406  29.048  1.00  0.00    -0.248 NA
ATOM     61  C   UNL A   1      47.616  29.733  28.161  1.00  0.00     0.031 C 
ATOM     62  C   UNL A   1      43.161  30.923  30.760  1.00  0.00     0.029 A 
ATOM     63  C   UNL A   1      43.324  30.967  29.386  1.00  0.00     0.049 A 
ATOM     64  H   UNL A   1      41.988  30.383  27.869  1.00  0.00     0.167 HD
ATOM     65  C   UNL A   1      45.520  30.673  28.513  1.00  0.00     0.074 A 
ATOM     66  C   UNL A   1      46.868  30.838  27.998  1.00  0.00     0.031 C 
ATOM     67  C   UNL A   1      44.401  31.463  28.536  1.00  0.00     0.034 A 
BRANCH  54  68
ATOM     68  C   UNL A   1      38.709  29.571  29.940  1.00  0.00     0.023 A 
ATOM     69  C   UNL A   1      38.070  30.713  29.410  1.00  0.00     0.031 A 
ATOM     70  C   UNL A   1      37.968  28.875  30.915  1.00  0.00     0.131 A 
ATOM     71  C   UNL A   1      36.848  31.184  29.928  1.00  0.00     0.055 A 
ATOM     72  C   UNL A   1      36.785  29.376  31.478  1.00  0.00     0.041 A 
ATOM     73  F   UNL A   1      38.320  27.650  31.324  1.00  0.00    -0.206 F 
ATOM     74  C   UNL A   1      36.227  30.549  30.996  1.00  0.00     0.022 A 
BRANCH  71  75
ATOM     75  S   UNL A   1      36.074  32.647  29.183  1.00  0.00     0.124 S 
ATOM     76  O   UNL A   1      34.663  32.440  29.486  1.00  0.00    -0.237 OA
ATOM     77  O   UNL A   1      36.735  33.739  29.890  1.00  0.00    -0.237 OA
ATOM     78  O   UNL A   1      36.424  32.531  27.768  1.00  0.00    -0.744 OA
ENDBRANCH  71  75
ENDBRANCH  54  68
BRANCH  55  79
ATOM     79  C   UNL A   1      47.715  26.432  28.390  1.00  0.00     0.023 A 
ATOM     80  C   UNL A   1      47.329  26.370  27.033  1.00  0.00     0.031 A 
ATOM     81  C   UNL A   1      48.932  25.843  28.756  1.00  0.00     0.131 A 
ATOM     82  C   UNL A   1      48.210  25.860  26.070  1.00  0.00     0.055 A 
ATOM     83  C   UNL A   1      49.789  25.290  27.795  1.00  0.00     0.041 A 
ATOM     84  F   UNL A   1      49.368  25.903  30.022  1.00  0.00    -0.206 F 
ATOM     85  C   UNL A   1      49.449  25.334  26.443  1.00  0.00     0.022 A 
BRANCH  82  86
ATOM     86  S   UNL A   1      47.852  26.081  24.302  1.00  0.00     0.124 S 
ATOM     87  O   UNL A   1      49.130  26.558  23.787  1.00  0.00    -0.237 OA
ATOM     88  O   UNL A   1      47.456  24.745  23.867  1.00  0.00    -0.237 OA
ATOM     89  O   UNL A   1      46.766  27.060  24.315  1.00  0.00    -0.744 OA
ENDBRANCH  82  86
ENDBRANCH  55  79
BRANCH  67  90
ATOM     90  C   UNL A   1      44.229  32.808  27.846  1.00  0.00     0.023 A 
ATOM     91  C   UNL A   1      43.817  33.979  28.501  1.00  0.00     0.031 A 
ATOM     92  C   UNL A   1      44.544  32.965  26.472  1.00  0.00     0.131 A 
ATOM     93  C   UNL A   1      43.652  35.192  27.802  1.00  0.00     0.055 A 
ATOM     94  C   UNL A   1      44.452  34.187  25.796  1.00  0.00     0.041 A 
ATOM     95  F   UNL A   1      44.967  31.938  25.720  1.00  0.00    -0.206 F 
ATOM     96  C   UNL A   1      43.986  35.310  26.457  1.00  0.00     0.022 A 
BRANCH  93  97
ATOM     97  S   UNL A   1      42.936  36.605  28.685  1.00  0.00     0.124 S 
ATOM     98  O   UNL A   1      43.448  37.733  27.910  1.00  0.00    -0.237 OA
ATOM     99  O   UNL A   1      41.503  36.355  28.568  1.00  0.00    -0.237 OA
ATOM    100  O   UNL A   1      43.479  36.482  30.035  1.00  0.00    -0.744 OA
ENDBRANCH  93  97
ENDBRANCH  67  90
ENDBRANCH  41  42
ENDBRANCH  33  36
ENDBRANCH  31  32
ENDBRANCH  30  31
ENDBRANCH   1  30
TORSDOF 19
ENDMDL
MODEL 2
REMARK VINA RESULT:     -11.6      4.082      6.224
REMARK SMILES Cc1ccc(-c2c(C(=O)NCCCCCCNC(=O)c3ccc(-c4c5nc(c(-c6cc(S(=O)(=O)[O-])ccc6F)c6ccc([nH]6)c(-c6cc(S(=O)(=O)[O-])ccc6F)c6nc(c(-c7cc(S(=O)(=O)[O-])ccc7F)c7ccc4[nH]7)C=C6)C=C5)cc3)nnn2Cc2c(F)cccc2Cl)cc1
REMARK SMILES IDX 14 1 13 2 12 3 11 4 10 5 8 6 9 7 7 9 6 10 85 11 83 12 84 13
REMARK SMILES IDX 5 14 1 15 2 16 3 17 96 18 4 19 95 20 86 21 87 22 88 23 93 24
REMARK SMILES IDX 89 25 90 26 92 27 94 28 91 29 15 30 16 31 17 32 18 33 19 35
REMARK SMILES IDX 20 36 21 37 82 38 22 39 81 40 23 41 24 42 25 43 75 44 26 45
REMARK SMILES IDX 80 46 74 47 76 48 27 49 79 50 73 51 72 52 28 54 60 55 40 56
REMARK SMILES IDX 59 57 41 58 44 59 58 60 77 61 42 62 43 63 57 65 78 66 45 67
REMARK SMILES IDX 29 68 30 69 38 70 31 71 37 72 39 73 36 74 32 75 33 76 34 77
REMARK SMILES IDX 35 78 61 79 62 80 70 81 63 82 69 83 71 84 68 85 64 86 65 87
REMARK SMILES IDX 66 88 67 89 46 90 47 91 55 92 48 93 54 94 56 95 53 96 49 97
REMARK SMILES IDX 50 98 51 99 52 100
REMARK H PARENT 10 8 17 34 76 53 44 64
REMARK Flexibility Score: inf
ROOT
ATOM      1  C   UNL A   1      39.503  25.187  27.223  1.00  0.00     0.002 C 
ENDROOT
BRANCH   1   2
ATOM      2  C   UNL A   1      38.784  23.974  26.617  1.00  0.00     0.002 C 
BRANCH   2   3
ATOM      3  C   UNL A   1      37.403  24.174  25.991  1.00  0.00     0.021 C 
BRANCH   3   4
ATOM      4  C   UNL A   1      36.612  22.933  25.600  1.00  0.00     0.116 C 
BRANCH   4   5
ATOM      5  N   UNL A   1      35.789  22.355  26.625  1.00  0.00    -0.351 N 
ATOM      6  C   UNL A   1      34.432  22.132  26.669  1.00  0.00     0.274 C 
ATOM      7  O   UNL A   1      34.031  21.576  27.698  1.00  0.00    -0.267 OA
ATOM      8  H   UNL A   1      36.278  22.071  27.433  1.00  0.00     0.163 HD
BRANCH   6   9
ATOM      9  C   UNL A   1      33.468  22.518  25.619  1.00  0.00     0.178 A 
ATOM     10  C   UNL A   1      32.757  23.673  25.271  1.00  0.00     0.102 A 
ATOM     11  N   UNL A   1      32.146  23.327  24.079  1.00  0.00    -0.239 N 
ATOM     12  N   UNL A   1      33.163  21.541  24.677  1.00  0.00    -0.124 NA
ATOM     13  N   UNL A   1      32.334  22.034  23.781  1.00  0.00    -0.066 NA
BRANCH  10  14
ATOM     14  C   UNL A   1      32.633  25.013  25.828  1.00  0.00     0.002 A 
ATOM     15  C   UNL A   1      32.206  29.068  27.230  1.00  0.00     0.044 C 
ATOM     16  C   UNL A   1      32.378  27.647  26.779  1.00  0.00    -0.051 A 
ATOM     17  C   UNL A   1      31.323  26.738  26.917  1.00  0.00     0.004 A 
ATOM     18  C   UNL A   1      33.579  27.217  26.206  1.00  0.00     0.004 A 
ATOM     19  C   UNL A   1      31.447  25.429  26.443  1.00  0.00     0.011 A 
ATOM     20  C   UNL A   1      33.709  25.907  25.742  1.00  0.00     0.011 A 
ENDBRANCH  10  14
BRANCH  11  21
ATOM     21  C   UNL A   1      31.325  24.122  23.169  1.00  0.00     0.187 C 
BRANCH  21  22
ATOM     22  C   UNL A   1      31.793  25.532  22.902  1.00  0.00     0.028 A 
ATOM     23  C   UNL A   1      33.103  25.693  22.425  1.00  0.00     0.129 A 
ATOM     24  C   UNL A   1      31.057  26.701  23.145  1.00  0.00     0.049 A 
ATOM     25  F   UNL A   1      33.888  24.617  22.268  1.00  0.00    -0.207 F 
ATOM     26  C   UNL A   1      33.640  26.943  22.122  1.00  0.00     0.040 A 
ATOM     27  C   UNL A   1      31.577  27.960  22.809  1.00  0.00     0.021 A 
ATOM     28  Cl  UNL A   1      29.499  26.695  23.889  1.00  0.00    -0.084 Cl
ATOM     29  C   UNL A   1      32.864  28.082  22.291  1.00  0.00     0.005 A 
ENDBRANCH  21  22
ENDBRANCH  11  21
ENDBRANCH   6   9
ENDBRANCH   4   5
ENDBRANCH   3   4
ENDBRANCH   2   3
ENDBRANCH   1   2
BRANCH   1  30
ATOM     30  C   UNL A   1      40.756  24.925  28.057  1.00  0.00     0.021 C 
BRANCH  30  31
ATOM     31  C   UNL A   1      41.843  25.993  27.967  1.00  0.00     0.116 C 
BRANCH  31  32
ATOM     32  N   UNL A   1      42.243  26.300  26.593  1.00  0.00    -0.352 N 
ATOM     33  C   UNL A   1      42.065  27.482  25.883  1.00  0.00     0.251 C 
ATOM     34  H   UNL A   1      42.699  25.575  26.108  1.00  0.00     0.163 HD
ATOM     35  O   UNL A   1      42.490  27.641  24.762  1.00  0.00    -0.269 OA
BRANCH  33  36
ATOM     36  C   UNL A   1      41.413  28.606  26.596  1.00  0.00     0.039 A 
ATOM     37  C   UNL A   1      42.204  29.351  27.475  1.00  0.00     0.014 A 
ATOM     38  C   UNL A   1      40.026  28.715  26.605  1.00  0.00     0.014 A 
ATOM     39  C   UNL A   1      41.591  30.020  28.529  1.00  0.00     0.010 A 
ATOM     40  C   UNL A   1      39.421  29.308  27.698  1.00  0.00     0.010 A 
ATOM     41  C   UNL A   1      40.210  29.892  28.698  1.00  0.00    -0.014 A 
BRANCH  41  42
ATOM     42  C   UNL A   1      39.557  30.184  29.971  1.00  0.00     0.031 A 
ATOM     43  C   UNL A   1      38.821  31.446  30.177  1.00  0.00     0.074 A 
ATOM     44  C   UNL A   1      39.642  29.298  30.987  1.00  0.00     0.049 A 
ATOM     45  N   UNL A   1      38.669  32.024  31.321  1.00  0.00    -0.248 NA
ATOM     46  C   UNL A   1      38.238  32.192  29.072  1.00  0.00     0.031 C 
ATOM     47  C   UNL A   1      38.904  29.318  32.248  1.00  0.00     0.029 A 
ATOM     48  N   UNL A   1      40.628  28.335  31.178  1.00  0.00    -0.354 N 
ATOM     49  C   UNL A   1      37.749  33.035  31.162  1.00  0.00     0.074 A 
ATOM     50  C   UNL A   1      37.576  33.148  29.731  1.00  0.00     0.031 C 
ATOM     51  C   UNL A   1      39.593  28.618  33.162  1.00  0.00     0.029 A 
ATOM     52  C   UNL A   1      40.857  28.234  32.559  1.00  0.00     0.049 A 
ATOM     53  H   UNL A   1      41.082  27.818  30.473  1.00  0.00     0.167 HD
ATOM     54  C   UNL A   1      37.131  33.563  32.260  1.00  0.00     0.034 A 
ATOM     55  C   UNL A   1      42.088  28.479  33.090  1.00  0.00     0.034 A 
ATOM     56  C   UNL A   1      37.661  33.000  33.505  1.00  0.00     0.049 A 
ATOM     57  C   UNL A   1      42.109  29.618  34.086  1.00  0.00     0.074 A 
ATOM     58  C   UNL A   1      37.188  32.032  34.376  1.00  0.00     0.029 A 
ATOM     59  N   UNL A   1      38.980  33.246  33.872  1.00  0.00    -0.354 N 
ATOM     60  N   UNL A   1      41.154  30.497  34.221  1.00  0.00    -0.248 NA
ATOM     61  C   UNL A   1      43.227  29.869  34.989  1.00  0.00     0.031 C 
ATOM     62  C   UNL A   1      38.251  31.657  35.238  1.00  0.00     0.029 A 
ATOM     63  C   UNL A   1      39.361  32.417  34.912  1.00  0.00     0.049 A 
ATOM     64  H   UNL A   1      39.563  33.918  33.451  1.00  0.00     0.167 HD
ATOM     65  C   UNL A   1      41.510  31.424  35.173  1.00  0.00     0.074 A 
ATOM     66  C   UNL A   1      42.804  30.964  35.644  1.00  0.00     0.031 C 
ATOM     67  C   UNL A   1      40.706  32.491  35.475  1.00  0.00     0.034 A 
BRANCH  54  68
ATOM     68  C   UNL A   1      35.828  34.340  32.196  1.00  0.00     0.023 A 
ATOM     69  C   UNL A   1      35.154  34.463  30.961  1.00  0.00     0.031 A 
ATOM     70  C   UNL A   1      35.231  35.027  33.270  1.00  0.00     0.131 A 
ATOM     71  C   UNL A   1      34.051  35.324  30.804  1.00  0.00     0.055 A 
ATOM     72  C   UNL A   1      34.174  35.935  33.103  1.00  0.00     0.041 A 
ATOM     73  F   UNL A   1      35.599  34.808  34.538  1.00  0.00    -0.206 F 
ATOM     74  C   UNL A   1      33.589  36.101  31.859  1.00  0.00     0.022 A 
BRANCH  71  75
ATOM     75  S   UNL A   1      33.221  35.415  29.193  1.00  0.00     0.124 S 
ATOM     76  O   UNL A   1      34.315  35.776  28.299  1.00  0.00    -0.237 OA
ATOM     77  O   UNL A   1      32.682  34.068  29.047  1.00  0.00    -0.237 OA
ATOM     78  O   UNL A   1      32.216  36.460  29.388  1.00  0.00    -0.744 OA
ENDBRANCH  71  75
ENDBRANCH  54  68
BRANCH  55  79
ATOM     79  C   UNL A   1      43.212  28.107  32.186  1.00  0.00     0.023 A 
ATOM     80  C   UNL A   1      43.749  29.118  31.357  1.00  0.00     0.031 A 
ATOM     81  C   UNL A   1      43.974  26.950  32.390  1.00  0.00     0.131 A 
ATOM     82  C   UNL A   1      45.062  29.016  30.880  1.00  0.00     0.055 A 
ATOM     83  C   UNL A   1      45.270  26.831  31.869  1.00  0.00     0.041 A 
ATOM     84  F   UNL A   1      43.533  25.974  33.196  1.00  0.00    -0.206 F 
ATOM     85  C   UNL A   1      45.833  27.883  31.147  1.00  0.00     0.022 A 
BRANCH  82  86
ATOM     86  S   UNL A   1      45.859  30.451  30.098  1.00  0.00     0.124 S 
ATOM     87  O   UNL A   1      45.430  31.546  30.961  1.00  0.00    -0.237 OA
ATOM     88  O   UNL A   1      47.280  30.123  30.157  1.00  0.00    -0.237 OA
ATOM     89  O   UNL A   1      45.290  30.441  28.752  1.00  0.00    -0.744 OA
ENDBRANCH  82  86
ENDBRANCH  55  79
BRANCH  67  90
ATOM     90  C   UNL A   1      41.055  33.658  36.386  1.00  0.00     0.023 A 
ATOM     91  C   UNL A   1      41.968  34.671  36.050  1.00  0.00     0.031 A 
ATOM     92  C   UNL A   1      40.409  33.820  37.638  1.00  0.00     0.131 A 
ATOM     93  C   UNL A   1      42.269  35.715  36.948  1.00  0.00     0.055 A 
ATOM     94  C   UNL A   1      40.653  34.899  38.496  1.00  0.00     0.041 A 
ATOM     95  F   UNL A   1      39.499  32.941  38.086  1.00  0.00    -0.206 F 
ATOM     96  C   UNL A   1      41.602  35.848  38.162  1.00  0.00     0.022 A 
BRANCH  93  97
ATOM     97  S   UNL A   1      43.596  36.870  36.512  1.00  0.00     0.124 S 
ATOM     98  O   UNL A   1      44.751  35.982  36.426  1.00  0.00    -0.237 OA
ATOM     99  O   UNL A   1      43.126  37.424  35.245  1.00  0.00    -0.237 OA
ATOM    100  O   UNL A   1      43.618  37.811  37.629  1.00  0.00    -0.744 OA
ENDBRANCH  93  97
ENDBRANCH  67  90
ENDBRANCH  41  42
ENDBRANCH  33  36
ENDBRANCH  31  32
ENDBRANCH  30  31
ENDBRANCH   1  30
TORSDOF 19
ENDMDL
MODEL 3
REMARK VINA RESULT:     -11.4      4.557      9.917
REMARK SMILES Cc1ccc(-c2c(C(=O)NCCCCCCNC(=O)c3ccc(-c4c5nc(c(-c6cc(S(=O)(=O)[O-])ccc6F)c6ccc([nH]6)c(-c6cc(S(=O)(=O)[O-])ccc6F)c6nc(c(-c7cc(S(=O)(=O)[O-])ccc7F)c7ccc4[nH]7)C=C6)C=C5)cc3)nnn2Cc2c(F)cccc2Cl)cc1
REMARK SMILES IDX 14 1 13 2 12 3 11 4 10 5 8 6 9 7 7 9 6 10 85 11 83 12 84 13
REMARK SMILES IDX 5 14 1 15 2 16 3 17 96 18 4 19 95 20 86 21 87 22 88 23 93 24
REMARK SMILES IDX 89 25 90 26 92 27 94 28 91 29 15 30 16 31 17 32 18 33 19 35
REMARK SMILES IDX 20 36 21 37 82 38 22 39 81 40 23 41 24 42 25 43 75 44 26 45
REMARK SMILES IDX 80 46 74 47 76 48 27 49 79 50 73 51 72 52 28 54 60 55 40 56
REMARK SMILES IDX 59 57 41 58 44 59 58 60 77 61 42 62 43 63 57 65 78 66 45 67
REMARK SMILES IDX 29 68 30 69 38 70 31 71 37 72 39 73 36 74 32 75 33 76 34 77
REMARK SMILES IDX 35 78 61 79 62 80 70 81 63 82 69 83 71 84 68 85 64 86 65 87
REMARK SMILES IDX 66 88 67 89 46 90 47 91 55 92 48 93 54 94 56 95 53 96 49 97
REMARK SMILES IDX 50 98 51 99 52 100
REMARK H PARENT 10 8 17 34 76 53 44 64
REMARK Flexibility Score: inf
ROOT
ATOM      1  C   UNL A   1      35.020  31.769  28.094  1.00  0.00     0.002 C 
ENDROOT
BRANCH   1   2
ATOM      2  C   UNL A   1      34.154  30.804  27.274  1.00  0.00     0.002 C 
BRANCH   2   3
ATOM      3  C   UNL A   1      34.528  29.321  27.249  1.00  0.00     0.021 C 
BRANCH   3   4
ATOM      4  C   UNL A   1      33.664  28.383  26.417  1.00  0.00     0.116 C 
BRANCH   4   5
ATOM      5  N   UNL A   1      33.538  28.706  25.023  1.00  0.00    -0.351 N 
ATOM      6  C   UNL A   1      32.875  28.056  24.007  1.00  0.00     0.274 C 
ATOM      7  O   UNL A   1      32.931  28.620  22.907  1.00  0.00    -0.267 OA
ATOM      8  H   UNL A   1      34.004  29.530  24.748  1.00  0.00     0.163 HD
BRANCH   6   9
ATOM      9  C   UNL A   1      32.152  26.776  24.138  1.00  0.00     0.178 A 
ATOM     10  C   UNL A   1      32.498  25.422  24.232  1.00  0.00     0.102 A 
ATOM     11  N   UNL A   1      31.286  24.798  24.472  1.00  0.00    -0.239 N 
ATOM     12  N   UNL A   1      30.767  26.860  24.232  1.00  0.00    -0.124 NA
ATOM     13  N   UNL A   1      30.259  25.655  24.391  1.00  0.00    -0.066 NA
BRANCH  10  14
ATOM     14  C   UNL A   1      33.746  24.673  24.204  1.00  0.00     0.002 A 
ATOM     15  C   UNL A   1      37.321  22.263  24.261  1.00  0.00     0.044 C 
ATOM     16  C   UNL A   1      36.103  23.138  24.231  1.00  0.00    -0.051 A 
ATOM     17  C   UNL A   1      35.260  23.125  23.114  1.00  0.00     0.004 A 
ATOM     18  C   UNL A   1      35.784  23.961  25.316  1.00  0.00     0.004 A 
ATOM     19  C   UNL A   1      34.087  23.886  23.099  1.00  0.00     0.011 A 
ATOM     20  C   UNL A   1      34.619  24.730  25.299  1.00  0.00     0.011 A 
ENDBRANCH  10  14
BRANCH  11  21
ATOM     21  C   UNL A   1      30.979  23.395  24.741  1.00  0.00     0.187 C 
BRANCH  21  22
ATOM     22  C   UNL A   1      31.944  22.658  25.639  1.00  0.00     0.028 A 
ATOM     23  C   UNL A   1      32.184  23.206  26.908  1.00  0.00     0.129 A 
ATOM     24  C   UNL A   1      32.668  21.506  25.297  1.00  0.00     0.049 A 
ATOM     25  F   UNL A   1      31.595  24.361  27.253  1.00  0.00    -0.207 F 
ATOM     26  C   UNL A   1      33.036  22.606  27.833  1.00  0.00     0.040 A 
ATOM     27  C   UNL A   1      33.500  20.877  26.234  1.00  0.00     0.021 A 
ATOM     28  Cl  UNL A   1      32.624  20.799  23.722  1.00  0.00    -0.084 Cl
ATOM     29  C   UNL A   1      33.679  21.420  27.504  1.00  0.00     0.005 A 
ENDBRANCH  21  22
ENDBRANCH  11  21
ENDBRANCH   6   9
ENDBRANCH   4   5
ENDBRANCH   3   4
ENDBRANCH   2   3
ENDBRANCH   1   2
BRANCH   1  30
ATOM     30  C   UNL A   1      35.858  31.181  29.229  1.00  0.00     0.021 C 
BRANCH  30  31
ATOM     31  C   UNL A   1      35.278  31.346  30.631  1.00  0.00     0.116 C 
BRANCH  31  32
ATOM     32  N   UNL A   1      34.647  32.649  30.848  1.00  0.00    -0.352 N 
ATOM     33  C   UNL A   1      35.233  33.833  31.280  1.00  0.00     0.251 C 
ATOM     34  H   UNL A   1      33.681  32.692  30.664  1.00  0.00     0.163 HD
ATOM     35  O   UNL A   1      34.618  34.871  31.372  1.00  0.00    -0.269 OA
BRANCH  33  36
ATOM     36  C   UNL A   1      36.693  33.810  31.533  1.00  0.00     0.039 A 
ATOM     37  C   UNL A   1      37.530  34.209  30.486  1.00  0.00     0.014 A 
ATOM     38  C   UNL A   1      37.197  33.149  32.648  1.00  0.00     0.014 A 
ATOM     39  C   UNL A   1      38.833  33.724  30.446  1.00  0.00     0.010 A 
ATOM     40  C   UNL A   1      38.463  32.597  32.567  1.00  0.00     0.010 A 
ATOM     41  C   UNL A   1      39.249  32.823  31.429  1.00  0.00    -0.014 A 
BRANCH  41  42
ATOM     42  C   UNL A   1      40.406  31.953  31.241  1.00  0.00     0.031 A 
ATOM     43  C   UNL A   1      40.298  30.697  30.475  1.00  0.00     0.074 A 
ATOM     44  C   UNL A   1      41.594  32.288  31.793  1.00  0.00     0.049 A 
ATOM     45  N   UNL A   1      41.039  29.658  30.669  1.00  0.00    -0.248 NA
ATOM     46  C   UNL A   1      39.287  30.501  29.447  1.00  0.00     0.031 C 
ATOM     47  C   UNL A   1      42.892  31.661  31.556  1.00  0.00     0.029 A 
ATOM     48  N   UNL A   1      41.802  33.112  32.894  1.00  0.00    -0.354 N 
ATOM     49  C   UNL A   1      40.811  28.780  29.634  1.00  0.00     0.074 A 
ATOM     50  C   UNL A   1      39.655  29.316  28.950  1.00  0.00     0.031 C 
ATOM     51  C   UNL A   1      43.688  31.909  32.607  1.00  0.00     0.029 A 
ATOM     52  C   UNL A   1      42.890  32.591  33.611  1.00  0.00     0.049 A 
ATOM     53  H   UNL A   1      41.281  33.914  33.129  1.00  0.00     0.167 HD
ATOM     54  C   UNL A   1      41.709  27.781  29.387  1.00  0.00     0.034 A 
ATOM     55  C   UNL A   1      42.757  32.197  34.910  1.00  0.00     0.034 A 
ATOM     56  C   UNL A   1      42.775  27.748  30.392  1.00  0.00     0.049 A 
ATOM     57  C   UNL A   1      43.066  30.734  35.141  1.00  0.00     0.074 A 
ATOM     58  C   UNL A   1      44.088  28.192  30.385  1.00  0.00     0.029 A 
ATOM     59  N   UNL A   1      42.475  27.434  31.713  1.00  0.00    -0.354 N 
ATOM     60  N   UNL A   1      43.150  29.840  34.194  1.00  0.00    -0.248 NA
ATOM     61  C   UNL A   1      43.277  30.162  36.466  1.00  0.00     0.031 C 
ATOM     62  C   UNL A   1      44.559  28.193  31.723  1.00  0.00     0.029 A 
ATOM     63  C   UNL A   1      43.546  27.722  32.540  1.00  0.00     0.049 A 
ATOM     64  H   UNL A   1      41.619  27.056  32.018  1.00  0.00     0.167 HD
ATOM     65  C   UNL A   1      43.390  28.603  34.747  1.00  0.00     0.074 A 
ATOM     66  C   UNL A   1      43.493  28.869  36.171  1.00  0.00     0.031 C 
ATOM     67  C   UNL A   1      43.471  27.474  33.976  1.00  0.00     0.034 A 
BRANCH  54  68
ATOM     68  C   UNL A   1      41.804  27.049  28.060  1.00  0.00     0.023 A 
ATOM     69  C   UNL A   1      41.862  25.637  28.050  1.00  0.00     0.031 A 
ATOM     70  C   UNL A   1      41.904  27.657  26.794  1.00  0.00     0.131 A 
ATOM     71  C   UNL A   1      42.140  24.918  26.872  1.00  0.00     0.055 A 
ATOM     72  C   UNL A   1      42.245  26.950  25.632  1.00  0.00     0.041 A 
ATOM     73  F   UNL A   1      41.618  28.951  26.611  1.00  0.00    -0.206 F 
ATOM     74  C   UNL A   1      42.383  25.572  25.670  1.00  0.00     0.022 A 
BRANCH  71  75
ATOM     75  S   UNL A   1      42.177  23.105  26.928  1.00  0.00     0.124 S 
ATOM     76  O   UNL A   1      41.104  22.801  27.868  1.00  0.00    -0.237 OA
ATOM     77  O   UNL A   1      41.938  22.748  25.534  1.00  0.00    -0.237 OA
ATOM     78  O   UNL A   1      43.524  22.809  27.415  1.00  0.00    -0.744 OA
ENDBRANCH  71  75
ENDBRANCH  54  68
BRANCH  55  79
ATOM     79  C   UNL A   1      41.760  32.997  35.675  1.00  0.00     0.023 A 
ATOM     80  C   UNL A   1      40.449  32.481  35.781  1.00  0.00     0.031 A 
ATOM     81  C   UNL A   1      42.147  33.999  36.573  1.00  0.00     0.131 A 
ATOM     82  C   UNL A   1      39.622  32.866  36.845  1.00  0.00     0.055 A 
ATOM     83  C   UNL A   1      41.299  34.417  37.607  1.00  0.00     0.041 A 
ATOM     84  F   UNL A   1      43.391  34.500  36.544  1.00  0.00    -0.206 F 
ATOM     85  C   UNL A   1      40.048  33.821  37.771  1.00  0.00     0.022 A 
BRANCH  82  86
ATOM     86  S   UNL A   1      38.076  31.966  37.167  1.00  0.00     0.124 S 
ATOM     87  O   UNL A   1      38.374  30.644  36.626  1.00  0.00    -0.237 OA
ATOM     88  O   UNL A   1      37.939  32.036  38.618  1.00  0.00    -0.237 OA
ATOM     89  O   UNL A   1      37.089  32.748  36.427  1.00  0.00    -0.744 OA
ENDBRANCH  82  86
ENDBRANCH  55  79
BRANCH  67  90
ATOM     90  C   UNL A   1      43.575  26.042  34.478  1.00  0.00     0.023 A 
ATOM     91  C   UNL A   1      44.774  25.312  34.526  1.00  0.00     0.031 A 
ATOM     92  C   UNL A   1      42.438  25.368  34.995  1.00  0.00     0.131 A 
ATOM     93  C   UNL A   1      44.803  23.978  34.979  1.00  0.00     0.055 A 
ATOM     94  C   UNL A   1      42.484  24.070  35.515  1.00  0.00     0.041 A 
ATOM     95  F   UNL A   1      41.228  25.946  35.030  1.00  0.00    -0.206 F 
ATOM     96  C   UNL A   1      43.669  23.356  35.494  1.00  0.00     0.022 A 
BRANCH  93  97
ATOM     97  S   UNL A   1      46.354  23.051  34.831  1.00  0.00     0.124 S 
ATOM     98  O   UNL A   1      45.948  21.915  34.008  1.00  0.00    -0.237 OA
ATOM     99  O   UNL A   1      47.236  24.018  34.184  1.00  0.00    -0.237 OA
ATOM    100  O   UNL A   1      46.698  22.726  36.213  1.00  0.00    -0.744 OA
ENDBRANCH  93  97
ENDBRANCH  67  90
ENDBRANCH  41  42
ENDBRANCH  33  36
ENDBRANCH  31  32
ENDBRANCH  30  31
ENDBRANCH   1  30
TORSDOF 19
ENDMDL
