MODEL 1
REMARK VINA RESULT:     -10.9      0.000      0.000
REMARK SMILES CC1=C(C#N)C(=O)N(C)C(=O)/C1=C\Nc1ccc(C(=O)NCCCCCCNC(=O)c2ccc(-c3c4nc(c(-c5cc(S(=O)(=O)[O-])ccc5F)c5ccc([nH]5)c(-c5cc(S(=O)(=O)[O-])ccc5F)c5nc(c(-c6cc(S(=O)(=O)[O-])ccc6F)c6ccc3[nH]6)C=C5)C=C4)cc2)c(O)c1
REMARK SMILES IDX 24 1 23 2 22 3 21 4 19 5 20 6 18 8 15 9 16 10 96 11 17 12
REMARK SMILES IDX 94 13 14 14 13 16 1 17 2 18 3 19 12 20 6 21 10 22 7 23 8 24
REMARK SMILES IDX 11 25 9 26 4 27 5 28 95 29 25 31 26 32 27 33 28 34 29 35
REMARK SMILES IDX 30 37 31 38 32 39 93 40 33 41 92 42 34 43 35 44 36 45 86 46
REMARK SMILES IDX 37 47 91 48 85 49 87 50 38 51 90 52 84 53 83 54 39 56 71 57
REMARK SMILES IDX 51 58 70 59 52 60 55 61 69 62 88 63 53 64 54 65 68 67 89 68
REMARK SMILES IDX 56 69 40 70 41 71 49 72 42 73 48 74 50 75 47 76 43 77 44 78
REMARK SMILES IDX 45 79 46 80 72 81 73 82 81 83 74 84 80 85 82 86 79 87 75 88
REMARK SMILES IDX 76 89 77 90 78 91 57 92 58 93 66 94 59 95 65 96 67 97 64 98
REMARK SMILES IDX 60 99 61 100 62 101 63 102
REMARK H PARENT 21 7 14 15 95 30 28 36 87 55 55 66
REMARK Flexibility Score: inf
ROOT
ATOM      1  C   UNL A   1      35.662  33.192  28.859  1.00  0.00     0.002 C 
ENDROOT
BRANCH   1   2
ATOM      2  C   UNL A   1      34.852  31.917  29.113  1.00  0.00     0.021 C 
BRANCH   2   3
ATOM      3  C   UNL A   1      34.420  31.134  27.875  1.00  0.00     0.116 C 
BRANCH   3   4
ATOM      4  N   UNL A   1      33.089  31.470  27.397  1.00  0.00    -0.352 N 
ATOM      5  C   UNL A   1      32.200  30.722  26.666  1.00  0.00     0.255 C 
ATOM      6  O   UNL A   1      31.133  31.227  26.321  1.00  0.00    -0.269 OA
ATOM      7  H   UNL A   1      32.777  32.374  27.634  1.00  0.00     0.163 HD
BRANCH   5   8
ATOM      8  C   UNL A   1      32.515  29.337  26.239  1.00  0.00     0.081 A 
ATOM      9  C   UNL A   1      33.333  26.786  25.337  1.00  0.00     0.042 A 
ATOM     10  C   UNL A   1      33.650  27.935  24.608  1.00  0.00     0.027 A 
ATOM     11  C   UNL A   1      32.559  26.930  26.497  1.00  0.00     0.073 A 
ATOM     12  C   UNL A   1      33.245  29.199  25.053  1.00  0.00     0.020 A 
ATOM     13  C   UNL A   1      32.116  28.184  26.917  1.00  0.00     0.130 A 
BRANCH   9  14
ATOM     14  N   UNL A   1      33.791  25.506  25.001  1.00  0.00    -0.361 N 
ATOM     15  H   UNL A   1      34.665  25.478  24.550  1.00  0.00     0.166 HD
BRANCH  14  16
ATOM     16  C   UNL A   1      33.197  24.286  25.208  1.00  0.00     0.097 C 
ATOM     17  C   UNL A   1      31.499  21.883  25.507  1.00  0.00     0.047 C 
ATOM     18  C   UNL A   1      32.990  21.816  25.246  1.00  0.00    -0.013 C 
ATOM     19  C   UNL A   1      33.634  20.637  25.153  1.00  0.00     0.121 C 
ATOM     20  C   UNL A   1      33.744  23.058  25.077  1.00  0.00     0.060 C 
ATOM     21  C   UNL A   1      35.094  20.539  24.912  1.00  0.00     0.271 C 
ATOM     22  C   UNL A   1      35.212  22.993  24.718  1.00  0.00     0.262 C 
ATOM     23  O   UNL A   1      35.641  19.438  24.900  1.00  0.00    -0.268 OA
ATOM     24  N   UNL A   1      35.779  21.726  24.709  1.00  0.00    -0.277 N 
ATOM     25  O   UNL A   1      35.854  24.012  24.462  1.00  0.00    -0.269 OA
ATOM     26  C   UNL A   1      37.205  21.613  24.455  1.00  0.00     0.157 C 
BRANCH  19  27
ATOM     27  C   UNL A   1      32.897  19.324  25.348  1.00  0.00     0.105 C 
ATOM     28  N   UNL A   1      32.284  18.232  25.510  1.00  0.00    -0.192 NA
ENDBRANCH  19  27
ENDBRANCH  14  16
ENDBRANCH   9  14
BRANCH  13  29
ATOM     29  O   UNL A   1      31.259  28.177  27.982  1.00  0.00    -0.507 OA
ATOM     30  H   UNL A   1      30.987  27.364  28.359  1.00  0.00     0.293 HD
ENDBRANCH  13  29
ENDBRANCH   5   8
ENDBRANCH   3   4
ENDBRANCH   2   3
ENDBRANCH   1   2
BRANCH   1  31
ATOM     31  C   UNL A   1      35.003  34.274  27.999  1.00  0.00     0.002 C 
BRANCH  31  32
ATOM     32  C   UNL A   1      34.155  35.313  28.734  1.00  0.00     0.021 C 
BRANCH  32  33
ATOM     33  C   UNL A   1      32.980  34.773  29.543  1.00  0.00     0.116 C 
BRANCH  33  34
ATOM     34  N   UNL A   1      32.726  35.537  30.751  1.00  0.00    -0.352 N 
ATOM     35  C   UNL A   1      33.341  35.471  31.976  1.00  0.00     0.251 C 
ATOM     36  H   UNL A   1      32.003  36.203  30.681  1.00  0.00     0.163 HD
ATOM     37  O   UNL A   1      32.878  36.117  32.916  1.00  0.00    -0.269 OA
BRANCH  35  38
ATOM     38  C   UNL A   1      34.525  34.606  32.183  1.00  0.00     0.039 A 
ATOM     39  C   UNL A   1      35.794  35.141  31.949  1.00  0.00     0.014 A 
ATOM     40  C   UNL A   1      34.396  33.275  32.595  1.00  0.00     0.014 A 
ATOM     41  C   UNL A   1      36.932  34.368  32.190  1.00  0.00     0.010 A 
ATOM     42  C   UNL A   1      35.535  32.529  32.904  1.00  0.00     0.010 A 
ATOM     43  C   UNL A   1      36.815  33.068  32.707  1.00  0.00    -0.014 A 
BRANCH  43  44
ATOM     44  C   UNL A   1      38.025  32.273  33.059  1.00  0.00     0.031 A 
ATOM     45  C   UNL A   1      38.787  32.565  34.323  1.00  0.00     0.074 A 
ATOM     46  C   UNL A   1      38.460  31.319  32.211  1.00  0.00     0.049 A 
ATOM     47  N   UNL A   1      39.885  32.010  34.772  1.00  0.00    -0.248 NA
ATOM     48  C   UNL A   1      38.261  33.634  35.184  1.00  0.00     0.031 C 
ATOM     49  C   UNL A   1      37.829  30.971  30.936  1.00  0.00     0.029 A 
ATOM     50  N   UNL A   1      39.535  30.468  32.287  1.00  0.00    -0.354 N 
ATOM     51  C   UNL A   1      40.184  32.667  35.962  1.00  0.00     0.074 A 
ATOM     52  C   UNL A   1      39.185  33.700  36.132  1.00  0.00     0.031 C 
ATOM     53  C   UNL A   1      38.510  29.966  30.365  1.00  0.00     0.029 A 
ATOM     54  C   UNL A   1      39.654  29.626  31.204  1.00  0.00     0.049 A 
ATOM     55  H   UNL A   1      40.162  30.460  33.046  1.00  0.00     0.167 HD
ATOM     56  C   UNL A   1      41.189  32.418  36.839  1.00  0.00     0.034 A 
ATOM     57  C   UNL A   1      40.587  28.697  30.911  1.00  0.00     0.034 A 
ATOM     58  C   UNL A   1      42.173  31.377  36.661  1.00  0.00     0.049 A 
ATOM     59  C   UNL A   1      41.710  28.461  31.891  1.00  0.00     0.074 A 
ATOM     60  C   UNL A   1      43.196  31.004  37.515  1.00  0.00     0.029 A 
ATOM     61  N   UNL A   1      42.269  30.552  35.548  1.00  0.00    -0.354 N 
ATOM     62  N   UNL A   1      41.943  29.053  33.040  1.00  0.00    -0.248 NA
ATOM     63  C   UNL A   1      42.687  27.422  31.540  1.00  0.00     0.031 C 
ATOM     64  C   UNL A   1      43.952  30.009  36.888  1.00  0.00     0.029 A 
ATOM     65  C   UNL A   1      43.354  29.697  35.679  1.00  0.00     0.049 A 
ATOM     66  H   UNL A   1      41.654  30.569  34.778  1.00  0.00     0.167 HD
ATOM     67  C   UNL A   1      43.077  28.435  33.561  1.00  0.00     0.074 A 
ATOM     68  C   UNL A   1      43.464  27.411  32.613  1.00  0.00     0.031 C 
ATOM     69  C   UNL A   1      43.739  28.688  34.719  1.00  0.00     0.034 A 
BRANCH  56  70
ATOM     70  C   UNL A   1      41.288  33.303  38.061  1.00  0.00     0.023 A 
ATOM     71  C   UNL A   1      40.596  33.009  39.248  1.00  0.00     0.031 A 
ATOM     72  C   UNL A   1      42.086  34.460  38.036  1.00  0.00     0.131 A 
ATOM     73  C   UNL A   1      40.663  33.891  40.337  1.00  0.00     0.055 A 
ATOM     74  C   UNL A   1      42.213  35.293  39.151  1.00  0.00     0.041 A 
ATOM     75  F   UNL A   1      42.755  34.807  36.925  1.00  0.00    -0.206 F 
ATOM     76  C   UNL A   1      41.489  35.017  40.306  1.00  0.00     0.022 A 
BRANCH  73  77
ATOM     77  S   UNL A   1      39.555  33.616  41.746  1.00  0.00     0.124 S 
ATOM     78  O   UNL A   1      40.507  33.398  42.832  1.00  0.00    -0.237 OA
ATOM     79  O   UNL A   1      38.798  34.862  41.800  1.00  0.00    -0.237 OA
ATOM     80  O   UNL A   1      38.787  32.436  41.354  1.00  0.00    -0.744 OA
ENDBRANCH  73  77
ENDBRANCH  56  70
BRANCH  57  81
ATOM     81  C   UNL A   1      40.522  27.931  29.631  1.00  0.00     0.023 A 
ATOM     82  C   UNL A   1      41.383  28.230  28.563  1.00  0.00     0.031 A 
ATOM     83  C   UNL A   1      39.557  26.928  29.437  1.00  0.00     0.131 A 
ATOM     84  C   UNL A   1      41.223  27.576  27.331  1.00  0.00     0.055 A 
ATOM     85  C   UNL A   1      39.443  26.235  28.229  1.00  0.00     0.041 A 
ATOM     86  F   UNL A   1      38.708  26.600  30.423  1.00  0.00    -0.206 F 
ATOM     87  C   UNL A   1      40.269  26.571  27.162  1.00  0.00     0.022 A 
BRANCH  84  88
ATOM     88  S   UNL A   1      42.211  28.137  25.916  1.00  0.00     0.124 S 
ATOM     89  O   UNL A   1      41.437  29.282  25.450  1.00  0.00    -0.237 OA
ATOM     90  O   UNL A   1      43.493  28.440  26.543  1.00  0.00    -0.237 OA
ATOM     91  O   UNL A   1      42.214  26.980  25.023  1.00  0.00    -0.744 OA
ENDBRANCH  84  88
ENDBRANCH  57  81
BRANCH  69  92
ATOM     92  C   UNL A   1      44.926  27.810  35.037  1.00  0.00     0.023 A 
ATOM     93  C   UNL A   1      44.789  26.613  35.761  1.00  0.00     0.031 A 
ATOM     94  C   UNL A   1      46.218  28.190  34.630  1.00  0.00     0.131 A 
ATOM     95  C   UNL A   1      45.928  25.873  36.113  1.00  0.00     0.055 A 
ATOM     96  C   UNL A   1      47.340  27.414  34.922  1.00  0.00     0.041 A 
ATOM     97  F   UNL A   1      46.411  29.325  33.939  1.00  0.00    -0.206 F 
ATOM     98  C   UNL A   1      47.200  26.256  35.682  1.00  0.00     0.022 A 
BRANCH  95  99
ATOM     99  S   UNL A   1      45.737  24.461  37.236  1.00  0.00     0.124 S 
ATOM    100  O   UNL A   1      45.722  23.335  36.307  1.00  0.00    -0.237 OA
ATOM    101  O   UNL A   1      46.921  24.573  38.081  1.00  0.00    -0.237 OA
ATOM    102  O   UNL A   1      44.468  24.728  37.910  1.00  0.00    -0.744 OA
ENDBRANCH  95  99
ENDBRANCH  69  92
ENDBRANCH  43  44
ENDBRANCH  35  38
ENDBRANCH  33  34
ENDBRANCH  32  33
ENDBRANCH  31  32
ENDBRANCH   1  31
TORSDOF 20
ENDMDL
MODEL 2
REMARK VINA RESULT:     -10.9      4.050      7.935
REMARK SMILES CC1=C(C#N)C(=O)N(C)C(=O)/C1=C\Nc1ccc(C(=O)NCCCCCCNC(=O)c2ccc(-c3c4nc(c(-c5cc(S(=O)(=O)[O-])ccc5F)c5ccc([nH]5)c(-c5cc(S(=O)(=O)[O-])ccc5F)c5nc(c(-c6cc(S(=O)(=O)[O-])ccc6F)c6ccc3[nH]6)C=C5)C=C4)cc2)c(O)c1
REMARK SMILES IDX 24 1 23 2 22 3 21 4 19 5 20 6 18 8 15 9 16 10 96 11 17 12
REMARK SMILES IDX 94 13 14 14 13 16 1 17 2 18 3 19 12 20 6 21 10 22 7 23 8 24
REMARK SMILES IDX 11 25 9 26 4 27 5 28 95 29 25 31 26 32 27 33 28 34 29 35
REMARK SMILES IDX 30 37 31 38 32 39 93 40 33 41 92 42 34 43 35 44 36 45 86 46
REMARK SMILES IDX 37 47 91 48 85 49 87 50 38 51 90 52 84 53 83 54 39 56 71 57
REMARK SMILES IDX 51 58 70 59 52 60 55 61 69 62 88 63 53 64 54 65 68 67 89 68
REMARK SMILES IDX 56 69 40 70 41 71 49 72 42 73 48 74 50 75 47 76 43 77 44 78
REMARK SMILES IDX 45 79 46 80 72 81 73 82 81 83 74 84 80 85 82 86 79 87 75 88
REMARK SMILES IDX 76 89 77 90 78 91 57 92 58 93 66 94 59 95 65 96 67 97 64 98
REMARK SMILES IDX 60 99 61 100 62 101 63 102
REMARK H PARENT 21 7 14 15 95 30 28 36 87 55 55 66
REMARK Flexibility Score: inf
ROOT
ATOM      1  C   UNL A   1      32.820  36.468  30.695  1.00  0.00     0.002 C 
ENDROOT
BRANCH   1   2
ATOM      2  C   UNL A   1      33.789  37.179  31.645  1.00  0.00     0.021 C 
BRANCH   2   3
ATOM      3  C   UNL A   1      33.806  36.682  33.089  1.00  0.00     0.116 C 
BRANCH   3   4
ATOM      4  N   UNL A   1      33.355  35.309  33.247  1.00  0.00    -0.352 N 
ATOM      5  C   UNL A   1      34.030  34.131  33.042  1.00  0.00     0.255 C 
ATOM      6  O   UNL A   1      33.433  33.066  33.189  1.00  0.00    -0.269 OA
ATOM      7  H   UNL A   1      32.423  35.209  33.547  1.00  0.00     0.163 HD
BRANCH   5   8
ATOM      8  C   UNL A   1      35.445  34.111  32.599  1.00  0.00     0.081 A 
ATOM      9  C   UNL A   1      38.061  34.152  31.530  1.00  0.00     0.042 A 
ATOM     10  C   UNL A   1      36.974  33.773  30.739  1.00  0.00     0.027 A 
ATOM     11  C   UNL A   1      37.824  34.462  32.877  1.00  0.00     0.073 A 
ATOM     12  C   UNL A   1      35.678  33.751  31.266  1.00  0.00     0.020 A 
ATOM     13  C   UNL A   1      36.540  34.397  33.416  1.00  0.00     0.130 A 
BRANCH   9  14
ATOM     14  N   UNL A   1      39.365  34.290  31.038  1.00  0.00    -0.361 N 
ATOM     15  H   UNL A   1      39.466  34.147  30.070  1.00  0.00     0.166 HD
BRANCH  14  16
ATOM     16  C   UNL A   1      40.523  34.593  31.710  1.00  0.00     0.097 C 
ATOM     17  C   UNL A   1      42.716  35.373  33.535  1.00  0.00     0.047 C 
ATOM     18  C   UNL A   1      42.891  34.375  32.409  1.00  0.00    -0.013 C 
ATOM     19  C   UNL A   1      44.080  33.793  32.165  1.00  0.00     0.121 C 
ATOM     20  C   UNL A   1      41.739  34.024  31.578  1.00  0.00     0.060 C 
ATOM     21  C   UNL A   1      44.287  32.823  31.064  1.00  0.00     0.271 C 
ATOM     22  C   UNL A   1      41.887  32.954  30.519  1.00  0.00     0.262 C 
ATOM     23  O   UNL A   1      45.409  32.371  30.847  1.00  0.00    -0.268 OA
ATOM     24  N   UNL A   1      43.173  32.471  30.319  1.00  0.00    -0.277 N 
ATOM     25  O   UNL A   1      40.918  32.554  29.873  1.00  0.00    -0.269 OA
ATOM     26  C   UNL A   1      43.387  31.504  29.256  1.00  0.00     0.157 C 
BRANCH  19  27
ATOM     27  C   UNL A   1      45.309  34.148  32.986  1.00  0.00     0.105 C 
ATOM     28  N   UNL A   1      46.329  34.442  33.667  1.00  0.00    -0.192 NA
ENDBRANCH  19  27
ENDBRANCH  14  16
ENDBRANCH   9  14
BRANCH  13  29
ATOM     29  O   UNL A   1      36.460  34.590  34.767  1.00  0.00    -0.507 OA
ATOM     30  H   UNL A   1      37.153  34.294  35.324  1.00  0.00     0.293 HD
ENDBRANCH  13  29
ENDBRANCH   5   8
ENDBRANCH   3   4
ENDBRANCH   2   3
ENDBRANCH   1   2
BRANCH   1  31
ATOM     31  C   UNL A   1      33.408  35.901  29.401  1.00  0.00     0.002 C 
BRANCH  31  32
ATOM     32  C   UNL A   1      33.029  34.462  29.046  1.00  0.00     0.021 C 
BRANCH  32  33
ATOM     33  C   UNL A   1      34.121  33.618  28.398  1.00  0.00     0.116 C 
BRANCH  33  34
ATOM     34  N   UNL A   1      33.594  32.511  27.620  1.00  0.00    -0.352 N 
ATOM     35  C   UNL A   1      34.119  31.262  27.407  1.00  0.00     0.251 C 
ATOM     36  H   UNL A   1      32.731  32.684  27.178  1.00  0.00     0.163 HD
ATOM     37  O   UNL A   1      33.576  30.512  26.595  1.00  0.00    -0.269 OA
BRANCH  35  38
ATOM     38  C   UNL A   1      35.346  30.825  28.113  1.00  0.00     0.039 A 
ATOM     39  C   UNL A   1      35.249  29.789  29.045  1.00  0.00     0.014 A 
ATOM     40  C   UNL A   1      36.584  31.430  27.872  1.00  0.00     0.014 A 
ATOM     41  C   UNL A   1      36.397  29.317  29.685  1.00  0.00     0.010 A 
ATOM     42  C   UNL A   1      37.739  30.910  28.457  1.00  0.00     0.010 A 
ATOM     43  C   UNL A   1      37.659  29.846  29.368  1.00  0.00    -0.014 A 
BRANCH  43  44
ATOM     44  C   UNL A   1      38.898  29.282  29.973  1.00  0.00     0.031 A 
ATOM     45  C   UNL A   1      39.407  29.802  31.290  1.00  0.00     0.074 A 
ATOM     46  C   UNL A   1      39.587  28.332  29.308  1.00  0.00     0.049 A 
ATOM     47  N   UNL A   1      40.489  29.467  31.948  1.00  0.00    -0.248 NA
ATOM     48  C   UNL A   1      38.612  30.852  31.941  1.00  0.00     0.031 C 
ATOM     49  C   UNL A   1      39.215  27.776  28.005  1.00  0.00     0.029 A 
ATOM     50  N   UNL A   1      40.744  27.667  29.630  1.00  0.00    -0.354 N 
ATOM     51  C   UNL A   1      40.506  30.268  33.085  1.00  0.00     0.074 A 
ATOM     52  C   UNL A   1      39.359  31.146  32.995  1.00  0.00     0.031 C 
ATOM     53  C   UNL A   1      40.109  26.839  27.653  1.00  0.00     0.029 A 
ATOM     54  C   UNL A   1      41.145  26.758  28.677  1.00  0.00     0.049 A 
ATOM     55  H   UNL A   1      41.241  27.825  30.465  1.00  0.00     0.167 HD
ATOM     56  C   UNL A   1      41.387  30.258  34.117  1.00  0.00     0.034 A 
ATOM     57  C   UNL A   1      42.232  25.961  28.624  1.00  0.00     0.034 A 
ATOM     58  C   UNL A   1      42.522  29.368  34.197  1.00  0.00     0.049 A 
ATOM     59  C   UNL A   1      43.211  25.990  29.771  1.00  0.00     0.074 A 
ATOM     60  C   UNL A   1      43.442  29.237  35.223  1.00  0.00     0.029 A 
ATOM     61  N   UNL A   1      42.902  28.469  33.209  1.00  0.00    -0.354 N 
ATOM     62  N   UNL A   1      43.179  26.714  30.867  1.00  0.00    -0.248 NA
ATOM     63  C   UNL A   1      44.364  25.087  29.681  1.00  0.00     0.031 C 
ATOM     64  C   UNL A   1      44.417  28.317  34.824  1.00  0.00     0.029 A 
ATOM     65  C   UNL A   1      44.061  27.807  33.587  1.00  0.00     0.049 A 
ATOM     66  H   UNL A   1      42.418  28.321  32.364  1.00  0.00     0.167 HD
ATOM     67  C   UNL A   1      44.293  26.328  31.608  1.00  0.00     0.074 A 
ATOM     68  C   UNL A   1      44.960  25.293  30.846  1.00  0.00     0.031 C 
ATOM     69  C   UNL A   1      44.726  26.785  32.811  1.00  0.00     0.034 A 
BRANCH  56  70
ATOM     70  C   UNL A   1      41.173  31.255  35.232  1.00  0.00     0.023 A 
ATOM     71  C   UNL A   1      40.004  31.255  36.013  1.00  0.00     0.031 A 
ATOM     72  C   UNL A   1      42.152  32.224  35.517  1.00  0.00     0.131 A 
ATOM     73  C   UNL A   1      39.816  32.240  36.995  1.00  0.00     0.055 A 
ATOM     74  C   UNL A   1      41.994  33.152  36.549  1.00  0.00     0.041 A 
ATOM     75  F   UNL A   1      43.281  32.290  34.792  1.00  0.00    -0.206 F 
ATOM     76  C   UNL A   1      40.815  33.172  37.287  1.00  0.00     0.022 A 
BRANCH  73  77
ATOM     77  S   UNL A   1      38.194  32.368  37.795  1.00  0.00     0.124 S 
ATOM     78  O   UNL A   1      37.482  31.239  37.201  1.00  0.00    -0.237 OA
ATOM     79  O   UNL A   1      38.528  32.240  39.209  1.00  0.00    -0.237 OA
ATOM     80  O   UNL A   1      37.712  33.685  37.385  1.00  0.00    -0.744 OA
ENDBRANCH  73  77
ENDBRANCH  56  70
BRANCH  57  81
ATOM     81  C   UNL A   1      42.472  25.079  27.443  1.00  0.00     0.023 A 
ATOM     82  C   UNL A   1      41.988  23.762  27.411  1.00  0.00     0.031 A 
ATOM     83  C   UNL A   1      43.241  25.524  26.353  1.00  0.00     0.131 A 
ATOM     84  C   UNL A   1      42.328  22.917  26.343  1.00  0.00     0.055 A 
ATOM     85  C   UNL A   1      43.523  24.700  25.262  1.00  0.00     0.041 A 
ATOM     86  F   UNL A   1      43.729  26.775  26.329  1.00  0.00    -0.206 F 
ATOM     87  C   UNL A   1      43.080  23.381  25.262  1.00  0.00     0.022 A 
BRANCH  84  88
ATOM     88  S   UNL A   1      41.865  21.165  26.440  1.00  0.00     0.124 S 
ATOM     89  O   UNL A   1      42.273  20.826  27.798  1.00  0.00    -0.237 OA
ATOM     90  O   UNL A   1      40.427  21.219  26.196  1.00  0.00    -0.237 OA
ATOM     91  O   UNL A   1      42.653  20.545  25.376  1.00  0.00    -0.744 OA
ENDBRANCH  84  88
ENDBRANCH  57  81
BRANCH  69  92
ATOM     92  C   UNL A   1      45.959  26.133  33.390  1.00  0.00     0.023 A 
ATOM     93  C   UNL A   1      45.886  24.954  34.151  1.00  0.00     0.031 A 
ATOM     94  C   UNL A   1      47.226  26.714  33.196  1.00  0.00     0.131 A 
ATOM     95  C   UNL A   1      47.044  24.430  34.745  1.00  0.00     0.055 A 
ATOM     96  C   UNL A   1      48.385  26.151  33.731  1.00  0.00     0.041 A 
ATOM     97  F   UNL A   1      47.358  27.844  32.481  1.00  0.00    -0.206 F 
ATOM     98  C   UNL A   1      48.295  25.010  34.525  1.00  0.00     0.022 A 
BRANCH  95  99
ATOM     99  S   UNL A   1      46.878  23.043  35.902  1.00  0.00     0.124 S 
ATOM    100  O   UNL A   1      45.476  22.674  35.734  1.00  0.00    -0.237 OA
ATOM    101  O   UNL A   1      47.854  22.088  35.385  1.00  0.00    -0.237 OA
ATOM    102  O   UNL A   1      47.215  23.633  37.196  1.00  0.00    -0.744 OA
ENDBRANCH  95  99
ENDBRANCH  69  92
ENDBRANCH  43  44
ENDBRANCH  35  38
ENDBRANCH  33  34
ENDBRANCH  32  33
ENDBRANCH  31  32
ENDBRANCH   1  31
TORSDOF 20
ENDMDL
MODEL 3
REMARK VINA RESULT:     -10.6      1.585      2.057
REMARK SMILES CC1=C(C#N)C(=O)N(C)C(=O)/C1=C\Nc1ccc(C(=O)NCCCCCCNC(=O)c2ccc(-c3c4nc(c(-c5cc(S(=O)(=O)[O-])ccc5F)c5ccc([nH]5)c(-c5cc(S(=O)(=O)[O-])ccc5F)c5nc(c(-c6cc(S(=O)(=O)[O-])ccc6F)c6ccc3[nH]6)C=C5)C=C4)cc2)c(O)c1
REMARK SMILES IDX 24 1 23 2 22 3 21 4 19 5 20 6 18 8 15 9 16 10 96 11 17 12
REMARK SMILES IDX 94 13 14 14 13 16 1 17 2 18 3 19 12 20 6 21 10 22 7 23 8 24
REMARK SMILES IDX 11 25 9 26 4 27 5 28 95 29 25 31 26 32 27 33 28 34 29 35
REMARK SMILES IDX 30 37 31 38 32 39 93 40 33 41 92 42 34 43 35 44 36 45 86 46
REMARK SMILES IDX 37 47 91 48 85 49 87 50 38 51 90 52 84 53 83 54 39 56 71 57
REMARK SMILES IDX 51 58 70 59 52 60 55 61 69 62 88 63 53 64 54 65 68 67 89 68
REMARK SMILES IDX 56 69 40 70 41 71 49 72 42 73 48 74 50 75 47 76 43 77 44 78
REMARK SMILES IDX 45 79 46 80 72 81 73 82 81 83 74 84 80 85 82 86 79 87 75 88
REMARK SMILES IDX 76 89 77 90 78 91 57 92 58 93 66 94 59 95 65 96 67 97 64 98
REMARK SMILES IDX 60 99 61 100 62 101 63 102
REMARK H PARENT 21 7 14 15 95 30 28 36 87 55 55 66
REMARK Flexibility Score: inf
ROOT
ATOM      1  C   UNL A   1      35.857  32.695  28.765  1.00  0.00     0.002 C 
ENDROOT
BRANCH   1   2
ATOM      2  C   UNL A   1      34.991  31.441  28.912  1.00  0.00     0.021 C 
BRANCH   2   3
ATOM      3  C   UNL A   1      34.456  30.833  27.618  1.00  0.00     0.116 C 
BRANCH   3   4
ATOM      4  N   UNL A   1      33.135  31.309  27.242  1.00  0.00    -0.352 N 
ATOM      5  C   UNL A   1      32.147  30.686  26.520  1.00  0.00     0.255 C 
ATOM      6  O   UNL A   1      31.110  31.299  26.271  1.00  0.00    -0.269 OA
ATOM      7  H   UNL A   1      32.916  32.217  27.552  1.00  0.00     0.163 HD
BRANCH   5   8
ATOM      8  C   UNL A   1      32.317  29.312  25.990  1.00  0.00     0.081 A 
ATOM      9  C   UNL A   1      32.782  26.793  24.795  1.00  0.00     0.042 A 
ATOM     10  C   UNL A   1      32.606  27.933  24.008  1.00  0.00     0.027 A 
ATOM     11  C   UNL A   1      32.672  26.925  26.186  1.00  0.00     0.073 A 
ATOM     12  C   UNL A   1      32.376  29.182  24.597  1.00  0.00     0.020 A 
ATOM     13  C   UNL A   1      32.397  28.160  26.774  1.00  0.00     0.130 A 
BRANCH   9  14
ATOM     14  N   UNL A   1      33.112  25.536  24.273  1.00  0.00    -0.361 N 
ATOM     15  H   UNL A   1      32.401  25.096  23.755  1.00  0.00     0.166 HD
BRANCH  14  16
ATOM     16  C   UNL A   1      34.284  24.828  24.380  1.00  0.00     0.097 C 
ATOM     17  C   UNL A   1      36.991  23.719  24.817  1.00  0.00     0.047 C 
ATOM     18  C   UNL A   1      35.746  22.859  24.730  1.00  0.00    -0.013 C 
ATOM     19  C   UNL A   1      35.813  21.518  24.832  1.00  0.00     0.121 C 
ATOM     20  C   UNL A   1      34.444  23.499  24.547  1.00  0.00     0.060 C 
ATOM     21  C   UNL A   1      34.616  20.648  24.738  1.00  0.00     0.271 C 
ATOM     22  C   UNL A   1      33.192  22.650  24.560  1.00  0.00     0.262 C 
ATOM     23  O   UNL A   1      34.742  19.425  24.774  1.00  0.00    -0.268 OA
ATOM     24  N   UNL A   1      33.388  21.278  24.611  1.00  0.00    -0.277 N 
ATOM     25  O   UNL A   1      32.072  23.162  24.518  1.00  0.00    -0.269 OA
ATOM     26  C   UNL A   1      32.223  20.412  24.540  1.00  0.00     0.157 C 
BRANCH  19  27
ATOM     27  C   UNL A   1      37.146  20.809  24.996  1.00  0.00     0.105 C 
ATOM     28  N   UNL A   1      38.254  20.220  25.133  1.00  0.00    -0.192 NA
ENDBRANCH  19  27
ENDBRANCH  14  16
ENDBRANCH   9  14
BRANCH  13  29
ATOM     29  O   UNL A   1      32.180  28.132  28.123  1.00  0.00    -0.507 OA
ATOM     30  H   UNL A   1      31.364  27.818  28.460  1.00  0.00     0.293 HD
ENDBRANCH  13  29
ENDBRANCH   5   8
ENDBRANCH   3   4
ENDBRANCH   2   3
ENDBRANCH   1   2
BRANCH   1  31
ATOM     31  C   UNL A   1      35.313  33.812  27.870  1.00  0.00     0.002 C 
BRANCH  31  32
ATOM     32  C   UNL A   1      34.501  34.910  28.557  1.00  0.00     0.021 C 
BRANCH  32  33
ATOM     33  C   UNL A   1      33.238  34.459  29.283  1.00  0.00     0.116 C 
BRANCH  33  34
ATOM     34  N   UNL A   1      32.986  35.208  30.502  1.00  0.00    -0.352 N 
ATOM     35  C   UNL A   1      33.610  35.131  31.721  1.00  0.00     0.251 C 
ATOM     36  H   UNL A   1      32.259  35.870  30.444  1.00  0.00     0.163 HD
ATOM     37  O   UNL A   1      33.150  35.763  32.672  1.00  0.00    -0.269 OA
BRANCH  35  38
ATOM     38  C   UNL A   1      34.801  34.271  31.909  1.00  0.00     0.039 A 
ATOM     39  C   UNL A   1      36.065  34.818  31.674  1.00  0.00     0.014 A 
ATOM     40  C   UNL A   1      34.685  32.935  32.306  1.00  0.00     0.014 A 
ATOM     41  C   UNL A   1      37.210  34.050  31.897  1.00  0.00     0.010 A 
ATOM     42  C   UNL A   1      35.830  32.193  32.598  1.00  0.00     0.010 A 
ATOM     43  C   UNL A   1      37.105  32.743  32.400  1.00  0.00    -0.014 A 
BRANCH  43  44
ATOM     44  C   UNL A   1      38.323  31.952  32.734  1.00  0.00     0.031 A 
ATOM     45  C   UNL A   1      39.098  32.240  33.991  1.00  0.00     0.074 A 
ATOM     46  C   UNL A   1      38.753  31.004  31.876  1.00  0.00     0.049 A 
ATOM     47  N   UNL A   1      40.203  31.689  34.425  1.00  0.00    -0.248 NA
ATOM     48  C   UNL A   1      38.576  33.302  34.863  1.00  0.00     0.031 C 
ATOM     49  C   UNL A   1      38.109  30.661  30.606  1.00  0.00     0.029 A 
ATOM     50  N   UNL A   1      39.833  30.158  31.936  1.00  0.00    -0.354 N 
ATOM     51  C   UNL A   1      40.512  32.341  35.615  1.00  0.00     0.074 A 
ATOM     52  C   UNL A   1      39.510  33.367  35.801  1.00  0.00     0.031 C 
ATOM     53  C   UNL A   1      38.789  29.662  30.022  1.00  0.00     0.029 A 
ATOM     54  C   UNL A   1      39.944  29.323  30.847  1.00  0.00     0.049 A 
ATOM     55  H   UNL A   1      40.468  30.149  32.687  1.00  0.00     0.167 HD
ATOM     56  C   UNL A   1      41.528  32.092  36.480  1.00  0.00     0.034 A 
ATOM     57  C   UNL A   1      40.878  28.400  30.538  1.00  0.00     0.034 A 
ATOM     58  C   UNL A   1      42.515  31.056  36.284  1.00  0.00     0.049 A 
ATOM     59  C   UNL A   1      42.013  28.164  31.504  1.00  0.00     0.074 A 
ATOM     60  C   UNL A   1      43.549  30.684  37.126  1.00  0.00     0.029 A 
ATOM     61  N   UNL A   1      42.602  30.237  35.166  1.00  0.00    -0.354 N 
ATOM     62  N   UNL A   1      42.256  28.751  32.654  1.00  0.00    -0.248 NA
ATOM     63  C   UNL A   1      42.990  27.132  31.137  1.00  0.00     0.031 C 
ATOM     64  C   UNL A   1      44.303  29.696  36.485  1.00  0.00     0.029 A 
ATOM     65  C   UNL A   1      43.692  29.388  35.281  1.00  0.00     0.049 A 
ATOM     66  H   UNL A   1      41.979  30.256  34.403  1.00  0.00     0.167 HD
ATOM     67  C   UNL A   1      43.398  28.135  33.159  1.00  0.00     0.074 A 
ATOM     68  C   UNL A   1      43.779  27.119  32.201  1.00  0.00     0.031 C 
ATOM     69  C   UNL A   1      44.072  28.385  34.311  1.00  0.00     0.034 A 
BRANCH  56  70
ATOM     70  C   UNL A   1      41.636  32.970  37.705  1.00  0.00     0.023 A 
ATOM     71  C   UNL A   1      41.033  32.620  38.925  1.00  0.00     0.031 A 
ATOM     72  C   UNL A   1      42.353  34.179  37.651  1.00  0.00     0.131 A 
ATOM     73  C   UNL A   1      41.103  33.495  40.020  1.00  0.00     0.055 A 
ATOM     74  C   UNL A   1      42.486  35.008  38.767  1.00  0.00     0.041 A 
ATOM     75  F   UNL A   1      42.933  34.580  36.508  1.00  0.00    -0.206 F 
ATOM     76  C   UNL A   1      41.848  34.674  39.957  1.00  0.00     0.022 A 
BRANCH  73  77
ATOM     77  S   UNL A   1      40.096  33.134  41.484  1.00  0.00     0.124 S 
ATOM     78  O   UNL A   1      41.112  33.080  42.534  1.00  0.00    -0.237 OA
ATOM     79  O   UNL A   1      39.187  34.273  41.532  1.00  0.00    -0.237 OA
ATOM     80  O   UNL A   1      39.473  31.851  41.165  1.00  0.00    -0.744 OA
ENDBRANCH  73  77
ENDBRANCH  56  70
BRANCH  57  81
ATOM     81  C   UNL A   1      40.802  27.641  29.255  1.00  0.00     0.023 A 
ATOM     82  C   UNL A   1      41.692  27.908  28.201  1.00  0.00     0.031 A 
ATOM     83  C   UNL A   1      39.801  26.678  29.042  1.00  0.00     0.131 A 
ATOM     84  C   UNL A   1      41.525  27.264  26.965  1.00  0.00     0.055 A 
ATOM     85  C   UNL A   1      39.678  25.994  27.831  1.00  0.00     0.041 A 
ATOM     86  F   UNL A   1      38.923  26.382  30.014  1.00  0.00    -0.206 F 
ATOM     87  C   UNL A   1      40.534  26.299  26.777  1.00  0.00     0.022 A 
BRANCH  84  88
ATOM     88  S   UNL A   1      42.557  27.788  25.567  1.00  0.00     0.124 S 
ATOM     89  O   UNL A   1      41.874  29.003  25.135  1.00  0.00    -0.237 OA
ATOM     90  O   UNL A   1      43.856  27.973  26.203  1.00  0.00    -0.237 OA
ATOM     91  O   UNL A   1      42.473  26.661  24.641  1.00  0.00    -0.744 OA
ENDBRANCH  84  88
ENDBRANCH  57  81
BRANCH  69  92
ATOM     92  C   UNL A   1      45.266  27.511  34.611  1.00  0.00     0.023 A 
ATOM     93  C   UNL A   1      46.548  27.813  34.118  1.00  0.00     0.031 A 
ATOM     94  C   UNL A   1      45.115  26.345  35.383  1.00  0.00     0.131 A 
ATOM     95  C   UNL A   1      47.612  26.928  34.347  1.00  0.00     0.055 A 
ATOM     96  C   UNL A   1      46.192  25.504  35.666  1.00  0.00     0.041 A 
ATOM     97  F   UNL A   1      43.914  26.004  35.878  1.00  0.00    -0.206 F 
ATOM     98  C   UNL A   1      47.446  25.785  35.133  1.00  0.00     0.022 A 
BRANCH  95  99
ATOM     99  S   UNL A   1      49.192  27.232  33.509  1.00  0.00     0.124 S 
ATOM    100  O   UNL A   1      50.158  26.899  34.553  1.00  0.00    -0.237 OA
ATOM    101  O   UNL A   1      49.130  26.306  32.382  1.00  0.00    -0.237 OA
ATOM    102  O   UNL A   1      49.126  28.647  33.153  1.00  0.00    -0.744 OA
ENDBRANCH  95  99
ENDBRANCH  69  92
ENDBRANCH  43  44
ENDBRANCH  35  38
ENDBRANCH  33  34
ENDBRANCH  32  33
ENDBRANCH  31  32
ENDBRANCH   1  31
TORSDOF 20
ENDMDL
