MODEL 1
REMARK VINA RESULT:     -11.9      0.000      0.000
REMARK SMILES Cc1cccc2c(C(=O)NCCCCCCNC(=O)c3ccc(-c4c5nc(c(-c6cc(S(=O)(=O)[O-])ccc6F)c6ccc([nH]6)c(-c6cc(S(=O)(=O)[O-])ccc6F)c6nc(c(-c7cc(S(=O)(=O)[O-])ccc7F)c7ccc4[nH]7)C=C6)C=C5)cc3)cc(=O)[nH]c12
REMARK SMILES IDX 15 1 14 2 13 3 12 4 11 5 10 6 8 7 9 8 7 10 1 11 2 12 3 13
REMARK SMILES IDX 87 14 4 15 6 16 86 17 5 18 84 19 83 21 85 22 16 23 17 24
REMARK SMILES IDX 18 25 19 27 20 28 21 29 82 30 22 31 81 32 23 33 24 34 25 35
REMARK SMILES IDX 75 36 26 37 80 38 74 39 76 40 27 41 79 42 73 43 72 44 28 46
REMARK SMILES IDX 60 47 40 48 59 49 41 50 44 51 58 52 77 53 42 54 43 55 57 57
REMARK SMILES IDX 78 58 45 59 29 60 30 61 38 62 31 63 37 64 39 65 36 66 32 67
REMARK SMILES IDX 33 68 34 69 35 70 61 71 62 72 70 73 63 74 69 75 71 76 68 77
REMARK SMILES IDX 64 78 65 79 66 80 67 81 46 82 47 83 55 84 48 85 54 86 56 87
REMARK SMILES IDX 53 88 49 89 50 90 51 91 52 92
REMARK H PARENT 10 9 86 20 17 26 76 45 44 56
REMARK Flexibility Score: inf
ROOT
ATOM      1  C   UNL A   1      31.813  28.945  27.278  1.00  0.00     0.021 C 
ENDROOT
BRANCH   1   2
ATOM      2  C   UNL A   1      31.488  27.596  26.641  1.00  0.00     0.002 C 
BRANCH   2   3
ATOM      3  C   UNL A   1      32.703  26.682  26.436  1.00  0.00     0.002 C 
BRANCH   3   4
ATOM      4  C   UNL A   1      32.385  25.177  26.440  1.00  0.00     0.021 C 
BRANCH   4   5
ATOM      5  C   UNL A   1      33.519  24.326  25.860  1.00  0.00     0.116 C 
BRANCH   5   6
ATOM      6  N   UNL A   1      33.083  23.745  24.605  1.00  0.00    -0.352 N 
ATOM      7  C   UNL A   1      32.485  24.208  23.477  1.00  0.00     0.252 C 
ATOM      8  O   UNL A   1      32.085  23.316  22.725  1.00  0.00    -0.269 OA
ATOM      9  H   UNL A   1      33.265  22.778  24.559  1.00  0.00     0.163 HD
BRANCH   7  10
ATOM     10  C   UNL A   1      32.377  25.667  23.095  1.00  0.00     0.054 A 
ATOM     11  C   UNL A   1      29.711  29.842  22.008  1.00  0.00     0.046 C 
ATOM     12  C   UNL A   1      29.807  28.466  22.606  1.00  0.00    -0.027 A 
ATOM     13  C   UNL A   1      28.689  27.938  23.259  1.00  0.00     0.005 A 
ATOM     14  C   UNL A   1      31.002  27.715  22.591  1.00  0.00     0.052 A 
ATOM     15  C   UNL A   1      28.748  26.678  23.840  1.00  0.00     0.001 A 
ATOM     16  C   UNL A   1      31.077  26.417  23.143  1.00  0.00     0.011 A 
ATOM     17  N   UNL A   1      32.165  28.294  22.070  1.00  0.00    -0.322 N 
ATOM     18  C   UNL A   1      29.921  25.924  23.767  1.00  0.00     0.011 A 
ATOM     19  C   UNL A   1      33.393  27.722  22.150  1.00  0.00     0.249 A 
ATOM     20  H   UNL A   1      32.086  29.165  21.617  1.00  0.00     0.170 HD
ATOM     21  C   UNL A   1      33.464  26.375  22.747  1.00  0.00     0.086 A 
ATOM     22  O   UNL A   1      34.400  28.275  21.734  1.00  0.00    -0.270 OA
ENDBRANCH   7  10
ENDBRANCH   5   6
ENDBRANCH   4   5
ENDBRANCH   3   4
ENDBRANCH   2   3
ENDBRANCH   1   2
BRANCH   1  23
ATOM     23  C   UNL A   1      32.762  29.797  26.449  1.00  0.00     0.116 C 
BRANCH  23  24
ATOM     24  N   UNL A   1      32.547  31.220  26.676  1.00  0.00    -0.352 N 
ATOM     25  C   UNL A   1      33.307  32.096  27.415  1.00  0.00     0.251 C 
ATOM     26  H   UNL A   1      31.752  31.606  26.243  1.00  0.00     0.163 HD
ATOM     27  O   UNL A   1      32.868  33.205  27.705  1.00  0.00    -0.269 OA
BRANCH  25  28
ATOM     28  C   UNL A   1      34.643  31.666  27.876  1.00  0.00     0.039 A 
ATOM     29  C   UNL A   1      34.832  30.356  28.319  1.00  0.00     0.014 A 
ATOM     30  C   UNL A   1      35.693  32.585  27.923  1.00  0.00     0.014 A 
ATOM     31  C   UNL A   1      36.002  30.022  28.983  1.00  0.00     0.010 A 
ATOM     32  C   UNL A   1      36.914  32.208  28.489  1.00  0.00     0.010 A 
ATOM     33  C   UNL A   1      37.063  30.939  29.070  1.00  0.00    -0.014 A 
BRANCH  33  34
ATOM     34  C   UNL A   1      38.320  30.519  29.745  1.00  0.00     0.031 A 
ATOM     35  C   UNL A   1      38.640  30.958  31.148  1.00  0.00     0.074 A 
ATOM     36  C   UNL A   1      39.148  29.676  29.096  1.00  0.00     0.049 A 
ATOM     37  N   UNL A   1      39.658  30.623  31.898  1.00  0.00    -0.248 NA
ATOM     38  C   UNL A   1      37.709  31.897  31.795  1.00  0.00     0.031 C 
ATOM     39  C   UNL A   1      38.937  29.195  27.729  1.00  0.00     0.029 A 
ATOM     40  N   UNL A   1      40.302  29.050  29.492  1.00  0.00    -0.354 N 
ATOM     41  C   UNL A   1      39.501  31.316  33.093  1.00  0.00     0.074 A 
ATOM     42  C   UNL A   1      38.311  32.125  32.954  1.00  0.00     0.031 C 
ATOM     43  C   UNL A   1      39.883  28.297  27.428  1.00  0.00     0.029 A 
ATOM     44  C   UNL A   1      40.822  28.203  28.541  1.00  0.00     0.049 A 
ATOM     45  H   UNL A   1      40.718  29.193  30.373  1.00  0.00     0.167 HD
ATOM     46  C   UNL A   1      40.273  31.266  34.206  1.00  0.00     0.034 A 
ATOM     47  C   UNL A   1      41.936  27.443  28.548  1.00  0.00     0.034 A 
ATOM     48  C   UNL A   1      41.445  30.434  34.330  1.00  0.00     0.049 A 
ATOM     49  C   UNL A   1      42.788  27.426  29.788  1.00  0.00     0.074 A 
ATOM     50  C   UNL A   1      42.266  30.280  35.434  1.00  0.00     0.029 A 
ATOM     51  N   UNL A   1      41.965  29.620  33.332  1.00  0.00    -0.354 N 
ATOM     52  N   UNL A   1      42.588  28.037  30.933  1.00  0.00    -0.248 NA
ATOM     53  C   UNL A   1      44.013  26.618  29.747  1.00  0.00     0.031 C 
ATOM     54  C   UNL A   1      43.323  29.443  35.078  1.00  0.00     0.029 A 
ATOM     55  C   UNL A   1      43.117  28.996  33.783  1.00  0.00     0.049 A 
ATOM     56  H   UNL A   1      41.573  29.505  32.437  1.00  0.00     0.167 HD
ATOM     57  C   UNL A   1      43.654  27.677  31.751  1.00  0.00     0.074 A 
ATOM     58  C   UNL A   1      44.475  26.764  30.983  1.00  0.00     0.031 C 
ATOM     59  C   UNL A   1      43.931  28.078  33.017  1.00  0.00     0.034 A 
BRANCH  46  60
ATOM     60  C   UNL A   1      39.893  32.110  35.401  1.00  0.00     0.023 A 
ATOM     61  C   UNL A   1      39.043  31.580  36.391  1.00  0.00     0.031 A 
ATOM     62  C   UNL A   1      40.231  33.473  35.480  1.00  0.00     0.131 A 
ATOM     63  C   UNL A   1      38.523  32.417  37.387  1.00  0.00     0.055 A 
ATOM     64  C   UNL A   1      39.751  34.291  36.504  1.00  0.00     0.041 A 
ATOM     65  F   UNL A   1      41.034  34.031  34.559  1.00  0.00    -0.206 F 
ATOM     66  C   UNL A   1      38.878  33.767  37.454  1.00  0.00     0.022 A 
BRANCH  63  67
ATOM     67  S   UNL A   1      37.297  31.809  38.579  1.00  0.00     0.124 S 
ATOM     68  O   UNL A   1      36.208  32.768  38.404  1.00  0.00    -0.237 OA
ATOM     69  O   UNL A   1      37.028  30.464  38.080  1.00  0.00    -0.237 OA
ATOM     70  O   UNL A   1      37.988  31.882  39.861  1.00  0.00    -0.744 OA
ENDBRANCH  63  67
ENDBRANCH  46  60
BRANCH  47  71
ATOM     71  C   UNL A   1      42.259  26.621  27.344  1.00  0.00     0.023 A 
ATOM     72  C   UNL A   1      41.855  25.275  27.262  1.00  0.00     0.031 A 
ATOM     73  C   UNL A   1      43.083  27.124  26.324  1.00  0.00     0.131 A 
ATOM     74  C   UNL A   1      42.348  24.458  26.239  1.00  0.00     0.055 A 
ATOM     75  C   UNL A   1      43.501  26.327  25.256  1.00  0.00     0.041 A 
ATOM     76  F   UNL A   1      43.507  28.395  26.362  1.00  0.00    -0.206 F 
ATOM     77  C   UNL A   1      43.153  24.981  25.223  1.00  0.00     0.022 A 
BRANCH  74  78
ATOM     78  S   UNL A   1      42.098  22.660  26.286  1.00  0.00     0.124 S 
ATOM     79  O   UNL A   1      40.646  22.557  26.384  1.00  0.00    -0.237 OA
ATOM     80  O   UNL A   1      42.676  22.247  25.009  1.00  0.00    -0.237 OA
ATOM     81  O   UNL A   1      42.843  22.239  27.467  1.00  0.00    -0.744 OA
ENDBRANCH  74  78
ENDBRANCH  47  71
BRANCH  59  82
ATOM     82  C   UNL A   1      45.180  27.552  33.686  1.00  0.00     0.023 A 
ATOM     83  C   UNL A   1      45.124  26.378  34.462  1.00  0.00     0.031 A 
ATOM     84  C   UNL A   1      46.376  28.290  33.686  1.00  0.00     0.131 A 
ATOM     85  C   UNL A   1      46.223  26.006  35.246  1.00  0.00     0.055 A 
ATOM     86  C   UNL A   1      47.490  27.881  34.421  1.00  0.00     0.041 A 
ATOM     87  F   UNL A   1      46.480  29.422  32.973  1.00  0.00    -0.206 F 
ATOM     88  C   UNL A   1      47.410  26.744  35.219  1.00  0.00     0.022 A 
BRANCH  85  89
ATOM     89  S   UNL A   1      46.119  24.613  36.404  1.00  0.00     0.124 S 
ATOM     90  O   UNL A   1      45.501  25.236  37.572  1.00  0.00    -0.237 OA
ATOM     91  O   UNL A   1      45.272  23.672  35.678  1.00  0.00    -0.237 OA
ATOM     92  O   UNL A   1      47.507  24.200  36.583  1.00  0.00    -0.744 OA
ENDBRANCH  85  89
ENDBRANCH  59  82
ENDBRANCH  33  34
ENDBRANCH  25  28
ENDBRANCH  23  24
ENDBRANCH   1  23
TORSDOF 16
ENDMDL
MODEL 2
REMARK VINA RESULT:     -11.8      1.702      3.452
REMARK SMILES Cc1cccc2c(C(=O)NCCCCCCNC(=O)c3ccc(-c4c5nc(c(-c6cc(S(=O)(=O)[O-])ccc6F)c6ccc([nH]6)c(-c6cc(S(=O)(=O)[O-])ccc6F)c6nc(c(-c7cc(S(=O)(=O)[O-])ccc7F)c7ccc4[nH]7)C=C6)C=C5)cc3)cc(=O)[nH]c12
REMARK SMILES IDX 15 1 14 2 13 3 12 4 11 5 10 6 8 7 9 8 7 10 1 11 2 12 3 13
REMARK SMILES IDX 87 14 4 15 6 16 86 17 5 18 84 19 83 21 85 22 16 23 17 24
REMARK SMILES IDX 18 25 19 27 20 28 21 29 82 30 22 31 81 32 23 33 24 34 25 35
REMARK SMILES IDX 75 36 26 37 80 38 74 39 76 40 27 41 79 42 73 43 72 44 28 46
REMARK SMILES IDX 60 47 40 48 59 49 41 50 44 51 58 52 77 53 42 54 43 55 57 57
REMARK SMILES IDX 78 58 45 59 29 60 30 61 38 62 31 63 37 64 39 65 36 66 32 67
REMARK SMILES IDX 33 68 34 69 35 70 61 71 62 72 70 73 63 74 69 75 71 76 68 77
REMARK SMILES IDX 64 78 65 79 66 80 67 81 46 82 47 83 55 84 48 85 54 86 56 87
REMARK SMILES IDX 53 88 49 89 50 90 51 91 52 92
REMARK H PARENT 10 9 86 20 17 26 76 45 44 56
REMARK Flexibility Score: inf
ROOT
ATOM      1  C   UNL A   1      32.559  29.803  25.436  1.00  0.00     0.021 C 
ENDROOT
BRANCH   1   2
ATOM      2  C   UNL A   1      33.643  28.728  25.385  1.00  0.00     0.002 C 
BRANCH   2   3
ATOM      3  C   UNL A   1      33.115  27.290  25.466  1.00  0.00     0.002 C 
BRANCH   3   4
ATOM      4  C   UNL A   1      33.347  26.446  24.201  1.00  0.00     0.021 C 
BRANCH   4   5
ATOM      5  C   UNL A   1      32.551  25.137  24.204  1.00  0.00     0.116 C 
BRANCH   5   6
ATOM      6  N   UNL A   1      32.154  24.826  25.564  1.00  0.00    -0.352 N 
ATOM      7  C   UNL A   1      32.173  23.719  26.351  1.00  0.00     0.252 C 
ATOM      8  O   UNL A   1      31.525  23.840  27.394  1.00  0.00    -0.269 OA
ATOM      9  H   UNL A   1      31.781  25.608  26.032  1.00  0.00     0.163 HD
BRANCH   7  10
ATOM     10  C   UNL A   1      32.970  22.467  26.060  1.00  0.00     0.054 A 
ATOM     11  C   UNL A   1      37.230  20.063  24.725  1.00  0.00     0.046 C 
ATOM     12  C   UNL A   1      36.519  21.287  25.229  1.00  0.00    -0.027 A 
ATOM     13  C   UNL A   1      37.277  22.407  25.583  1.00  0.00     0.005 A 
ATOM     14  C   UNL A   1      35.121  21.326  25.420  1.00  0.00     0.052 A 
ATOM     15  C   UNL A   1      36.656  23.548  26.071  1.00  0.00     0.001 A 
ATOM     16  C   UNL A   1      34.461  22.488  25.880  1.00  0.00     0.011 A 
ATOM     17  N   UNL A   1      34.371  20.164  25.206  1.00  0.00    -0.322 N 
ATOM     18  C   UNL A   1      35.265  23.591  26.200  1.00  0.00     0.011 A 
ATOM     19  C   UNL A   1      33.053  20.051  25.510  1.00  0.00     0.249 A 
ATOM     20  H   UNL A   1      34.825  19.385  24.811  1.00  0.00     0.170 HD
ATOM     21  C   UNL A   1      32.377  21.264  26.009  1.00  0.00     0.086 A 
ATOM     22  O   UNL A   1      32.435  19.007  25.364  1.00  0.00    -0.270 OA
ENDBRANCH   7  10
ENDBRANCH   5   6
ENDBRANCH   4   5
ENDBRANCH   3   4
ENDBRANCH   2   3
ENDBRANCH   1   2
BRANCH   1  23
ATOM     23  C   UNL A   1      32.254  30.292  26.844  1.00  0.00     0.116 C 
BRANCH  23  24
ATOM     24  N   UNL A   1      32.167  31.745  26.903  1.00  0.00    -0.352 N 
ATOM     25  C   UNL A   1      33.028  32.634  27.504  1.00  0.00     0.251 C 
ATOM     26  H   UNL A   1      31.388  32.145  26.452  1.00  0.00     0.163 HD
ATOM     27  O   UNL A   1      32.695  33.802  27.670  1.00  0.00    -0.269 OA
BRANCH  25  28
ATOM     28  C   UNL A   1      34.343  32.146  27.970  1.00  0.00     0.039 A 
ATOM     29  C   UNL A   1      34.475  30.826  28.404  1.00  0.00     0.014 A 
ATOM     30  C   UNL A   1      35.428  33.022  28.030  1.00  0.00     0.014 A 
ATOM     31  C   UNL A   1      35.626  30.440  29.074  1.00  0.00     0.010 A 
ATOM     32  C   UNL A   1      36.629  32.591  28.601  1.00  0.00     0.010 A 
ATOM     33  C   UNL A   1      36.723  31.313  29.174  1.00  0.00    -0.014 A 
BRANCH  33  34
ATOM     34  C   UNL A   1      37.958  30.837  29.854  1.00  0.00     0.031 A 
ATOM     35  C   UNL A   1      38.262  31.213  31.278  1.00  0.00     0.074 A 
ATOM     36  C   UNL A   1      38.778  30.002  29.186  1.00  0.00     0.049 A 
ATOM     37  N   UNL A   1      39.258  30.825  32.032  1.00  0.00    -0.248 NA
ATOM     38  C   UNL A   1      37.340  32.147  31.946  1.00  0.00     0.031 C 
ATOM     39  C   UNL A   1      38.581  29.580  27.798  1.00  0.00     0.029 A 
ATOM     40  N   UNL A   1      39.910  29.334  29.577  1.00  0.00    -0.354 N 
ATOM     41  C   UNL A   1      39.095  31.474  33.251  1.00  0.00     0.074 A 
ATOM     42  C   UNL A   1      37.926  32.316  33.123  1.00  0.00     0.031 C 
ATOM     43  C   UNL A   1      39.512  28.673  27.477  1.00  0.00     0.029 A 
ATOM     44  C   UNL A   1      40.429  28.513  28.602  1.00  0.00     0.049 A 
ATOM     45  H   UNL A   1      40.313  29.432  30.470  1.00  0.00     0.167 HD
ATOM     46  C   UNL A   1      39.844  31.362  34.374  1.00  0.00     0.034 A 
ATOM     47  C   UNL A   1      41.525  27.727  28.599  1.00  0.00     0.034 A 
ATOM     48  C   UNL A   1      40.994  30.499  34.485  1.00  0.00     0.049 A 
ATOM     49  C   UNL A   1      42.353  27.642  29.852  1.00  0.00     0.074 A 
ATOM     50  C   UNL A   1      41.791  30.283  35.597  1.00  0.00     0.029 A 
ATOM     51  N   UNL A   1      41.514  29.713  33.466  1.00  0.00    -0.354 N 
ATOM     52  N   UNL A   1      42.146  28.212  31.016  1.00  0.00    -0.248 NA
ATOM     53  C   UNL A   1      43.560  26.808  29.800  1.00  0.00     0.031 C 
ATOM     54  C   UNL A   1      42.836  29.436  35.227  1.00  0.00     0.029 A 
ATOM     55  C   UNL A   1      42.644  29.045  33.911  1.00  0.00     0.049 A 
ATOM     56  H   UNL A   1      41.136  29.643  32.559  1.00  0.00     0.167 HD
ATOM     57  C   UNL A   1      43.188  27.795  31.838  1.00  0.00     0.074 A 
ATOM     58  C   UNL A   1      44.002  26.894  31.049  1.00  0.00     0.031 C 
ATOM     59  C   UNL A   1      43.450  28.140  33.124  1.00  0.00     0.034 A 
BRANCH  46  60
ATOM     60  C   UNL A   1      39.461  32.167  35.595  1.00  0.00     0.023 A 
ATOM     61  C   UNL A   1      38.717  31.563  36.628  1.00  0.00     0.031 A 
ATOM     62  C   UNL A   1      39.685  33.554  35.666  1.00  0.00     0.131 A 
ATOM     63  C   UNL A   1      38.184  32.349  37.657  1.00  0.00     0.055 A 
ATOM     64  C   UNL A   1      39.195  34.325  36.721  1.00  0.00     0.041 A 
ATOM     65  F   UNL A   1      40.384  34.181  34.706  1.00  0.00    -0.206 F 
ATOM     66  C   UNL A   1      38.425  33.725  37.714  1.00  0.00     0.022 A 
BRANCH  63  67
ATOM     67  S   UNL A   1      37.084  31.636  38.911  1.00  0.00     0.124 S 
ATOM     68  O   UNL A   1      36.906  30.273  38.413  1.00  0.00    -0.237 OA
ATOM     69  O   UNL A   1      37.889  31.754  40.124  1.00  0.00    -0.237 OA
ATOM     70  O   UNL A   1      35.895  32.478  38.856  1.00  0.00    -0.744 OA
ENDBRANCH  63  67
ENDBRANCH  46  60
BRANCH  47  71
ATOM     71  C   UNL A   1      41.852  26.947  27.369  1.00  0.00     0.023 A 
ATOM     72  C   UNL A   1      41.592  25.564  27.305  1.00  0.00     0.031 A 
ATOM     73  C   UNL A   1      42.542  27.537  26.298  1.00  0.00     0.131 A 
ATOM     74  C   UNL A   1      42.100  24.807  26.243  1.00  0.00     0.055 A 
ATOM     75  C   UNL A   1      42.970  26.791  25.198  1.00  0.00     0.041 A 
ATOM     76  F   UNL A   1      42.826  28.848  26.317  1.00  0.00    -0.206 F 
ATOM     77  C   UNL A   1      42.770  25.415  25.178  1.00  0.00     0.022 A 
BRANCH  74  78
ATOM     78  S   UNL A   1      42.052  22.993  26.293  1.00  0.00     0.124 S 
ATOM     79  O   UNL A   1      42.645  22.637  25.007  1.00  0.00    -0.237 OA
ATOM     80  O   UNL A   1      42.872  22.706  27.467  1.00  0.00    -0.237 OA
ATOM     81  O   UNL A   1      40.633  22.689  26.440  1.00  0.00    -0.744 OA
ENDBRANCH  74  78
ENDBRANCH  47  71
BRANCH  59  82
ATOM     82  C   UNL A   1      44.675  27.558  33.793  1.00  0.00     0.023 A 
ATOM     83  C   UNL A   1      44.582  26.345  34.503  1.00  0.00     0.031 A 
ATOM     84  C   UNL A   1      45.882  28.276  33.861  1.00  0.00     0.131 A 
ATOM     85  C   UNL A   1      45.656  25.914  35.292  1.00  0.00     0.055 A 
ATOM     86  C   UNL A   1      46.971  27.811  34.599  1.00  0.00     0.041 A 
ATOM     87  F   UNL A   1      46.019  29.443  33.212  1.00  0.00    -0.206 F 
ATOM     88  C   UNL A   1      46.854  26.634  35.333  1.00  0.00     0.022 A 
BRANCH  85  89
ATOM     89  S   UNL A   1      45.503  24.464  36.371  1.00  0.00     0.124 S 
ATOM     90  O   UNL A   1      46.850  23.900  36.312  1.00  0.00    -0.237 OA
ATOM     91  O   UNL A   1      45.136  25.068  37.648  1.00  0.00    -0.237 OA
ATOM     92  O   UNL A   1      44.466  23.659  35.735  1.00  0.00    -0.744 OA
ENDBRANCH  85  89
ENDBRANCH  59  82
ENDBRANCH  33  34
ENDBRANCH  25  28
ENDBRANCH  23  24
ENDBRANCH   1  23
TORSDOF 16
ENDMDL
MODEL 3
REMARK VINA RESULT:     -11.8      5.054      7.697
REMARK SMILES Cc1cccc2c(C(=O)NCCCCCCNC(=O)c3ccc(-c4c5nc(c(-c6cc(S(=O)(=O)[O-])ccc6F)c6ccc([nH]6)c(-c6cc(S(=O)(=O)[O-])ccc6F)c6nc(c(-c7cc(S(=O)(=O)[O-])ccc7F)c7ccc4[nH]7)C=C6)C=C5)cc3)cc(=O)[nH]c12
REMARK SMILES IDX 15 1 14 2 13 3 12 4 11 5 10 6 8 7 9 8 7 10 1 11 2 12 3 13
REMARK SMILES IDX 87 14 4 15 6 16 86 17 5 18 84 19 83 21 85 22 16 23 17 24
REMARK SMILES IDX 18 25 19 27 20 28 21 29 82 30 22 31 81 32 23 33 24 34 25 35
REMARK SMILES IDX 75 36 26 37 80 38 74 39 76 40 27 41 79 42 73 43 72 44 28 46
REMARK SMILES IDX 60 47 40 48 59 49 41 50 44 51 58 52 77 53 42 54 43 55 57 57
REMARK SMILES IDX 78 58 45 59 29 60 30 61 38 62 31 63 37 64 39 65 36 66 32 67
REMARK SMILES IDX 33 68 34 69 35 70 61 71 62 72 70 73 63 74 69 75 71 76 68 77
REMARK SMILES IDX 64 78 65 79 66 80 67 81 46 82 47 83 55 84 48 85 54 86 56 87
REMARK SMILES IDX 53 88 49 89 50 90 51 91 52 92
REMARK H PARENT 10 9 86 20 17 26 76 45 44 56
REMARK Flexibility Score: inf
ROOT
ATOM      1  C   UNL A   1      35.874  21.805  24.625  1.00  0.00     0.021 C 
ENDROOT
BRANCH   1   2
ATOM      2  C   UNL A   1      35.624  22.887  23.576  1.00  0.00     0.002 C 
BRANCH   2   3
ATOM      3  C   UNL A   1      35.234  24.253  24.155  1.00  0.00     0.002 C 
BRANCH   3   4
ATOM      4  C   UNL A   1      34.260  25.067  23.285  1.00  0.00     0.021 C 
BRANCH   4   5
ATOM      5  C   UNL A   1      33.618  26.233  24.043  1.00  0.00     0.116 C 
BRANCH   5   6
ATOM      6  N   UNL A   1      32.193  25.990  24.171  1.00  0.00    -0.352 N 
ATOM      7  C   UNL A   1      31.417  24.925  24.499  1.00  0.00     0.252 C 
ATOM      8  O   UNL A   1      30.218  25.096  24.268  1.00  0.00    -0.269 OA
ATOM      9  H   UNL A   1      31.659  26.792  23.971  1.00  0.00     0.163 HD
BRANCH   7  10
ATOM     10  C   UNL A   1      31.919  23.666  25.170  1.00  0.00     0.054 A 
ATOM     11  C   UNL A   1      32.721  18.661  25.302  1.00  0.00     0.046 C 
ATOM     12  C   UNL A   1      32.431  19.923  24.539  1.00  0.00    -0.027 A 
ATOM     13  C   UNL A   1      32.337  19.857  23.145  1.00  0.00     0.005 A 
ATOM     14  C   UNL A   1      32.317  21.180  25.168  1.00  0.00     0.052 A 
ATOM     15  C   UNL A   1      32.090  21.006  22.405  1.00  0.00     0.001 A 
ATOM     16  C   UNL A   1      32.030  22.358  24.442  1.00  0.00     0.011 A 
ATOM     17  N   UNL A   1      32.554  21.278  26.544  1.00  0.00    -0.322 N 
ATOM     18  C   UNL A   1      31.923  22.235  23.049  1.00  0.00     0.011 A 
ATOM     19  C   UNL A   1      32.625  22.456  27.215  1.00  0.00     0.249 A 
ATOM     20  H   UNL A   1      32.675  20.445  27.054  1.00  0.00     0.170 HD
ATOM     21  C   UNL A   1      32.344  23.681  26.444  1.00  0.00     0.086 A 
ATOM     22  O   UNL A   1      32.887  22.515  28.407  1.00  0.00    -0.270 OA
ENDBRANCH   7  10
ENDBRANCH   5   6
ENDBRANCH   4   5
ENDBRANCH   3   4
ENDBRANCH   2   3
ENDBRANCH   1   2
BRANCH   1  23
ATOM     23  C   UNL A   1      36.866  22.219  25.701  1.00  0.00     0.116 C 
BRANCH  23  24
ATOM     24  N   UNL A   1      37.927  21.233  25.864  1.00  0.00    -0.352 N 
ATOM     25  C   UNL A   1      39.239  21.434  26.223  1.00  0.00     0.251 C 
ATOM     26  H   UNL A   1      37.670  20.298  25.694  1.00  0.00     0.163 HD
ATOM     27  O   UNL A   1      40.063  20.536  26.086  1.00  0.00    -0.269 OA
BRANCH  25  28
ATOM     28  C   UNL A   1      39.639  22.757  26.746  1.00  0.00     0.039 A 
ATOM     29  C   UNL A   1      39.114  23.915  26.169  1.00  0.00     0.014 A 
ATOM     30  C   UNL A   1      40.583  22.844  27.771  1.00  0.00     0.014 A 
ATOM     31  C   UNL A   1      39.672  25.145  26.479  1.00  0.00     0.010 A 
ATOM     32  C   UNL A   1      41.058  24.098  28.163  1.00  0.00     0.010 A 
ATOM     33  C   UNL A   1      40.645  25.257  27.487  1.00  0.00    -0.014 A 
BRANCH  33  34
ATOM     34  C   UNL A   1      41.176  26.604  27.824  1.00  0.00     0.031 A 
ATOM     35  C   UNL A   1      40.337  27.618  28.553  1.00  0.00     0.074 A 
ATOM     36  C   UNL A   1      42.459  26.883  27.520  1.00  0.00     0.049 A 
ATOM     37  N   UNL A   1      40.676  28.808  28.978  1.00  0.00    -0.248 NA
ATOM     38  C   UNL A   1      38.937  27.263  28.836  1.00  0.00     0.031 C 
ATOM     39  C   UNL A   1      43.359  25.975  26.807  1.00  0.00     0.029 A 
ATOM     40  N   UNL A   1      43.240  27.977  27.791  1.00  0.00    -0.354 N 
ATOM     41  C   UNL A   1      39.536  29.348  29.564  1.00  0.00     0.074 A 
ATOM     42  C   UNL A   1      38.481  28.373  29.401  1.00  0.00     0.031 C 
ATOM     43  C   UNL A   1      44.583  26.514  26.760  1.00  0.00     0.029 A 
ATOM     44  C   UNL A   1      44.540  27.846  27.358  1.00  0.00     0.049 A 
ATOM     45  H   UNL A   1      42.904  28.780  28.251  1.00  0.00     0.167 HD
ATOM     46  C   UNL A   1      39.394  30.540  30.192  1.00  0.00     0.034 A 
ATOM     47  C   UNL A   1      45.583  28.699  27.417  1.00  0.00     0.034 A 
ATOM     48  C   UNL A   1      40.467  31.488  30.361  1.00  0.00     0.049 A 
ATOM     49  C   UNL A   1      45.389  30.027  28.097  1.00  0.00     0.074 A 
ATOM     50  C   UNL A   1      40.432  32.704  31.023  1.00  0.00     0.029 A 
ATOM     51  N   UNL A   1      41.759  31.339  29.874  1.00  0.00    -0.354 N 
ATOM     52  N   UNL A   1      44.321  30.493  28.703  1.00  0.00    -0.248 NA
ATOM     53  C   UNL A   1      46.533  30.946  28.109  1.00  0.00     0.031 C 
ATOM     54  C   UNL A   1      41.671  33.323  30.865  1.00  0.00     0.029 A 
ATOM     55  C   UNL A   1      42.515  32.458  30.186  1.00  0.00     0.049 A 
ATOM     56  H   UNL A   1      42.088  30.554  29.380  1.00  0.00     0.167 HD
ATOM     57  C   UNL A   1      44.670  31.753  29.180  1.00  0.00     0.074 A 
ATOM     58  C   UNL A   1      46.059  31.958  28.825  1.00  0.00     0.031 C 
ATOM     59  C   UNL A   1      43.904  32.658  29.838  1.00  0.00     0.034 A 
BRANCH  46  60
ATOM     60  C   UNL A   1      38.046  30.909  30.767  1.00  0.00     0.023 A 
ATOM     61  C   UNL A   1      37.123  31.630  29.984  1.00  0.00     0.031 A 
ATOM     62  C   UNL A   1      37.737  30.695  32.122  1.00  0.00     0.131 A 
ATOM     63  C   UNL A   1      35.964  32.152  30.573  1.00  0.00     0.055 A 
ATOM     64  C   UNL A   1      36.556  31.173  32.692  1.00  0.00     0.041 A 
ATOM     65  F   UNL A   1      38.584  30.018  32.916  1.00  0.00    -0.206 F 
ATOM     66  C   UNL A   1      35.671  31.920  31.920  1.00  0.00     0.022 A 
BRANCH  63  67
ATOM     67  S   UNL A   1      34.837  33.224  29.639  1.00  0.00     0.124 S 
ATOM     68  O   UNL A   1      34.000  33.777  30.702  1.00  0.00    -0.237 OA
ATOM     69  O   UNL A   1      35.761  34.169  29.018  1.00  0.00    -0.237 OA
ATOM     70  O   UNL A   1      34.157  32.311  28.727  1.00  0.00    -0.744 OA
ENDBRANCH  63  67
ENDBRANCH  46  60
BRANCH  47  71
ATOM     71  C   UNL A   1      46.895  28.280  26.841  1.00  0.00     0.023 A 
ATOM     72  C   UNL A   1      47.110  28.303  25.450  1.00  0.00     0.031 A 
ATOM     73  C   UNL A   1      47.900  27.730  27.653  1.00  0.00     0.131 A 
ATOM     74  C   UNL A   1      48.253  27.704  24.909  1.00  0.00     0.055 A 
ATOM     75  C   UNL A   1      49.080  27.213  27.115  1.00  0.00     0.041 A 
ATOM     76  F   UNL A   1      47.739  27.671  28.983  1.00  0.00    -0.206 F 
ATOM     77  C   UNL A   1      49.251  27.177  25.735  1.00  0.00     0.022 A 
BRANCH  74  78
ATOM     78  S   UNL A   1      48.405  27.442  23.119  1.00  0.00     0.124 S 
ATOM     79  O   UNL A   1      48.319  25.990  23.015  1.00  0.00    -0.237 OA
ATOM     80  O   UNL A   1      47.252  28.181  22.612  1.00  0.00    -0.237 OA
ATOM     81  O   UNL A   1      49.704  28.023  22.795  1.00  0.00    -0.744 OA
ENDBRANCH  74  78
ENDBRANCH  47  71
BRANCH  59  82
ATOM     82  C   UNL A   1      44.523  33.980  30.232  1.00  0.00     0.023 A 
ATOM     83  C   UNL A   1      44.549  35.048  29.314  1.00  0.00     0.031 A 
ATOM     84  C   UNL A   1      45.219  34.129  31.444  1.00  0.00     0.131 A 
ATOM     85  C   UNL A   1      45.300  36.195  29.600  1.00  0.00     0.055 A 
ATOM     86  C   UNL A   1      45.916  35.299  31.750  1.00  0.00     0.041 A 
ATOM     87  F   UNL A   1      45.237  33.137  32.348  1.00  0.00    -0.206 F 
ATOM     88  C   UNL A   1      45.972  36.332  30.818  1.00  0.00     0.022 A 
BRANCH  85  89
ATOM     89  S   UNL A   1      45.515  37.506  28.364  1.00  0.00     0.124 S 
ATOM     90  O   UNL A   1      44.471  38.455  28.744  1.00  0.00    -0.237 OA
ATOM     91  O   UNL A   1      46.882  37.947  28.620  1.00  0.00    -0.237 OA
ATOM     92  O   UNL A   1      45.302  36.827  27.090  1.00  0.00    -0.744 OA
ENDBRANCH  85  89
ENDBRANCH  59  82
ENDBRANCH  33  34
ENDBRANCH  25  28
ENDBRANCH  23  24
ENDBRANCH   1  23
TORSDOF 16
ENDMDL
