MODEL 1
REMARK VINA RESULT:     -12.8      0.000      0.000
REMARK SMILES C[NH+]1CCN(C(=O)c2ccc3c(c2)N(CC(=O)NCCCCCCNC(=O)c2ccc(-c4c5nc(c(-c6cc(S(=O)(=O)[O-])ccc6F)c6ccc([nH]6)c(-c6cc(S(=O)(=O)[O-])ccc6F)c6nc(c(-c7cc(S(=O)(=O)[O-])ccc7F)c7ccc4[nH]7)C=C6)C=C5)cc2)C(=O)CO3)CC1
REMARK SMILES IDX 22 1 21 2 20 3 19 4 18 5 16 6 17 7 15 9 14 10 8 11 9 12
REMARK SMILES IDX 13 13 10 14 12 15 11 16 94 17 91 18 93 19 92 20 6 21 1 22
REMARK SMILES IDX 2 23 3 24 96 25 4 27 95 28 5 29 7 30 23 31 24 32 25 33 26 34
REMARK SMILES IDX 27 36 28 37 29 38 90 39 30 40 89 41 31 42 32 43 33 44 83 45
REMARK SMILES IDX 34 46 88 47 82 48 84 49 35 50 87 51 81 52 80 53 36 55 68 56
REMARK SMILES IDX 48 57 67 58 49 59 52 60 66 61 85 62 50 63 51 64 65 66 86 67
REMARK SMILES IDX 53 68 37 69 38 70 46 71 39 72 45 73 47 74 44 75 40 76 41 77
REMARK SMILES IDX 42 78 43 79 69 80 70 81 78 82 71 83 77 84 79 85 76 86 72 87
REMARK SMILES IDX 73 88 74 89 75 90 54 91 55 92 63 93 56 94 62 95 64 96 61 97
REMARK SMILES IDX 57 98 58 99 59 100 60 101
REMARK H PARENT 18 8 2 26 25 35 84 54 52 65
REMARK Flexibility Score: inf
ROOT
ATOM      1  C   UNL A   1      33.326  29.309  24.303  1.00  0.00     0.002 C 
ENDROOT
BRANCH   1   2
ATOM      2  C   UNL A   1      33.072  28.731  22.906  1.00  0.00     0.002 C 
BRANCH   2   3
ATOM      3  C   UNL A   1      31.638  28.249  22.651  1.00  0.00     0.021 C 
BRANCH   3   4
ATOM      4  C   UNL A   1      31.554  26.893  21.953  1.00  0.00     0.116 C 
BRANCH   4   5
ATOM      5  N   UNL A   1      32.786  26.144  22.099  1.00  0.00    -0.355 N 
ATOM      6  C   UNL A   1      32.974  24.866  22.526  1.00  0.00     0.240 C 
ATOM      7  O   UNL A   1      34.121  24.411  22.477  1.00  0.00    -0.273 OA
ATOM      8  H   UNL A   1      33.605  26.632  21.854  1.00  0.00     0.163 HD
BRANCH   6   9
ATOM      9  C   UNL A   1      31.800  23.978  22.962  1.00  0.00     0.225 C 
BRANCH   9  10
ATOM     10  N   UNL A   1      31.561  23.920  24.405  1.00  0.00    -0.296 N 
ATOM     11  C   UNL A   1      33.744  21.099  25.556  1.00  0.00     0.042 A 
ATOM     12  C   UNL A   1      33.673  21.255  26.941  1.00  0.00     0.018 A 
ATOM     13  C   UNL A   1      33.013  21.938  24.704  1.00  0.00     0.044 A 
ATOM     14  C   UNL A   1      32.901  22.283  27.475  1.00  0.00     0.049 A 
ATOM     15  C   UNL A   1      32.248  22.988  25.232  1.00  0.00     0.087 A 
ATOM     16  C   UNL A   1      32.190  23.136  26.626  1.00  0.00     0.143 A 
ATOM     17  O   UNL A   1      31.513  24.145  27.252  1.00  0.00    -0.482 OA
ATOM     18  C   UNL A   1      30.648  24.802  24.967  1.00  0.00     0.265 C 
ATOM     19  C   UNL A   1      30.468  24.691  26.475  1.00  0.00     0.330 C 
ATOM     20  O   UNL A   1      29.981  25.599  24.306  1.00  0.00    -0.270 OA
BRANCH  11  21
ATOM     21  C   UNL A   1      34.563  19.994  25.014  1.00  0.00     0.254 C 
ATOM     22  C   UNL A   1      32.707  14.730  25.383  1.00  0.00     0.332 C 
ATOM     23  N   UNL A   1      32.992  16.015  24.748  1.00  0.00    -0.334 N 
ATOM     24  C   UNL A   1      34.441  16.313  24.802  1.00  0.00     0.283 C 
ATOM     25  C   UNL A   1      32.249  17.097  25.431  1.00  0.00     0.283 C 
ATOM     26  H   UNL A   1      32.697  15.960  23.774  1.00  0.00     0.347 HD
ATOM     27  C   UNL A   1      34.782  17.689  24.195  1.00  0.00     0.181 C 
ATOM     28  C   UNL A   1      32.529  18.470  24.793  1.00  0.00     0.181 C 
ATOM     29  N   UNL A   1      33.968  18.764  24.766  1.00  0.00    -0.327 N 
ATOM     30  O   UNL A   1      35.748  20.234  24.794  1.00  0.00    -0.269 OA
ENDBRANCH  11  21
ENDBRANCH   9  10
ENDBRANCH   6   9
ENDBRANCH   4   5
ENDBRANCH   3   4
ENDBRANCH   2   3
ENDBRANCH   1   2
BRANCH   1  31
ATOM     31  C   UNL A   1      33.490  28.269  25.414  1.00  0.00     0.021 C 
BRANCH  31  32
ATOM     32  C   UNL A   1      33.217  28.797  26.818  1.00  0.00     0.116 C 
BRANCH  32  33
ATOM     33  N   UNL A   1      33.341  30.244  26.885  1.00  0.00    -0.352 N 
ATOM     34  C   UNL A   1      34.289  31.004  27.522  1.00  0.00     0.251 C 
ATOM     35  H   UNL A   1      32.646  30.750  26.405  1.00  0.00     0.163 HD
ATOM     36  O   UNL A   1      34.107  32.213  27.661  1.00  0.00    -0.269 OA
BRANCH  34  37
ATOM     37  C   UNL A   1      35.512  30.366  28.054  1.00  0.00     0.039 A 
ATOM     38  C   UNL A   1      36.656  30.313  27.254  1.00  0.00     0.014 A 
ATOM     39  C   UNL A   1      35.528  29.812  29.339  1.00  0.00     0.014 A 
ATOM     40  C   UNL A   1      37.829  29.749  27.761  1.00  0.00     0.010 A 
ATOM     41  C   UNL A   1      36.720  29.325  29.869  1.00  0.00     0.010 A 
ATOM     42  C   UNL A   1      37.881  29.277  29.083  1.00  0.00    -0.014 A 
BRANCH  42  43
ATOM     43  C   UNL A   1      39.131  28.705  29.651  1.00  0.00     0.031 A 
ATOM     44  C   UNL A   1      39.718  29.290  30.909  1.00  0.00     0.074 A 
ATOM     45  C   UNL A   1      39.761  27.699  29.014  1.00  0.00     0.049 A 
ATOM     46  N   UNL A   1      40.837  28.991  31.518  1.00  0.00    -0.248 NA
ATOM     47  C   UNL A   1      38.959  30.374  31.551  1.00  0.00     0.031 C 
ATOM     48  C   UNL A   1      39.305  27.067  27.774  1.00  0.00     0.029 A 
ATOM     49  N   UNL A   1      40.923  27.031  29.315  1.00  0.00    -0.354 N 
ATOM     50  C   UNL A   1      40.919  29.852  32.607  1.00  0.00     0.074 A 
ATOM     51  C   UNL A   1      39.772  30.732  32.532  1.00  0.00     0.031 C 
ATOM     52  C   UNL A   1      40.160  26.087  27.438  1.00  0.00     0.029 A 
ATOM     53  C   UNL A   1      41.253  26.053  28.404  1.00  0.00     0.049 A 
ATOM     54  H   UNL A   1      41.469  27.234  30.108  1.00  0.00     0.167 HD
ATOM     55  C   UNL A   1      41.848  29.889  33.594  1.00  0.00     0.034 A 
ATOM     56  C   UNL A   1      42.322  25.233  28.347  1.00  0.00     0.034 A 
ATOM     57  C   UNL A   1      42.982  28.999  33.660  1.00  0.00     0.049 A 
ATOM     58  C   UNL A   1      43.369  25.326  29.432  1.00  0.00     0.074 A 
ATOM     59  C   UNL A   1      43.964  28.926  34.631  1.00  0.00     0.029 A 
ATOM     60  N   UNL A   1      43.288  28.028  32.715  1.00  0.00    -0.354 N 
ATOM     61  N   UNL A   1      43.411  26.124  30.475  1.00  0.00    -0.248 NA
ATOM     62  C   UNL A   1      44.505  24.401  29.337  1.00  0.00     0.031 C 
ATOM     63  C   UNL A   1      44.901  27.966  34.238  1.00  0.00     0.029 A 
ATOM     64  C   UNL A   1      44.458  27.373  33.066  1.00  0.00     0.049 A 
ATOM     65  H   UNL A   1      42.752  27.832  31.912  1.00  0.00     0.167 HD
ATOM     66  C   UNL A   1      44.555  25.762  31.182  1.00  0.00     0.074 A 
ATOM     67  C   UNL A   1      45.165  24.670  30.453  1.00  0.00     0.031 C 
ATOM     68  C   UNL A   1      45.056  26.282  32.332  1.00  0.00     0.034 A 
BRANCH  55  69
ATOM     69  C   UNL A   1      41.687  30.940  34.666  1.00  0.00     0.023 A 
ATOM     70  C   UNL A   1      40.566  30.962  35.515  1.00  0.00     0.031 A 
ATOM     71  C   UNL A   1      42.658  31.942  34.837  1.00  0.00     0.131 A 
ATOM     72  C   UNL A   1      40.408  32.002  36.443  1.00  0.00     0.055 A 
ATOM     73  C   UNL A   1      42.539  32.925  35.822  1.00  0.00     0.041 A 
ATOM     74  F   UNL A   1      43.740  31.989  34.044  1.00  0.00    -0.206 F 
ATOM     75  C   UNL A   1      41.401  32.967  36.622  1.00  0.00     0.022 A 
BRANCH  72  76
ATOM     76  S   UNL A   1      38.824  32.155  37.312  1.00  0.00     0.124 S 
ATOM     77  O   UNL A   1      39.263  32.331  38.694  1.00  0.00    -0.237 OA
ATOM     78  O   UNL A   1      38.228  33.325  36.677  1.00  0.00    -0.237 OA
ATOM     79  O   UNL A   1      38.156  30.885  37.035  1.00  0.00    -0.744 OA
ENDBRANCH  72  76
ENDBRANCH  55  69
BRANCH  56  80
ATOM     80  C   UNL A   1      42.478  24.258  27.228  1.00  0.00     0.023 A 
ATOM     81  C   UNL A   1      41.836  23.009  27.262  1.00  0.00     0.031 A 
ATOM     82  C   UNL A   1      43.328  24.529  26.140  1.00  0.00     0.131 A 
ATOM     83  C   UNL A   1      42.104  22.055  26.268  1.00  0.00     0.055 A 
ATOM     84  C   UNL A   1      43.539  23.602  25.118  1.00  0.00     0.041 A 
ATOM     85  F   UNL A   1      43.968  25.706  26.053  1.00  0.00    -0.206 F 
ATOM     86  C   UNL A   1      42.939  22.349  25.188  1.00  0.00     0.022 A 
BRANCH  83  87
ATOM     87  S   UNL A   1      41.439  20.380  26.474  1.00  0.00     0.124 S 
ATOM     88  O   UNL A   1      40.006  20.613  26.336  1.00  0.00    -0.237 OA
ATOM     89  O   UNL A   1      42.082  19.662  25.377  1.00  0.00    -0.237 OA
ATOM     90  O   UNL A   1      41.886  20.000  27.812  1.00  0.00    -0.744 OA
ENDBRANCH  83  87
ENDBRANCH  56  80
BRANCH  68  91
ATOM     91  C   UNL A   1      46.289  25.627  32.908  1.00  0.00     0.023 A 
ATOM     92  C   UNL A   1      46.211  24.584  33.846  1.00  0.00     0.031 A 
ATOM     93  C   UNL A   1      47.566  26.066  32.511  1.00  0.00     0.131 A 
ATOM     94  C   UNL A   1      47.386  24.055  34.401  1.00  0.00     0.055 A 
ATOM     95  C   UNL A   1      48.732  25.488  33.016  1.00  0.00     0.041 A 
ATOM     96  F   UNL A   1      47.702  27.061  31.621  1.00  0.00    -0.206 F 
ATOM     97  C   UNL A   1      48.646  24.487  33.978  1.00  0.00     0.022 A 
BRANCH  94  98
ATOM     98  S   UNL A   1      47.246  22.865  35.763  1.00  0.00     0.124 S 
ATOM     99  O   UNL A   1      47.084  23.742  36.918  1.00  0.00    -0.237 OA
ATOM    100  O   UNL A   1      46.069  22.091  35.380  1.00  0.00    -0.237 OA
ATOM    101  O   UNL A   1      48.511  22.134  35.713  1.00  0.00    -0.744 OA
ENDBRANCH  94  98
ENDBRANCH  68  91
ENDBRANCH  42  43
ENDBRANCH  34  37
ENDBRANCH  32  33
ENDBRANCH  31  32
ENDBRANCH   1  31
TORSDOF 18
ENDMDL
MODEL 2
REMARK VINA RESULT:     -12.8      1.918      2.174
REMARK SMILES C[NH+]1CCN(C(=O)c2ccc3c(c2)N(CC(=O)NCCCCCCNC(=O)c2ccc(-c4c5nc(c(-c6cc(S(=O)(=O)[O-])ccc6F)c6ccc([nH]6)c(-c6cc(S(=O)(=O)[O-])ccc6F)c6nc(c(-c7cc(S(=O)(=O)[O-])ccc7F)c7ccc4[nH]7)C=C6)C=C5)cc2)C(=O)CO3)CC1
REMARK SMILES IDX 22 1 21 2 20 3 19 4 18 5 16 6 17 7 15 9 14 10 8 11 9 12
REMARK SMILES IDX 13 13 10 14 12 15 11 16 94 17 91 18 93 19 92 20 6 21 1 22
REMARK SMILES IDX 2 23 3 24 96 25 4 27 95 28 5 29 7 30 23 31 24 32 25 33 26 34
REMARK SMILES IDX 27 36 28 37 29 38 90 39 30 40 89 41 31 42 32 43 33 44 83 45
REMARK SMILES IDX 34 46 88 47 82 48 84 49 35 50 87 51 81 52 80 53 36 55 68 56
REMARK SMILES IDX 48 57 67 58 49 59 52 60 66 61 85 62 50 63 51 64 65 66 86 67
REMARK SMILES IDX 53 68 37 69 38 70 46 71 39 72 45 73 47 74 44 75 40 76 41 77
REMARK SMILES IDX 42 78 43 79 69 80 70 81 78 82 71 83 77 84 79 85 76 86 72 87
REMARK SMILES IDX 73 88 74 89 75 90 54 91 55 92 63 93 56 94 62 95 64 96 61 97
REMARK SMILES IDX 57 98 58 99 59 100 60 101
REMARK H PARENT 18 8 2 26 25 35 84 54 52 65
REMARK Flexibility Score: inf
ROOT
ATOM      1  C   UNL A   1      33.195  29.311  24.284  1.00  0.00     0.002 C 
ENDROOT
BRANCH   1   2
ATOM      2  C   UNL A   1      32.976  28.725  22.883  1.00  0.00     0.002 C 
BRANCH   2   3
ATOM      3  C   UNL A   1      31.546  28.249  22.592  1.00  0.00     0.021 C 
BRANCH   3   4
ATOM      4  C   UNL A   1      31.472  26.858  21.965  1.00  0.00     0.116 C 
BRANCH   4   5
ATOM      5  N   UNL A   1      32.725  26.145  22.106  1.00  0.00    -0.355 N 
ATOM      6  C   UNL A   1      32.953  24.878  22.547  1.00  0.00     0.240 C 
ATOM      7  O   UNL A   1      34.111  24.453  22.490  1.00  0.00    -0.273 OA
ATOM      8  H   UNL A   1      33.528  26.651  21.844  1.00  0.00     0.163 HD
BRANCH   6   9
ATOM      9  C   UNL A   1      31.809  23.965  23.010  1.00  0.00     0.225 C 
BRANCH   9  10
ATOM     10  N   UNL A   1      31.587  23.922  24.456  1.00  0.00    -0.296 N 
ATOM     11  C   UNL A   1      33.835  21.158  25.621  1.00  0.00     0.042 A 
ATOM     12  C   UNL A   1      33.777  21.332  27.004  1.00  0.00     0.018 A 
ATOM     13  C   UNL A   1      33.078  21.972  24.766  1.00  0.00     0.044 A 
ATOM     14  C   UNL A   1      32.992  22.353  27.532  1.00  0.00     0.049 A 
ATOM     15  C   UNL A   1      32.301  23.015  25.288  1.00  0.00     0.087 A 
ATOM     16  C   UNL A   1      32.256  23.182  26.680  1.00  0.00     0.143 A 
ATOM     17  O   UNL A   1      31.568  24.186  27.301  1.00  0.00    -0.482 OA
ATOM     18  C   UNL A   1      30.665  24.796  25.017  1.00  0.00     0.265 C 
ATOM     19  C   UNL A   1      30.504  24.702  26.528  1.00  0.00     0.330 C 
ATOM     20  O   UNL A   1      29.976  25.571  24.353  1.00  0.00    -0.270 OA
BRANCH  11  21
ATOM     21  C   UNL A   1      34.668  20.061  25.084  1.00  0.00     0.254 C 
ATOM     22  C   UNL A   1      32.849  14.782  25.425  1.00  0.00     0.332 C 
ATOM     23  N   UNL A   1      33.131  16.070  24.795  1.00  0.00    -0.334 N 
ATOM     24  C   UNL A   1      34.576  16.380  24.863  1.00  0.00     0.283 C 
ATOM     25  C   UNL A   1      32.373  17.145  25.473  1.00  0.00     0.283 C 
ATOM     26  H   UNL A   1      32.846  16.014  23.817  1.00  0.00     0.347 HD
ATOM     27  C   UNL A   1      34.913  17.760  24.262  1.00  0.00     0.181 C 
ATOM     28  C   UNL A   1      32.647  18.522  24.841  1.00  0.00     0.181 C 
ATOM     29  N   UNL A   1      34.085  18.827  24.828  1.00  0.00    -0.327 N 
ATOM     30  O   UNL A   1      35.853  20.311  24.876  1.00  0.00    -0.269 OA
ENDBRANCH  11  21
ENDBRANCH   9  10
ENDBRANCH   6   9
ENDBRANCH   4   5
ENDBRANCH   3   4
ENDBRANCH   2   3
ENDBRANCH   1   2
BRANCH   1  31
ATOM     31  C   UNL A   1      33.684  28.310  25.335  1.00  0.00     0.021 C 
BRANCH  31  32
ATOM     32  C   UNL A   1      33.420  28.731  26.776  1.00  0.00     0.116 C 
BRANCH  32  33
ATOM     33  N   UNL A   1      33.490  30.174  26.940  1.00  0.00    -0.352 N 
ATOM     34  C   UNL A   1      34.404  30.923  27.638  1.00  0.00     0.251 C 
ATOM     35  H   UNL A   1      32.782  30.686  26.486  1.00  0.00     0.163 HD
ATOM     36  O   UNL A   1      34.176  32.112  27.855  1.00  0.00    -0.269 OA
BRANCH  34  37
ATOM     37  C   UNL A   1      35.643  30.295  28.143  1.00  0.00     0.039 A 
ATOM     38  C   UNL A   1      36.780  30.284  27.332  1.00  0.00     0.014 A 
ATOM     39  C   UNL A   1      35.682  29.708  29.412  1.00  0.00     0.014 A 
ATOM     40  C   UNL A   1      37.969  29.730  27.813  1.00  0.00     0.010 A 
ATOM     41  C   UNL A   1      36.887  29.230  29.919  1.00  0.00     0.010 A 
ATOM     42  C   UNL A   1      38.042  29.225  29.122  1.00  0.00    -0.014 A 
BRANCH  42  43
ATOM     43  C   UNL A   1      39.308  28.663  29.663  1.00  0.00     0.031 A 
ATOM     44  C   UNL A   1      39.967  29.311  30.852  1.00  0.00     0.074 A 
ATOM     45  C   UNL A   1      39.887  27.606  29.061  1.00  0.00     0.049 A 
ATOM     46  N   UNL A   1      41.109  29.026  31.424  1.00  0.00    -0.248 NA
ATOM     47  C   UNL A   1      39.260  30.449  31.461  1.00  0.00     0.031 C 
ATOM     48  C   UNL A   1      39.359  26.909  27.886  1.00  0.00     0.029 A 
ATOM     49  N   UNL A   1      41.050  26.933  29.347  1.00  0.00    -0.354 N 
ATOM     50  C   UNL A   1      41.261  29.951  32.452  1.00  0.00     0.074 A 
ATOM     51  C   UNL A   1      40.128  30.849  32.377  1.00  0.00     0.031 C 
ATOM     52  C   UNL A   1      40.177  25.892  27.572  1.00  0.00     0.029 A 
ATOM     53  C   UNL A   1      41.317  25.894  28.484  1.00  0.00     0.049 A 
ATOM     54  H   UNL A   1      41.638  27.172  30.099  1.00  0.00     0.167 HD
ATOM     55  C   UNL A   1      42.238  30.029  33.388  1.00  0.00     0.034 A 
ATOM     56  C   UNL A   1      42.366  25.049  28.427  1.00  0.00     0.034 A 
ATOM     57  C   UNL A   1      43.357  29.120  33.455  1.00  0.00     0.049 A 
ATOM     58  C   UNL A   1      43.467  25.186  29.452  1.00  0.00     0.074 A 
ATOM     59  C   UNL A   1      44.385  29.086  34.380  1.00  0.00     0.029 A 
ATOM     60  N   UNL A   1      43.598  28.087  32.559  1.00  0.00    -0.354 N 
ATOM     61  N   UNL A   1      43.575  26.046  30.440  1.00  0.00    -0.248 NA
ATOM     62  C   UNL A   1      44.580  24.233  29.360  1.00  0.00     0.031 C 
ATOM     63  C   UNL A   1      45.284  28.084  34.004  1.00  0.00     0.029 A 
ATOM     64  C   UNL A   1      44.772  27.430  32.894  1.00  0.00     0.049 A 
ATOM     65  H   UNL A   1      43.020  27.853  31.797  1.00  0.00     0.167 HD
ATOM     66  C   UNL A   1      44.746  25.704  31.112  1.00  0.00     0.074 A 
ATOM     67  C   UNL A   1      45.298  24.556  30.425  1.00  0.00     0.031 C 
ATOM     68  C   UNL A   1      45.312  26.283  32.202  1.00  0.00     0.034 A 
BRANCH  55  69
ATOM     69  C   UNL A   1      42.150  31.147  34.399  1.00  0.00     0.023 A 
ATOM     70  C   UNL A   1      42.781  32.386  34.185  1.00  0.00     0.031 A 
ATOM     71  C   UNL A   1      41.439  30.973  35.599  1.00  0.00     0.131 A 
ATOM     72  C   UNL A   1      42.749  33.372  35.182  1.00  0.00     0.055 A 
ATOM     73  C   UNL A   1      41.337  31.989  36.551  1.00  0.00     0.041 A 
ATOM     74  F   UNL A   1      40.835  29.806  35.873  1.00  0.00    -0.206 F 
ATOM     75  C   UNL A   1      42.007  33.193  36.352  1.00  0.00     0.022 A 
BRANCH  72  76
ATOM     76  S   UNL A   1      43.806  34.833  34.991  1.00  0.00     0.124 S 
ATOM     77  O   UNL A   1      45.014  34.247  34.415  1.00  0.00    -0.237 OA
ATOM     78  O   UNL A   1      43.018  35.678  34.100  1.00  0.00    -0.237 OA
ATOM     79  O   UNL A   1      43.954  35.331  36.357  1.00  0.00    -0.744 OA
ENDBRANCH  72  76
ENDBRANCH  55  69
BRANCH  56  80
ATOM     80  C   UNL A   1      42.448  24.004  27.365  1.00  0.00     0.023 A 
ATOM     81  C   UNL A   1      41.814  22.761  27.522  1.00  0.00     0.031 A 
ATOM     82  C   UNL A   1      43.222  24.203  26.206  1.00  0.00     0.131 A 
ATOM     83  C   UNL A   1      42.017  21.744  26.576  1.00  0.00     0.055 A 
ATOM     84  C   UNL A   1      43.366  23.211  25.234  1.00  0.00     0.041 A 
ATOM     85  F   UNL A   1      43.851  25.371  26.000  1.00  0.00    -0.206 F 
ATOM     86  C   UNL A   1      42.776  21.966  25.426  1.00  0.00     0.022 A 
BRANCH  83  87
ATOM     87  S   UNL A   1      41.372  20.087  26.934  1.00  0.00     0.124 S 
ATOM     88  O   UNL A   1      42.561  19.263  26.757  1.00  0.00    -0.237 OA
ATOM     89  O   UNL A   1      40.892  20.237  28.305  1.00  0.00    -0.237 OA
ATOM     90  O   UNL A   1      40.328  19.904  25.927  1.00  0.00    -0.744 OA
ENDBRANCH  83  87
ENDBRANCH  56  80
BRANCH  68  91
ATOM     91  C   UNL A   1      46.561  25.639  32.757  1.00  0.00     0.023 A 
ATOM     92  C   UNL A   1      47.831  25.876  32.205  1.00  0.00     0.031 A 
ATOM     93  C   UNL A   1      46.470  24.764  33.856  1.00  0.00     0.131 A 
ATOM     94  C   UNL A   1      48.950  25.201  32.714  1.00  0.00     0.055 A 
ATOM     95  C   UNL A   1      47.597  24.149  34.401  1.00  0.00     0.041 A 
ATOM     96  F   UNL A   1      45.282  24.498  34.422  1.00  0.00    -0.206 F 
ATOM     97  C   UNL A   1      48.844  24.354  33.821  1.00  0.00     0.022 A 
BRANCH  94  98
ATOM     98  S   UNL A   1      50.535  25.362  31.844  1.00  0.00     0.124 S 
ATOM     99  O   UNL A   1      51.372  25.998  32.856  1.00  0.00    -0.237 OA
ATOM    100  O   UNL A   1      50.859  23.975  31.528  1.00  0.00    -0.237 OA
ATOM    101  O   UNL A   1      50.210  26.201  30.691  1.00  0.00    -0.744 OA
ENDBRANCH  94  98
ENDBRANCH  68  91
ENDBRANCH  42  43
ENDBRANCH  34  37
ENDBRANCH  32  33
ENDBRANCH  31  32
ENDBRANCH   1  31
TORSDOF 18
ENDMDL
MODEL 3
REMARK VINA RESULT:     -12.2      2.410      7.787
REMARK SMILES C[NH+]1CCN(C(=O)c2ccc3c(c2)N(CC(=O)NCCCCCCNC(=O)c2ccc(-c4c5nc(c(-c6cc(S(=O)(=O)[O-])ccc6F)c6ccc([nH]6)c(-c6cc(S(=O)(=O)[O-])ccc6F)c6nc(c(-c7cc(S(=O)(=O)[O-])ccc7F)c7ccc4[nH]7)C=C6)C=C5)cc2)C(=O)CO3)CC1
REMARK SMILES IDX 22 1 21 2 20 3 19 4 18 5 16 6 17 7 15 9 14 10 8 11 9 12
REMARK SMILES IDX 13 13 10 14 12 15 11 16 94 17 91 18 93 19 92 20 6 21 1 22
REMARK SMILES IDX 2 23 3 24 96 25 4 27 95 28 5 29 7 30 23 31 24 32 25 33 26 34
REMARK SMILES IDX 27 36 28 37 29 38 90 39 30 40 89 41 31 42 32 43 33 44 83 45
REMARK SMILES IDX 34 46 88 47 82 48 84 49 35 50 87 51 81 52 80 53 36 55 68 56
REMARK SMILES IDX 48 57 67 58 49 59 52 60 66 61 85 62 50 63 51 64 65 66 86 67
REMARK SMILES IDX 53 68 37 69 38 70 46 71 39 72 45 73 47 74 44 75 40 76 41 77
REMARK SMILES IDX 42 78 43 79 69 80 70 81 78 82 71 83 77 84 79 85 76 86 72 87
REMARK SMILES IDX 73 88 74 89 75 90 54 91 55 92 63 93 56 94 62 95 64 96 61 97
REMARK SMILES IDX 57 98 58 99 59 100 60 101
REMARK H PARENT 18 8 2 26 25 35 84 54 52 65
REMARK Flexibility Score: inf
ROOT
ATOM      1  C   UNL A   1      31.585  29.809  25.179  1.00  0.00     0.002 C 
ENDROOT
BRANCH   1   2
ATOM      2  C   UNL A   1      32.074  28.530  25.871  1.00  0.00     0.002 C 
BRANCH   2   3
ATOM      3  C   UNL A   1      33.194  27.780  25.139  1.00  0.00     0.021 C 
BRANCH   3   4
ATOM      4  C   UNL A   1      32.867  27.444  23.685  1.00  0.00     0.116 C 
BRANCH   4   5
ATOM      5  N   UNL A   1      33.729  26.396  23.176  1.00  0.00    -0.355 N 
ATOM      6  C   UNL A   1      33.433  25.101  22.884  1.00  0.00     0.240 C 
ATOM      7  O   UNL A   1      34.322  24.415  22.369  1.00  0.00    -0.273 OA
ATOM      8  H   UNL A   1      34.664  26.661  23.019  1.00  0.00     0.163 HD
BRANCH   6   9
ATOM      9  C   UNL A   1      32.024  24.527  23.091  1.00  0.00     0.225 C 
BRANCH   9  10
ATOM     10  N   UNL A   1      31.625  24.333  24.485  1.00  0.00    -0.296 N 
ATOM     11  C   UNL A   1      33.688  21.411  25.605  1.00  0.00     0.042 A 
ATOM     12  C   UNL A   1      33.461  21.436  26.981  1.00  0.00     0.018 A 
ATOM     13  C   UNL A   1      33.050  22.328  24.759  1.00  0.00     0.044 A 
ATOM     14  C   UNL A   1      32.625  22.410  27.519  1.00  0.00     0.049 A 
ATOM     15  C   UNL A   1      32.222  23.325  25.293  1.00  0.00     0.087 A 
ATOM     16  C   UNL A   1      32.007  23.342  26.679  1.00  0.00     0.143 A 
ATOM     17  O   UNL A   1      31.255  24.288  27.318  1.00  0.00    -0.482 OA
ATOM     18  C   UNL A   1      30.648  25.161  25.021  1.00  0.00     0.265 C 
ATOM     19  C   UNL A   1      30.300  24.908  26.482  1.00  0.00     0.330 C 
ATOM     20  O   UNL A   1      30.053  26.018  24.368  1.00  0.00    -0.270 OA
BRANCH  11  21
ATOM     21  C   UNL A   1      34.572  20.360  25.057  1.00  0.00     0.254 C 
ATOM     22  C   UNL A   1      33.021  14.995  25.369  1.00  0.00     0.332 C 
ATOM     23  N   UNL A   1      33.234  16.300  24.747  1.00  0.00    -0.334 N 
ATOM     24  C   UNL A   1      34.663  16.680  24.810  1.00  0.00     0.283 C 
ATOM     25  C   UNL A   1      32.427  17.331  25.436  1.00  0.00     0.283 C 
ATOM     26  H   UNL A   1      32.948  16.236  23.770  1.00  0.00     0.347 HD
ATOM     27  C   UNL A   1      34.928  18.079  24.218  1.00  0.00     0.181 C 
ATOM     28  C   UNL A   1      32.630  18.724  24.812  1.00  0.00     0.181 C 
ATOM     29  N   UNL A   1      34.050  19.100  24.795  1.00  0.00    -0.327 N 
ATOM     30  O   UNL A   1      35.742  20.671  24.845  1.00  0.00    -0.269 OA
ENDBRANCH  11  21
ENDBRANCH   9  10
ENDBRANCH   6   9
ENDBRANCH   4   5
ENDBRANCH   3   4
ENDBRANCH   2   3
ENDBRANCH   1   2
BRANCH   1  31
ATOM     31  C   UNL A   1      31.340  30.997  26.113  1.00  0.00     0.021 C 
BRANCH  31  32
ATOM     32  C   UNL A   1      32.579  31.479  26.859  1.00  0.00     0.116 C 
BRANCH  32  33
ATOM     33  N   UNL A   1      32.511  32.899  27.161  1.00  0.00    -0.352 N 
ATOM     34  C   UNL A   1      33.265  33.635  28.040  1.00  0.00     0.251 C 
ATOM     35  H   UNL A   1      31.826  33.404  26.666  1.00  0.00     0.163 HD
ATOM     36  O   UNL A   1      32.916  34.777  28.332  1.00  0.00    -0.269 OA
BRANCH  34  37
ATOM     37  C   UNL A   1      34.478  33.045  28.646  1.00  0.00     0.039 A 
ATOM     38  C   UNL A   1      35.728  33.583  28.329  1.00  0.00     0.014 A 
ATOM     39  C   UNL A   1      34.384  31.956  29.519  1.00  0.00     0.014 A 
ATOM     40  C   UNL A   1      36.877  33.062  28.927  1.00  0.00     0.010 A 
ATOM     41  C   UNL A   1      35.522  31.493  30.174  1.00  0.00     0.010 A 
ATOM     42  C   UNL A   1      36.783  32.032  29.878  1.00  0.00    -0.014 A 
BRANCH  42  43
ATOM     43  C   UNL A   1      37.993  31.487  30.550  1.00  0.00     0.031 A 
ATOM     44  C   UNL A   1      38.835  30.453  29.852  1.00  0.00     0.074 A 
ATOM     45  C   UNL A   1      38.305  31.884  31.800  1.00  0.00     0.049 A 
ATOM     46  N   UNL A   1      39.878  29.796  30.295  1.00  0.00    -0.248 NA
ATOM     47  C   UNL A   1      38.435  30.088  28.484  1.00  0.00     0.031 C 
ATOM     48  C   UNL A   1      37.550  32.860  32.590  1.00  0.00     0.029 A 
ATOM     49  N   UNL A   1      39.334  31.515  32.630  1.00  0.00    -0.354 N 
ATOM     50  C   UNL A   1      40.252  28.938  29.266  1.00  0.00     0.074 A 
ATOM     51  C   UNL A   1      39.281  29.108  28.206  1.00  0.00     0.031 C 
ATOM     52  C   UNL A   1      38.159  33.033  33.774  1.00  0.00     0.029 A 
ATOM     53  C   UNL A   1      39.313  32.143  33.854  1.00  0.00     0.049 A 
ATOM     54  H   UNL A   1      40.024  30.860  32.373  1.00  0.00     0.167 HD
ATOM     55  C   UNL A   1      41.321  28.107  29.198  1.00  0.00     0.034 A 
ATOM     56  C   UNL A   1      40.123  32.007  34.924  1.00  0.00     0.034 A 
ATOM     57  C   UNL A   1      42.285  27.956  30.260  1.00  0.00     0.049 A 
ATOM     58  C   UNL A   1      41.280  31.039  34.843  1.00  0.00     0.074 A 
ATOM     59  C   UNL A   1      43.423  27.169  30.285  1.00  0.00     0.029 A 
ATOM     60  N   UNL A   1      42.226  28.602  31.489  1.00  0.00    -0.354 N 
ATOM     61  N   UNL A   1      41.639  30.261  33.846  1.00  0.00    -0.248 NA
ATOM     62  C   UNL A   1      42.144  30.938  36.025  1.00  0.00     0.031 C 
ATOM     63  C   UNL A   1      44.009  27.281  31.549  1.00  0.00     0.029 A 
ATOM     64  C   UNL A   1      43.289  28.208  32.286  1.00  0.00     0.049 A 
ATOM     65  H   UNL A   1      41.530  29.246  31.755  1.00  0.00     0.167 HD
ATOM     66  C   UNL A   1      42.798  29.615  34.270  1.00  0.00     0.074 A 
ATOM     67  C   UNL A   1      43.081  30.103  35.603  1.00  0.00     0.031 C 
ATOM     68  C   UNL A   1      43.563  28.704  33.614  1.00  0.00     0.034 A 
BRANCH  55  69
ATOM     69  C   UNL A   1      41.487  27.283  27.944  1.00  0.00     0.023 A 
ATOM     70  C   UNL A   1      41.123  25.925  27.900  1.00  0.00     0.031 A 
ATOM     71  C   UNL A   1      42.028  27.854  26.779  1.00  0.00     0.131 A 
ATOM     72  C   UNL A   1      41.370  25.169  26.745  1.00  0.00     0.055 A 
ATOM     73  C   UNL A   1      42.190  27.118  25.603  1.00  0.00     0.041 A 
ATOM     74  F   UNL A   1      42.416  29.139  26.764  1.00  0.00    -0.206 F 
ATOM     75  C   UNL A   1      41.874  25.763  25.586  1.00  0.00     0.022 A 
BRANCH  72  76
ATOM     76  S   UNL A   1      41.155  23.370  26.825  1.00  0.00     0.124 S 
ATOM     77  O   UNL A   1      41.518  23.092  28.212  1.00  0.00    -0.237 OA
ATOM     78  O   UNL A   1      39.746  23.205  26.488  1.00  0.00    -0.237 OA
ATOM     79  O   UNL A   1      42.099  22.867  25.829  1.00  0.00    -0.744 OA
ENDBRANCH  72  76
ENDBRANCH  55  69
BRANCH  56  80
ATOM     80  C   UNL A   1      39.879  32.789  36.172  1.00  0.00     0.023 A 
ATOM     81  C   UNL A   1      38.991  32.323  37.156  1.00  0.00     0.031 A 
ATOM     82  C   UNL A   1      40.473  34.049  36.369  1.00  0.00     0.131 A 
ATOM     83  C   UNL A   1      38.671  33.136  38.254  1.00  0.00     0.055 A 
ATOM     84  C   UNL A   1      40.204  34.825  37.497  1.00  0.00     0.041 A 
ATOM     85  F   UNL A   1      41.331  34.546  35.463  1.00  0.00    -0.206 F 
ATOM     86  C   UNL A   1      39.284  34.377  38.440  1.00  0.00     0.022 A 
BRANCH  83  87
ATOM     87  S   UNL A   1      37.351  32.597  39.375  1.00  0.00     0.124 S 
ATOM     88  O   UNL A   1      37.682  31.190  39.566  1.00  0.00    -0.237 OA
ATOM     89  O   UNL A   1      37.557  33.469  40.527  1.00  0.00    -0.237 OA
ATOM     90  O   UNL A   1      36.131  32.855  38.611  1.00  0.00    -0.744 OA
ENDBRANCH  83  87
ENDBRANCH  56  80
BRANCH  68  91
ATOM     91  C   UNL A   1      44.817  28.229  34.308  1.00  0.00     0.023 A 
ATOM     92  C   UNL A   1      46.048  28.892  34.161  1.00  0.00     0.031 A 
ATOM     93  C   UNL A   1      44.777  27.084  35.126  1.00  0.00     0.131 A 
ATOM     94  C   UNL A   1      47.199  28.371  34.772  1.00  0.00     0.055 A 
ATOM     95  C   UNL A   1      45.911  26.611  35.787  1.00  0.00     0.041 A 
ATOM     96  F   UNL A   1      43.629  26.409  35.300  1.00  0.00    -0.206 F 
ATOM     97  C   UNL A   1      47.134  27.247  35.599  1.00  0.00     0.022 A 
BRANCH  94  98
ATOM     98  S   UNL A   1      48.805  29.123  34.387  1.00  0.00     0.124 S 
ATOM     99  O   UNL A   1      49.677  28.497  35.375  1.00  0.00    -0.237 OA
ATOM    100  O   UNL A   1      49.015  28.715  33.002  1.00  0.00    -0.237 OA
ATOM    101  O   UNL A   1      48.571  30.553  34.584  1.00  0.00    -0.744 OA
ENDBRANCH  94  98
ENDBRANCH  68  91
ENDBRANCH  42  43
ENDBRANCH  34  37
ENDBRANCH  32  33
ENDBRANCH  31  32
ENDBRANCH   1  31
TORSDOF 18
ENDMDL
