MODEL 1
REMARK VINA RESULT:     -11.8      0.000      0.000
REMARK SMILES Cc1ccc(C(=O)/C(C#N)=C/c2ccccc2OCC(=O)NCCCCCCNC(=O)c2ccc(-c3c4nc(c(-c5cc(S(=O)(=O)[O-])ccc5F)c5ccc([nH]5)c(-c5cc(S(=O)(=O)[O-])ccc5F)c5nc(c(-c6cc(S(=O)(=O)[O-])ccc6F)c6ccc3[nH]6)C=C5)C=C4)cc2)cc1F
REMARK SMILES IDX 24 1 23 2 22 3 20 4 21 5 19 7 18 8 17 9 12 10 13 11 14 12
REMARK SMILES IDX 16 13 15 14 11 15 8 16 6 17 7 18 5 19 1 20 2 21 3 22 96 23
REMARK SMILES IDX 4 24 95 25 97 26 9 27 10 28 25 29 26 30 27 31 28 32 29 33
REMARK SMILES IDX 30 34 31 36 32 37 33 38 94 39 34 40 93 41 35 42 36 43 37 44
REMARK SMILES IDX 87 45 38 46 92 47 86 48 88 49 39 50 91 51 85 52 84 53 40 55
REMARK SMILES IDX 72 56 52 57 71 58 53 59 56 60 70 61 89 62 54 63 55 64 69 66
REMARK SMILES IDX 90 67 57 68 41 69 42 70 50 71 43 72 49 73 51 74 48 75 44 76
REMARK SMILES IDX 45 77 46 78 47 79 73 80 74 81 82 82 75 83 81 84 83 85 80 86
REMARK SMILES IDX 76 87 77 88 78 89 79 90 58 91 59 92 67 93 60 94 66 95 68 96
REMARK SMILES IDX 65 97 61 98 62 99 63 100 64 101
REMARK H PARENT 22 6 29 35 88 54 56 65
REMARK Flexibility Score: inf
ROOT
ATOM      1  C   UNL A   1      35.365  24.085  24.568  1.00  0.00     0.021 C 
ENDROOT
BRANCH   1   2
ATOM      2  C   UNL A   1      34.843  23.554  23.212  1.00  0.00     0.116 C 
BRANCH   2   3
ATOM      3  N   UNL A   1      33.565  24.001  22.698  1.00  0.00    -0.353 N 
ATOM      4  C   UNL A   1      32.999  25.228  22.538  1.00  0.00     0.257 C 
ATOM      5  O   UNL A   1      32.009  25.238  21.786  1.00  0.00    -0.271 OA
ATOM      6  H   UNL A   1      32.984  23.262  22.404  1.00  0.00     0.163 HD
BRANCH   4   7
ATOM      7  C   UNL A   1      33.449  26.614  23.179  1.00  0.00     0.329 C 
BRANCH   7   8
ATOM      8  O   UNL A   1      32.621  27.657  23.635  1.00  0.00    -0.483 OA
BRANCH   8   9
ATOM      9  C   UNL A   1      32.197  28.032  24.890  1.00  0.00     0.127 A 
ATOM     10  C   UNL A   1      31.881  27.358  26.113  1.00  0.00     0.018 A 
ATOM     11  C   UNL A   1      31.725  28.137  27.293  1.00  0.00     0.012 A 
ATOM     12  C   UNL A   1      31.868  29.522  27.296  1.00  0.00     0.001 A 
ATOM     13  C   UNL A   1      32.264  29.442  24.930  1.00  0.00     0.047 A 
ATOM     14  C   UNL A   1      32.120  30.177  26.106  1.00  0.00     0.004 A 
BRANCH  10  15
ATOM     15  C   UNL A   1      31.903  25.905  26.489  1.00  0.00     0.035 C 
ATOM     16  C   UNL A   1      31.166  24.989  25.812  1.00  0.00     0.101 C 
BRANCH  16  17
ATOM     17  C   UNL A   1      31.150  23.615  26.408  1.00  0.00     0.203 C 
ATOM     18  O   UNL A   1      30.387  23.349  27.337  1.00  0.00    -0.288 OA
BRANCH  17  19
ATOM     19  C   UNL A   1      32.012  22.516  25.897  1.00  0.00     0.026 A 
ATOM     20  C   UNL A   1      34.090  18.977  24.580  1.00  0.00     0.047 C 
ATOM     21  C   UNL A   1      33.485  20.304  24.936  1.00  0.00    -0.015 A 
ATOM     22  C   UNL A   1      33.890  20.982  26.088  1.00  0.00     0.007 A 
ATOM     23  C   UNL A   1      32.452  20.862  24.184  1.00  0.00     0.126 A 
ATOM     24  C   UNL A   1      33.169  22.098  26.552  1.00  0.00     0.013 A 
ATOM     25  C   UNL A   1      31.724  21.960  24.649  1.00  0.00     0.051 A 
ATOM     26  F   UNL A   1      32.123  20.325  23.001  1.00  0.00    -0.207 F 
ENDBRANCH  17  19
ENDBRANCH  16  17
BRANCH  16  27
ATOM     27  C   UNL A   1      30.041  25.735  25.113  1.00  0.00     0.103 C 
ATOM     28  N   UNL A   1      29.108  26.354  24.532  1.00  0.00    -0.192 NA
ENDBRANCH  16  27
ENDBRANCH  10  15
ENDBRANCH   8   9
ENDBRANCH   7   8
ENDBRANCH   4   7
ENDBRANCH   2   3
ENDBRANCH   1   2
BRANCH   1  29
ATOM     29  C   UNL A   1      36.518  23.442  25.382  1.00  0.00     0.002 C 
BRANCH  29  30
ATOM     30  C   UNL A   1      37.395  22.356  24.768  1.00  0.00     0.002 C 
BRANCH  30  31
ATOM     31  C   UNL A   1      38.222  21.549  25.756  1.00  0.00     0.021 C 
BRANCH  31  32
ATOM     32  C   UNL A   1      39.451  22.291  26.242  1.00  0.00     0.116 C 
BRANCH  32  33
ATOM     33  N   UNL A   1      40.676  21.643  25.809  1.00  0.00    -0.352 N 
ATOM     34  C   UNL A   1      41.927  22.220  25.819  1.00  0.00     0.251 C 
ATOM     35  H   UNL A   1      40.607  20.716  25.484  1.00  0.00     0.163 HD
ATOM     36  O   UNL A   1      42.853  21.735  25.189  1.00  0.00    -0.269 OA
BRANCH  34  37
ATOM     37  C   UNL A   1      42.106  23.384  26.701  1.00  0.00     0.039 A 
ATOM     38  C   UNL A   1      42.322  23.256  28.076  1.00  0.00     0.014 A 
ATOM     39  C   UNL A   1      42.046  24.634  26.086  1.00  0.00     0.014 A 
ATOM     40  C   UNL A   1      42.462  24.407  28.855  1.00  0.00     0.010 A 
ATOM     41  C   UNL A   1      42.258  25.758  26.837  1.00  0.00     0.010 A 
ATOM     42  C   UNL A   1      42.404  25.649  28.227  1.00  0.00    -0.014 A 
BRANCH  42  43
ATOM     43  C   UNL A   1      42.372  26.934  28.902  1.00  0.00     0.031 A 
ATOM     44  C   UNL A   1      41.237  27.860  28.785  1.00  0.00     0.074 A 
ATOM     45  C   UNL A   1      43.293  27.067  29.883  1.00  0.00     0.049 A 
ATOM     46  N   UNL A   1      41.248  29.044  29.291  1.00  0.00    -0.248 NA
ATOM     47  C   UNL A   1      39.994  27.544  28.091  1.00  0.00     0.031 C 
ATOM     48  C   UNL A   1      43.234  27.880  31.084  1.00  0.00     0.029 A 
ATOM     49  N   UNL A   1      44.573  26.502  29.920  1.00  0.00    -0.354 N 
ATOM     50  C   UNL A   1      39.955  29.519  29.271  1.00  0.00     0.074 A 
ATOM     51  C   UNL A   1      39.239  28.607  28.406  1.00  0.00     0.031 C 
ATOM     52  C   UNL A   1      44.472  27.971  31.598  1.00  0.00     0.029 A 
ATOM     53  C   UNL A   1      45.382  27.416  30.608  1.00  0.00     0.049 A 
ATOM     54  H   UNL A   1      44.850  25.636  29.540  1.00  0.00     0.167 HD
ATOM     55  C   UNL A   1      39.625  30.539  30.116  1.00  0.00     0.034 A 
ATOM     56  C   UNL A   1      46.403  28.092  29.998  1.00  0.00     0.034 A 
ATOM     57  C   UNL A   1      40.801  30.984  30.871  1.00  0.00     0.049 A 
ATOM     58  C   UNL A   1      46.222  29.601  30.028  1.00  0.00     0.074 A 
ATOM     59  C   UNL A   1      41.264  30.753  32.157  1.00  0.00     0.029 A 
ATOM     60  N   UNL A   1      41.857  31.550  30.182  1.00  0.00    -0.354 N 
ATOM     61  N   UNL A   1      45.177  30.204  30.522  1.00  0.00    -0.248 NA
ATOM     62  C   UNL A   1      47.153  30.545  29.410  1.00  0.00     0.031 C 
ATOM     63  C   UNL A   1      42.610  31.213  32.233  1.00  0.00     0.029 A 
ATOM     64  C   UNL A   1      42.955  31.739  31.001  1.00  0.00     0.049 A 
ATOM     65  H   UNL A   1      41.831  31.787  29.227  1.00  0.00     0.167 HD
ATOM     66  C   UNL A   1      45.205  31.531  30.196  1.00  0.00     0.074 A 
ATOM     67  C   UNL A   1      46.485  31.706  29.534  1.00  0.00     0.031 C 
ATOM     68  C   UNL A   1      44.145  32.359  30.434  1.00  0.00     0.034 A 
BRANCH  55  69
ATOM     69  C   UNL A   1      38.219  31.012  30.438  1.00  0.00     0.023 A 
ATOM     70  C   UNL A   1      37.475  31.918  29.654  1.00  0.00     0.031 A 
ATOM     71  C   UNL A   1      37.547  30.514  31.580  1.00  0.00     0.131 A 
ATOM     72  C   UNL A   1      36.129  32.219  29.950  1.00  0.00     0.055 A 
ATOM     73  C   UNL A   1      36.222  30.839  31.894  1.00  0.00     0.041 A 
ATOM     74  F   UNL A   1      38.131  29.659  32.431  1.00  0.00    -0.206 F 
ATOM     75  C   UNL A   1      35.498  31.682  31.069  1.00  0.00     0.022 A 
BRANCH  72  76
ATOM     76  S   UNL A   1      35.126  33.265  28.854  1.00  0.00     0.124 S 
ATOM     77  O   UNL A   1      35.762  34.574  29.013  1.00  0.00    -0.237 OA
ATOM     78  O   UNL A   1      35.316  32.638  27.550  1.00  0.00    -0.237 OA
ATOM     79  O   UNL A   1      33.779  33.168  29.410  1.00  0.00    -0.744 OA
ENDBRANCH  72  76
ENDBRANCH  55  69
BRANCH  56  80
ATOM     80  C   UNL A   1      47.001  27.341  28.852  1.00  0.00     0.023 A 
ATOM     81  C   UNL A   1      46.479  27.501  27.556  1.00  0.00     0.031 A 
ATOM     82  C   UNL A   1      47.747  26.176  29.131  1.00  0.00     0.131 A 
ATOM     83  C   UNL A   1      46.607  26.456  26.626  1.00  0.00     0.055 A 
ATOM     84  C   UNL A   1      47.852  25.134  28.208  1.00  0.00     0.041 A 
ATOM     85  F   UNL A   1      48.269  25.985  30.355  1.00  0.00    -0.206 F 
ATOM     86  C   UNL A   1      47.248  25.257  26.961  1.00  0.00     0.022 A 
BRANCH  83  87
ATOM     87  S   UNL A   1      45.801  26.577  25.002  1.00  0.00     0.124 S 
ATOM     88  O   UNL A   1      44.860  27.668  25.228  1.00  0.00    -0.237 OA
ATOM     89  O   UNL A   1      46.911  26.878  24.105  1.00  0.00    -0.237 OA
ATOM     90  O   UNL A   1      45.215  25.251  24.826  1.00  0.00    -0.744 OA
ENDBRANCH  83  87
ENDBRANCH  56  80
BRANCH  68  91
ATOM     91  C   UNL A   1      44.098  33.828  30.096  1.00  0.00     0.023 A 
ATOM     92  C   UNL A   1      43.604  34.242  28.837  1.00  0.00     0.031 A 
ATOM     93  C   UNL A   1      44.384  34.849  31.012  1.00  0.00     0.131 A 
ATOM     94  C   UNL A   1      43.447  35.592  28.512  1.00  0.00     0.055 A 
ATOM     95  C   UNL A   1      44.267  36.204  30.676  1.00  0.00     0.041 A 
ATOM     96  F   UNL A   1      44.730  34.568  32.279  1.00  0.00    -0.206 F 
ATOM     97  C   UNL A   1      43.798  36.582  29.421  1.00  0.00     0.022 A 
BRANCH  94  98
ATOM     98  S   UNL A   1      42.711  36.084  26.928  1.00  0.00     0.124 S 
ATOM     99  O   UNL A   1      43.204  35.040  26.032  1.00  0.00    -0.237 OA
ATOM    100  O   UNL A   1      41.284  36.024  27.232  1.00  0.00    -0.237 OA
ATOM    101  O   UNL A   1      43.247  37.418  26.692  1.00  0.00    -0.744 OA
ENDBRANCH  94  98
ENDBRANCH  68  91
ENDBRANCH  42  43
ENDBRANCH  34  37
ENDBRANCH  32  33
ENDBRANCH  31  32
ENDBRANCH  30  31
ENDBRANCH  29  30
ENDBRANCH   1  29
TORSDOF 22
ENDMDL
MODEL 2
REMARK VINA RESULT:     -11.7      1.744      2.067
REMARK SMILES Cc1ccc(C(=O)/C(C#N)=C/c2ccccc2OCC(=O)NCCCCCCNC(=O)c2ccc(-c3c4nc(c(-c5cc(S(=O)(=O)[O-])ccc5F)c5ccc([nH]5)c(-c5cc(S(=O)(=O)[O-])ccc5F)c5nc(c(-c6cc(S(=O)(=O)[O-])ccc6F)c6ccc3[nH]6)C=C5)C=C4)cc2)cc1F
REMARK SMILES IDX 24 1 23 2 22 3 20 4 21 5 19 7 18 8 17 9 12 10 13 11 14 12
REMARK SMILES IDX 16 13 15 14 11 15 8 16 6 17 7 18 5 19 1 20 2 21 3 22 96 23
REMARK SMILES IDX 4 24 95 25 97 26 9 27 10 28 25 29 26 30 27 31 28 32 29 33
REMARK SMILES IDX 30 34 31 36 32 37 33 38 94 39 34 40 93 41 35 42 36 43 37 44
REMARK SMILES IDX 87 45 38 46 92 47 86 48 88 49 39 50 91 51 85 52 84 53 40 55
REMARK SMILES IDX 72 56 52 57 71 58 53 59 56 60 70 61 89 62 54 63 55 64 69 66
REMARK SMILES IDX 90 67 57 68 41 69 42 70 50 71 43 72 49 73 51 74 48 75 44 76
REMARK SMILES IDX 45 77 46 78 47 79 73 80 74 81 82 82 75 83 81 84 83 85 80 86
REMARK SMILES IDX 76 87 77 88 78 89 79 90 58 91 59 92 67 93 60 94 66 95 68 96
REMARK SMILES IDX 65 97 61 98 62 99 63 100 64 101
REMARK H PARENT 22 6 29 35 88 54 56 65
REMARK Flexibility Score: inf
ROOT
ATOM      1  C   UNL A   1      35.034  24.033  24.329  1.00  0.00     0.021 C 
ENDROOT
BRANCH   1   2
ATOM      2  C   UNL A   1      34.432  23.377  23.064  1.00  0.00     0.116 C 
BRANCH   2   3
ATOM      3  N   UNL A   1      33.694  24.179  22.110  1.00  0.00    -0.353 N 
ATOM      4  C   UNL A   1      33.424  25.510  22.016  1.00  0.00     0.257 C 
ATOM      5  O   UNL A   1      33.016  25.869  20.899  1.00  0.00    -0.271 OA
ATOM      6  H   UNL A   1      33.305  23.650  21.376  1.00  0.00     0.163 HD
BRANCH   4   7
ATOM      7  C   UNL A   1      33.572  26.628  23.139  1.00  0.00     0.329 C 
BRANCH   7   8
ATOM      8  O   UNL A   1      32.595  27.545  23.571  1.00  0.00    -0.483 OA
BRANCH   8   9
ATOM      9  C   UNL A   1      32.169  27.936  24.820  1.00  0.00     0.127 A 
ATOM     10  C   UNL A   1      31.852  27.279  26.051  1.00  0.00     0.018 A 
ATOM     11  C   UNL A   1      31.694  28.074  27.221  1.00  0.00     0.012 A 
ATOM     12  C   UNL A   1      31.836  29.460  27.205  1.00  0.00     0.001 A 
ATOM     13  C   UNL A   1      32.235  29.347  24.840  1.00  0.00     0.047 A 
ATOM     14  C   UNL A   1      32.089  30.099  26.006  1.00  0.00     0.004 A 
BRANCH  10  15
ATOM     15  C   UNL A   1      31.874  25.832  26.448  1.00  0.00     0.035 C 
ATOM     16  C   UNL A   1      31.117  24.911  25.800  1.00  0.00     0.101 C 
BRANCH  16  17
ATOM     17  C   UNL A   1      31.107  23.546  26.416  1.00  0.00     0.203 C 
ATOM     18  O   UNL A   1      30.346  23.290  27.350  1.00  0.00    -0.288 OA
BRANCH  17  19
ATOM     19  C   UNL A   1      31.972  22.442  25.919  1.00  0.00     0.026 A 
ATOM     20  C   UNL A   1      34.062  18.892  24.652  1.00  0.00     0.047 C 
ATOM     21  C   UNL A   1      33.451  20.221  24.989  1.00  0.00    -0.015 A 
ATOM     22  C   UNL A   1      33.859  20.922  26.126  1.00  0.00     0.007 A 
ATOM     23  C   UNL A   1      32.411  20.761  24.234  1.00  0.00     0.126 A 
ATOM     24  C   UNL A   1      33.135  22.042  26.575  1.00  0.00     0.013 A 
ATOM     25  C   UNL A   1      31.679  21.863  24.683  1.00  0.00     0.051 A 
ATOM     26  F   UNL A   1      32.078  20.202  23.062  1.00  0.00    -0.207 F 
ENDBRANCH  17  19
ENDBRANCH  16  17
BRANCH  16  27
ATOM     27  C   UNL A   1      29.981  25.654  25.116  1.00  0.00     0.103 C 
ATOM     28  N   UNL A   1      29.038  26.270  24.549  1.00  0.00    -0.192 NA
ENDBRANCH  16  27
ENDBRANCH  10  15
ENDBRANCH   8   9
ENDBRANCH   7   8
ENDBRANCH   4   7
ENDBRANCH   2   3
ENDBRANCH   1   2
BRANCH   1  29
ATOM     29  C   UNL A   1      36.309  23.535  25.059  1.00  0.00     0.002 C 
BRANCH  29  30
ATOM     30  C   UNL A   1      37.167  22.426  24.459  1.00  0.00     0.002 C 
BRANCH  30  31
ATOM     31  C   UNL A   1      37.862  21.523  25.465  1.00  0.00     0.021 C 
BRANCH  31  32
ATOM     32  C   UNL A   1      39.057  22.184  26.126  1.00  0.00     0.116 C 
BRANCH  32  33
ATOM     33  N   UNL A   1      40.288  21.466  25.850  1.00  0.00    -0.352 N 
ATOM     34  C   UNL A   1      41.555  22.001  25.935  1.00  0.00     0.251 C 
ATOM     35  H   UNL A   1      40.212  20.522  25.582  1.00  0.00     0.163 HD
ATOM     36  O   UNL A   1      42.513  21.443  25.425  1.00  0.00    -0.269 OA
BRANCH  34  37
ATOM     37  C   UNL A   1      41.701  23.217  26.751  1.00  0.00     0.039 A 
ATOM     38  C   UNL A   1      41.448  23.232  28.125  1.00  0.00     0.014 A 
ATOM     39  C   UNL A   1      42.108  24.365  26.072  1.00  0.00     0.014 A 
ATOM     40  C   UNL A   1      41.587  24.428  28.832  1.00  0.00     0.010 A 
ATOM     41  C   UNL A   1      42.316  25.518  26.778  1.00  0.00     0.010 A 
ATOM     42  C   UNL A   1      41.998  25.567  28.143  1.00  0.00    -0.014 A 
BRANCH  42  43
ATOM     43  C   UNL A   1      42.038  26.913  28.686  1.00  0.00     0.031 A 
ATOM     44  C   UNL A   1      40.904  27.842  28.583  1.00  0.00     0.074 A 
ATOM     45  C   UNL A   1      43.049  27.126  29.559  1.00  0.00     0.049 A 
ATOM     46  N   UNL A   1      40.971  29.069  28.965  1.00  0.00    -0.248 NA
ATOM     47  C   UNL A   1      39.599  27.480  28.043  1.00  0.00     0.031 C 
ATOM     48  C   UNL A   1      43.109  28.055  30.673  1.00  0.00     0.029 A 
ATOM     49  N   UNL A   1      44.322  26.546  29.533  1.00  0.00    -0.354 N 
ATOM     50  C   UNL A   1      39.686  29.561  29.018  1.00  0.00     0.074 A 
ATOM     51  C   UNL A   1      38.885  28.581  28.319  1.00  0.00     0.031 C 
ATOM     52  C   UNL A   1      44.390  28.176  31.059  1.00  0.00     0.029 A 
ATOM     53  C   UNL A   1      45.199  27.510  30.048  1.00  0.00     0.049 A 
ATOM     54  H   UNL A   1      44.555  25.643  29.218  1.00  0.00     0.167 HD
ATOM     55  C   UNL A   1      39.445  30.665  29.783  1.00  0.00     0.034 A 
ATOM     56  C   UNL A   1      46.163  28.106  29.281  1.00  0.00     0.034 A 
ATOM     57  C   UNL A   1      40.690  31.163  30.378  1.00  0.00     0.049 A 
ATOM     58  C   UNL A   1      45.996  29.613  29.177  1.00  0.00     0.074 A 
ATOM     59  C   UNL A   1      41.269  31.053  31.631  1.00  0.00     0.029 A 
ATOM     60  N   UNL A   1      41.680  31.640  29.541  1.00  0.00    -0.354 N 
ATOM     61  N   UNL A   1      45.008  30.279  29.703  1.00  0.00    -0.248 NA
ATOM     62  C   UNL A   1      46.872  30.475  28.384  1.00  0.00     0.031 C 
ATOM     63  C   UNL A   1      42.620  31.496  31.537  1.00  0.00     0.029 A 
ATOM     64  C   UNL A   1      42.852  31.891  30.231  1.00  0.00     0.049 A 
ATOM     65  H   UNL A   1      41.566  31.783  28.573  1.00  0.00     0.167 HD
ATOM     66  C   UNL A   1      45.015  31.567  29.245  1.00  0.00     0.074 A 
ATOM     67  C   UNL A   1      46.227  31.655  28.453  1.00  0.00     0.031 C 
ATOM     68  C   UNL A   1      43.988  32.432  29.497  1.00  0.00     0.034 A 
BRANCH  55  69
ATOM     69  C   UNL A   1      38.079  31.192  30.186  1.00  0.00     0.023 A 
ATOM     70  C   UNL A   1      37.234  31.958  29.355  1.00  0.00     0.031 A 
ATOM     71  C   UNL A   1      37.552  30.893  31.465  1.00  0.00     0.131 A 
ATOM     72  C   UNL A   1      35.927  32.309  29.754  1.00  0.00     0.055 A 
ATOM     73  C   UNL A   1      36.268  31.272  31.875  1.00  0.00     0.041 A 
ATOM     74  F   UNL A   1      38.244  30.189  32.371  1.00  0.00    -0.206 F 
ATOM     75  C   UNL A   1      35.440  31.969  31.013  1.00  0.00     0.022 A 
BRANCH  72  76
ATOM     76  S   UNL A   1      34.788  33.163  28.625  1.00  0.00     0.124 S 
ATOM     77  O   UNL A   1      33.930  32.069  28.170  1.00  0.00    -0.237 OA
ATOM     78  O   UNL A   1      34.141  34.137  29.499  1.00  0.00    -0.237 OA
ATOM     79  O   UNL A   1      35.663  33.722  27.598  1.00  0.00    -0.744 OA
ENDBRANCH  72  76
ENDBRANCH  55  69
BRANCH  56  80
ATOM     80  C   UNL A   1      46.645  27.236  28.166  1.00  0.00     0.023 A 
ATOM     81  C   UNL A   1      47.903  26.613  28.252  1.00  0.00     0.031 A 
ATOM     82  C   UNL A   1      46.072  27.406  26.888  1.00  0.00     0.131 A 
ATOM     83  C   UNL A   1      48.599  26.294  27.074  1.00  0.00     0.055 A 
ATOM     84  C   UNL A   1      46.779  27.106  25.721  1.00  0.00     0.041 A 
ATOM     85  F   UNL A   1      44.869  27.992  26.759  1.00  0.00    -0.206 F 
ATOM     86  C   UNL A   1      48.064  26.581  25.812  1.00  0.00     0.022 A 
BRANCH  83  87
ATOM     87  S   UNL A   1      50.291  25.639  27.162  1.00  0.00     0.124 S 
ATOM     88  O   UNL A   1      50.049  24.280  27.633  1.00  0.00    -0.237 OA
ATOM     89  O   UNL A   1      50.761  25.754  25.786  1.00  0.00    -0.237 OA
ATOM     90  O   UNL A   1      50.944  26.539  28.108  1.00  0.00    -0.744 OA
ENDBRANCH  83  87
ENDBRANCH  56  80
BRANCH  68  91
ATOM     91  C   UNL A   1      43.920  33.861  29.020  1.00  0.00     0.023 A 
ATOM     92  C   UNL A   1      44.157  34.917  29.931  1.00  0.00     0.031 A 
ATOM     93  C   UNL A   1      43.771  34.228  27.675  1.00  0.00     0.131 A 
ATOM     94  C   UNL A   1      44.203  36.251  29.520  1.00  0.00     0.055 A 
ATOM     95  C   UNL A   1      43.775  35.568  27.265  1.00  0.00     0.041 A 
ATOM     96  F   UNL A   1      43.676  33.301  26.709  1.00  0.00    -0.206 F 
ATOM     97  C   UNL A   1      43.991  36.587  28.189  1.00  0.00     0.022 A 
BRANCH  94  98
ATOM     98  S   UNL A   1      44.616  37.569  30.697  1.00  0.00     0.124 S 
ATOM     99  O   UNL A   1      43.795  37.208  31.851  1.00  0.00    -0.237 OA
ATOM    100  O   UNL A   1      46.053  37.377  30.867  1.00  0.00    -0.237 OA
ATOM    101  O   UNL A   1      44.223  38.791  30.006  1.00  0.00    -0.744 OA
ENDBRANCH  94  98
ENDBRANCH  68  91
ENDBRANCH  42  43
ENDBRANCH  34  37
ENDBRANCH  32  33
ENDBRANCH  31  32
ENDBRANCH  30  31
ENDBRANCH  29  30
ENDBRANCH   1  29
TORSDOF 22
ENDMDL
MODEL 3
REMARK VINA RESULT:     -11.4      4.086      9.574
REMARK SMILES Cc1ccc(C(=O)/C(C#N)=C/c2ccccc2OCC(=O)NCCCCCCNC(=O)c2ccc(-c3c4nc(c(-c5cc(S(=O)(=O)[O-])ccc5F)c5ccc([nH]5)c(-c5cc(S(=O)(=O)[O-])ccc5F)c5nc(c(-c6cc(S(=O)(=O)[O-])ccc6F)c6ccc3[nH]6)C=C5)C=C4)cc2)cc1F
REMARK SMILES IDX 24 1 23 2 22 3 20 4 21 5 19 7 18 8 17 9 12 10 13 11 14 12
REMARK SMILES IDX 16 13 15 14 11 15 8 16 6 17 7 18 5 19 1 20 2 21 3 22 96 23
REMARK SMILES IDX 4 24 95 25 97 26 9 27 10 28 25 29 26 30 27 31 28 32 29 33
REMARK SMILES IDX 30 34 31 36 32 37 33 38 94 39 34 40 93 41 35 42 36 43 37 44
REMARK SMILES IDX 87 45 38 46 92 47 86 48 88 49 39 50 91 51 85 52 84 53 40 55
REMARK SMILES IDX 72 56 52 57 71 58 53 59 56 60 70 61 89 62 54 63 55 64 69 66
REMARK SMILES IDX 90 67 57 68 41 69 42 70 50 71 43 72 49 73 51 74 48 75 44 76
REMARK SMILES IDX 45 77 46 78 47 79 73 80 74 81 82 82 75 83 81 84 83 85 80 86
REMARK SMILES IDX 76 87 77 88 78 89 79 90 58 91 59 92 67 93 60 94 66 95 68 96
REMARK SMILES IDX 65 97 61 98 62 99 63 100 64 101
REMARK H PARENT 22 6 29 35 88 54 56 65
REMARK Flexibility Score: inf
ROOT
ATOM      1  C   UNL A   1      33.704  27.360  25.444  1.00  0.00     0.021 C 
ENDROOT
BRANCH   1   2
ATOM      2  C   UNL A   1      34.124  25.874  25.356  1.00  0.00     0.116 C 
BRANCH   2   3
ATOM      3  N   UNL A   1      34.288  25.239  24.065  1.00  0.00    -0.353 N 
ATOM      4  C   UNL A   1      34.678  23.993  23.678  1.00  0.00     0.257 C 
ATOM      5  O   UNL A   1      34.409  23.720  22.496  1.00  0.00    -0.271 OA
ATOM      6  H   UNL A   1      34.075  25.832  23.308  1.00  0.00     0.163 HD
BRANCH   4   7
ATOM      7  C   UNL A   1      35.412  22.876  24.542  1.00  0.00     0.329 C 
BRANCH   7   8
ATOM      8  O   UNL A   1      35.397  21.484  24.335  1.00  0.00    -0.483 OA
BRANCH   8   9
ATOM      9  C   UNL A   1      34.524  20.492  24.723  1.00  0.00     0.127 A 
ATOM     10  C   UNL A   1      33.127  20.412  25.026  1.00  0.00     0.018 A 
ATOM     11  C   UNL A   1      32.533  19.124  25.140  1.00  0.00     0.012 A 
ATOM     12  C   UNL A   1      33.262  17.949  24.968  1.00  0.00     0.001 A 
ATOM     13  C   UNL A   1      35.234  19.275  24.626  1.00  0.00     0.047 A 
ATOM     14  C   UNL A   1      34.620  18.027  24.728  1.00  0.00     0.004 A 
BRANCH  10  15
ATOM     15  C   UNL A   1      32.042  21.449  25.028  1.00  0.00     0.035 C 
ATOM     16  C   UNL A   1      32.083  22.513  25.869  1.00  0.00     0.101 C 
BRANCH  16  17
ATOM     17  C   UNL A   1      30.852  23.365  25.880  1.00  0.00     0.203 C 
ATOM     18  O   UNL A   1      29.902  23.076  26.610  1.00  0.00    -0.288 OA
BRANCH  17  19
ATOM     19  C   UNL A   1      30.727  24.596  25.055  1.00  0.00     0.026 A 
ATOM     20  C   UNL A   1      30.936  28.203  22.704  1.00  0.00     0.047 C 
ATOM     21  C   UNL A   1      30.695  26.926  23.455  1.00  0.00    -0.015 A 
ATOM     22  C   UNL A   1      30.204  26.953  24.762  1.00  0.00     0.007 A 
ATOM     23  C   UNL A   1      31.024  25.684  22.912  1.00  0.00     0.126 A 
ATOM     24  C   UNL A   1      30.199  25.787  25.550  1.00  0.00     0.013 A 
ATOM     25  C   UNL A   1      31.036  24.527  23.694  1.00  0.00     0.051 A 
ATOM     26  F   UNL A   1      31.366  25.591  21.619  1.00  0.00    -0.207 F 
ENDBRANCH  17  19
ENDBRANCH  16  17
BRANCH  16  27
ATOM     27  C   UNL A   1      32.995  22.144  27.027  1.00  0.00     0.103 C 
ATOM     28  N   UNL A   1      33.752  21.839  27.988  1.00  0.00    -0.192 NA
ENDBRANCH  16  27
ENDBRANCH  10  15
ENDBRANCH   8   9
ENDBRANCH   7   8
ENDBRANCH   4   7
ENDBRANCH   2   3
ENDBRANCH   1   2
BRANCH   1  29
ATOM     29  C   UNL A   1      34.018  28.296  26.640  1.00  0.00     0.002 C 
BRANCH  29  30
ATOM     30  C   UNL A   1      32.936  29.196  27.230  1.00  0.00     0.002 C 
BRANCH  30  31
ATOM     31  C   UNL A   1      33.150  30.688  27.029  1.00  0.00     0.021 C 
BRANCH  31  32
ATOM     32  C   UNL A   1      34.382  31.210  27.744  1.00  0.00     0.116 C 
BRANCH  32  33
ATOM     33  N   UNL A   1      34.056  32.294  28.653  1.00  0.00    -0.352 N 
ATOM     34  C   UNL A   1      34.709  32.561  29.836  1.00  0.00     0.251 C 
ATOM     35  H   UNL A   1      33.310  32.886  28.404  1.00  0.00     0.163 HD
ATOM     36  O   UNL A   1      34.217  33.294  30.679  1.00  0.00    -0.269 OA
BRANCH  34  37
ATOM     37  C   UNL A   1      36.060  31.997  29.982  1.00  0.00     0.039 A 
ATOM     38  C   UNL A   1      37.136  32.419  29.196  1.00  0.00     0.014 A 
ATOM     39  C   UNL A   1      36.211  31.010  30.956  1.00  0.00     0.014 A 
ATOM     40  C   UNL A   1      38.387  31.824  29.376  1.00  0.00     0.010 A 
ATOM     41  C   UNL A   1      37.453  30.482  31.182  1.00  0.00     0.010 A 
ATOM     42  C   UNL A   1      38.525  30.842  30.354  1.00  0.00    -0.014 A 
BRANCH  42  43
ATOM     43  C   UNL A   1      39.703  30.018  30.561  1.00  0.00     0.031 A 
ATOM     44  C   UNL A   1      39.900  28.734  29.874  1.00  0.00     0.074 A 
ATOM     45  C   UNL A   1      40.727  30.661  31.166  1.00  0.00     0.049 A 
ATOM     46  N   UNL A   1      40.887  27.949  30.135  1.00  0.00    -0.248 NA
ATOM     47  C   UNL A   1      39.012  28.216  28.840  1.00  0.00     0.031 C 
ATOM     48  C   UNL A   1      42.153  30.414  31.048  1.00  0.00     0.029 A 
ATOM     49  N   UNL A   1      40.638  31.677  32.124  1.00  0.00    -0.354 N 
ATOM     50  C   UNL A   1      40.948  27.009  29.130  1.00  0.00     0.074 A 
ATOM     51  C   UNL A   1      39.694  27.140  28.422  1.00  0.00     0.031 C 
ATOM     52  C   UNL A   1      42.780  31.048  32.053  1.00  0.00     0.029 A 
ATOM     53  C   UNL A   1      41.747  31.515  32.965  1.00  0.00     0.049 A 
ATOM     54  H   UNL A   1      39.939  32.366  32.194  1.00  0.00     0.167 HD
ATOM     55  C   UNL A   1      42.124  26.344  28.935  1.00  0.00     0.034 A 
ATOM     56  C   UNL A   1      41.622  31.153  34.279  1.00  0.00     0.034 A 
ATOM     57  C   UNL A   1      43.118  26.750  29.934  1.00  0.00     0.049 A 
ATOM     58  C   UNL A   1      42.315  29.839  34.604  1.00  0.00     0.074 A 
ATOM     59  C   UNL A   1      44.199  27.616  29.920  1.00  0.00     0.029 A 
ATOM     60  N   UNL A   1      42.877  26.463  31.264  1.00  0.00    -0.354 N 
ATOM     61  N   UNL A   1      42.916  29.090  33.724  1.00  0.00    -0.248 NA
ATOM     62  C   UNL A   1      42.294  29.215  35.927  1.00  0.00     0.031 C 
ATOM     63  C   UNL A   1      44.618  27.826  31.265  1.00  0.00     0.029 A 
ATOM     64  C   UNL A   1      43.803  27.072  32.091  1.00  0.00     0.049 A 
ATOM     65  H   UNL A   1      42.137  25.898  31.583  1.00  0.00     0.167 HD
ATOM     66  C   UNL A   1      43.233  27.881  34.277  1.00  0.00     0.074 A 
ATOM     67  C   UNL A   1      42.861  28.021  35.672  1.00  0.00     0.031 C 
ATOM     68  C   UNL A   1      43.708  26.843  33.527  1.00  0.00     0.034 A 
BRANCH  55  69
ATOM     69  C   UNL A   1      42.476  25.486  27.732  1.00  0.00     0.023 A 
ATOM     70  C   UNL A   1      42.262  24.095  27.645  1.00  0.00     0.031 A 
ATOM     71  C   UNL A   1      43.032  26.081  26.575  1.00  0.00     0.131 A 
ATOM     72  C   UNL A   1      42.503  23.384  26.451  1.00  0.00     0.055 A 
ATOM     73  C   UNL A   1      43.304  25.370  25.400  1.00  0.00     0.041 A 
ATOM     74  F   UNL A   1      43.309  27.391  26.513  1.00  0.00    -0.206 F 
ATOM     75  C   UNL A   1      43.024  24.017  25.325  1.00  0.00     0.022 A 
BRANCH  72  76
ATOM     76  S   UNL A   1      42.082  21.623  26.293  1.00  0.00     0.124 S 
ATOM     77  O   UNL A   1      40.687  21.678  25.857  1.00  0.00    -0.237 OA
ATOM     78  O   UNL A   1      43.029  21.157  25.285  1.00  0.00    -0.237 OA
ATOM     79  O   UNL A   1      42.282  21.092  27.639  1.00  0.00    -0.744 OA
ENDBRANCH  72  76
ENDBRANCH  55  69
BRANCH  56  80
ATOM     80  C   UNL A   1      40.330  31.594  34.888  1.00  0.00     0.023 A 
ATOM     81  C   UNL A   1      40.321  32.612  35.858  1.00  0.00     0.031 A 
ATOM     82  C   UNL A   1      39.230  30.712  34.838  1.00  0.00     0.131 A 
ATOM     83  C   UNL A   1      39.291  32.648  36.813  1.00  0.00     0.055 A 
ATOM     84  C   UNL A   1      38.223  30.740  35.804  1.00  0.00     0.041 A 
ATOM     85  F   UNL A   1      39.195  29.726  33.924  1.00  0.00    -0.206 F 
ATOM     86  C   UNL A   1      38.271  31.690  36.820  1.00  0.00     0.022 A 
BRANCH  83  87
ATOM     87  S   UNL A   1      39.347  33.856  38.169  1.00  0.00     0.124 S 
ATOM     88  O   UNL A   1      40.777  34.129  38.253  1.00  0.00    -0.237 OA
ATOM     89  O   UNL A   1      38.525  34.952  37.667  1.00  0.00    -0.237 OA
ATOM     90  O   UNL A   1      38.767  33.121  39.289  1.00  0.00    -0.744 OA
ENDBRANCH  83  87
ENDBRANCH  56  80
BRANCH  68  91
ATOM     91  C   UNL A   1      44.071  25.481  34.061  1.00  0.00     0.023 A 
ATOM     92  C   UNL A   1      45.430  25.093  34.129  1.00  0.00     0.031 A 
ATOM     93  C   UNL A   1      43.149  24.599  34.641  1.00  0.00     0.131 A 
ATOM     94  C   UNL A   1      45.825  23.883  34.706  1.00  0.00     0.055 A 
ATOM     95  C   UNL A   1      43.537  23.366  35.183  1.00  0.00     0.041 A 
ATOM     96  F   UNL A   1      41.851  24.926  34.753  1.00  0.00    -0.206 F 
ATOM     97  C   UNL A   1      44.880  23.003  35.217  1.00  0.00     0.022 A 
BRANCH  94  98
ATOM     98  S   UNL A   1      47.584  23.468  34.872  1.00  0.00     0.124 S 
ATOM     99  O   UNL A   1      47.885  23.969  36.211  1.00  0.00    -0.237 OA
ATOM    100  O   UNL A   1      47.560  22.014  34.739  1.00  0.00    -0.237 OA
ATOM    101  O   UNL A   1      48.219  24.189  33.775  1.00  0.00    -0.744 OA
ENDBRANCH  94  98
ENDBRANCH  68  91
ENDBRANCH  42  43
ENDBRANCH  34  37
ENDBRANCH  32  33
ENDBRANCH  31  32
ENDBRANCH  30  31
ENDBRANCH  29  30
ENDBRANCH   1  29
TORSDOF 22
ENDMDL
