MODEL 1
REMARK VINA RESULT:     -11.8      0.000      0.000
REMARK SMILES O=C(NCCCCCCNC(=O)c1cccc2nc(Cl)c(Cl)nc12)c1ccc(-c2c3nc(c(-c4cc(S(=O)(=O)[O-])ccc4F)c4ccc([nH]4)c(-c4cc(S(=O)(=O)[O-])ccc4F)c4nc(c(-c5cc(S(=O)(=O)[O-])ccc5F)c5ccc2[nH]5)C=C4)C=C3)cc1
REMARK SMILES IDX 5 1 4 2 3 3 1 4 2 5 25 7 26 8 87 9 27 10 86 11 28 12 29 13
REMARK SMILES IDX 30 14 80 15 31 16 85 17 79 18 81 19 32 20 84 21 78 22 77 23
REMARK SMILES IDX 33 25 65 26 45 27 64 28 46 29 49 30 63 31 82 32 47 33 48 34
REMARK SMILES IDX 62 36 83 37 50 38 34 39 35 40 43 41 36 42 42 43 44 44 41 45
REMARK SMILES IDX 37 46 38 47 39 48 40 49 66 50 67 51 75 52 68 53 74 54 76 55
REMARK SMILES IDX 73 56 69 57 70 58 71 59 72 60 51 61 52 62 60 63 53 64 59 65
REMARK SMILES IDX 61 66 58 67 54 68 55 69 56 70 57 71 6 72 7 73 8 74 9 75
REMARK SMILES IDX 10 76 11 77 12 79 13 80 14 81 24 82 15 83 17 84 23 85 16 86
REMARK SMILES IDX 18 87 21 88 19 89 22 90 20 91
REMARK H PARENT 3 6 81 24 49 35 10 78
REMARK Flexibility Score: inf
ROOT
ATOM      1  C   UNL A   1      32.132  28.600  26.573  1.00  0.00     0.021 C 
ENDROOT
BRANCH   1   2
ATOM      2  C   UNL A   1      33.299  29.537  26.286  1.00  0.00     0.116 C 
BRANCH   2   3
ATOM      3  N   UNL A   1      33.021  30.916  26.649  1.00  0.00    -0.352 N 
ATOM      4  O   UNL A   1      33.239  32.847  27.784  1.00  0.00    -0.269 OA
ATOM      5  C   UNL A   1      33.709  31.743  27.501  1.00  0.00     0.251 C 
ATOM      6  H   UNL A   1      32.227  31.313  26.225  1.00  0.00     0.163 HD
BRANCH   5   7
ATOM      7  C   UNL A   1      34.996  31.314  28.098  1.00  0.00     0.039 A 
ATOM      8  C   UNL A   1      35.056  30.077  28.745  1.00  0.00     0.014 A 
ATOM      9  C   UNL A   1      36.131  32.130  28.051  1.00  0.00     0.014 A 
ATOM     10  C   UNL A   1      36.259  29.647  29.311  1.00  0.00     0.010 A 
ATOM     11  C   UNL A   1      37.349  31.661  28.540  1.00  0.00     0.010 A 
ATOM     12  C   UNL A   1      37.421  30.427  29.200  1.00  0.00    -0.014 A 
BRANCH  12  13
ATOM     13  C   UNL A   1      38.704  29.978  29.803  1.00  0.00     0.031 A 
ATOM     14  C   UNL A   1      39.138  30.498  31.148  1.00  0.00     0.074 A 
ATOM     15  C   UNL A   1      39.495  29.118  29.132  1.00  0.00     0.049 A 
ATOM     16  N   UNL A   1      40.213  30.214  31.835  1.00  0.00    -0.248 NA
ATOM     17  C   UNL A   1      38.262  31.492  31.791  1.00  0.00     0.031 C 
ATOM     18  C   UNL A   1      39.216  28.596  27.794  1.00  0.00     0.029 A 
ATOM     19  N   UNL A   1      40.688  28.531  29.479  1.00  0.00    -0.354 N 
ATOM     20  C   UNL A   1      40.140  30.986  32.989  1.00  0.00     0.074 A 
ATOM     21  C   UNL A   1      38.964  31.816  32.865  1.00  0.00     0.031 C 
ATOM     22  C   UNL A   1      40.190  27.740  27.448  1.00  0.00     0.029 A 
ATOM     23  C   UNL A   1      41.180  27.674  28.523  1.00  0.00     0.049 A 
ATOM     24  H   UNL A   1      41.146  28.709  30.331  1.00  0.00     0.167 HD
ATOM     25  C   UNL A   1      40.951  30.972  34.075  1.00  0.00     0.034 A 
ATOM     26  C   UNL A   1      42.293  26.912  28.513  1.00  0.00     0.034 A 
ATOM     27  C   UNL A   1      42.114  30.131  34.193  1.00  0.00     0.049 A 
ATOM     28  C   UNL A   1      43.178  26.896  29.734  1.00  0.00     0.074 A 
ATOM     29  C   UNL A   1      42.984  30.019  35.262  1.00  0.00     0.029 A 
ATOM     30  N   UNL A   1      42.568  29.255  33.217  1.00  0.00    -0.354 N 
ATOM     31  N   UNL A   1      43.047  27.569  30.854  1.00  0.00    -0.248 NA
ATOM     32  C   UNL A   1      44.345  26.006  29.705  1.00  0.00     0.031 C 
ATOM     33  C   UNL A   1      43.990  29.114  34.914  1.00  0.00     0.029 A 
ATOM     34  C   UNL A   1      43.714  28.609  33.653  1.00  0.00     0.049 A 
ATOM     35  H   UNL A   1      42.138  29.112  32.342  1.00  0.00     0.167 HD
ATOM     36  C   UNL A   1      44.111  27.178  31.664  1.00  0.00     0.074 A 
ATOM     37  C   UNL A   1      44.847  26.176  30.921  1.00  0.00     0.031 C 
ATOM     38  C   UNL A   1      44.450  27.616  32.904  1.00  0.00     0.034 A 
BRANCH  25  39
ATOM     39  C   UNL A   1      40.589  31.860  35.242  1.00  0.00     0.023 A 
ATOM     40  C   UNL A   1      39.532  31.514  36.104  1.00  0.00     0.031 A 
ATOM     41  C   UNL A   1      41.234  33.095  35.446  1.00  0.00     0.131 A 
ATOM     42  C   UNL A   1      39.143  32.400  37.117  1.00  0.00     0.055 A 
ATOM     43  C   UNL A   1      40.874  33.952  36.486  1.00  0.00     0.041 A 
ATOM     44  F   UNL A   1      42.247  33.475  34.650  1.00  0.00    -0.206 F 
ATOM     45  C   UNL A   1      39.816  33.611  37.320  1.00  0.00     0.022 A 
BRANCH  42  46
ATOM     46  S   UNL A   1      37.715  32.048  38.178  1.00  0.00     0.124 S 
ATOM     47  O   UNL A   1      36.739  33.026  37.700  1.00  0.00    -0.237 OA
ATOM     48  O   UNL A   1      37.421  30.657  37.840  1.00  0.00    -0.237 OA
ATOM     49  O   UNL A   1      38.214  32.277  39.528  1.00  0.00    -0.744 OA
ENDBRANCH  42  46
ENDBRANCH  25  39
BRANCH  26  50
ATOM     50  C   UNL A   1      42.562  26.048  27.325  1.00  0.00     0.023 A 
ATOM     51  C   UNL A   1      42.075  24.729  27.267  1.00  0.00     0.031 A 
ATOM     52  C   UNL A   1      43.419  26.480  26.300  1.00  0.00     0.131 A 
ATOM     53  C   UNL A   1      42.510  23.869  26.251  1.00  0.00     0.055 A 
ATOM     54  C   UNL A   1      43.790  25.643  25.246  1.00  0.00     0.041 A 
ATOM     55  F   UNL A   1      43.922  27.725  26.319  1.00  0.00    -0.206 F 
ATOM     56  C   UNL A   1      43.351  24.322  25.230  1.00  0.00     0.022 A 
BRANCH  53  57
ATOM     57  S   UNL A   1      42.120  22.097  26.304  1.00  0.00     0.124 S 
ATOM     58  O   UNL A   1      42.794  21.599  25.109  1.00  0.00    -0.237 OA
ATOM     59  O   UNL A   1      42.717  21.699  27.577  1.00  0.00    -0.237 OA
ATOM     60  O   UNL A   1      40.662  22.063  26.266  1.00  0.00    -0.744 OA
ENDBRANCH  53  57
ENDBRANCH  26  50
BRANCH  38  61
ATOM     61  C   UNL A   1      45.693  27.047  33.551  1.00  0.00     0.023 A 
ATOM     62  C   UNL A   1      45.594  25.981  34.465  1.00  0.00     0.031 A 
ATOM     63  C   UNL A   1      46.951  27.649  33.366  1.00  0.00     0.131 A 
ATOM     64  C   UNL A   1      46.726  25.569  35.182  1.00  0.00     0.055 A 
ATOM     65  C   UNL A   1      48.085  27.202  34.047  1.00  0.00     0.041 A 
ATOM     66  F   UNL A   1      47.096  28.680  32.519  1.00  0.00    -0.206 F 
ATOM     67  C   UNL A   1      47.972  26.167  34.970  1.00  0.00     0.022 A 
BRANCH  64  68
ATOM     68  S   UNL A   1      46.606  24.308  36.482  1.00  0.00     0.124 S 
ATOM     69  O   UNL A   1      46.871  25.093  37.685  1.00  0.00    -0.237 OA
ATOM     70  O   UNL A   1      45.230  23.841  36.332  1.00  0.00    -0.237 OA
ATOM     71  O   UNL A   1      47.639  23.339  36.129  1.00  0.00    -0.744 OA
ENDBRANCH  64  68
ENDBRANCH  38  61
ENDBRANCH  12  13
ENDBRANCH   5   7
ENDBRANCH   2   3
ENDBRANCH   1   2
BRANCH   1  72
ATOM     72  C   UNL A   1      31.497  27.943  25.347  1.00  0.00     0.002 C 
BRANCH  72  73
ATOM     73  C   UNL A   1      31.034  28.896  24.242  1.00  0.00     0.002 C 
BRANCH  73  74
ATOM     74  C   UNL A   1      31.866  28.888  22.953  1.00  0.00     0.021 C 
BRANCH  74  75
ATOM     75  C   UNL A   1      33.054  27.929  22.939  1.00  0.00     0.116 C 
BRANCH  75  76
ATOM     76  N   UNL A   1      33.161  27.195  21.689  1.00  0.00    -0.352 N 
ATOM     77  C   UNL A   1      32.894  25.878  21.430  1.00  0.00     0.253 C 
ATOM     78  H   UNL A   1      33.470  27.722  20.917  1.00  0.00     0.163 HD
ATOM     79  O   UNL A   1      33.035  25.427  20.290  1.00  0.00    -0.269 OA
BRANCH  77  80
ATOM     80  C   UNL A   1      32.358  25.013  22.493  1.00  0.00     0.067 A 
ATOM     81  C   UNL A   1      30.994  25.123  22.806  1.00  0.00     0.016 A 
ATOM     82  C   UNL A   1      33.192  24.063  23.101  1.00  0.00     0.103 A 
ATOM     83  C   UNL A   1      30.447  24.293  23.771  1.00  0.00     0.003 A 
ATOM     84  C   UNL A   1      32.602  23.204  24.065  1.00  0.00     0.091 A 
ATOM     85  N   UNL A   1      34.515  23.948  22.810  1.00  0.00    -0.230 NA
ATOM     86  C   UNL A   1      31.256  23.342  24.388  1.00  0.00     0.031 A 
ATOM     87  N   UNL A   1      33.303  22.242  24.693  1.00  0.00    -0.231 NA
ATOM     88  C   UNL A   1      35.206  22.973  23.441  1.00  0.00     0.167 A 
ATOM     89  C   UNL A   1      34.609  22.132  24.361  1.00  0.00     0.167 A 
ATOM     90  Cl  UNL A   1      36.858  22.884  22.985  1.00  0.00    -0.059 Cl
ATOM     91  Cl  UNL A   1      35.424  20.862  25.180  1.00  0.00    -0.059 Cl
ENDBRANCH  77  80
ENDBRANCH  75  76
ENDBRANCH  74  75
ENDBRANCH  73  74
ENDBRANCH  72  73
ENDBRANCH   1  72
TORSDOF 16
ENDMDL
MODEL 2
REMARK VINA RESULT:     -11.6      1.415      1.948
REMARK SMILES O=C(NCCCCCCNC(=O)c1cccc2nc(Cl)c(Cl)nc12)c1ccc(-c2c3nc(c(-c4cc(S(=O)(=O)[O-])ccc4F)c4ccc([nH]4)c(-c4cc(S(=O)(=O)[O-])ccc4F)c4nc(c(-c5cc(S(=O)(=O)[O-])ccc5F)c5ccc2[nH]5)C=C4)C=C3)cc1
REMARK SMILES IDX 5 1 4 2 3 3 1 4 2 5 25 7 26 8 87 9 27 10 86 11 28 12 29 13
REMARK SMILES IDX 30 14 80 15 31 16 85 17 79 18 81 19 32 20 84 21 78 22 77 23
REMARK SMILES IDX 33 25 65 26 45 27 64 28 46 29 49 30 63 31 82 32 47 33 48 34
REMARK SMILES IDX 62 36 83 37 50 38 34 39 35 40 43 41 36 42 42 43 44 44 41 45
REMARK SMILES IDX 37 46 38 47 39 48 40 49 66 50 67 51 75 52 68 53 74 54 76 55
REMARK SMILES IDX 73 56 69 57 70 58 71 59 72 60 51 61 52 62 60 63 53 64 59 65
REMARK SMILES IDX 61 66 58 67 54 68 55 69 56 70 57 71 6 72 7 73 8 74 9 75
REMARK SMILES IDX 10 76 11 77 12 79 13 80 14 81 24 82 15 83 17 84 23 85 16 86
REMARK SMILES IDX 18 87 21 88 19 89 22 90 20 91
REMARK H PARENT 3 6 81 24 49 35 10 78
REMARK Flexibility Score: inf
ROOT
ATOM      1  C   UNL A   1      31.424  31.460  26.520  1.00  0.00     0.021 C 
ENDROOT
BRANCH   1   2
ATOM      2  C   UNL A   1      32.739  32.192  26.760  1.00  0.00     0.116 C 
BRANCH   2   3
ATOM      3  N   UNL A   1      32.557  33.507  27.351  1.00  0.00    -0.352 N 
ATOM      4  O   UNL A   1      32.855  35.176  28.830  1.00  0.00    -0.269 OA
ATOM      5  C   UNL A   1      33.246  34.097  28.380  1.00  0.00     0.251 C 
ATOM      6  H   UNL A   1      31.837  34.050  26.958  1.00  0.00     0.163 HD
BRANCH   5   7
ATOM      7  C   UNL A   1      34.439  33.442  28.967  1.00  0.00     0.039 A 
ATOM      8  C   UNL A   1      35.703  33.961  28.675  1.00  0.00     0.014 A 
ATOM      9  C   UNL A   1      34.324  32.306  29.776  1.00  0.00     0.014 A 
ATOM     10  C   UNL A   1      36.842  33.364  29.219  1.00  0.00     0.010 A 
ATOM     11  C   UNL A   1      35.454  31.766  30.387  1.00  0.00     0.010 A 
ATOM     12  C   UNL A   1      36.729  32.271  30.094  1.00  0.00    -0.014 A 
BRANCH  12  13
ATOM     13  C   UNL A   1      37.937  31.628  30.676  1.00  0.00     0.031 A 
ATOM     14  C   UNL A   1      38.399  31.989  32.062  1.00  0.00     0.074 A 
ATOM     15  C   UNL A   1      38.636  30.735  29.949  1.00  0.00     0.049 A 
ATOM     16  N   UNL A   1      39.419  31.528  32.739  1.00  0.00    -0.248 NA
ATOM     17  C   UNL A   1      37.632  33.028  32.771  1.00  0.00     0.031 C 
ATOM     18  C   UNL A   1      38.327  30.353  28.571  1.00  0.00     0.029 A 
ATOM     19  N   UNL A   1      39.744  29.986  30.263  1.00  0.00    -0.354 N 
ATOM     20  C   UNL A   1      39.412  32.212  33.949  1.00  0.00     0.074 A 
ATOM     21  C   UNL A   1      38.344  33.183  33.876  1.00  0.00     0.031 C 
ATOM     22  C   UNL A   1      39.201  29.417  28.171  1.00  0.00     0.029 A 
ATOM     23  C   UNL A   1      40.153  29.153  29.249  1.00  0.00     0.049 A 
ATOM     24  H   UNL A   1      40.202  30.042  31.133  1.00  0.00     0.167 HD
ATOM     25  C   UNL A   1      40.193  32.020  35.040  1.00  0.00     0.034 A 
ATOM     26  C   UNL A   1      41.170  28.267  29.193  1.00  0.00     0.034 A 
ATOM     27  C   UNL A   1      41.246  31.041  35.105  1.00  0.00     0.049 A 
ATOM     28  C   UNL A   1      42.020  28.053  30.420  1.00  0.00     0.074 A 
ATOM     29  C   UNL A   1      42.074  30.744  36.173  1.00  0.00     0.029 A 
ATOM     30  N   UNL A   1      41.615  30.194  34.070  1.00  0.00    -0.354 N 
ATOM     31  N   UNL A   1      41.945  28.649  31.588  1.00  0.00    -0.248 NA
ATOM     32  C   UNL A   1      43.075  27.036  30.335  1.00  0.00     0.031 C 
ATOM     33  C   UNL A   1      42.974  29.756  35.768  1.00  0.00     0.029 A 
ATOM     34  C   UNL A   1      42.668  29.385  34.467  1.00  0.00     0.049 A 
ATOM     35  H   UNL A   1      41.190  30.171  33.181  1.00  0.00     0.167 HD
ATOM     36  C   UNL A   1      42.937  28.074  32.378  1.00  0.00     0.074 A 
ATOM     37  C   UNL A   1      43.567  27.052  31.567  1.00  0.00     0.031 C 
ATOM     38  C   UNL A   1      43.298  28.373  33.652  1.00  0.00     0.034 A 
BRANCH  25  39
ATOM     39  C   UNL A   1      39.912  32.853  36.268  1.00  0.00     0.023 A 
ATOM     40  C   UNL A   1      39.007  32.402  37.247  1.00  0.00     0.031 A 
ATOM     41  C   UNL A   1      40.474  34.134  36.424  1.00  0.00     0.131 A 
ATOM     42  C   UNL A   1      38.680  33.233  38.327  1.00  0.00     0.055 A 
ATOM     43  C   UNL A   1      40.180  34.939  37.525  1.00  0.00     0.041 A 
ATOM     44  F   UNL A   1      41.340  34.613  35.518  1.00  0.00    -0.206 F 
ATOM     45  C   UNL A   1      39.271  34.493  38.477  1.00  0.00     0.022 A 
BRANCH  42  46
ATOM     46  S   UNL A   1      37.434  32.741  39.550  1.00  0.00     0.124 S 
ATOM     47  O   UNL A   1      37.934  31.435  39.976  1.00  0.00    -0.237 OA
ATOM     48  O   UNL A   1      37.545  33.807  40.543  1.00  0.00    -0.237 OA
ATOM     49  O   UNL A   1      36.190  32.712  38.792  1.00  0.00    -0.744 OA
ENDBRANCH  42  46
ENDBRANCH  25  39
BRANCH  26  50
ATOM     50  C   UNL A   1      41.361  27.471  27.944  1.00  0.00     0.023 A 
ATOM     51  C   UNL A   1      40.978  26.118  27.886  1.00  0.00     0.031 A 
ATOM     52  C   UNL A   1      42.050  28.010  26.846  1.00  0.00     0.131 A 
ATOM     53  C   UNL A   1      41.355  25.333  26.788  1.00  0.00     0.055 A 
ATOM     54  C   UNL A   1      42.356  27.244  25.719  1.00  0.00     0.041 A 
ATOM     55  F   UNL A   1      42.450  29.291  26.860  1.00  0.00    -0.206 F 
ATOM     56  C   UNL A   1      42.027  25.892  25.696  1.00  0.00     0.022 A 
BRANCH  53  57
ATOM     57  S   UNL A   1      41.117  23.534  26.807  1.00  0.00     0.124 S 
ATOM     58  O   UNL A   1      39.700  23.409  26.483  1.00  0.00    -0.237 OA
ATOM     59  O   UNL A   1      42.044  23.101  25.763  1.00  0.00    -0.237 OA
ATOM     60  O   UNL A   1      41.491  23.150  28.164  1.00  0.00    -0.744 OA
ENDBRANCH  53  57
ENDBRANCH  26  50
BRANCH  38  61
ATOM     61  C   UNL A   1      44.452  27.613  34.268  1.00  0.00     0.023 A 
ATOM     62  C   UNL A   1      44.224  26.398  34.943  1.00  0.00     0.031 A 
ATOM     63  C   UNL A   1      45.748  28.159  34.303  1.00  0.00     0.131 A 
ATOM     64  C   UNL A   1      45.269  25.786  35.649  1.00  0.00     0.055 A 
ATOM     65  C   UNL A   1      46.796  27.519  34.968  1.00  0.00     0.041 A 
ATOM     66  F   UNL A   1      46.015  29.323  33.690  1.00  0.00    -0.206 F 
ATOM     67  C   UNL A   1      46.555  26.335  35.656  1.00  0.00     0.022 A 
BRANCH  64  68
ATOM     68  S   UNL A   1      44.977  24.308  36.660  1.00  0.00     0.124 S 
ATOM     69  O   UNL A   1      46.337  23.823  36.881  1.00  0.00    -0.237 OA
ATOM     70  O   UNL A   1      44.315  24.865  37.837  1.00  0.00    -0.237 OA
ATOM     71  O   UNL A   1      44.143  23.461  35.815  1.00  0.00    -0.744 OA
ENDBRANCH  64  68
ENDBRANCH  38  61
ENDBRANCH  12  13
ENDBRANCH   5   7
ENDBRANCH   2   3
ENDBRANCH   1   2
BRANCH   1  72
ATOM     72  C   UNL A   1      31.553  30.013  26.041  1.00  0.00     0.002 C 
BRANCH  72  73
ATOM     73  C   UNL A   1      32.840  29.670  25.286  1.00  0.00     0.002 C 
BRANCH  73  74
ATOM     74  C   UNL A   1      32.663  28.936  23.951  1.00  0.00     0.021 C 
BRANCH  74  75
ATOM     75  C   UNL A   1      33.668  27.821  23.672  1.00  0.00     0.116 C 
BRANCH  75  76
ATOM     76  N   UNL A   1      33.643  27.385  22.285  1.00  0.00    -0.352 N 
ATOM     77  C   UNL A   1      33.156  26.222  21.750  1.00  0.00     0.253 C 
ATOM     78  H   UNL A   1      34.031  28.016  21.638  1.00  0.00     0.163 HD
ATOM     79  O   UNL A   1      33.212  26.027  20.533  1.00  0.00    -0.269 OA
BRANCH  77  80
ATOM     80  C   UNL A   1      32.489  25.236  22.615  1.00  0.00     0.067 A 
ATOM     81  C   UNL A   1      31.103  25.357  22.804  1.00  0.00     0.016 A 
ATOM     82  C   UNL A   1      33.228  24.175  23.156  1.00  0.00     0.103 A 
ATOM     83  C   UNL A   1      30.436  24.422  23.576  1.00  0.00     0.003 A 
ATOM     84  C   UNL A   1      32.517  23.211  23.919  1.00  0.00     0.091 A 
ATOM     85  N   UNL A   1      34.571  24.047  22.984  1.00  0.00    -0.230 NA
ATOM     86  C   UNL A   1      31.150  23.358  24.124  1.00  0.00     0.031 A 
ATOM     87  N   UNL A   1      33.123  22.140  24.465  1.00  0.00    -0.231 NA
ATOM     88  C   UNL A   1      35.165  22.963  23.529  1.00  0.00     0.167 A 
ATOM     89  C   UNL A   1      34.453  22.024  24.252  1.00  0.00     0.167 A 
ATOM     90  Cl  UNL A   1      36.853  22.871  23.233  1.00  0.00    -0.059 Cl
ATOM     91  Cl  UNL A   1      35.143  20.616  24.951  1.00  0.00    -0.059 Cl
ENDBRANCH  77  80
ENDBRANCH  75  76
ENDBRANCH  74  75
ENDBRANCH  73  74
ENDBRANCH  72  73
ENDBRANCH   1  72
TORSDOF 16
ENDMDL
MODEL 3
REMARK VINA RESULT:     -11.6      2.459      2.831
REMARK SMILES O=C(NCCCCCCNC(=O)c1cccc2nc(Cl)c(Cl)nc12)c1ccc(-c2c3nc(c(-c4cc(S(=O)(=O)[O-])ccc4F)c4ccc([nH]4)c(-c4cc(S(=O)(=O)[O-])ccc4F)c4nc(c(-c5cc(S(=O)(=O)[O-])ccc5F)c5ccc2[nH]5)C=C4)C=C3)cc1
REMARK SMILES IDX 5 1 4 2 3 3 1 4 2 5 25 7 26 8 87 9 27 10 86 11 28 12 29 13
REMARK SMILES IDX 30 14 80 15 31 16 85 17 79 18 81 19 32 20 84 21 78 22 77 23
REMARK SMILES IDX 33 25 65 26 45 27 64 28 46 29 49 30 63 31 82 32 47 33 48 34
REMARK SMILES IDX 62 36 83 37 50 38 34 39 35 40 43 41 36 42 42 43 44 44 41 45
REMARK SMILES IDX 37 46 38 47 39 48 40 49 66 50 67 51 75 52 68 53 74 54 76 55
REMARK SMILES IDX 73 56 69 57 70 58 71 59 72 60 51 61 52 62 60 63 53 64 59 65
REMARK SMILES IDX 61 66 58 67 54 68 55 69 56 70 57 71 6 72 7 73 8 74 9 75
REMARK SMILES IDX 10 76 11 77 12 79 13 80 14 81 24 82 15 83 17 84 23 85 16 86
REMARK SMILES IDX 18 87 21 88 19 89 22 90 20 91
REMARK H PARENT 3 6 81 24 49 35 10 78
REMARK Flexibility Score: inf
ROOT
ATOM      1  C   UNL A   1      32.688  28.688  27.094  1.00  0.00     0.021 C 
ENDROOT
BRANCH   1   2
ATOM      2  C   UNL A   1      33.793  29.650  26.674  1.00  0.00     0.116 C 
BRANCH   2   3
ATOM      3  N   UNL A   1      33.633  30.978  27.240  1.00  0.00    -0.352 N 
ATOM      4  O   UNL A   1      34.044  32.709  28.620  1.00  0.00    -0.269 OA
ATOM      5  C   UNL A   1      34.419  31.628  28.160  1.00  0.00     0.251 C 
ATOM      6  H   UNL A   1      32.852  31.483  26.921  1.00  0.00     0.163 HD
BRANCH   5   7
ATOM      7  C   UNL A   1      35.696  31.034  28.619  1.00  0.00     0.039 A 
ATOM      8  C   UNL A   1      36.886  31.720  28.364  1.00  0.00     0.014 A 
ATOM      9  C   UNL A   1      35.734  29.797  29.271  1.00  0.00     0.014 A 
ATOM     10  C   UNL A   1      38.103  31.184  28.791  1.00  0.00     0.010 A 
ATOM     11  C   UNL A   1      36.939  29.307  29.771  1.00  0.00     0.010 A 
ATOM     12  C   UNL A   1      38.140  29.980  29.513  1.00  0.00    -0.014 A 
BRANCH  12  13
ATOM     13  C   UNL A   1      39.433  29.401  29.968  1.00  0.00     0.031 A 
ATOM     14  C   UNL A   1      40.125  29.949  31.187  1.00  0.00     0.074 A 
ATOM     15  C   UNL A   1      39.998  28.396  29.272  1.00  0.00     0.049 A 
ATOM     16  N   UNL A   1      41.247  29.568  31.740  1.00  0.00    -0.248 NA
ATOM     17  C   UNL A   1      39.489  31.097  31.855  1.00  0.00     0.031 C 
ATOM     18  C   UNL A   1      39.457  27.825  28.039  1.00  0.00     0.029 A 
ATOM     19  N   UNL A   1      41.145  27.676  29.500  1.00  0.00    -0.354 N 
ATOM     20  C   UNL A   1      41.447  30.421  32.819  1.00  0.00     0.074 A 
ATOM     21  C   UNL A   1      40.381  31.396  32.788  1.00  0.00     0.031 C 
ATOM     22  C   UNL A   1      40.251  26.820  27.638  1.00  0.00     0.029 A 
ATOM     23  C   UNL A   1      41.376  26.694  28.565  1.00  0.00     0.049 A 
ATOM     24  H   UNL A   1      41.746  27.847  30.261  1.00  0.00     0.167 HD
ATOM     25  C   UNL A   1      42.404  30.372  33.778  1.00  0.00     0.034 A 
ATOM     26  C   UNL A   1      42.369  25.787  28.467  1.00  0.00     0.034 A 
ATOM     27  C   UNL A   1      43.456  29.388  33.806  1.00  0.00     0.049 A 
ATOM     28  C   UNL A   1      43.418  25.734  29.549  1.00  0.00     0.074 A 
ATOM     29  C   UNL A   1      44.456  29.232  34.749  1.00  0.00     0.029 A 
ATOM     30  N   UNL A   1      43.643  28.392  32.859  1.00  0.00    -0.354 N 
ATOM     31  N   UNL A   1      43.544  26.495  30.612  1.00  0.00    -0.248 NA
ATOM     32  C   UNL A   1      44.446  24.691  29.437  1.00  0.00     0.031 C 
ATOM     33  C   UNL A   1      45.275  28.175  34.346  1.00  0.00     0.029 A 
ATOM     34  C   UNL A   1      44.751  27.626  33.186  1.00  0.00     0.049 A 
ATOM     35  H   UNL A   1      43.072  28.249  32.069  1.00  0.00     0.167 HD
ATOM     36  C   UNL A   1      44.659  26.018  31.297  1.00  0.00     0.074 A 
ATOM     37  C   UNL A   1      45.143  24.875  30.551  1.00  0.00     0.031 C 
ATOM     38  C   UNL A   1      45.234  26.491  32.433  1.00  0.00     0.034 A 
BRANCH  25  39
ATOM     39  C   UNL A   1      42.337  31.381  34.900  1.00  0.00     0.023 A 
ATOM     40  C   UNL A   1      43.031  32.601  34.808  1.00  0.00     0.031 A 
ATOM     41  C   UNL A   1      41.657  31.093  36.098  1.00  0.00     0.131 A 
ATOM     42  C   UNL A   1      43.041  33.479  35.900  1.00  0.00     0.055 A 
ATOM     43  C   UNL A   1      41.632  31.991  37.166  1.00  0.00     0.041 A 
ATOM     44  F   UNL A   1      40.982  29.941  36.240  1.00  0.00    -0.206 F 
ATOM     45  C   UNL A   1      42.336  33.186  37.073  1.00  0.00     0.022 A 
BRANCH  42  46
ATOM     46  S   UNL A   1      44.014  35.009  35.868  1.00  0.00     0.124 S 
ATOM     47  O   UNL A   1      45.270  34.577  36.479  1.00  0.00    -0.237 OA
ATOM     48  O   UNL A   1      44.083  35.296  34.437  1.00  0.00    -0.237 OA
ATOM     49  O   UNL A   1      43.226  35.943  36.662  1.00  0.00    -0.744 OA
ENDBRANCH  42  46
ENDBRANCH  25  39
BRANCH  26  50
ATOM     50  C   UNL A   1      42.345  24.813  27.336  1.00  0.00     0.023 A 
ATOM     51  C   UNL A   1      41.520  23.673  27.383  1.00  0.00     0.031 A 
ATOM     52  C   UNL A   1      43.240  24.936  26.261  1.00  0.00     0.131 A 
ATOM     53  C   UNL A   1      41.665  22.668  26.417  1.00  0.00     0.055 A 
ATOM     54  C   UNL A   1      43.327  23.968  25.259  1.00  0.00     0.041 A 
ATOM     55  F   UNL A   1      44.059  25.997  26.181  1.00  0.00    -0.206 F 
ATOM     56  C   UNL A   1      42.551  22.816  25.346  1.00  0.00     0.022 A 
BRANCH  53  57
ATOM     57  S   UNL A   1      40.817  21.074  26.602  1.00  0.00     0.124 S 
ATOM     58  O   UNL A   1      39.504  21.357  26.031  1.00  0.00    -0.237 OA
ATOM     59  O   UNL A   1      41.672  20.190  25.812  1.00  0.00    -0.237 OA
ATOM     60  O   UNL A   1      40.841  20.835  28.041  1.00  0.00    -0.744 OA
ENDBRANCH  53  57
ENDBRANCH  26  50
BRANCH  38  61
ATOM     61  C   UNL A   1      46.478  25.802  32.949  1.00  0.00     0.023 A 
ATOM     62  C   UNL A   1      47.728  26.052  32.351  1.00  0.00     0.031 A 
ATOM     63  C   UNL A   1      46.401  24.803  33.936  1.00  0.00     0.131 A 
ATOM     64  C   UNL A   1      48.844  25.291  32.725  1.00  0.00     0.055 A 
ATOM     65  C   UNL A   1      47.527  24.082  34.339  1.00  0.00     0.041 A 
ATOM     66  F   UNL A   1      45.230  24.515  34.526  1.00  0.00    -0.206 F 
ATOM     67  C   UNL A   1      48.752  24.315  33.722  1.00  0.00     0.022 A 
BRANCH  64  68
ATOM     68  S   UNL A   1      50.433  25.472  31.867  1.00  0.00     0.124 S 
ATOM     69  O   UNL A   1      50.093  26.412  30.802  1.00  0.00    -0.237 OA
ATOM     70  O   UNL A   1      51.293  26.007  32.920  1.00  0.00    -0.237 OA
ATOM     71  O   UNL A   1      50.751  24.118  31.425  1.00  0.00    -0.744 OA
ENDBRANCH  64  68
ENDBRANCH  38  61
ENDBRANCH  12  13
ENDBRANCH   5   7
ENDBRANCH   2   3
ENDBRANCH   1   2
BRANCH   1  72
ATOM     72  C   UNL A   1      32.250  27.681  26.029  1.00  0.00     0.002 C 
BRANCH  72  73
ATOM     73  C   UNL A   1      31.540  28.268  24.806  1.00  0.00     0.002 C 
BRANCH  73  74
ATOM     74  C   UNL A   1      32.446  28.719  23.653  1.00  0.00     0.021 C 
BRANCH  74  75
ATOM     75  C   UNL A   1      33.619  27.795  23.334  1.00  0.00     0.116 C 
BRANCH  75  76
ATOM     76  N   UNL A   1      33.547  27.250  21.988  1.00  0.00    -0.352 N 
ATOM     77  C   UNL A   1      33.059  26.043  21.566  1.00  0.00     0.253 C 
ATOM     78  H   UNL A   1      33.899  27.833  21.278  1.00  0.00     0.163 HD
ATOM     79  O   UNL A   1      33.070  25.752  20.366  1.00  0.00    -0.269 OA
BRANCH  77  80
ATOM     80  C   UNL A   1      32.442  25.119  22.532  1.00  0.00     0.067 A 
ATOM     81  C   UNL A   1      31.067  25.252  22.784  1.00  0.00     0.016 A 
ATOM     82  C   UNL A   1      33.214  24.100  23.106  1.00  0.00     0.103 A 
ATOM     83  C   UNL A   1      30.446  24.373  23.654  1.00  0.00     0.003 A 
ATOM     84  C   UNL A   1      32.548  23.192  23.972  1.00  0.00     0.091 A 
ATOM     85  N   UNL A   1      34.546  23.961  22.874  1.00  0.00    -0.230 NA
ATOM     86  C   UNL A   1      31.192  23.351  24.237  1.00  0.00     0.031 A 
ATOM     87  N   UNL A   1      33.186  22.162  24.559  1.00  0.00    -0.231 NA
ATOM     88  C   UNL A   1      35.173  22.918  23.462  1.00  0.00     0.167 A 
ATOM     89  C   UNL A   1      34.504  22.032  24.286  1.00  0.00     0.167 A 
ATOM     90  Cl  UNL A   1      36.843  22.807  23.085  1.00  0.00    -0.059 Cl
ATOM     91  Cl  UNL A   1      35.236  20.678  25.045  1.00  0.00    -0.059 Cl
ENDBRANCH  77  80
ENDBRANCH  75  76
ENDBRANCH  74  75
ENDBRANCH  73  74
ENDBRANCH  72  73
ENDBRANCH   1  72
TORSDOF 16
ENDMDL
