MODEL 1
REMARK VINA RESULT:     -10.6      0.000      0.000
REMARK SMILES CCc1ccsc1CNS(=O)(=O)N1CCC(C(=O)NCCCCCCNC(=O)c2ccc(-c3c4nc(c(-c5cc(S(=O)(=O)[O-])ccc5F)c5ccc([nH]5)c(-c5cc(S(=O)(=O)[O-])ccc5F)c5nc(c(-c6cc(S(=O)(=O)[O-])ccc6F)c6ccc3[nH]6)C=C5)C=C4)cc2)CC1
REMARK SMILES IDX 21 1 20 2 19 3 17 4 18 5 16 7 13 8 14 9 93 10 15 11 92 12
REMARK SMILES IDX 10 13 11 14 12 15 9 16 8 18 7 19 3 20 4 21 5 22 6 23 2 24
REMARK SMILES IDX 1 25 22 26 23 27 24 28 25 29 26 30 27 31 28 33 29 34 30 35
REMARK SMILES IDX 91 36 31 37 90 38 32 39 33 40 34 41 84 42 35 43 89 44 83 45
REMARK SMILES IDX 85 46 36 47 88 48 82 49 81 50 37 52 69 53 49 54 68 55 50 56
REMARK SMILES IDX 53 57 67 58 86 59 51 60 52 61 66 63 87 64 54 65 38 66 39 67
REMARK SMILES IDX 47 68 40 69 46 70 48 71 45 72 41 73 42 74 43 75 44 76 70 77
REMARK SMILES IDX 71 78 79 79 72 80 78 81 80 82 77 83 73 84 74 85 75 86 76 87
REMARK SMILES IDX 55 88 56 89 64 90 57 91 63 92 65 93 62 94 58 95 59 96 60 97
REMARK SMILES IDX 61 98
REMARK H PARENT 19 6 9 17 26 32 85 51 53 62
REMARK Flexibility Score: inf
ROOT
ATOM      1  C   UNL A   1      35.778  24.439  25.164  1.00  0.00     0.021 C 
ENDROOT
BRANCH   1   2
ATOM      2  C   UNL A   1      36.181  23.568  23.977  1.00  0.00     0.116 C 
BRANCH   2   3
ATOM      3  N   UNL A   1      36.757  22.311  24.421  1.00  0.00    -0.356 N 
ATOM      4  C   UNL A   1      36.223  21.292  25.142  1.00  0.00     0.223 C 
ATOM      5  O   UNL A   1      36.956  20.343  25.432  1.00  0.00    -0.275 OA
ATOM      6  H   UNL A   1      37.694  22.174  24.151  1.00  0.00     0.163 HD
BRANCH   4   7
ATOM      7  C   UNL A   1      34.764  21.293  25.574  1.00  0.00     0.081 C 
ATOM      8  N   UNL A   1      32.261  22.731  25.839  1.00  0.00    -0.189 NA
ATOM      9  C   UNL A   1      33.021  22.355  27.069  1.00  0.00     0.104 C 
ATOM     10  C   UNL A   1      32.374  21.660  24.807  1.00  0.00     0.104 C 
ATOM     11  C   UNL A   1      34.505  22.231  26.754  1.00  0.00     0.030 C 
ATOM     12  C   UNL A   1      33.827  21.503  24.379  1.00  0.00     0.030 C 
BRANCH   8  13
ATOM     13  S   UNL A   1      30.654  23.149  26.208  1.00  0.00     0.279 S 
ATOM     14  O   UNL A   1      30.658  24.075  27.312  1.00  0.00    -0.195 OA
ATOM     15  O   UNL A   1      29.874  21.933  26.254  1.00  0.00    -0.195 OA
BRANCH  13  16
ATOM     16  N   UNL A   1      30.194  23.984  24.842  1.00  0.00    -0.197 NA
ATOM     17  H   UNL A   1      29.725  23.328  24.218  1.00  0.00     0.142 HD
BRANCH  16  18
ATOM     18  C   UNL A   1      31.279  24.628  24.084  1.00  0.00     0.146 C 
BRANCH  18  19
ATOM     19  C   UNL A   1      30.780  25.955  23.571  1.00  0.00     0.023 A 
ATOM     20  C   UNL A   1      31.406  26.848  22.705  1.00  0.00    -0.033 A 
ATOM     21  C   UNL A   1      30.576  27.991  22.453  1.00  0.00     0.015 A 
ATOM     22  C   UNL A   1      29.374  27.935  23.118  1.00  0.00     0.065 A 
ATOM     23  S   UNL A   1      29.225  26.512  24.043  1.00  0.00    -0.147 S 
BRANCH  20  24
ATOM     24  C   UNL A   1      32.764  26.669  22.078  1.00  0.00     0.033 C 
ATOM     25  C   UNL A   1      33.641  27.902  22.235  1.00  0.00     0.009 C 
ENDBRANCH  20  24
ENDBRANCH  18  19
ENDBRANCH  16  18
ENDBRANCH  13  16
ENDBRANCH   8  13
ENDBRANCH   4   7
ENDBRANCH   2   3
ENDBRANCH   1   2
BRANCH   1  26
ATOM     26  C   UNL A   1      34.622  25.399  24.865  1.00  0.00     0.002 C 
BRANCH  26  27
ATOM     27  C   UNL A   1      34.060  26.127  26.090  1.00  0.00     0.002 C 
BRANCH  27  28
ATOM     28  C   UNL A   1      33.902  27.642  25.928  1.00  0.00     0.021 C 
BRANCH  28  29
ATOM     29  C   UNL A   1      33.350  28.359  27.157  1.00  0.00     0.116 C 
BRANCH  29  30
ATOM     30  N   UNL A   1      33.499  29.799  27.052  1.00  0.00    -0.352 N 
ATOM     31  C   UNL A   1      34.482  30.620  27.538  1.00  0.00     0.251 C 
ATOM     32  H   UNL A   1      32.782  30.256  26.553  1.00  0.00     0.163 HD
ATOM     33  O   UNL A   1      34.299  31.834  27.548  1.00  0.00    -0.269 OA
BRANCH  31  34
ATOM     34  C   UNL A   1      35.745  30.053  28.063  1.00  0.00     0.039 A 
ATOM     35  C   UNL A   1      36.868  30.053  27.234  1.00  0.00     0.014 A 
ATOM     36  C   UNL A   1      35.823  29.491  29.342  1.00  0.00     0.014 A 
ATOM     37  C   UNL A   1      38.076  29.535  27.703  1.00  0.00     0.010 A 
ATOM     38  C   UNL A   1      37.049  29.046  29.836  1.00  0.00     0.010 A 
ATOM     39  C   UNL A   1      38.190  29.060  29.021  1.00  0.00    -0.014 A 
BRANCH  39  40
ATOM     40  C   UNL A   1      39.506  28.606  29.543  1.00  0.00     0.031 A 
ATOM     41  C   UNL A   1      40.169  29.319  30.692  1.00  0.00     0.074 A 
ATOM     42  C   UNL A   1      40.113  27.553  28.958  1.00  0.00     0.049 A 
ATOM     43  N   UNL A   1      41.300  29.044  31.290  1.00  0.00    -0.248 NA
ATOM     44  C   UNL A   1      39.486  30.508  31.228  1.00  0.00     0.031 C 
ATOM     45  C   UNL A   1      39.593  26.818  27.801  1.00  0.00     0.029 A 
ATOM     46  N   UNL A   1      41.292  26.911  29.249  1.00  0.00    -0.354 N 
ATOM     47  C   UNL A   1      41.471  30.025  32.260  1.00  0.00     0.074 A 
ATOM     48  C   UNL A   1      40.349  30.931  32.141  1.00  0.00     0.031 C 
ATOM     49  C   UNL A   1      40.426  25.809  27.506  1.00  0.00     0.029 A 
ATOM     50  C   UNL A   1      41.567  25.851  28.414  1.00  0.00     0.049 A 
ATOM     51  H   UNL A   1      41.885  27.184  29.986  1.00  0.00     0.167 HD
ATOM     52  C   UNL A   1      42.466  30.149  33.174  1.00  0.00     0.034 A 
ATOM     53  C   UNL A   1      42.624  25.015  28.374  1.00  0.00     0.034 A 
ATOM     54  C   UNL A   1      43.569  29.224  33.289  1.00  0.00     0.049 A 
ATOM     55  C   UNL A   1      43.713  25.179  29.405  1.00  0.00     0.074 A 
ATOM     56  C   UNL A   1      44.579  29.208  34.234  1.00  0.00     0.029 A 
ATOM     57  N   UNL A   1      43.819  28.165  32.426  1.00  0.00    -0.354 N 
ATOM     58  N   UNL A   1      43.807  26.059  30.376  1.00  0.00    -0.248 NA
ATOM     59  C   UNL A   1      44.830  24.229  29.345  1.00  0.00     0.031 C 
ATOM     60  C   UNL A   1      45.488  28.203  33.890  1.00  0.00     0.029 A 
ATOM     61  C   UNL A   1      44.996  27.524  32.787  1.00  0.00     0.049 A 
ATOM     62  H   UNL A   1      43.246  27.908  31.668  1.00  0.00     0.167 HD
ATOM     63  C   UNL A   1      44.981  25.747  31.057  1.00  0.00     0.074 A 
ATOM     64  C   UNL A   1      45.538  24.580  30.407  1.00  0.00     0.031 C 
ATOM     65  C   UNL A   1      45.551  26.372  32.119  1.00  0.00     0.034 A 
BRANCH  52  66
ATOM     66  C   UNL A   1      42.438  31.339  34.103  1.00  0.00     0.023 A 
ATOM     67  C   UNL A   1      41.608  31.386  35.236  1.00  0.00     0.031 A 
ATOM     68  C   UNL A   1      43.294  32.432  33.868  1.00  0.00     0.131 A 
ATOM     69  C   UNL A   1      41.622  32.518  36.067  1.00  0.00     0.055 A 
ATOM     70  C   UNL A   1      43.354  33.522  34.738  1.00  0.00     0.041 A 
ATOM     71  F   UNL A   1      44.091  32.454  32.789  1.00  0.00    -0.206 F 
ATOM     72  C   UNL A   1      42.509  33.573  35.841  1.00  0.00     0.022 A 
BRANCH  69  73
ATOM     73  S   UNL A   1      40.389  32.642  37.392  1.00  0.00     0.124 S 
ATOM     74  O   UNL A   1      39.912  34.012  37.225  1.00  0.00    -0.237 OA
ATOM     75  O   UNL A   1      39.444  31.589  37.043  1.00  0.00    -0.237 OA
ATOM     76  O   UNL A   1      41.166  32.405  38.607  1.00  0.00    -0.744 OA
ENDBRANCH  69  73
ENDBRANCH  52  66
BRANCH  53  77
ATOM     77  C   UNL A   1      42.733  23.969  27.311  1.00  0.00     0.023 A 
ATOM     78  C   UNL A   1      42.031  22.757  27.404  1.00  0.00     0.031 A 
ATOM     79  C   UNL A   1      43.610  24.136  26.223  1.00  0.00     0.131 A 
ATOM     80  C   UNL A   1      42.271  21.734  26.473  1.00  0.00     0.055 A 
ATOM     81  C   UNL A   1      43.789  23.145  25.258  1.00  0.00     0.041 A 
ATOM     82  F   UNL A   1      44.309  25.274  26.082  1.00  0.00    -0.206 F 
ATOM     83  C   UNL A   1      43.134  21.926  25.391  1.00  0.00     0.022 A 
BRANCH  80  84
ATOM     84  S   UNL A   1      41.549  20.097  26.774  1.00  0.00     0.124 S 
ATOM     85  O   UNL A   1      41.665  19.477  25.460  1.00  0.00    -0.237 OA
ATOM     86  O   UNL A   1      42.424  19.568  27.815  1.00  0.00    -0.237 OA
ATOM     87  O   UNL A   1      40.185  20.402  27.202  1.00  0.00    -0.744 OA
ENDBRANCH  80  84
ENDBRANCH  53  77
BRANCH  65  88
ATOM     88  C   UNL A   1      46.830  25.772  32.657  1.00  0.00     0.023 A 
ATOM     89  C   UNL A   1      48.073  26.015  32.044  1.00  0.00     0.031 A 
ATOM     90  C   UNL A   1      46.803  24.916  33.771  1.00  0.00     0.131 A 
ATOM     91  C   UNL A   1      49.219  25.344  32.497  1.00  0.00     0.055 A 
ATOM     92  C   UNL A   1      47.960  24.316  34.269  1.00  0.00     0.041 A 
ATOM     93  F   UNL A   1      45.646  24.644  34.396  1.00  0.00    -0.206 F 
ATOM     94  C   UNL A   1      49.175  24.512  33.618  1.00  0.00     0.022 A 
BRANCH  91  95
ATOM     95  S   UNL A   1      50.740  25.468  31.516  1.00  0.00     0.124 S 
ATOM     96  O   UNL A   1      50.805  26.900  31.239  1.00  0.00    -0.237 OA
ATOM     97  O   UNL A   1      51.748  24.952  32.437  1.00  0.00    -0.237 OA
ATOM     98  O   UNL A   1      50.469  24.623  30.355  1.00  0.00    -0.744 OA
ENDBRANCH  91  95
ENDBRANCH  65  88
ENDBRANCH  39  40
ENDBRANCH  31  34
ENDBRANCH  29  30
ENDBRANCH  28  29
ENDBRANCH  27  28
ENDBRANCH  26  27
ENDBRANCH   1  26
TORSDOF 21
ENDMDL
MODEL 2
REMARK VINA RESULT:     -10.1      1.813      2.154
REMARK SMILES CCc1ccsc1CNS(=O)(=O)N1CCC(C(=O)NCCCCCCNC(=O)c2ccc(-c3c4nc(c(-c5cc(S(=O)(=O)[O-])ccc5F)c5ccc([nH]5)c(-c5cc(S(=O)(=O)[O-])ccc5F)c5nc(c(-c6cc(S(=O)(=O)[O-])ccc6F)c6ccc3[nH]6)C=C5)C=C4)cc2)CC1
REMARK SMILES IDX 21 1 20 2 19 3 17 4 18 5 16 7 13 8 14 9 93 10 15 11 92 12
REMARK SMILES IDX 10 13 11 14 12 15 9 16 8 18 7 19 3 20 4 21 5 22 6 23 2 24
REMARK SMILES IDX 1 25 22 26 23 27 24 28 25 29 26 30 27 31 28 33 29 34 30 35
REMARK SMILES IDX 91 36 31 37 90 38 32 39 33 40 34 41 84 42 35 43 89 44 83 45
REMARK SMILES IDX 85 46 36 47 88 48 82 49 81 50 37 52 69 53 49 54 68 55 50 56
REMARK SMILES IDX 53 57 67 58 86 59 51 60 52 61 66 63 87 64 54 65 38 66 39 67
REMARK SMILES IDX 47 68 40 69 46 70 48 71 45 72 41 73 42 74 43 75 44 76 70 77
REMARK SMILES IDX 71 78 79 79 72 80 78 81 80 82 77 83 73 84 74 85 75 86 76 87
REMARK SMILES IDX 55 88 56 89 64 90 57 91 63 92 65 93 62 94 58 95 59 96 60 97
REMARK SMILES IDX 61 98
REMARK H PARENT 19 6 9 17 26 32 85 51 53 62
REMARK Flexibility Score: inf
ROOT
ATOM      1  C   UNL A   1      35.739  24.393  24.844  1.00  0.00     0.021 C 
ENDROOT
BRANCH   1   2
ATOM      2  C   UNL A   1      35.998  23.420  23.697  1.00  0.00     0.116 C 
BRANCH   2   3
ATOM      3  N   UNL A   1      36.605  22.192  24.179  1.00  0.00    -0.356 N 
ATOM      4  C   UNL A   1      36.122  21.219  24.994  1.00  0.00     0.223 C 
ATOM      5  O   UNL A   1      36.874  20.289  25.293  1.00  0.00    -0.275 OA
ATOM      6  H   UNL A   1      37.523  22.037  23.858  1.00  0.00     0.163 HD
BRANCH   4   7
ATOM      7  C   UNL A   1      34.694  21.248  25.518  1.00  0.00     0.081 C 
ATOM      8  N   UNL A   1      32.194  22.685  25.815  1.00  0.00    -0.189 NA
ATOM      9  C   UNL A   1      33.036  22.428  27.022  1.00  0.00     0.104 C 
ATOM     10  C   UNL A   1      32.255  21.526  24.879  1.00  0.00     0.104 C 
ATOM     11  C   UNL A   1      34.498  22.287  26.624  1.00  0.00     0.030 C 
ATOM     12  C   UNL A   1      33.679  21.342  24.373  1.00  0.00     0.030 C 
BRANCH   8  13
ATOM     13  S   UNL A   1      30.608  23.123  26.250  1.00  0.00     0.279 S 
ATOM     14  O   UNL A   1      30.671  24.102  27.305  1.00  0.00    -0.195 OA
ATOM     15  O   UNL A   1      29.834  21.912  26.398  1.00  0.00    -0.195 OA
BRANCH  13  16
ATOM     16  N   UNL A   1      30.075  23.890  24.871  1.00  0.00    -0.197 NA
ATOM     17  H   UNL A   1      29.308  23.339  24.483  1.00  0.00     0.142 HD
BRANCH  16  18
ATOM     18  C   UNL A   1      31.076  24.078  23.808  1.00  0.00     0.146 C 
BRANCH  18  19
ATOM     19  C   UNL A   1      31.087  25.534  23.415  1.00  0.00     0.023 A 
ATOM     20  C   UNL A   1      31.819  26.162  22.412  1.00  0.00    -0.033 A 
ATOM     21  C   UNL A   1      31.521  27.565  22.355  1.00  0.00     0.015 A 
ATOM     22  C   UNL A   1      30.595  27.952  23.295  1.00  0.00     0.065 A 
ATOM     23  S   UNL A   1      30.068  26.640  24.246  1.00  0.00    -0.147 S 
BRANCH  20  24
ATOM     24  C   UNL A   1      32.791  25.494  21.475  1.00  0.00     0.033 C 
ATOM     25  C   UNL A   1      32.384  25.643  20.016  1.00  0.00     0.009 C 
ENDBRANCH  20  24
ENDBRANCH  18  19
ENDBRANCH  16  18
ENDBRANCH  13  16
ENDBRANCH   8  13
ENDBRANCH   4   7
ENDBRANCH   2   3
ENDBRANCH   1   2
BRANCH   1  26
ATOM     26  C   UNL A   1      34.547  25.325  24.609  1.00  0.00     0.002 C 
BRANCH  26  27
ATOM     27  C   UNL A   1      33.999  25.997  25.872  1.00  0.00     0.002 C 
BRANCH  27  28
ATOM     28  C   UNL A   1      33.844  27.519  25.782  1.00  0.00     0.021 C 
BRANCH  28  29
ATOM     29  C   UNL A   1      33.340  28.184  27.059  1.00  0.00     0.116 C 
BRANCH  29  30
ATOM     30  N   UNL A   1      33.438  29.630  26.987  1.00  0.00    -0.352 N 
ATOM     31  C   UNL A   1      34.387  30.475  27.504  1.00  0.00     0.251 C 
ATOM     32  H   UNL A   1      32.711  30.073  26.491  1.00  0.00     0.163 HD
ATOM     33  O   UNL A   1      34.160  31.681  27.538  1.00  0.00    -0.269 OA
BRANCH  31  34
ATOM     34  C   UNL A   1      35.663  29.940  28.031  1.00  0.00     0.039 A 
ATOM     35  C   UNL A   1      36.748  29.834  27.160  1.00  0.00     0.014 A 
ATOM     36  C   UNL A   1      35.788  29.511  29.356  1.00  0.00     0.014 A 
ATOM     37  C   UNL A   1      37.968  29.345  27.628  1.00  0.00     0.010 A 
ATOM     38  C   UNL A   1      37.029  29.096  29.842  1.00  0.00     0.010 A 
ATOM     39  C   UNL A   1      38.133  29.005  28.983  1.00  0.00    -0.014 A 
BRANCH  39  40
ATOM     40  C   UNL A   1      39.464  28.583  29.493  1.00  0.00     0.031 A 
ATOM     41  C   UNL A   1      40.135  29.332  30.614  1.00  0.00     0.074 A 
ATOM     42  C   UNL A   1      40.077  27.524  28.922  1.00  0.00     0.049 A 
ATOM     43  N   UNL A   1      41.280  29.087  31.198  1.00  0.00    -0.248 NA
ATOM     44  C   UNL A   1      39.444  30.523  31.133  1.00  0.00     0.031 C 
ATOM     45  C   UNL A   1      39.548  26.755  27.791  1.00  0.00     0.029 A 
ATOM     46  N   UNL A   1      41.269  26.906  29.208  1.00  0.00    -0.354 N 
ATOM     47  C   UNL A   1      41.453  30.093  32.142  1.00  0.00     0.074 A 
ATOM     48  C   UNL A   1      40.316  30.979  32.022  1.00  0.00     0.031 C 
ATOM     49  C   UNL A   1      40.392  25.752  27.506  1.00  0.00     0.029 A 
ATOM     50  C   UNL A   1      41.546  25.832  28.393  1.00  0.00     0.049 A 
ATOM     51  H   UNL A   1      41.870  27.205  29.929  1.00  0.00     0.167 HD
ATOM     52  C   UNL A   1      42.460  30.252  33.036  1.00  0.00     0.034 A 
ATOM     53  C   UNL A   1      42.615  25.010  28.355  1.00  0.00     0.034 A 
ATOM     54  C   UNL A   1      43.578  29.346  33.154  1.00  0.00     0.049 A 
ATOM     55  C   UNL A   1      43.718  25.214  29.363  1.00  0.00     0.074 A 
ATOM     56  C   UNL A   1      44.605  29.367  34.082  1.00  0.00     0.029 A 
ATOM     57  N   UNL A   1      43.830  28.272  32.312  1.00  0.00    -0.354 N 
ATOM     58  N   UNL A   1      43.815  26.117  30.312  1.00  0.00    -0.248 NA
ATOM     59  C   UNL A   1      44.848  24.278  29.306  1.00  0.00     0.031 C 
ATOM     60  C   UNL A   1      45.522  28.367  33.746  1.00  0.00     0.029 A 
ATOM     61  C   UNL A   1      45.022  27.656  32.668  1.00  0.00     0.049 A 
ATOM     62  H   UNL A   1      43.249  27.988  31.569  1.00  0.00     0.167 HD
ATOM     63  C   UNL A   1      45.004  25.839  30.979  1.00  0.00     0.074 A 
ATOM     64  C   UNL A   1      45.568  24.664  30.348  1.00  0.00     0.031 C 
ATOM     65  C   UNL A   1      45.583  26.496  32.017  1.00  0.00     0.034 A 
BRANCH  52  66
ATOM     66  C   UNL A   1      42.431  31.464  33.937  1.00  0.00     0.023 A 
ATOM     67  C   UNL A   1      42.916  32.717  33.524  1.00  0.00     0.031 A 
ATOM     68  C   UNL A   1      41.866  31.368  35.223  1.00  0.00     0.131 A 
ATOM     69  C   UNL A   1      42.865  33.811  34.403  1.00  0.00     0.055 A 
ATOM     70  C   UNL A   1      41.753  32.477  36.063  1.00  0.00     0.041 A 
ATOM     71  F   UNL A   1      41.408  30.193  35.681  1.00  0.00    -0.206 F 
ATOM     72  C   UNL A   1      42.261  33.706  35.658  1.00  0.00     0.022 A 
BRANCH  69  73
ATOM     73  S   UNL A   1      43.693  35.353  33.924  1.00  0.00     0.124 S 
ATOM     74  O   UNL A   1      43.301  36.248  35.009  1.00  0.00    -0.237 OA
ATOM     75  O   UNL A   1      45.097  34.960  33.893  1.00  0.00    -0.237 OA
ATOM     76  O   UNL A   1      43.104  35.669  32.623  1.00  0.00    -0.744 OA
ENDBRANCH  69  73
ENDBRANCH  52  66
BRANCH  53  77
ATOM     77  C   UNL A   1      42.721  23.941  27.315  1.00  0.00     0.023 A 
ATOM     78  C   UNL A   1      42.062  22.711  27.462  1.00  0.00     0.031 A 
ATOM     79  C   UNL A   1      43.555  24.108  26.194  1.00  0.00     0.131 A 
ATOM     80  C   UNL A   1      42.304  21.672  26.548  1.00  0.00     0.055 A 
ATOM     81  C   UNL A   1      43.734  23.098  25.248  1.00  0.00     0.041 A 
ATOM     82  F   UNL A   1      44.213  25.262  26.001  1.00  0.00    -0.206 F 
ATOM     83  C   UNL A   1      43.123  21.863  25.433  1.00  0.00     0.022 A 
BRANCH  80  84
ATOM     84  S   UNL A   1      41.644  20.022  26.914  1.00  0.00     0.124 S 
ATOM     85  O   UNL A   1      40.530  20.339  27.800  1.00  0.00    -0.237 OA
ATOM     86  O   UNL A   1      41.290  19.536  25.585  1.00  0.00    -0.237 OA
ATOM     87  O   UNL A   1      42.771  19.340  27.548  1.00  0.00    -0.744 OA
ENDBRANCH  80  84
ENDBRANCH  53  77
BRANCH  65  88
ATOM     88  C   UNL A   1      46.880  25.928  32.547  1.00  0.00     0.023 A 
ATOM     89  C   UNL A   1      46.899  24.978  33.584  1.00  0.00     0.031 A 
ATOM     90  C   UNL A   1      48.112  26.370  32.037  1.00  0.00     0.131 A 
ATOM     91  C   UNL A   1      48.123  24.566  34.132  1.00  0.00     0.055 A 
ATOM     92  C   UNL A   1      49.328  25.894  32.531  1.00  0.00     0.041 A 
ATOM     93  F   UNL A   1      48.158  27.279  31.049  1.00  0.00    -0.206 F 
ATOM     94  C   UNL A   1      49.337  25.002  33.599  1.00  0.00     0.022 A 
BRANCH  91  95
ATOM     95  S   UNL A   1      48.101  23.558  35.641  1.00  0.00     0.124 S 
ATOM     96  O   UNL A   1      46.771  23.840  36.173  1.00  0.00    -0.237 OA
ATOM     97  O   UNL A   1      48.305  22.210  35.119  1.00  0.00    -0.237 OA
ATOM     98  O   UNL A   1      49.211  24.093  36.427  1.00  0.00    -0.744 OA
ENDBRANCH  91  95
ENDBRANCH  65  88
ENDBRANCH  39  40
ENDBRANCH  31  34
ENDBRANCH  29  30
ENDBRANCH  28  29
ENDBRANCH  27  28
ENDBRANCH  26  27
ENDBRANCH   1  26
TORSDOF 21
ENDMDL
MODEL 3
REMARK VINA RESULT:     -10.0      9.309     14.001
REMARK SMILES CCc1ccsc1CNS(=O)(=O)N1CCC(C(=O)NCCCCCCNC(=O)c2ccc(-c3c4nc(c(-c5cc(S(=O)(=O)[O-])ccc5F)c5ccc([nH]5)c(-c5cc(S(=O)(=O)[O-])ccc5F)c5nc(c(-c6cc(S(=O)(=O)[O-])ccc6F)c6ccc3[nH]6)C=C5)C=C4)cc2)CC1
REMARK SMILES IDX 21 1 20 2 19 3 17 4 18 5 16 7 13 8 14 9 93 10 15 11 92 12
REMARK SMILES IDX 10 13 11 14 12 15 9 16 8 18 7 19 3 20 4 21 5 22 6 23 2 24
REMARK SMILES IDX 1 25 22 26 23 27 24 28 25 29 26 30 27 31 28 33 29 34 30 35
REMARK SMILES IDX 91 36 31 37 90 38 32 39 33 40 34 41 84 42 35 43 89 44 83 45
REMARK SMILES IDX 85 46 36 47 88 48 82 49 81 50 37 52 69 53 49 54 68 55 50 56
REMARK SMILES IDX 53 57 67 58 86 59 51 60 52 61 66 63 87 64 54 65 38 66 39 67
REMARK SMILES IDX 47 68 40 69 46 70 48 71 45 72 41 73 42 74 43 75 44 76 70 77
REMARK SMILES IDX 71 78 79 79 72 80 78 81 80 82 77 83 73 84 74 85 75 86 76 87
REMARK SMILES IDX 55 88 56 89 64 90 57 91 63 92 65 93 62 94 58 95 59 96 60 97
REMARK SMILES IDX 61 98
REMARK H PARENT 19 6 9 17 26 32 85 51 53 62
REMARK Flexibility Score: inf
ROOT
ATOM      1  C   UNL A   1      42.599  38.910  26.602  1.00  0.00     0.021 C 
ENDROOT
BRANCH   1   2
ATOM      2  C   UNL A   1      42.186  40.301  26.128  1.00  0.00     0.116 C 
BRANCH   2   3
ATOM      3  N   UNL A   1      42.989  41.331  26.762  1.00  0.00    -0.356 N 
ATOM      4  C   UNL A   1      43.975  42.123  26.268  1.00  0.00     0.223 C 
ATOM      5  O   UNL A   1      44.541  42.895  27.045  1.00  0.00    -0.275 OA
ATOM      6  H   UNL A   1      42.782  41.481  27.713  1.00  0.00     0.163 HD
BRANCH   4   7
ATOM      7  C   UNL A   1      44.372  42.088  24.799  1.00  0.00     0.081 C 
ATOM      8  N   UNL A   1      45.443  43.474  22.490  1.00  0.00    -0.189 NA
ATOM      9  C   UNL A   1      44.001  43.084  22.503  1.00  0.00     0.104 C 
ATOM     10  C   UNL A   1      46.274  42.430  23.156  1.00  0.00     0.104 C 
ATOM     11  C   UNL A   1      43.493  42.993  23.934  1.00  0.00     0.030 C 
ATOM     12  C   UNL A   1      45.878  42.309  24.621  1.00  0.00     0.030 C 
BRANCH   8  13
ATOM     13  S   UNL A   1      45.966  43.855  20.916  1.00  0.00     0.279 S 
ATOM     14  O   UNL A   1      45.961  42.653  20.123  1.00  0.00    -0.195 OA
ATOM     15  O   UNL A   1      47.152  44.674  21.025  1.00  0.00    -0.195 OA
BRANCH  13  16
ATOM     16  N   UNL A   1      44.733  44.833  20.372  1.00  0.00    -0.197 NA
ATOM     17  H   UNL A   1      43.956  44.232  20.095  1.00  0.00     0.142 HD
BRANCH  16  18
ATOM     18  C   UNL A   1      45.056  45.706  19.232  1.00  0.00     0.146 C 
BRANCH  18  19
ATOM     19  C   UNL A   1      43.888  45.699  18.279  1.00  0.00     0.023 A 
ATOM     20  C   UNL A   1      42.871  44.757  18.151  1.00  0.00    -0.033 A 
ATOM     21  C   UNL A   1      41.938  45.140  17.130  1.00  0.00     0.015 A 
ATOM     22  C   UNL A   1      42.265  46.331  16.527  1.00  0.00     0.065 A 
ATOM     23  S   UNL A   1      43.686  47.006  17.183  1.00  0.00    -0.147 S 
BRANCH  20  24
ATOM     24  C   UNL A   1      42.721  43.499  18.966  1.00  0.00     0.033 C 
ATOM     25  C   UNL A   1      41.438  43.490  19.784  1.00  0.00     0.009 C 
ENDBRANCH  20  24
ENDBRANCH  18  19
ENDBRANCH  16  18
ENDBRANCH  13  16
ENDBRANCH   8  13
ENDBRANCH   4   7
ENDBRANCH   2   3
ENDBRANCH   1   2
BRANCH   1  26
ATOM     26  C   UNL A   1      41.986  38.506  27.947  1.00  0.00     0.002 C 
BRANCH  26  27
ATOM     27  C   UNL A   1      42.942  37.775  28.893  1.00  0.00     0.002 C 
BRANCH  27  28
ATOM     28  C   UNL A   1      43.572  38.649  29.983  1.00  0.00     0.021 C 
BRANCH  28  29
ATOM     29  C   UNL A   1      44.663  37.962  30.798  1.00  0.00     0.116 C 
BRANCH  29  30
ATOM     30  N   UNL A   1      45.959  38.061  30.152  1.00  0.00    -0.352 N 
ATOM     31  C   UNL A   1      46.729  37.087  29.569  1.00  0.00     0.251 C 
ATOM     32  H   UNL A   1      46.345  38.968  30.128  1.00  0.00     0.163 HD
ATOM     33  O   UNL A   1      47.899  37.335  29.293  1.00  0.00    -0.269 OA
BRANCH  31  34
ATOM     34  C   UNL A   1      46.164  35.748  29.292  1.00  0.00     0.039 A 
ATOM     35  C   UNL A   1      46.358  34.737  30.235  1.00  0.00     0.014 A 
ATOM     36  C   UNL A   1      45.481  35.469  28.103  1.00  0.00     0.014 A 
ATOM     37  C   UNL A   1      45.829  33.466  30.008  1.00  0.00     0.010 A 
ATOM     38  C   UNL A   1      44.887  34.221  27.914  1.00  0.00     0.010 A 
ATOM     39  C   UNL A   1      45.057  33.203  28.863  1.00  0.00    -0.014 A 
BRANCH  39  40
ATOM     40  C   UNL A   1      44.412  31.876  28.682  1.00  0.00     0.031 A 
ATOM     41  C   UNL A   1      43.044  31.598  29.248  1.00  0.00     0.074 A 
ATOM     42  C   UNL A   1      45.080  30.910  28.017  1.00  0.00     0.049 A 
ATOM     43  N   UNL A   1      42.324  30.509  29.162  1.00  0.00    -0.248 NA
ATOM     44  C   UNL A   1      42.410  32.672  30.029  1.00  0.00     0.031 C 
ATOM     45  C   UNL A   1      46.435  31.046  27.473  1.00  0.00     0.029 A 
ATOM     46  N   UNL A   1      44.720  29.629  27.679  1.00  0.00    -0.354 N 
ATOM     47  C   UNL A   1      41.161  30.759  29.883  1.00  0.00     0.074 A 
ATOM     48  C   UNL A   1      41.292  32.088  30.439  1.00  0.00     0.031 C 
ATOM     49  C   UNL A   1      46.774  29.912  26.842  1.00  0.00     0.029 A 
ATOM     50  C   UNL A   1      45.689  28.947  26.978  1.00  0.00     0.049 A 
ATOM     51  H   UNL A   1      43.850  29.234  27.918  1.00  0.00     0.167 HD
ATOM     52  C   UNL A   1      40.080  29.958  30.052  1.00  0.00     0.034 A 
ATOM     53  C   UNL A   1      45.709  27.684  26.507  1.00  0.00     0.034 A 
ATOM     54  C   UNL A   1      39.960  28.640  29.473  1.00  0.00     0.049 A 
ATOM     55  C   UNL A   1      44.490  26.819  26.711  1.00  0.00     0.074 A 
ATOM     56  C   UNL A   1      38.873  27.784  29.509  1.00  0.00     0.029 A 
ATOM     57  N   UNL A   1      40.960  27.980  28.772  1.00  0.00    -0.354 N 
ATOM     58  N   UNL A   1      43.361  27.111  27.316  1.00  0.00    -0.248 NA
ATOM     59  C   UNL A   1      44.541  25.461  26.156  1.00  0.00     0.031 C 
ATOM     60  C   UNL A   1      39.246  26.575  28.914  1.00  0.00     0.029 A 
ATOM     61  C   UNL A   1      40.532  26.708  28.417  1.00  0.00     0.049 A 
ATOM     62  H   UNL A   1      41.844  28.358  28.559  1.00  0.00     0.167 HD
ATOM     63  C   UNL A   1      42.560  25.980  27.188  1.00  0.00     0.074 A 
ATOM     64  C   UNL A   1      43.321  25.018  26.419  1.00  0.00     0.031 C 
ATOM     65  C   UNL A   1      41.310  25.751  27.666  1.00  0.00     0.034 A 
BRANCH  52  66
ATOM     66  C   UNL A   1      38.951  30.457  30.921  1.00  0.00     0.023 A 
ATOM     67  C   UNL A   1      37.834  31.124  30.389  1.00  0.00     0.031 A 
ATOM     68  C   UNL A   1      38.977  30.220  32.309  1.00  0.00     0.131 A 
ATOM     69  C   UNL A   1      36.811  31.567  31.244  1.00  0.00     0.055 A 
ATOM     70  C   UNL A   1      37.923  30.599  33.142  1.00  0.00     0.041 A 
ATOM     71  F   UNL A   1      40.028  29.609  32.877  1.00  0.00    -0.206 F 
ATOM     72  C   UNL A   1      36.834  31.284  32.611  1.00  0.00     0.022 A 
BRANCH  69  73
ATOM     73  S   UNL A   1      35.495  32.612  30.559  1.00  0.00     0.124 S 
ATOM     74  O   UNL A   1      36.113  33.934  30.605  1.00  0.00    -0.237 OA
ATOM     75  O   UNL A   1      35.298  32.042  29.231  1.00  0.00    -0.237 OA
ATOM     76  O   UNL A   1      34.384  32.419  31.491  1.00  0.00    -0.744 OA
ENDBRANCH  69  73
ENDBRANCH  52  66
BRANCH  53  77
ATOM     77  C   UNL A   1      46.923  27.139  25.827  1.00  0.00     0.023 A 
ATOM     78  C   UNL A   1      47.954  26.524  26.554  1.00  0.00     0.031 A 
ATOM     79  C   UNL A   1      47.107  27.301  24.441  1.00  0.00     0.131 A 
ATOM     80  C   UNL A   1      49.148  26.162  25.910  1.00  0.00     0.055 A 
ATOM     81  C   UNL A   1      48.264  26.872  23.792  1.00  0.00     0.041 A 
ATOM     82  F   UNL A   1      46.156  27.884  23.693  1.00  0.00    -0.206 F 
ATOM     83  C   UNL A   1      49.304  26.317  24.531  1.00  0.00     0.022 A 
BRANCH  80  84
ATOM     84  S   UNL A   1      50.551  25.615  26.922  1.00  0.00     0.124 S 
ATOM     85  O   UNL A   1      50.740  26.759  27.807  1.00  0.00    -0.237 OA
ATOM     86  O   UNL A   1      50.023  24.404  27.541  1.00  0.00    -0.237 OA
ATOM     87  O   UNL A   1      51.614  25.402  25.942  1.00  0.00    -0.744 OA
ENDBRANCH  80  84
ENDBRANCH  53  77
BRANCH  65  88
ATOM     88  C   UNL A   1      40.685  24.415  27.336  1.00  0.00     0.023 A 
ATOM     89  C   UNL A   1      39.536  24.317  26.531  1.00  0.00     0.031 A 
ATOM     90  C   UNL A   1      41.222  23.228  27.863  1.00  0.00     0.131 A 
ATOM     91  C   UNL A   1      38.915  23.072  26.347  1.00  0.00     0.055 A 
ATOM     92  C   UNL A   1      40.647  21.982  27.609  1.00  0.00     0.041 A 
ATOM     93  F   UNL A   1      42.316  23.258  28.641  1.00  0.00    -0.206 F 
ATOM     94  C   UNL A   1      39.474  21.902  26.864  1.00  0.00     0.022 A 
BRANCH  91  95
ATOM     95  S   UNL A   1      37.292  23.025  25.539  1.00  0.00     0.124 S 
ATOM     96  O   UNL A   1      37.631  23.367  24.161  1.00  0.00    -0.237 OA
ATOM     97  O   UNL A   1      36.869  21.647  25.767  1.00  0.00    -0.237 OA
ATOM     98  O   UNL A   1      36.521  24.037  26.258  1.00  0.00    -0.744 OA
ENDBRANCH  91  95
ENDBRANCH  65  88
ENDBRANCH  39  40
ENDBRANCH  31  34
ENDBRANCH  29  30
ENDBRANCH  28  29
ENDBRANCH  27  28
ENDBRANCH  26  27
ENDBRANCH   1  26
TORSDOF 21
ENDMDL
