MODEL 1
REMARK VINA RESULT:     -13.4      0.000      0.000
REMARK SMILES O=C(NCCCCCCNC(=O)[C@H]1CC2=c3ccccc3=N[C@H]2[C@@H](c2ccccc2)[NH2+]1)c1ccc(-c2c3nc(c(-c4cc(S(=O)(=O)[O-])ccc4F)c4ccc([nH]4)c(-c4cc(S(=O)(=O)[O-])ccc4F)c4nc(c(-c5cc(S(=O)(=O)[O-])ccc5F)c5ccc2[nH]5)C=C4)C=C3)cc1
REMARK SMILES IDX 5 1 4 2 3 3 1 4 2 5 32 7 33 8 94 9 34 10 93 11 35 12 36 13
REMARK SMILES IDX 37 14 87 15 38 16 92 17 86 18 88 19 39 20 91 21 85 22 84 23
REMARK SMILES IDX 40 25 72 26 52 27 71 28 53 29 56 30 70 31 89 32 54 33 55 34
REMARK SMILES IDX 69 36 90 37 57 38 41 39 42 40 50 41 43 42 49 43 51 44 48 45
REMARK SMILES IDX 44 46 45 47 46 48 47 49 73 50 74 51 82 52 75 53 81 54 83 55
REMARK SMILES IDX 80 56 76 57 77 58 78 59 79 60 58 61 59 62 67 63 60 64 66 65
REMARK SMILES IDX 68 66 65 67 61 68 62 69 63 70 64 71 6 72 7 73 8 74 9 75
REMARK SMILES IDX 10 76 11 77 12 79 13 80 14 81 31 82 15 83 24 84 16 87 23 88
REMARK SMILES IDX 17 89 21 90 22 91 18 92 20 93 19 94 25 95 26 96 30 97 27 98
REMARK SMILES IDX 29 99 28 100
REMARK H PARENT 3 6 88 24 56 35 10 78 31 85 31 86
REMARK Flexibility Score: inf
ROOT
ATOM      1  C   UNL A   1      35.947  21.008  24.986  1.00  0.00     0.021 C 
ENDROOT
BRANCH   1   2
ATOM      2  C   UNL A   1      37.349  21.595  25.118  1.00  0.00     0.116 C 
BRANCH   2   3
ATOM      3  N   UNL A   1      38.296  20.596  25.575  1.00  0.00    -0.352 N 
ATOM      4  O   UNL A   1      40.310  19.817  26.190  1.00  0.00    -0.269 OA
ATOM      5  C   UNL A   1      39.543  20.771  26.119  1.00  0.00     0.251 C 
ATOM      6  H   UNL A   1      38.003  19.661  25.482  1.00  0.00     0.163 HD
BRANCH   5   7
ATOM      7  C   UNL A   1      39.956  22.096  26.632  1.00  0.00     0.039 A 
ATOM      8  C   UNL A   1      39.344  23.239  26.112  1.00  0.00     0.014 A 
ATOM      9  C   UNL A   1      41.004  22.220  27.551  1.00  0.00     0.014 A 
ATOM     10  C   UNL A   1      39.787  24.504  26.503  1.00  0.00     0.010 A 
ATOM     11  C   UNL A   1      41.403  23.480  27.989  1.00  0.00     0.010 A 
ATOM     12  C   UNL A   1      40.827  24.634  27.437  1.00  0.00    -0.014 A 
BRANCH  12  13
ATOM     13  C   UNL A   1      41.397  25.965  27.764  1.00  0.00     0.031 A 
ATOM     14  C   UNL A   1      42.793  26.301  27.311  1.00  0.00     0.074 A 
ATOM     15  C   UNL A   1      40.678  26.855  28.472  1.00  0.00     0.049 A 
ATOM     16  N   UNL A   1      43.493  27.383  27.527  1.00  0.00    -0.248 NA
ATOM     17  C   UNL A   1      43.506  25.275  26.531  1.00  0.00     0.031 C 
ATOM     18  C   UNL A   1      39.323  26.630  28.975  1.00  0.00     0.029 A 
ATOM     19  N   UNL A   1      40.982  28.128  28.890  1.00  0.00    -0.354 N 
ATOM     20  C   UNL A   1      44.726  27.165  26.923  1.00  0.00     0.074 A 
ATOM     21  C   UNL A   1      44.702  25.824  26.384  1.00  0.00     0.031 C 
ATOM     22  C   UNL A   1      38.903  27.735  29.612  1.00  0.00     0.029 A 
ATOM     23  C   UNL A   1      39.970  28.736  29.595  1.00  0.00     0.049 A 
ATOM     24  H   UNL A   1      41.845  28.563  28.704  1.00  0.00     0.167 HD
ATOM     25  C   UNL A   1      45.772  28.015  26.801  1.00  0.00     0.034 A 
ATOM     26  C   UNL A   1      39.906  29.960  30.159  1.00  0.00     0.034 A 
ATOM     27  C   UNL A   1      45.765  29.362  27.308  1.00  0.00     0.049 A 
ATOM     28  C   UNL A   1      41.085  30.892  30.007  1.00  0.00     0.074 A 
ATOM     29  C   UNL A   1      46.758  30.318  27.202  1.00  0.00     0.029 A 
ATOM     30  N   UNL A   1      44.714  29.949  27.996  1.00  0.00    -0.354 N 
ATOM     31  N   UNL A   1      42.220  30.691  29.380  1.00  0.00    -0.248 NA
ATOM     32  C   UNL A   1      40.974  32.222  30.627  1.00  0.00     0.031 C 
ATOM     33  C   UNL A   1      46.328  31.467  27.865  1.00  0.00     0.029 A 
ATOM     34  C   UNL A   1      45.041  31.251  28.332  1.00  0.00     0.049 A 
ATOM     35  H   UNL A   1      43.861  29.506  28.213  1.00  0.00     0.167 HD
ATOM     36  C   UNL A   1      42.943  31.876  29.502  1.00  0.00     0.074 A 
ATOM     37  C   UNL A   1      42.109  32.795  30.246  1.00  0.00     0.031 C 
ATOM     38  C   UNL A   1      44.186  32.170  29.045  1.00  0.00     0.034 A 
BRANCH  25  39
ATOM     39  C   UNL A   1      47.002  27.548  26.067  1.00  0.00     0.023 A 
ATOM     40  C   UNL A   1      47.177  27.865  24.707  1.00  0.00     0.031 A 
ATOM     41  C   UNL A   1      47.936  26.691  26.676  1.00  0.00     0.131 A 
ATOM     42  C   UNL A   1      48.241  27.300  23.993  1.00  0.00     0.055 A 
ATOM     43  C   UNL A   1      49.018  26.165  25.971  1.00  0.00     0.041 A 
ATOM     44  F   UNL A   1      47.813  26.361  27.973  1.00  0.00    -0.206 F 
ATOM     45  C   UNL A   1      49.167  26.459  24.619  1.00  0.00     0.022 A 
BRANCH  42  46
ATOM     46  S   UNL A   1      48.435  27.591  22.214  1.00  0.00     0.124 S 
ATOM     47  O   UNL A   1      47.155  28.203  21.867  1.00  0.00    -0.237 OA
ATOM     48  O   UNL A   1      49.586  28.488  22.177  1.00  0.00    -0.237 OA
ATOM     49  O   UNL A   1      48.653  26.259  21.662  1.00  0.00    -0.744 OA
ENDBRANCH  42  46
ENDBRANCH  25  39
BRANCH  26  50
ATOM     50  C   UNL A   1      38.653  30.386  30.848  1.00  0.00     0.023 A 
ATOM     51  C   UNL A   1      37.625  31.045  30.151  1.00  0.00     0.031 A 
ATOM     52  C   UNL A   1      38.508  30.220  32.237  1.00  0.00     0.131 A 
ATOM     53  C   UNL A   1      36.526  31.562  30.852  1.00  0.00     0.055 A 
ATOM     54  C   UNL A   1      37.381  30.678  32.920  1.00  0.00     0.041 A 
ATOM     55  F   UNL A   1      39.468  29.609  32.948  1.00  0.00    -0.206 F 
ATOM     56  C   UNL A   1      36.390  31.368  32.230  1.00  0.00     0.022 A 
BRANCH  53  57
ATOM     57  S   UNL A   1      35.306  32.617  30.020  1.00  0.00     0.124 S 
ATOM     58  O   UNL A   1      34.366  32.903  31.098  1.00  0.00    -0.237 OA
ATOM     59  O   UNL A   1      36.129  33.743  29.584  1.00  0.00    -0.237 OA
ATOM     60  O   UNL A   1      34.797  31.772  28.944  1.00  0.00    -0.744 OA
ENDBRANCH  53  57
ENDBRANCH  26  50
BRANCH  38  61
ATOM     61  C   UNL A   1      44.748  33.546  29.302  1.00  0.00     0.023 A 
ATOM     62  C   UNL A   1      44.469  34.596  28.405  1.00  0.00     0.031 A 
ATOM     63  C   UNL A   1      45.692  33.771  30.318  1.00  0.00     0.131 A 
ATOM     64  C   UNL A   1      45.162  35.808  28.513  1.00  0.00     0.055 A 
ATOM     65  C   UNL A   1      46.347  34.996  30.450  1.00  0.00     0.041 A 
ATOM     66  F   UNL A   1      46.002  32.795  31.187  1.00  0.00    -0.206 F 
ATOM     67  C   UNL A   1      46.094  36.016  29.535  1.00  0.00     0.022 A 
BRANCH  64  68
ATOM     68  S   UNL A   1      44.954  37.119  27.277  1.00  0.00     0.124 S 
ATOM     69  O   UNL A   1      44.984  38.322  28.107  1.00  0.00    -0.237 OA
ATOM     70  O   UNL A   1      46.120  36.923  26.421  1.00  0.00    -0.237 OA
ATOM     71  O   UNL A   1      43.665  36.822  26.660  1.00  0.00    -0.744 OA
ENDBRANCH  64  68
ENDBRANCH  38  61
ENDBRANCH  12  13
ENDBRANCH   5   7
ENDBRANCH   2   3
ENDBRANCH   1   2
BRANCH   1  72
ATOM     72  C   UNL A   1      34.968  21.443  26.081  1.00  0.00     0.002 C 
BRANCH  72  73
ATOM     73  C   UNL A   1      33.579  20.799  26.007  1.00  0.00     0.002 C 
BRANCH  73  74
ATOM     74  C   UNL A   1      33.333  19.946  24.758  1.00  0.00     0.021 C 
BRANCH  74  75
ATOM     75  C   UNL A   1      32.369  20.589  23.757  1.00  0.00     0.116 C 
BRANCH  75  76
ATOM     76  N   UNL A   1      33.086  21.541  22.938  1.00  0.00    -0.351 N 
ATOM     77  C   UNL A   1      33.000  22.900  22.884  1.00  0.00     0.278 C 
ATOM     78  H   UNL A   1      33.742  21.144  22.321  1.00  0.00     0.163 HD
ATOM     79  O   UNL A   1      33.534  23.457  21.918  1.00  0.00    -0.268 OA
BRANCH  77  80
ATOM     80  C   UNL A   1      32.326  23.731  23.999  1.00  0.00     0.277 C 
ATOM     81  C   UNL A   1      33.288  24.550  24.897  1.00  0.00     0.109 C 
ATOM     82  N   UNL A   1      31.210  24.512  23.408  1.00  0.00    -0.327 N 
ATOM     83  C   UNL A   1      32.532  25.575  25.684  1.00  0.00    -0.024 C 
ATOM     84  C   UNL A   1      30.377  25.194  24.440  1.00  0.00     0.243 C 
ATOM     85  H   UNL A   1      30.615  23.880  22.873  1.00  0.00     0.347 HD
ATOM     86  H   UNL A   1      31.618  25.236  22.815  1.00  0.00     0.347 HD
ATOM     87  C   UNL A   1      32.865  26.779  26.137  1.00  0.00     0.002 A 
ATOM     88  C   UNL A   1      31.060  25.335  25.857  1.00  0.00     0.196 C 
ATOM     89  C   UNL A   1      34.028  27.602  26.089  1.00  0.00     0.010 A 
ATOM     90  C   UNL A   1      31.596  27.261  26.724  1.00  0.00     0.066 A 
ATOM     91  N   UNL A   1      30.556  26.486  26.650  1.00  0.00    -0.270 NA
ATOM     92  C   UNL A   1      33.959  28.841  26.607  1.00  0.00     0.001 A 
ATOM     93  C   UNL A   1      31.620  28.608  27.329  1.00  0.00     0.028 A 
ATOM     94  C   UNL A   1      32.748  29.335  27.245  1.00  0.00     0.002 A 
BRANCH  84  95
ATOM     95  C   UNL A   1      29.815  26.491  23.852  1.00  0.00     0.012 A 
ATOM     96  C   UNL A   1      30.643  27.474  23.280  1.00  0.00     0.010 A 
ATOM     97  C   UNL A   1      28.431  26.726  23.878  1.00  0.00     0.010 A 
ATOM     98  C   UNL A   1      30.112  28.672  22.800  1.00  0.00     0.001 A 
ATOM     99  C   UNL A   1      27.898  27.919  23.385  1.00  0.00     0.001 A 
ATOM    100  C   UNL A   1      28.739  28.896  22.856  1.00  0.00     0.000 A 
ENDBRANCH  84  95
ENDBRANCH  77  80
ENDBRANCH  75  76
ENDBRANCH  74  75
ENDBRANCH  73  74
ENDBRANCH  72  73
ENDBRANCH   1  72
TORSDOF 17
ENDMDL
MODEL 2
REMARK VINA RESULT:     -13.3      0.381      7.291
REMARK SMILES O=C(NCCCCCCNC(=O)[C@H]1CC2=c3ccccc3=N[C@H]2[C@@H](c2ccccc2)[NH2+]1)c1ccc(-c2c3nc(c(-c4cc(S(=O)(=O)[O-])ccc4F)c4ccc([nH]4)c(-c4cc(S(=O)(=O)[O-])ccc4F)c4nc(c(-c5cc(S(=O)(=O)[O-])ccc5F)c5ccc2[nH]5)C=C4)C=C3)cc1
REMARK SMILES IDX 5 1 4 2 3 3 1 4 2 5 32 7 33 8 94 9 34 10 93 11 35 12 36 13
REMARK SMILES IDX 37 14 87 15 38 16 92 17 86 18 88 19 39 20 91 21 85 22 84 23
REMARK SMILES IDX 40 25 72 26 52 27 71 28 53 29 56 30 70 31 89 32 54 33 55 34
REMARK SMILES IDX 69 36 90 37 57 38 41 39 42 40 50 41 43 42 49 43 51 44 48 45
REMARK SMILES IDX 44 46 45 47 46 48 47 49 73 50 74 51 82 52 75 53 81 54 83 55
REMARK SMILES IDX 80 56 76 57 77 58 78 59 79 60 58 61 59 62 67 63 60 64 66 65
REMARK SMILES IDX 68 66 65 67 61 68 62 69 63 70 64 71 6 72 7 73 8 74 9 75
REMARK SMILES IDX 10 76 11 77 12 79 13 80 14 81 31 82 15 83 24 84 16 87 23 88
REMARK SMILES IDX 17 89 21 90 22 91 18 92 20 93 19 94 25 95 26 96 30 97 27 98
REMARK SMILES IDX 29 99 28 100
REMARK H PARENT 3 6 88 24 56 35 10 78 31 85 31 86
REMARK Flexibility Score: inf
ROOT
ATOM      1  C   UNL A   1      35.697  20.896  25.004  1.00  0.00     0.021 C 
ENDROOT
BRANCH   1   2
ATOM      2  C   UNL A   1      37.036  21.535  25.363  1.00  0.00     0.116 C 
BRANCH   2   3
ATOM      3  N   UNL A   1      38.019  20.529  25.723  1.00  0.00    -0.352 N 
ATOM      4  O   UNL A   1      40.081  19.732  26.112  1.00  0.00    -0.269 OA
ATOM      5  C   UNL A   1      39.321  20.695  26.117  1.00  0.00     0.251 C 
ATOM      6  H   UNL A   1      37.706  19.596  25.676  1.00  0.00     0.163 HD
BRANCH   5   7
ATOM      7  C   UNL A   1      39.805  22.020  26.562  1.00  0.00     0.039 A 
ATOM      8  C   UNL A   1      39.250  23.166  25.987  1.00  0.00     0.014 A 
ATOM      9  C   UNL A   1      40.864  22.135  27.470  1.00  0.00     0.014 A 
ATOM     10  C   UNL A   1      39.761  24.424  26.313  1.00  0.00     0.010 A 
ATOM     11  C   UNL A   1      41.330  23.393  27.843  1.00  0.00     0.010 A 
ATOM     12  C   UNL A   1      40.812  24.547  27.236  1.00  0.00    -0.014 A 
BRANCH  12  13
ATOM     13  C   UNL A   1      41.451  25.861  27.494  1.00  0.00     0.031 A 
ATOM     14  C   UNL A   1      40.716  26.890  28.312  1.00  0.00     0.074 A 
ATOM     15  C   UNL A   1      42.668  26.135  26.988  1.00  0.00     0.049 A 
ATOM     16  N   UNL A   1      41.073  28.110  28.618  1.00  0.00    -0.248 NA
ATOM     17  C   UNL A   1      39.395  26.504  28.837  1.00  0.00     0.031 C 
ATOM     18  C   UNL A   1      43.462  25.220  26.169  1.00  0.00     0.029 A 
ATOM     19  N   UNL A   1      43.451  27.258  27.089  1.00  0.00    -0.354 N 
ATOM     20  C   UNL A   1      40.021  28.638  29.357  1.00  0.00     0.074 A 
ATOM     21  C   UNL A   1      38.987  27.630  29.403  1.00  0.00     0.031 C 
ATOM     22  C   UNL A   1      44.629  25.807  25.863  1.00  0.00     0.029 A 
ATOM     23  C   UNL A   1      44.655  27.155  26.432  1.00  0.00     0.049 A 
ATOM     24  H   UNL A   1      43.175  28.064  27.584  1.00  0.00     0.167 HD
ATOM     25  C   UNL A   1      39.938  29.843  29.968  1.00  0.00     0.034 A 
ATOM     26  C   UNL A   1      45.664  28.041  26.306  1.00  0.00     0.034 A 
ATOM     27  C   UNL A   1      40.993  30.821  29.948  1.00  0.00     0.049 A 
ATOM     28  C   UNL A   1      45.549  29.378  26.999  1.00  0.00     0.074 A 
ATOM     29  C   UNL A   1      41.024  32.055  30.569  1.00  0.00     0.029 A 
ATOM     30  N   UNL A   1      42.205  30.671  29.291  1.00  0.00    -0.354 N 
ATOM     31  N   UNL A   1      44.572  29.839  27.745  1.00  0.00    -0.248 NA
ATOM     32  C   UNL A   1      46.674  30.313  26.847  1.00  0.00     0.031 C 
ATOM     33  C   UNL A   1      42.234  32.672  30.250  1.00  0.00     0.029 A 
ATOM     34  C   UNL A   1      42.985  31.797  29.481  1.00  0.00     0.049 A 
ATOM     35  H   UNL A   1      42.471  29.880  28.767  1.00  0.00     0.167 HD
ATOM     36  C   UNL A   1      44.978  31.099  28.177  1.00  0.00     0.074 A 
ATOM     37  C   UNL A   1      46.297  31.322  27.623  1.00  0.00     0.031 C 
ATOM     38  C   UNL A   1      44.315  31.992  28.953  1.00  0.00     0.034 A 
BRANCH  25  39
ATOM     39  C   UNL A   1      38.689  30.175  30.745  1.00  0.00     0.023 A 
ATOM     40  C   UNL A   1      37.665  30.932  30.146  1.00  0.00     0.031 A 
ATOM     41  C   UNL A   1      38.566  29.849  32.107  1.00  0.00     0.131 A 
ATOM     42  C   UNL A   1      36.581  31.368  30.918  1.00  0.00     0.055 A 
ATOM     43  C   UNL A   1      37.463  30.249  32.861  1.00  0.00     0.041 A 
ATOM     44  F   UNL A   1      39.517  29.126  32.723  1.00  0.00    -0.206 F 
ATOM     45  C   UNL A   1      36.470  31.023  32.270  1.00  0.00     0.022 A 
BRANCH  42  46
ATOM     46  S   UNL A   1      35.300  32.440  30.214  1.00  0.00     0.124 S 
ATOM     47  O   UNL A   1      34.346  32.533  31.317  1.00  0.00    -0.237 OA
ATOM     48  O   UNL A   1      36.046  33.662  29.931  1.00  0.00    -0.237 OA
ATOM     49  O   UNL A   1      34.825  31.703  29.048  1.00  0.00    -0.744 OA
ENDBRANCH  42  46
ENDBRANCH  25  39
BRANCH  26  50
ATOM     50  C   UNL A   1      46.892  27.652  25.552  1.00  0.00     0.023 A 
ATOM     51  C   UNL A   1      47.063  28.008  24.202  1.00  0.00     0.031 A 
ATOM     52  C   UNL A   1      47.870  26.837  26.148  1.00  0.00     0.131 A 
ATOM     53  C   UNL A   1      48.154  27.505  23.480  1.00  0.00     0.055 A 
ATOM     54  C   UNL A   1      48.990  26.393  25.443  1.00  0.00     0.041 A 
ATOM     55  F   UNL A   1      47.745  26.459  27.430  1.00  0.00    -0.206 F 
ATOM     56  C   UNL A   1      49.128  26.714  24.097  1.00  0.00     0.022 A 
BRANCH  53  57
ATOM     57  S   UNL A   1      48.275  27.753  21.686  1.00  0.00     0.124 S 
ATOM     58  O   UNL A   1      49.370  28.713  21.585  1.00  0.00    -0.237 OA
ATOM     59  O   UNL A   1      48.574  26.402  21.215  1.00  0.00    -0.237 OA
ATOM     60  O   UNL A   1      46.955  28.257  21.318  1.00  0.00    -0.744 OA
ENDBRANCH  53  57
ENDBRANCH  26  50
BRANCH  38  61
ATOM     61  C   UNL A   1      44.984  33.302  29.289  1.00  0.00     0.023 A 
ATOM     62  C   UNL A   1      44.854  34.400  28.416  1.00  0.00     0.031 A 
ATOM     63  C   UNL A   1      45.883  33.408  30.364  1.00  0.00     0.131 A 
ATOM     64  C   UNL A   1      45.647  35.538  28.606  1.00  0.00     0.055 A 
ATOM     65  C   UNL A   1      46.636  34.563  30.576  1.00  0.00     0.041 A 
ATOM     66  F   UNL A   1      46.051  32.382  31.214  1.00  0.00    -0.206 F 
ATOM     67  C   UNL A   1      46.532  35.628  29.684  1.00  0.00     0.022 A 
BRANCH  64  68
ATOM     68  S   UNL A   1      45.632  36.900  27.407  1.00  0.00     0.124 S 
ATOM     69  O   UNL A   1      46.147  38.010  28.206  1.00  0.00    -0.237 OA
ATOM     70  O   UNL A   1      46.533  36.406  26.370  1.00  0.00    -0.237 OA
ATOM     71  O   UNL A   1      44.230  37.013  27.018  1.00  0.00    -0.744 OA
ENDBRANCH  64  68
ENDBRANCH  38  61
ENDBRANCH  12  13
ENDBRANCH   5   7
ENDBRANCH   2   3
ENDBRANCH   1   2
BRANCH   1  72
ATOM     72  C   UNL A   1      34.530  21.318  25.901  1.00  0.00     0.002 C 
BRANCH  72  73
ATOM     73  C   UNL A   1      33.246  20.498  25.729  1.00  0.00     0.002 C 
BRANCH  73  74
ATOM     74  C   UNL A   1      33.061  19.880  24.338  1.00  0.00     0.021 C 
BRANCH  74  75
ATOM     75  C   UNL A   1      32.198  20.730  23.401  1.00  0.00     0.116 C 
BRANCH  75  76
ATOM     76  N   UNL A   1      33.034  21.687  22.709  1.00  0.00    -0.351 N 
ATOM     77  C   UNL A   1      33.052  23.047  22.768  1.00  0.00     0.278 C 
ATOM     78  H   UNL A   1      33.697  21.290  22.098  1.00  0.00     0.163 HD
ATOM     79  O   UNL A   1      33.685  23.638  21.886  1.00  0.00    -0.268 OA
BRANCH  77  80
ATOM     80  C   UNL A   1      32.371  23.835  23.911  1.00  0.00     0.277 C 
ATOM     81  C   UNL A   1      33.326  24.650  24.821  1.00  0.00     0.109 C 
ATOM     82  N   UNL A   1      31.234  24.608  23.350  1.00  0.00    -0.327 N 
ATOM     83  C   UNL A   1      32.557  25.638  25.641  1.00  0.00    -0.024 C 
ATOM     84  C   UNL A   1      30.398  25.245  24.408  1.00  0.00     0.243 C 
ATOM     85  H   UNL A   1      30.647  23.978  22.804  1.00  0.00     0.347 HD
ATOM     86  H   UNL A   1      31.622  25.355  22.772  1.00  0.00     0.347 HD
ATOM     87  C   UNL A   1      32.869  26.837  26.123  1.00  0.00     0.002 A 
ATOM     88  C   UNL A   1      31.091  25.364  25.822  1.00  0.00     0.196 C 
ATOM     89  C   UNL A   1      34.014  27.685  26.086  1.00  0.00     0.010 A 
ATOM     90  C   UNL A   1      31.596  27.277  26.734  1.00  0.00     0.066 A 
ATOM     91  N   UNL A   1      30.571  26.482  26.648  1.00  0.00    -0.270 NA
ATOM     92  C   UNL A   1      33.924  28.908  26.636  1.00  0.00     0.001 A 
ATOM     93  C   UNL A   1      31.598  28.608  27.373  1.00  0.00     0.028 A 
ATOM     94  C   UNL A   1      32.710  29.360  27.298  1.00  0.00     0.002 A 
BRANCH  84  95
ATOM     95  C   UNL A   1      29.804  26.545  23.859  1.00  0.00     0.012 A 
ATOM     96  C   UNL A   1      30.608  27.574  23.336  1.00  0.00     0.010 A 
ATOM     97  C   UNL A   1      28.413  26.736  23.872  1.00  0.00     0.010 A 
ATOM     98  C   UNL A   1      30.046  28.772  22.893  1.00  0.00     0.001 A 
ATOM     99  C   UNL A   1      27.849  27.930  23.415  1.00  0.00     0.001 A 
ATOM    100  C   UNL A   1      28.666  28.951  22.935  1.00  0.00     0.000 A 
ENDBRANCH  84  95
ENDBRANCH  77  80
ENDBRANCH  75  76
ENDBRANCH  74  75
ENDBRANCH  73  74
ENDBRANCH  72  73
ENDBRANCH   1  72
TORSDOF 17
ENDMDL
MODEL 3
REMARK VINA RESULT:     -13.1      1.229      2.409
REMARK SMILES O=C(NCCCCCCNC(=O)[C@H]1CC2=c3ccccc3=N[C@H]2[C@@H](c2ccccc2)[NH2+]1)c1ccc(-c2c3nc(c(-c4cc(S(=O)(=O)[O-])ccc4F)c4ccc([nH]4)c(-c4cc(S(=O)(=O)[O-])ccc4F)c4nc(c(-c5cc(S(=O)(=O)[O-])ccc5F)c5ccc2[nH]5)C=C4)C=C3)cc1
REMARK SMILES IDX 5 1 4 2 3 3 1 4 2 5 32 7 33 8 94 9 34 10 93 11 35 12 36 13
REMARK SMILES IDX 37 14 87 15 38 16 92 17 86 18 88 19 39 20 91 21 85 22 84 23
REMARK SMILES IDX 40 25 72 26 52 27 71 28 53 29 56 30 70 31 89 32 54 33 55 34
REMARK SMILES IDX 69 36 90 37 57 38 41 39 42 40 50 41 43 42 49 43 51 44 48 45
REMARK SMILES IDX 44 46 45 47 46 48 47 49 73 50 74 51 82 52 75 53 81 54 83 55
REMARK SMILES IDX 80 56 76 57 77 58 78 59 79 60 58 61 59 62 67 63 60 64 66 65
REMARK SMILES IDX 68 66 65 67 61 68 62 69 63 70 64 71 6 72 7 73 8 74 9 75
REMARK SMILES IDX 10 76 11 77 12 79 13 80 14 81 31 82 15 83 24 84 16 87 23 88
REMARK SMILES IDX 17 89 21 90 22 91 18 92 20 93 19 94 25 95 26 96 30 97 27 98
REMARK SMILES IDX 29 99 28 100
REMARK H PARENT 3 6 88 24 56 35 10 78 31 85 31 86
REMARK Flexibility Score: inf
ROOT
ATOM      1  C   UNL A   1      36.261  22.075  24.233  1.00  0.00     0.021 C 
ENDROOT
BRANCH   1   2
ATOM      2  C   UNL A   1      36.947  22.325  25.573  1.00  0.00     0.116 C 
BRANCH   2   3
ATOM      3  N   UNL A   1      37.980  21.338  25.827  1.00  0.00    -0.352 N 
ATOM      4  O   UNL A   1      40.082  20.608  26.126  1.00  0.00    -0.269 OA
ATOM      5  C   UNL A   1      39.277  21.527  26.230  1.00  0.00     0.251 C 
ATOM      6  H   UNL A   1      37.712  20.400  25.691  1.00  0.00     0.163 HD
BRANCH   5   7
ATOM      7  C   UNL A   1      39.701  22.825  26.801  1.00  0.00     0.039 A 
ATOM      8  C   UNL A   1      39.088  23.993  26.342  1.00  0.00     0.014 A 
ATOM      9  C   UNL A   1      40.761  22.901  27.712  1.00  0.00     0.014 A 
ATOM     10  C   UNL A   1      39.541  25.237  26.787  1.00  0.00     0.010 A 
ATOM     11  C   UNL A   1      41.169  24.138  28.204  1.00  0.00     0.010 A 
ATOM     12  C   UNL A   1      40.592  25.319  27.714  1.00  0.00    -0.014 A 
BRANCH  12  13
ATOM     13  C   UNL A   1      41.171  26.631  28.097  1.00  0.00     0.031 A 
ATOM     14  C   UNL A   1      42.602  26.937  27.743  1.00  0.00     0.074 A 
ATOM     15  C   UNL A   1      40.428  27.530  28.769  1.00  0.00     0.049 A 
ATOM     16  N   UNL A   1      43.312  27.999  28.020  1.00  0.00    -0.248 NA
ATOM     17  C   UNL A   1      43.340  25.903  26.997  1.00  0.00     0.031 C 
ATOM     18  C   UNL A   1      39.038  27.332  29.178  1.00  0.00     0.029 A 
ATOM     19  N   UNL A   1      40.734  28.789  29.224  1.00  0.00    -0.354 N 
ATOM     20  C   UNL A   1      44.577  27.757  27.496  1.00  0.00     0.074 A 
ATOM     21  C   UNL A   1      44.556  26.424  26.938  1.00  0.00     0.031 C 
ATOM     22  C   UNL A   1      38.603  28.439  29.801  1.00  0.00     0.029 A 
ATOM     23  C   UNL A   1      39.693  29.414  29.869  1.00  0.00     0.049 A 
ATOM     24  H   UNL A   1      41.619  29.205  29.102  1.00  0.00     0.167 HD
ATOM     25  C   UNL A   1      45.648  28.582  27.456  1.00  0.00     0.034 A 
ATOM     26  C   UNL A   1      39.621  30.632  30.445  1.00  0.00     0.034 A 
ATOM     27  C   UNL A   1      45.641  29.922  27.980  1.00  0.00     0.049 A 
ATOM     28  C   UNL A   1      40.830  31.536  30.385  1.00  0.00     0.074 A 
ATOM     29  C   UNL A   1      46.662  30.854  27.954  1.00  0.00     0.029 A 
ATOM     30  N   UNL A   1      44.561  30.527  28.605  1.00  0.00    -0.354 N 
ATOM     31  N   UNL A   1      41.999  31.314  29.832  1.00  0.00    -0.248 NA
ATOM     32  C   UNL A   1      40.710  32.859  31.015  1.00  0.00     0.031 C 
ATOM     33  C   UNL A   1      46.216  32.005  28.603  1.00  0.00     0.029 A 
ATOM     34  C   UNL A   1      44.896  31.815  28.981  1.00  0.00     0.049 A 
ATOM     35  H   UNL A   1      43.685  30.103  28.759  1.00  0.00     0.167 HD
ATOM     36  C   UNL A   1      42.741  32.478  30.018  1.00  0.00     0.074 A 
ATOM     37  C   UNL A   1      41.881  33.409  30.719  1.00  0.00     0.031 C 
ATOM     38  C   UNL A   1      44.018  32.747  29.649  1.00  0.00     0.034 A 
BRANCH  25  39
ATOM     39  C   UNL A   1      46.914  28.093  26.798  1.00  0.00     0.023 A 
ATOM     40  C   UNL A   1      47.056  28.165  25.400  1.00  0.00     0.031 A 
ATOM     41  C   UNL A   1      47.920  27.449  27.539  1.00  0.00     0.131 A 
ATOM     42  C   UNL A   1      48.164  27.570  24.783  1.00  0.00     0.055 A 
ATOM     43  C   UNL A   1      49.043  26.895  26.923  1.00  0.00     0.041 A 
ATOM     44  F   UNL A   1      47.831  27.357  28.876  1.00  0.00    -0.206 F 
ATOM     45  C   UNL A   1      49.162  26.943  25.537  1.00  0.00     0.022 A 
BRANCH  42  46
ATOM     46  S   UNL A   1      48.328  27.539  22.978  1.00  0.00     0.124 S 
ATOM     47  O   UNL A   1      48.302  26.106  22.698  1.00  0.00    -0.237 OA
ATOM     48  O   UNL A   1      47.144  28.280  22.552  1.00  0.00    -0.237 OA
ATOM     49  O   UNL A   1      49.608  28.194  22.731  1.00  0.00    -0.744 OA
ENDBRANCH  42  46
ENDBRANCH  25  39
BRANCH  26  50
ATOM     50  C   UNL A   1      38.335  31.080  31.056  1.00  0.00     0.023 A 
ATOM     51  C   UNL A   1      37.341  31.706  30.284  1.00  0.00     0.031 A 
ATOM     52  C   UNL A   1      38.124  30.970  32.441  1.00  0.00     0.131 A 
ATOM     53  C   UNL A   1      36.209  32.248  30.910  1.00  0.00     0.055 A 
ATOM     54  C   UNL A   1      36.965  31.451  33.051  1.00  0.00     0.041 A 
ATOM     55  F   UNL A   1      39.051  30.392  33.222  1.00  0.00    -0.206 F 
ATOM     56  C   UNL A   1      36.007  32.109  32.286  1.00  0.00     0.022 A 
BRANCH  53  57
ATOM     57  S   UNL A   1      35.028  33.263  29.979  1.00  0.00     0.124 S 
ATOM     58  O   UNL A   1      34.425  32.283  29.082  1.00  0.00    -0.237 OA
ATOM     59  O   UNL A   1      34.159  33.765  31.041  1.00  0.00    -0.237 OA
ATOM     60  O   UNL A   1      35.868  34.272  29.341  1.00  0.00    -0.744 OA
ENDBRANCH  53  57
ENDBRANCH  26  50
BRANCH  38  61
ATOM     61  C   UNL A   1      44.595  34.105  29.962  1.00  0.00     0.023 A 
ATOM     62  C   UNL A   1      44.568  35.121  28.986  1.00  0.00     0.031 A 
ATOM     63  C   UNL A   1      45.323  34.335  31.142  1.00  0.00     0.131 A 
ATOM     64  C   UNL A   1      45.294  36.301  29.187  1.00  0.00     0.055 A 
ATOM     65  C   UNL A   1      46.006  35.532  31.359  1.00  0.00     0.041 A 
ATOM     66  F   UNL A   1      45.390  33.391  32.095  1.00  0.00    -0.206 F 
ATOM     67  C   UNL A   1      46.007  36.515  30.371  1.00  0.00     0.022 A 
BRANCH  64  68
ATOM     68  S   UNL A   1      45.421  37.556  27.884  1.00  0.00     0.124 S 
ATOM     69  O   UNL A   1      44.018  37.770  27.535  1.00  0.00    -0.237 OA
ATOM     70  O   UNL A   1      46.065  38.663  28.585  1.00  0.00    -0.237 OA
ATOM     71  O   UNL A   1      46.227  36.913  26.851  1.00  0.00    -0.744 OA
ENDBRANCH  64  68
ENDBRANCH  38  61
ENDBRANCH  12  13
ENDBRANCH   5   7
ENDBRANCH   2   3
ENDBRANCH   1   2
BRANCH   1  72
ATOM     72  C   UNL A   1      34.815  21.582  24.340  1.00  0.00     0.002 C 
BRANCH  72  73
ATOM     73  C   UNL A   1      34.654  20.118  24.764  1.00  0.00     0.002 C 
BRANCH  73  74
ATOM     74  C   UNL A   1      33.236  19.725  25.193  1.00  0.00     0.021 C 
BRANCH  74  75
ATOM     75  C   UNL A   1      32.187  20.798  24.890  1.00  0.00     0.116 C 
BRANCH  75  76
ATOM     76  N   UNL A   1      31.776  21.435  26.122  1.00  0.00    -0.351 N 
ATOM     77  C   UNL A   1      31.817  22.744  26.494  1.00  0.00     0.278 C 
ATOM     78  H   UNL A   1      31.408  20.823  26.801  1.00  0.00     0.163 HD
ATOM     79  O   UNL A   1      31.648  22.992  27.693  1.00  0.00    -0.268 OA
BRANCH  77  80
ATOM     80  C   UNL A   1      32.002  23.890  25.472  1.00  0.00     0.277 C 
ATOM     81  C   UNL A   1      30.747  24.249  24.636  1.00  0.00     0.109 C 
ATOM     82  N   UNL A   1      32.648  25.041  26.153  1.00  0.00    -0.327 N 
ATOM     83  C   UNL A   1      30.925  25.573  23.961  1.00  0.00    -0.024 C 
ATOM     84  C   UNL A   1      33.046  26.119  25.202  1.00  0.00     0.243 C 
ATOM     85  H   UNL A   1      33.482  24.708  26.638  1.00  0.00     0.347 HD
ATOM     86  H   UNL A   1      31.968  25.437  26.803  1.00  0.00     0.347 HD
ATOM     87  C   UNL A   1      30.062  26.524  23.615  1.00  0.00     0.002 A 
ATOM     88  C   UNL A   1      32.336  26.056  23.792  1.00  0.00     0.196 C 
ATOM     89  C   UNL A   1      28.653  26.709  23.717  1.00  0.00     0.010 A 
ATOM     90  C   UNL A   1      30.950  27.587  23.097  1.00  0.00     0.066 A 
ATOM     91  N   UNL A   1      32.232  27.375  23.119  1.00  0.00    -0.270 NA
ATOM     92  C   UNL A   1      28.130  27.882  23.318  1.00  0.00     0.001 A 
ATOM     93  C   UNL A   1      30.292  28.820  22.619  1.00  0.00     0.028 A 
ATOM     94  C   UNL A   1      28.960  28.933  22.749  1.00  0.00     0.002 A 
BRANCH  84  95
ATOM     95  C   UNL A   1      32.962  27.470  25.917  1.00  0.00     0.012 A 
ATOM     96  C   UNL A   1      34.022  28.396  25.896  1.00  0.00     0.010 A 
ATOM     97  C   UNL A   1      31.800  27.813  26.626  1.00  0.00     0.010 A 
ATOM     98  C   UNL A   1      33.942  29.597  26.601  1.00  0.00     0.001 A 
ATOM     99  C   UNL A   1      31.715  29.022  27.320  1.00  0.00     0.001 A 
ATOM    100  C   UNL A   1      32.790  29.909  27.316  1.00  0.00     0.000 A 
ENDBRANCH  84  95
ENDBRANCH  77  80
ENDBRANCH  75  76
ENDBRANCH  74  75
ENDBRANCH  73  74
ENDBRANCH  72  73
ENDBRANCH   1  72
TORSDOF 17
ENDMDL
