MODEL 1
REMARK VINA RESULT:     -12.4      0.000      0.000
REMARK SMILES COc1ccc(NC(=O)[C@@H]2[C@@H](C(=O)NCCCCCCNC(=O)c3ccc(-c4c5nc(c(-c6cc(S(=O)(=O)[O-])ccc6F)c6ccc([nH]6)c(-c6cc(S(=O)(=O)[O-])ccc6F)c6nc(c(-c7cc(S(=O)(=O)[O-])ccc7F)c7ccc4[nH]7)C=C6)C=C5)cc3)[C@H]3C=C[C@@H]2C3)cc1O
REMARK SMILES IDX 17 1 16 2 15 3 14 4 12 5 13 6 11 8 10 9 90 10 87 11 89 12
REMARK SMILES IDX 91 13 88 14 8 15 7 16 9 18 6 19 3 20 4 21 93 22 5 23 92 24
REMARK SMILES IDX 2 25 1 26 94 27 18 29 19 30 20 31 21 32 22 33 23 35 24 36
REMARK SMILES IDX 25 37 86 38 26 39 85 40 27 41 28 42 29 43 79 44 30 45 84 46
REMARK SMILES IDX 78 47 80 48 31 49 83 50 77 51 76 52 32 54 64 55 44 56 63 57
REMARK SMILES IDX 45 58 48 59 62 60 81 61 46 62 47 63 61 65 82 66 49 67 33 68
REMARK SMILES IDX 34 69 42 70 35 71 41 72 43 73 40 74 36 75 37 76 38 77 39 78
REMARK SMILES IDX 65 79 66 80 74 81 67 82 73 83 75 84 72 85 68 86 69 87 70 88
REMARK SMILES IDX 71 89 50 90 51 91 59 92 52 93 58 94 60 95 57 96 53 97 54 98
REMARK SMILES IDX 55 99 56 100
REMARK H PARENT 14 7 7 17 94 28 21 34 80 53 48 64
REMARK Flexibility Score: inf
ROOT
ATOM      1  C   UNL A   1      33.453  27.584  25.079  1.00  0.00     0.002 C 
ENDROOT
BRANCH   1   2
ATOM      2  C   UNL A   1      32.764  27.100  26.356  1.00  0.00     0.021 C 
BRANCH   2   3
ATOM      3  C   UNL A   1      31.428  26.354  26.193  1.00  0.00     0.116 C 
BRANCH   3   4
ATOM      4  N   UNL A   1      31.459  25.053  26.839  1.00  0.00    -0.356 N 
ATOM      5  C   UNL A   1      32.006  23.855  26.497  1.00  0.00     0.224 C 
ATOM      6  O   UNL A   1      31.768  22.930  27.280  1.00  0.00    -0.275 OA
ATOM      7  H   UNL A   1      30.988  25.035  27.702  1.00  0.00     0.163 HD
BRANCH   5   8
ATOM      8  C   UNL A   1      32.863  23.647  25.233  1.00  0.00     0.098 C 
ATOM      9  C   UNL A   1      32.815  22.143  24.770  1.00  0.00     0.099 C 
ATOM     10  C   UNL A   1      34.342  21.770  24.796  1.00  0.00     0.025 C 
ATOM     11  C   UNL A   1      34.382  23.896  25.476  1.00  0.00     0.025 C 
ATOM     12  C   UNL A   1      34.839  21.783  26.226  1.00  0.00    -0.027 C 
ATOM     13  C   UNL A   1      34.981  23.080  24.324  1.00  0.00     0.017 C 
ATOM     14  C   UNL A   1      34.885  23.062  26.624  1.00  0.00    -0.027 C 
BRANCH   9  15
ATOM     15  C   UNL A   1      32.223  21.531  23.483  1.00  0.00     0.228 C 
ATOM     16  N   UNL A   1      32.153  20.268  23.014  1.00  0.00    -0.326 N 
ATOM     17  H   UNL A   1      31.689  20.246  22.146  1.00  0.00     0.169 HD
ATOM     18  O   UNL A   1      31.659  22.340  22.714  1.00  0.00    -0.274 OA
BRANCH  16  19
ATOM     19  C   UNL A   1      32.544  18.984  23.396  1.00  0.00     0.045 A 
ATOM     20  C   UNL A   1      33.669  16.589  24.371  1.00  0.00     0.160 A 
ATOM     21  C   UNL A   1      33.790  16.948  23.042  1.00  0.00     0.052 A 
ATOM     22  C   UNL A   1      32.905  17.406  25.196  1.00  0.00     0.159 A 
ATOM     23  C   UNL A   1      33.126  18.074  22.547  1.00  0.00     0.030 A 
ATOM     24  C   UNL A   1      32.352  18.599  24.727  1.00  0.00     0.076 A 
BRANCH  20  25
ATOM     25  O   UNL A   1      34.241  15.486  24.943  1.00  0.00    -0.493 OA
ATOM     26  C   UNL A   1      35.592  15.643  25.376  1.00  0.00     0.278 C 
ENDBRANCH  20  25
BRANCH  22  27
ATOM     27  O   UNL A   1      32.700  17.056  26.501  1.00  0.00    -0.504 OA
ATOM     28  H   UNL A   1      33.298  17.344  27.163  1.00  0.00     0.293 HD
ENDBRANCH  22  27
ENDBRANCH  16  19
ENDBRANCH   9  15
ENDBRANCH   5   8
ENDBRANCH   3   4
ENDBRANCH   2   3
ENDBRANCH   1   2
BRANCH   1  29
ATOM     29  C   UNL A   1      33.261  29.070  24.748  1.00  0.00     0.002 C 
BRANCH  29  30
ATOM     30  C   UNL A   1      31.913  29.703  25.132  1.00  0.00     0.021 C 
BRANCH  30  31
ATOM     31  C   UNL A   1      31.798  30.264  26.554  1.00  0.00     0.116 C 
BRANCH  31  32
ATOM     32  N   UNL A   1      31.973  31.703  26.592  1.00  0.00    -0.352 N 
ATOM     33  C   UNL A   1      32.845  32.493  27.299  1.00  0.00     0.251 C 
ATOM     34  H   UNL A   1      31.359  32.201  26.007  1.00  0.00     0.163 HD
ATOM     35  O   UNL A   1      32.623  33.702  27.344  1.00  0.00    -0.269 OA
BRANCH  33  36
ATOM     36  C   UNL A   1      34.029  31.942  28.007  1.00  0.00     0.039 A 
ATOM     37  C   UNL A   1      34.978  32.844  28.502  1.00  0.00     0.014 A 
ATOM     38  C   UNL A   1      34.280  30.570  28.097  1.00  0.00     0.014 A 
ATOM     39  C   UNL A   1      36.149  32.378  29.111  1.00  0.00     0.010 A 
ATOM     40  C   UNL A   1      35.429  30.103  28.753  1.00  0.00     0.010 A 
ATOM     41  C   UNL A   1      36.380  31.001  29.263  1.00  0.00    -0.014 A 
BRANCH  41  42
ATOM     42  C   UNL A   1      37.604  30.518  29.964  1.00  0.00     0.031 A 
ATOM     43  C   UNL A   1      37.909  30.941  31.378  1.00  0.00     0.074 A 
ATOM     44  C   UNL A   1      38.459  29.703  29.311  1.00  0.00     0.049 A 
ATOM     45  N   UNL A   1      38.913  30.597  32.145  1.00  0.00    -0.248 NA
ATOM     46  C   UNL A   1      36.976  31.888  32.007  1.00  0.00     0.031 C 
ATOM     47  C   UNL A   1      38.303  29.258  27.924  1.00  0.00     0.029 A 
ATOM     48  N   UNL A   1      39.627  29.105  29.718  1.00  0.00    -0.354 N 
ATOM     49  C   UNL A   1      38.744  31.293  33.339  1.00  0.00     0.074 A 
ATOM     50  C   UNL A   1      37.558  32.109  33.178  1.00  0.00     0.031 C 
ATOM     51  C   UNL A   1      39.321  28.441  27.605  1.00  0.00     0.029 A 
ATOM     52  C   UNL A   1      40.220  28.328  28.748  1.00  0.00     0.049 A 
ATOM     53  H   UNL A   1      40.004  29.220  30.620  1.00  0.00     0.167 HD
ATOM     54  C   UNL A   1      39.498  31.245  34.466  1.00  0.00     0.034 A 
ATOM     55  C   UNL A   1      41.361  27.608  28.772  1.00  0.00     0.034 A 
ATOM     56  C   UNL A   1      40.662  30.406  34.626  1.00  0.00     0.049 A 
ATOM     57  C   UNL A   1      42.167  27.562  30.046  1.00  0.00     0.074 A 
ATOM     58  C   UNL A   1      41.436  30.214  35.759  1.00  0.00     0.029 A 
ATOM     59  N   UNL A   1      41.230  29.629  33.626  1.00  0.00    -0.354 N 
ATOM     60  N   UNL A   1      41.935  28.155  31.194  1.00  0.00    -0.248 NA
ATOM     61  C   UNL A   1      43.380  26.732  30.032  1.00  0.00     0.031 C 
ATOM     62  C   UNL A   1      42.509  29.380  35.425  1.00  0.00     0.029 A 
ATOM     63  C   UNL A   1      42.366  28.989  34.104  1.00  0.00     0.049 A 
ATOM     64  H   UNL A   1      40.879  29.542  32.710  1.00  0.00     0.167 HD
ATOM     65  C   UNL A   1      42.959  27.746  32.045  1.00  0.00     0.074 A 
ATOM     66  C   UNL A   1      43.789  26.833  31.287  1.00  0.00     0.031 C 
ATOM     67  C   UNL A   1      43.196  28.094  33.335  1.00  0.00     0.034 A 
BRANCH  54  68
ATOM     68  C   UNL A   1      39.112  32.147  35.616  1.00  0.00     0.023 A 
ATOM     69  C   UNL A   1      39.577  33.469  35.714  1.00  0.00     0.031 A 
ATOM     70  C   UNL A   1      38.239  31.679  36.615  1.00  0.00     0.131 A 
ATOM     71  C   UNL A   1      39.206  34.262  36.812  1.00  0.00     0.055 A 
ATOM     72  C   UNL A   1      37.820  32.495  37.668  1.00  0.00     0.041 A 
ATOM     73  F   UNL A   1      37.776  30.419  36.582  1.00  0.00    -0.206 F 
ATOM     74  C   UNL A   1      38.310  33.792  37.776  1.00  0.00     0.022 A 
BRANCH  71  75
ATOM     75  S   UNL A   1      39.984  35.888  37.014  1.00  0.00     0.124 S 
ATOM     76  O   UNL A   1      39.301  36.395  38.202  1.00  0.00    -0.237 OA
ATOM     77  O   UNL A   1      41.390  35.548  37.181  1.00  0.00    -0.237 OA
ATOM     78  O   UNL A   1      39.652  36.583  35.771  1.00  0.00    -0.744 OA
ENDBRANCH  71  75
ENDBRANCH  54  68
BRANCH  55  79
ATOM     79  C   UNL A   1      41.827  26.877  27.558  1.00  0.00     0.023 A 
ATOM     80  C   UNL A   1      41.632  25.492  27.425  1.00  0.00     0.031 A 
ATOM     81  C   UNL A   1      42.544  27.539  26.546  1.00  0.00     0.131 A 
ATOM     82  C   UNL A   1      42.202  24.805  26.343  1.00  0.00     0.055 A 
ATOM     83  C   UNL A   1      43.059  26.860  25.440  1.00  0.00     0.041 A 
ATOM     84  F   UNL A   1      42.756  28.863  26.619  1.00  0.00    -0.206 F 
ATOM     85  C   UNL A   1      42.905  25.481  25.343  1.00  0.00     0.022 A 
BRANCH  82  86
ATOM     86  S   UNL A   1      42.116  22.992  26.324  1.00  0.00     0.124 S 
ATOM     87  O   UNL A   1      42.653  22.682  25.003  1.00  0.00    -0.237 OA
ATOM     88  O   UNL A   1      42.959  22.639  27.460  1.00  0.00    -0.237 OA
ATOM     89  O   UNL A   1      40.691  22.719  26.498  1.00  0.00    -0.744 OA
ENDBRANCH  82  86
ENDBRANCH  55  79
BRANCH  67  90
ATOM     90  C   UNL A   1      44.387  27.452  34.005  1.00  0.00     0.023 A 
ATOM     91  C   UNL A   1      45.650  28.070  34.011  1.00  0.00     0.031 A 
ATOM     92  C   UNL A   1      44.270  26.186  34.605  1.00  0.00     0.131 A 
ATOM     93  C   UNL A   1      46.760  27.391  34.535  1.00  0.00     0.055 A 
ATOM     94  C   UNL A   1      45.365  25.542  35.186  1.00  0.00     0.041 A 
ATOM     95  F   UNL A   1      43.089  25.546  34.627  1.00  0.00    -0.206 F 
ATOM     96  C   UNL A   1      46.622  26.137  35.137  1.00  0.00     0.022 A 
BRANCH  93  97
ATOM     97  S   UNL A   1      48.408  28.118  34.313  1.00  0.00     0.124 S 
ATOM     98  O   UNL A   1      49.280  26.998  34.649  1.00  0.00    -0.237 OA
ATOM     99  O   UNL A   1      48.387  28.510  32.908  1.00  0.00    -0.237 OA
ATOM    100  O   UNL A   1      48.425  29.226  35.266  1.00  0.00    -0.744 OA
ENDBRANCH  93  97
ENDBRANCH  67  90
ENDBRANCH  41  42
ENDBRANCH  33  36
ENDBRANCH  31  32
ENDBRANCH  30  31
ENDBRANCH  29  30
ENDBRANCH   1  29
TORSDOF 20
ENDMDL
MODEL 2
REMARK VINA RESULT:     -12.2      5.144      8.739
REMARK SMILES COc1ccc(NC(=O)[C@@H]2[C@@H](C(=O)NCCCCCCNC(=O)c3ccc(-c4c5nc(c(-c6cc(S(=O)(=O)[O-])ccc6F)c6ccc([nH]6)c(-c6cc(S(=O)(=O)[O-])ccc6F)c6nc(c(-c7cc(S(=O)(=O)[O-])ccc7F)c7ccc4[nH]7)C=C6)C=C5)cc3)[C@H]3C=C[C@@H]2C3)cc1O
REMARK SMILES IDX 17 1 16 2 15 3 14 4 12 5 13 6 11 8 10 9 90 10 87 11 89 12
REMARK SMILES IDX 91 13 88 14 8 15 7 16 9 18 6 19 3 20 4 21 93 22 5 23 92 24
REMARK SMILES IDX 2 25 1 26 94 27 18 29 19 30 20 31 21 32 22 33 23 35 24 36
REMARK SMILES IDX 25 37 86 38 26 39 85 40 27 41 28 42 29 43 79 44 30 45 84 46
REMARK SMILES IDX 78 47 80 48 31 49 83 50 77 51 76 52 32 54 64 55 44 56 63 57
REMARK SMILES IDX 45 58 48 59 62 60 81 61 46 62 47 63 61 65 82 66 49 67 33 68
REMARK SMILES IDX 34 69 42 70 35 71 41 72 43 73 40 74 36 75 37 76 38 77 39 78
REMARK SMILES IDX 65 79 66 80 74 81 67 82 73 83 75 84 72 85 68 86 69 87 70 88
REMARK SMILES IDX 71 89 50 90 51 91 59 92 52 93 58 94 60 95 57 96 53 97 54 98
REMARK SMILES IDX 55 99 56 100
REMARK H PARENT 14 7 7 17 94 28 21 34 80 53 48 64
REMARK Flexibility Score: inf
ROOT
ATOM      1  C   UNL A   1      38.819  22.454  26.073  1.00  0.00     0.002 C 
ENDROOT
BRANCH   1   2
ATOM      2  C   UNL A   1      38.076  23.786  26.191  1.00  0.00     0.021 C 
BRANCH   2   3
ATOM      3  C   UNL A   1      36.595  23.803  25.779  1.00  0.00     0.116 C 
BRANCH   3   4
ATOM      4  N   UNL A   1      35.747  23.223  26.806  1.00  0.00    -0.356 N 
ATOM      5  C   UNL A   1      34.464  22.770  26.811  1.00  0.00     0.224 C 
ATOM      6  O   UNL A   1      34.046  22.396  27.911  1.00  0.00    -0.275 OA
ATOM      7  H   UNL A   1      36.193  23.140  27.679  1.00  0.00     0.163 HD
BRANCH   5   8
ATOM      8  C   UNL A   1      33.582  22.717  25.549  1.00  0.00     0.098 C 
ATOM      9  C   UNL A   1      32.186  22.065  25.872  1.00  0.00     0.099 C 
ATOM     10  C   UNL A   1      32.172  20.862  24.860  1.00  0.00     0.025 C 
ATOM     11  C   UNL A   1      34.159  21.788  24.438  1.00  0.00     0.025 C 
ATOM     12  C   UNL A   1      33.236  19.860  25.255  1.00  0.00    -0.027 C 
ATOM     13  C   UNL A   1      32.880  21.478  23.649  1.00  0.00     0.017 C 
ATOM     14  C   UNL A   1      34.427  20.409  24.978  1.00  0.00    -0.027 C 
BRANCH   9  15
ATOM     15  C   UNL A   1      30.778  22.696  25.842  1.00  0.00     0.228 C 
ATOM     16  N   UNL A   1      30.286  23.821  25.281  1.00  0.00    -0.326 N 
ATOM     17  H   UNL A   1      29.322  23.906  25.462  1.00  0.00     0.169 HD
ATOM     18  O   UNL A   1      29.883  22.041  26.418  1.00  0.00    -0.274 OA
BRANCH  16  19
ATOM     19  C   UNL A   1      30.742  24.899  24.521  1.00  0.00     0.045 A 
ATOM     20  C   UNL A   1      32.050  26.873  22.988  1.00  0.00     0.160 A 
ATOM     21  C   UNL A   1      31.746  27.085  24.320  1.00  0.00     0.052 A 
ATOM     22  C   UNL A   1      31.617  25.687  22.406  1.00  0.00     0.159 A 
ATOM     23  C   UNL A   1      30.992  26.149  25.034  1.00  0.00     0.030 A 
ATOM     24  C   UNL A   1      30.978  24.698  23.157  1.00  0.00     0.076 A 
BRANCH  20  25
ATOM     25  O   UNL A   1      32.742  27.742  22.191  1.00  0.00    -0.493 OA
ATOM     26  C   UNL A   1      33.843  28.408  22.811  1.00  0.00     0.278 C 
ENDBRANCH  20  25
BRANCH  22  27
ATOM     27  O   UNL A   1      31.833  25.463  21.075  1.00  0.00    -0.504 OA
ATOM     28  H   UNL A   1      31.623  24.630  20.700  1.00  0.00     0.293 HD
ENDBRANCH  22  27
ENDBRANCH  16  19
ENDBRANCH   9  15
ENDBRANCH   5   8
ENDBRANCH   3   4
ENDBRANCH   2   3
ENDBRANCH   1   2
BRANCH   1  29
ATOM     29  C   UNL A   1      38.203  21.439  25.101  1.00  0.00     0.002 C 
BRANCH  29  30
ATOM     30  C   UNL A   1      38.757  20.005  25.144  1.00  0.00     0.021 C 
BRANCH  30  31
ATOM     31  C   UNL A   1      39.546  19.611  26.398  1.00  0.00     0.116 C 
BRANCH  31  32
ATOM     32  N   UNL A   1      40.789  18.937  26.075  1.00  0.00    -0.352 N 
ATOM     33  C   UNL A   1      42.055  19.421  25.863  1.00  0.00     0.251 C 
ATOM     34  H   UNL A   1      40.709  17.960  25.994  1.00  0.00     0.163 HD
ATOM     35  O   UNL A   1      42.885  18.667  25.356  1.00  0.00    -0.269 OA
BRANCH  33  36
ATOM     36  C   UNL A   1      42.451  20.809  26.215  1.00  0.00     0.039 A 
ATOM     37  C   UNL A   1      42.668  21.716  25.171  1.00  0.00     0.014 A 
ATOM     38  C   UNL A   1      42.717  21.205  27.529  1.00  0.00     0.014 A 
ATOM     39  C   UNL A   1      43.115  23.015  25.442  1.00  0.00     0.010 A 
ATOM     40  C   UNL A   1      43.115  22.521  27.804  1.00  0.00     0.010 A 
ATOM     41  C   UNL A   1      43.324  23.440  26.764  1.00  0.00    -0.014 A 
BRANCH  41  42
ATOM     42  C   UNL A   1      43.745  24.844  27.042  1.00  0.00     0.031 A 
ATOM     43  C   UNL A   1      42.775  25.849  27.608  1.00  0.00     0.074 A 
ATOM     44  C   UNL A   1      45.011  25.219  26.765  1.00  0.00     0.049 A 
ATOM     45  N   UNL A   1      42.979  27.102  27.933  1.00  0.00    -0.248 NA
ATOM     46  C   UNL A   1      41.392  25.396  27.818  1.00  0.00     0.031 C 
ATOM     47  C   UNL A   1      46.034  24.354  26.172  1.00  0.00     0.029 A 
ATOM     48  N   UNL A   1      45.657  26.419  26.940  1.00  0.00    -0.354 N 
ATOM     49  C   UNL A   1      41.751  27.592  28.372  1.00  0.00     0.074 A 
ATOM     50  C   UNL A   1      40.800  26.508  28.234  1.00  0.00     0.031 C 
ATOM     51  C   UNL A   1      47.181  25.043  26.055  1.00  0.00     0.029 A 
ATOM     52  C   UNL A   1      46.972  26.406  26.532  1.00  0.00     0.049 A 
ATOM     53  H   UNL A   1      45.220  27.214  27.324  1.00  0.00     0.167 HD
ATOM     54  C   UNL A   1      41.452  28.823  28.856  1.00  0.00     0.034 A 
ATOM     55  C   UNL A   1      47.905  27.380  26.536  1.00  0.00     0.034 A 
ATOM     56  C   UNL A   1      42.415  29.887  29.016  1.00  0.00     0.049 A 
ATOM     57  C   UNL A   1      47.544  28.733  27.096  1.00  0.00     0.074 A 
ATOM     58  C   UNL A   1      42.231  31.136  29.586  1.00  0.00     0.029 A 
ATOM     59  N   UNL A   1      43.737  29.837  28.598  1.00  0.00    -0.354 N 
ATOM     60  N   UNL A   1      46.401  29.145  27.593  1.00  0.00    -0.248 NA
ATOM     61  C   UNL A   1      48.607  29.747  27.114  1.00  0.00     0.031 C 
ATOM     62  C   UNL A   1      43.418  31.864  29.447  1.00  0.00     0.029 A 
ATOM     63  C   UNL A   1      44.368  31.045  28.859  1.00  0.00     0.049 A 
ATOM     64  H   UNL A   1      44.167  29.057  28.177  1.00  0.00     0.167 HD
ATOM     65  C   UNL A   1      46.618  30.456  28.007  1.00  0.00     0.074 A 
ATOM     66  C   UNL A   1      48.008  30.754  27.731  1.00  0.00     0.031 C 
ATOM     67  C   UNL A   1      45.750  31.338  28.564  1.00  0.00     0.034 A 
BRANCH  54  68
ATOM     68  C   UNL A   1      40.014  29.109  29.225  1.00  0.00     0.023 A 
ATOM     69  C   UNL A   1      39.583  29.158  30.561  1.00  0.00     0.031 A 
ATOM     70  C   UNL A   1      39.066  29.364  28.216  1.00  0.00     0.131 A 
ATOM     71  C   UNL A   1      38.232  29.408  30.853  1.00  0.00     0.055 A 
ATOM     72  C   UNL A   1      37.739  29.679  28.516  1.00  0.00     0.041 A 
ATOM     73  F   UNL A   1      39.416  29.314  26.922  1.00  0.00    -0.206 F 
ATOM     74  C   UNL A   1      37.313  29.693  29.840  1.00  0.00     0.022 A 
BRANCH  71  75
ATOM     75  S   UNL A   1      37.671  29.263  32.572  1.00  0.00     0.124 S 
ATOM     76  O   UNL A   1      36.325  29.824  32.490  1.00  0.00    -0.237 OA
ATOM     77  O   UNL A   1      37.752  27.828  32.811  1.00  0.00    -0.237 OA
ATOM     78  O   UNL A   1      38.633  30.076  33.315  1.00  0.00    -0.744 OA
ENDBRANCH  71  75
ENDBRANCH  54  68
BRANCH  55  79
ATOM     79  C   UNL A   1      49.270  27.132  25.986  1.00  0.00     0.023 A 
ATOM     80  C   UNL A   1      49.624  27.568  24.699  1.00  0.00     0.031 A 
ATOM     81  C   UNL A   1      50.216  26.385  26.710  1.00  0.00     0.131 A 
ATOM     82  C   UNL A   1      50.863  27.200  24.151  1.00  0.00     0.055 A 
ATOM     83  C   UNL A   1      51.470  26.073  26.184  1.00  0.00     0.041 A 
ATOM     84  F   UNL A   1      49.932  25.947  27.948  1.00  0.00    -0.206 F 
ATOM     85  C   UNL A   1      51.793  26.465  24.889  1.00  0.00     0.022 A 
BRANCH  82  86
ATOM     86  S   UNL A   1      51.193  27.595  22.410  1.00  0.00     0.124 S 
ATOM     87  O   UNL A   1      50.205  26.768  21.726  1.00  0.00    -0.237 OA
ATOM     88  O   UNL A   1      50.958  29.034  22.380  1.00  0.00    -0.237 OA
ATOM     89  O   UNL A   1      52.584  27.187  22.228  1.00  0.00    -0.744 OA
ENDBRANCH  82  86
ENDBRANCH  55  79
BRANCH  67  90
ATOM     90  C   UNL A   1      46.301  32.695  28.934  1.00  0.00     0.023 A 
ATOM     91  C   UNL A   1      46.785  32.964  30.227  1.00  0.00     0.031 A 
ATOM     92  C   UNL A   1      46.299  33.743  27.998  1.00  0.00     0.131 A 
ATOM     93  C   UNL A   1      47.176  34.266  30.570  1.00  0.00     0.055 A 
ATOM     94  C   UNL A   1      46.752  35.023  28.327  1.00  0.00     0.041 A 
ATOM     95  F   UNL A   1      45.845  33.546  26.750  1.00  0.00    -0.206 F 
ATOM     96  C   UNL A   1      47.177  35.294  29.624  1.00  0.00     0.022 A 
BRANCH  93  97
ATOM     97  S   UNL A   1      47.569  34.625  32.305  1.00  0.00     0.124 S 
ATOM     98  O   UNL A   1      48.985  34.281  32.373  1.00  0.00    -0.237 OA
ATOM     99  O   UNL A   1      47.253  36.045  32.407  1.00  0.00    -0.237 OA
ATOM    100  O   UNL A   1      46.678  33.737  33.050  1.00  0.00    -0.744 OA
ENDBRANCH  93  97
ENDBRANCH  67  90
ENDBRANCH  41  42
ENDBRANCH  33  36
ENDBRANCH  31  32
ENDBRANCH  30  31
ENDBRANCH  29  30
ENDBRANCH   1  29
TORSDOF 20
ENDMDL
MODEL 3
REMARK VINA RESULT:     -12.2      4.675     10.086
REMARK SMILES COc1ccc(NC(=O)[C@@H]2[C@@H](C(=O)NCCCCCCNC(=O)c3ccc(-c4c5nc(c(-c6cc(S(=O)(=O)[O-])ccc6F)c6ccc([nH]6)c(-c6cc(S(=O)(=O)[O-])ccc6F)c6nc(c(-c7cc(S(=O)(=O)[O-])ccc7F)c7ccc4[nH]7)C=C6)C=C5)cc3)[C@H]3C=C[C@@H]2C3)cc1O
REMARK SMILES IDX 17 1 16 2 15 3 14 4 12 5 13 6 11 8 10 9 90 10 87 11 89 12
REMARK SMILES IDX 91 13 88 14 8 15 7 16 9 18 6 19 3 20 4 21 93 22 5 23 92 24
REMARK SMILES IDX 2 25 1 26 94 27 18 29 19 30 20 31 21 32 22 33 23 35 24 36
REMARK SMILES IDX 25 37 86 38 26 39 85 40 27 41 28 42 29 43 79 44 30 45 84 46
REMARK SMILES IDX 78 47 80 48 31 49 83 50 77 51 76 52 32 54 64 55 44 56 63 57
REMARK SMILES IDX 45 58 48 59 62 60 81 61 46 62 47 63 61 65 82 66 49 67 33 68
REMARK SMILES IDX 34 69 42 70 35 71 41 72 43 73 40 74 36 75 37 76 38 77 39 78
REMARK SMILES IDX 65 79 66 80 74 81 67 82 73 83 75 84 72 85 68 86 69 87 70 88
REMARK SMILES IDX 71 89 50 90 51 91 59 92 52 93 58 94 60 95 57 96 53 97 54 98
REMARK SMILES IDX 55 99 56 100
REMARK H PARENT 14 7 7 17 94 28 21 34 80 53 48 64
REMARK Flexibility Score: inf
ROOT
ATOM      1  C   UNL A   1      38.660  22.489  26.098  1.00  0.00     0.002 C 
ENDROOT
BRANCH   1   2
ATOM      2  C   UNL A   1      37.898  23.807  26.238  1.00  0.00     0.021 C 
BRANCH   2   3
ATOM      3  C   UNL A   1      36.405  23.799  25.868  1.00  0.00     0.116 C 
BRANCH   3   4
ATOM      4  N   UNL A   1      35.626  23.010  26.806  1.00  0.00    -0.356 N 
ATOM      5  C   UNL A   1      34.295  22.754  26.929  1.00  0.00     0.224 C 
ATOM      6  O   UNL A   1      33.984  22.074  27.912  1.00  0.00    -0.275 OA
ATOM      7  H   UNL A   1      36.174  22.568  27.494  1.00  0.00     0.163 HD
BRANCH   5   8
ATOM      8  C   UNL A   1      33.240  23.262  25.928  1.00  0.00     0.098 C 
ATOM      9  C   UNL A   1      31.807  22.741  26.318  1.00  0.00     0.099 C 
ATOM     10  C   UNL A   1      31.397  21.974  25.009  1.00  0.00     0.025 C 
ATOM     11  C   UNL A   1      33.442  22.700  24.488  1.00  0.00     0.025 C 
ATOM     12  C   UNL A   1      32.284  20.759  24.840  1.00  0.00    -0.027 C 
ATOM     13  C   UNL A   1      32.023  22.862  23.930  1.00  0.00     0.017 C 
ATOM     14  C   UNL A   1      33.505  21.196  24.504  1.00  0.00    -0.027 C 
BRANCH   9  15
ATOM     15  C   UNL A   1      30.568  23.535  26.782  1.00  0.00     0.228 C 
ATOM     16  N   UNL A   1      30.064  24.739  26.436  1.00  0.00    -0.326 N 
ATOM     17  H   UNL A   1      29.240  24.928  26.940  1.00  0.00     0.169 HD
ATOM     18  O   UNL A   1      29.847  22.961  27.627  1.00  0.00    -0.274 OA
BRANCH  16  19
ATOM     19  C   UNL A   1      30.368  25.794  25.576  1.00  0.00     0.045 A 
ATOM     20  C   UNL A   1      30.699  28.160  24.076  1.00  0.00     0.160 A 
ATOM     21  C   UNL A   1      29.968  27.096  23.583  1.00  0.00     0.052 A 
ATOM     22  C   UNL A   1      31.336  27.996  25.302  1.00  0.00     0.159 A 
ATOM     23  C   UNL A   1      29.913  25.887  24.283  1.00  0.00     0.030 A 
ATOM     24  C   UNL A   1      31.171  26.834  26.058  1.00  0.00     0.076 A 
BRANCH  20  25
ATOM     25  O   UNL A   1      30.852  29.366  23.451  1.00  0.00    -0.493 OA
ATOM     26  C   UNL A   1      29.963  29.617  22.362  1.00  0.00     0.278 C 
ENDBRANCH  20  25
BRANCH  22  27
ATOM     27  O   UNL A   1      32.126  28.995  25.797  1.00  0.00    -0.504 OA
ATOM     28  H   UNL A   1      32.456  29.659  25.224  1.00  0.00     0.293 HD
ENDBRANCH  22  27
ENDBRANCH  16  19
ENDBRANCH   9  15
ENDBRANCH   5   8
ENDBRANCH   3   4
ENDBRANCH   2   3
ENDBRANCH   1   2
BRANCH   1  29
ATOM     29  C   UNL A   1      38.005  21.441  25.188  1.00  0.00     0.002 C 
BRANCH  29  30
ATOM     30  C   UNL A   1      38.680  20.062  25.110  1.00  0.00     0.021 C 
BRANCH  30  31
ATOM     31  C   UNL A   1      39.538  19.649  26.310  1.00  0.00     0.116 C 
BRANCH  31  32
ATOM     32  N   UNL A   1      40.851  19.180  25.911  1.00  0.00    -0.352 N 
ATOM     33  C   UNL A   1      42.045  19.842  25.763  1.00  0.00     0.251 C 
ATOM     34  H   UNL A   1      40.894  18.218  25.712  1.00  0.00     0.163 HD
ATOM     35  O   UNL A   1      42.956  19.265  25.171  1.00  0.00    -0.269 OA
BRANCH  33  36
ATOM     36  C   UNL A   1      42.268  21.215  26.283  1.00  0.00     0.039 A 
ATOM     37  C   UNL A   1      42.443  22.249  25.357  1.00  0.00     0.014 A 
ATOM     38  C   UNL A   1      42.418  21.488  27.646  1.00  0.00     0.014 A 
ATOM     39  C   UNL A   1      42.731  23.548  25.790  1.00  0.00     0.010 A 
ATOM     40  C   UNL A   1      42.656  22.800  28.083  1.00  0.00     0.010 A 
ATOM     41  C   UNL A   1      42.820  23.845  27.160  1.00  0.00    -0.014 A 
BRANCH  41  42
ATOM     42  C   UNL A   1      43.071  25.244  27.610  1.00  0.00     0.031 A 
ATOM     43  C   UNL A   1      44.455  25.840  27.565  1.00  0.00     0.074 A 
ATOM     44  C   UNL A   1      42.042  25.979  28.081  1.00  0.00     0.049 A 
ATOM     45  N   UNL A   1      44.846  27.046  27.894  1.00  0.00    -0.248 NA
ATOM     46  C   UNL A   1      45.544  24.963  27.111  1.00  0.00     0.031 C 
ATOM     47  C   UNL A   1      40.663  25.504  28.219  1.00  0.00     0.029 A 
ATOM     48  N   UNL A   1      41.988  27.276  28.531  1.00  0.00    -0.354 N 
ATOM     49  C   UNL A   1      46.225  27.071  27.702  1.00  0.00     0.074 A 
ATOM     50  C   UNL A   1      46.605  25.744  27.263  1.00  0.00     0.031 C 
ATOM     51  C   UNL A   1      39.898  26.499  28.697  1.00  0.00     0.029 A 
ATOM     52  C   UNL A   1      40.732  27.673  28.931  1.00  0.00     0.049 A 
ATOM     53  H   UNL A   1      42.776  27.866  28.564  1.00  0.00     0.167 HD
ATOM     54  C   UNL A   1      47.088  28.105  27.862  1.00  0.00     0.034 A 
ATOM     55  C   UNL A   1      40.298  28.848  29.433  1.00  0.00     0.034 A 
ATOM     56  C   UNL A   1      46.693  29.433  28.272  1.00  0.00     0.049 A 
ATOM     57  C   UNL A   1      41.280  29.984  29.583  1.00  0.00     0.074 A 
ATOM     58  C   UNL A   1      47.476  30.571  28.371  1.00  0.00     0.029 A 
ATOM     59  N   UNL A   1      45.413  29.800  28.663  1.00  0.00    -0.354 N 
ATOM     60  N   UNL A   1      42.562  30.011  29.305  1.00  0.00    -0.248 NA
ATOM     61  C   UNL A   1      40.748  31.253  30.097  1.00  0.00     0.031 C 
ATOM     62  C   UNL A   1      46.687  31.606  28.888  1.00  0.00     0.029 A 
ATOM     63  C   UNL A   1      45.394  31.135  29.042  1.00  0.00     0.049 A 
ATOM     64  H   UNL A   1      44.631  29.201  28.670  1.00  0.00     0.167 HD
ATOM     65  C   UNL A   1      42.982  31.309  29.585  1.00  0.00     0.074 A 
ATOM     66  C   UNL A   1      41.812  32.039  30.023  1.00  0.00     0.031 C 
ATOM     67  C   UNL A   1      44.224  31.850  29.493  1.00  0.00     0.034 A 
BRANCH  54  68
ATOM     68  C   UNL A   1      48.558  27.846  27.625  1.00  0.00     0.023 A 
ATOM     69  C   UNL A   1      49.136  27.950  26.348  1.00  0.00     0.031 A 
ATOM     70  C   UNL A   1      49.398  27.517  28.705  1.00  0.00     0.131 A 
ATOM     71  C   UNL A   1      50.503  27.680  26.175  1.00  0.00     0.055 A 
ATOM     72  C   UNL A   1      50.770  27.316  28.536  1.00  0.00     0.041 A 
ATOM     73  F   UNL A   1      48.899  27.388  29.944  1.00  0.00    -0.206 F 
ATOM     74  C   UNL A   1      51.328  27.388  27.264  1.00  0.00     0.022 A 
BRANCH  71  75
ATOM     75  S   UNL A   1      51.172  27.623  24.490  1.00  0.00     0.124 S 
ATOM     76  O   UNL A   1      51.307  29.044  24.180  1.00  0.00    -0.237 OA
ATOM     77  O   UNL A   1      52.416  26.886  24.667  1.00  0.00    -0.237 OA
ATOM     78  O   UNL A   1      50.134  26.924  23.733  1.00  0.00    -0.744 OA
ENDBRANCH  71  75
ENDBRANCH  54  68
BRANCH  55  79
ATOM     79  C   UNL A   1      38.875  29.022  29.844  1.00  0.00     0.023 A 
ATOM     80  C   UNL A   1      37.879  29.324  28.901  1.00  0.00     0.031 A 
ATOM     81  C   UNL A   1      38.501  28.966  31.199  1.00  0.00     0.131 A 
ATOM     82  C   UNL A   1      36.575  29.623  29.330  1.00  0.00     0.055 A 
ATOM     83  C   UNL A   1      37.191  29.205  31.614  1.00  0.00     0.041 A 
ATOM     84  F   UNL A   1      39.412  28.676  32.142  1.00  0.00    -0.206 F 
ATOM     85  C   UNL A   1      36.222  29.554  30.679  1.00  0.00     0.022 A 
BRANCH  82  86
ATOM     86  S   UNL A   1      35.376  30.222  28.106  1.00  0.00     0.124 S 
ATOM     87  O   UNL A   1      34.842  31.406  28.769  1.00  0.00    -0.237 OA
ATOM     88  O   UNL A   1      36.226  30.463  26.946  1.00  0.00    -0.237 OA
ATOM     89  O   UNL A   1      34.443  29.105  27.972  1.00  0.00    -0.744 OA
ENDBRANCH  82  86
ENDBRANCH  55  79
BRANCH  67  90
ATOM     90  C   UNL A   1      44.356  33.312  29.845  1.00  0.00     0.023 A 
ATOM     91  C   UNL A   1      44.647  33.730  31.156  1.00  0.00     0.031 A 
ATOM     92  C   UNL A   1      44.144  34.302  28.869  1.00  0.00     0.131 A 
ATOM     93  C   UNL A   1      44.643  35.096  31.473  1.00  0.00     0.055 A 
ATOM     94  C   UNL A   1      44.207  35.663  29.176  1.00  0.00     0.041 A 
ATOM     95  F   UNL A   1      43.860  33.963  27.601  1.00  0.00    -0.206 F 
ATOM     96  C   UNL A   1      44.439  36.066  30.488  1.00  0.00     0.022 A 
BRANCH  93  97
ATOM     97  S   UNL A   1      44.787  35.584  33.215  1.00  0.00     0.124 S 
ATOM     98  O   UNL A   1      45.650  34.538  33.753  1.00  0.00    -0.237 OA
ATOM     99  O   UNL A   1      45.380  36.913  33.117  1.00  0.00    -0.237 OA
ATOM    100  O   UNL A   1      43.405  35.556  33.694  1.00  0.00    -0.744 OA
ENDBRANCH  93  97
ENDBRANCH  67  90
ENDBRANCH  41  42
ENDBRANCH  33  36
ENDBRANCH  31  32
ENDBRANCH  30  31
ENDBRANCH  29  30
ENDBRANCH   1  29
TORSDOF 20
ENDMDL
