MODEL 1
REMARK VINA RESULT:     -11.7      0.000      0.000
REMARK SMILES NC(=O)[C@@H]1CCC[N@@H+]1[C@@H](C(=O)NCCCCCCNC(=O)c1ccc(-c2c3nc(c(-c4cc(S(=O)(=O)[O-])ccc4F)c4ccc([nH]4)c(-c4cc(S(=O)(=O)[O-])ccc4F)c4nc(c(-c5cc(S(=O)(=O)[O-])ccc5F)c5ccc2[nH]5)C=C4)C=C3)cc1)c1c[nH]c2cc(OCc3ccccc3)ccc12
REMARK SMILES IDX 15 1 14 2 13 3 12 4 10 5 11 6 9 8 8 9 4 10 5 11 6 12 7 13
REMARK SMILES IDX 2 15 1 16 3 19 85 20 86 21 101 22 87 23 88 24 100 25 89 27
REMARK SMILES IDX 99 28 90 29 91 30 92 31 93 32 94 33 98 34 95 35 97 36 96 37
REMARK SMILES IDX 16 38 17 39 18 40 19 41 20 42 21 44 22 45 23 46 84 47 24 48
REMARK SMILES IDX 83 49 25 50 26 51 27 52 77 53 28 54 82 55 76 56 78 57 29 58
REMARK SMILES IDX 81 59 75 60 74 61 30 63 62 64 42 65 61 66 43 67 46 68 60 69
REMARK SMILES IDX 79 70 44 71 45 72 59 74 80 75 47 76 31 77 32 78 40 79 33 80
REMARK SMILES IDX 39 81 41 82 38 83 34 84 35 85 36 86 37 87 63 88 64 89 72 90
REMARK SMILES IDX 65 91 71 92 73 93 70 94 66 95 67 96 68 97 69 98 48 99 49 100
REMARK SMILES IDX 57 101 50 102 56 103 58 104 55 105 51 106 52 107 53 108
REMARK SMILES IDX 54 109
REMARK H PARENT 12 7 8 14 1 17 1 18 87 26 19 43 78 62 46 73
REMARK Flexibility Score: inf
ROOT
ATOM      1  C   UNL A   1      31.656  27.937  26.895  1.00  0.00     0.002 C 
ENDROOT
BRANCH   1   2
ATOM      2  C   UNL A   1      32.959  27.154  26.664  1.00  0.00     0.021 C 
BRANCH   2   3
ATOM      3  C   UNL A   1      32.777  25.769  26.007  1.00  0.00     0.116 C 
BRANCH   3   4
ATOM      4  N   UNL A   1      31.828  24.909  26.696  1.00  0.00    -0.351 N 
ATOM      5  C   UNL A   1      31.317  23.649  26.564  1.00  0.00     0.283 C 
ATOM      6  O   UNL A   1      30.493  23.413  27.459  1.00  0.00    -0.268 OA
ATOM      7  H   UNL A   1      31.446  25.364  27.481  1.00  0.00     0.163 HD
BRANCH   5   8
ATOM      8  C   UNL A   1      31.727  22.590  25.478  1.00  0.00     0.308 C 
BRANCH   8   9
ATOM      9  N   UNL A   1      33.200  22.212  25.383  1.00  0.00    -0.311 N 
ATOM     10  C   UNL A   1      33.672  20.933  25.948  1.00  0.00     0.275 C 
ATOM     11  C   UNL A   1      33.921  21.249  27.425  1.00  0.00     0.081 C 
ATOM     12  C   UNL A   1      34.334  22.714  27.427  1.00  0.00     0.068 C 
ATOM     13  C   UNL A   1      34.189  23.120  25.981  1.00  0.00     0.264 C 
ATOM     14  H   UNL A   1      33.170  22.213  24.363  1.00  0.00     0.349 HD
BRANCH  10  15
ATOM     15  C   UNL A   1      32.982  19.661  25.457  1.00  0.00     0.275 C 
ATOM     16  N   UNL A   1      32.796  18.695  26.409  1.00  0.00    -0.365 N 
ATOM     17  H   UNL A   1      32.358  17.846  26.169  1.00  0.00     0.159 HD
ATOM     18  H   UNL A   1      33.100  18.848  27.332  1.00  0.00     0.159 HD
ATOM     19  O   UNL A   1      32.688  19.417  24.291  1.00  0.00    -0.268 OA
ENDBRANCH  10  15
ENDBRANCH   8   9
BRANCH   8  20
ATOM     20  C   UNL A   1      31.264  22.996  23.998  1.00  0.00     0.044 A 
ATOM     21  C   UNL A   1      31.923  22.604  22.835  1.00  0.00     0.094 A 
ATOM     22  C   UNL A   1      30.729  24.268  23.555  1.00  0.00     0.009 A 
ATOM     23  N   UNL A   1      32.541  23.747  22.397  1.00  0.00    -0.361 N 
ATOM     24  C   UNL A   1      31.760  24.812  22.781  1.00  0.00     0.050 A 
ATOM     25  C   UNL A   1      29.658  25.116  23.893  1.00  0.00     0.015 A 
ATOM     26  H   UNL A   1      33.389  23.796  21.898  1.00  0.00     0.166 HD
ATOM     27  C   UNL A   1      31.945  26.193  22.657  1.00  0.00     0.073 A 
ATOM     28  C   UNL A   1      29.771  26.500  23.683  1.00  0.00     0.047 A 
ATOM     29  C   UNL A   1      30.961  27.029  23.196  1.00  0.00     0.121 A 
BRANCH  29  30
ATOM     30  O   UNL A   1      31.363  28.325  23.361  1.00  0.00    -0.489 OA
BRANCH  30  31
ATOM     31  C   UNL A   1      31.266  29.222  22.263  1.00  0.00     0.265 C 
BRANCH  31  32
ATOM     32  C   UNL A   1      30.039  30.061  22.498  1.00  0.00    -0.011 A 
ATOM     33  C   UNL A   1      29.045  30.141  21.511  1.00  0.00     0.007 A 
ATOM     34  C   UNL A   1      29.824  30.666  23.741  1.00  0.00     0.007 A 
ATOM     35  C   UNL A   1      27.850  30.812  21.769  1.00  0.00     0.000 A 
ATOM     36  C   UNL A   1      28.630  31.338  23.995  1.00  0.00     0.000 A 
ATOM     37  C   UNL A   1      27.644  31.407  23.011  1.00  0.00     0.000 A 
ENDBRANCH  31  32
ENDBRANCH  30  31
ENDBRANCH  29  30
ENDBRANCH   8  20
ENDBRANCH   5   8
ENDBRANCH   3   4
ENDBRANCH   2   3
ENDBRANCH   1   2
BRANCH   1  38
ATOM     38  C   UNL A   1      31.900  29.415  27.203  1.00  0.00     0.002 C 
BRANCH  38  39
ATOM     39  C   UNL A   1      33.071  30.053  26.449  1.00  0.00     0.021 C 
BRANCH  39  40
ATOM     40  C   UNL A   1      34.264  30.430  27.323  1.00  0.00     0.116 C 
BRANCH  40  41
ATOM     41  N   UNL A   1      34.146  31.793  27.816  1.00  0.00    -0.352 N 
ATOM     42  C   UNL A   1      34.805  32.374  28.876  1.00  0.00     0.251 C 
ATOM     43  H   UNL A   1      33.514  32.372  27.332  1.00  0.00     0.163 HD
ATOM     44  O   UNL A   1      34.379  33.400  29.384  1.00  0.00    -0.269 OA
BRANCH  42  45
ATOM     45  C   UNL A   1      36.034  31.730  29.387  1.00  0.00     0.039 A 
ATOM     46  C   UNL A   1      35.934  30.666  30.285  1.00  0.00     0.014 A 
ATOM     47  C   UNL A   1      37.287  32.182  28.959  1.00  0.00     0.014 A 
ATOM     48  C   UNL A   1      37.096  30.019  30.714  1.00  0.00     0.010 A 
ATOM     49  C   UNL A   1      38.435  31.494  29.335  1.00  0.00     0.010 A 
ATOM     50  C   UNL A   1      38.352  30.408  30.220  1.00  0.00    -0.014 A 
BRANCH  50  51
ATOM     51  C   UNL A   1      39.594  29.698  30.621  1.00  0.00     0.031 A 
ATOM     52  C   UNL A   1      40.370  30.163  31.825  1.00  0.00     0.074 A 
ATOM     53  C   UNL A   1      40.054  28.679  29.869  1.00  0.00     0.049 A 
ATOM     54  N   UNL A   1      41.514  29.732  32.290  1.00  0.00    -0.248 NA
ATOM     55  C   UNL A   1      39.794  31.282  32.585  1.00  0.00     0.031 C 
ATOM     56  C   UNL A   1      39.407  28.162  28.661  1.00  0.00     0.029 A 
ATOM     57  N   UNL A   1      41.179  27.901  29.999  1.00  0.00    -0.354 N 
ATOM     58  C   UNL A   1      41.800  30.531  33.392  1.00  0.00     0.074 A 
ATOM     59  C   UNL A   1      40.741  31.513  33.482  1.00  0.00     0.031 C 
ATOM     60  C   UNL A   1      40.131  27.141  28.177  1.00  0.00     0.029 A 
ATOM     61  C   UNL A   1      41.318  26.960  29.005  1.00  0.00     0.049 A 
ATOM     62  H   UNL A   1      41.824  28.008  30.735  1.00  0.00     0.167 HD
ATOM     63  C   UNL A   1      42.837  30.439  34.261  1.00  0.00     0.034 A 
ATOM     64  C   UNL A   1      42.299  26.062  28.780  1.00  0.00     0.034 A 
ATOM     65  C   UNL A   1      43.879  29.445  34.158  1.00  0.00     0.049 A 
ATOM     66  C   UNL A   1      43.464  26.004  29.736  1.00  0.00     0.074 A 
ATOM     67  C   UNL A   1      44.945  29.224  35.013  1.00  0.00     0.029 A 
ATOM     68  N   UNL A   1      43.994  28.514  33.133  1.00  0.00    -0.354 N 
ATOM     69  N   UNL A   1      43.694  26.733  30.805  1.00  0.00    -0.248 NA
ATOM     70  C   UNL A   1      44.498  24.998  29.462  1.00  0.00     0.031 C 
ATOM     71  C   UNL A   1      45.744  28.214  34.465  1.00  0.00     0.029 A 
ATOM     72  C   UNL A   1      45.133  27.745  33.313  1.00  0.00     0.049 A 
ATOM     73  H   UNL A   1      43.358  28.416  32.387  1.00  0.00     0.167 HD
ATOM     74  C   UNL A   1      44.882  26.251  31.345  1.00  0.00     0.074 A 
ATOM     75  C   UNL A   1      45.312  25.160  30.495  1.00  0.00     0.031 C 
ATOM     76  C   UNL A   1      45.556  26.668  32.447  1.00  0.00     0.034 A 
BRANCH  63  77
ATOM     77  C   UNL A   1      42.905  31.454  35.377  1.00  0.00     0.023 A 
ATOM     78  C   UNL A   1      43.481  32.723  35.187  1.00  0.00     0.031 A 
ATOM     79  C   UNL A   1      42.409  31.144  36.655  1.00  0.00     0.131 A 
ATOM     80  C   UNL A   1      43.618  33.601  36.273  1.00  0.00     0.055 A 
ATOM     81  C   UNL A   1      42.467  32.057  37.711  1.00  0.00     0.041 A 
ATOM     82  F   UNL A   1      41.866  29.942  36.905  1.00  0.00    -0.206 F 
ATOM     83  C   UNL A   1      43.089  33.288  37.527  1.00  0.00     0.022 A 
BRANCH  80  84
ATOM     84  S   UNL A   1      44.627  35.093  36.058  1.00  0.00     0.124 S 
ATOM     85  O   UNL A   1      45.871  34.534  35.535  1.00  0.00    -0.237 OA
ATOM     86  O   UNL A   1      43.834  35.877  35.118  1.00  0.00    -0.237 OA
ATOM     87  O   UNL A   1      44.718  35.643  37.409  1.00  0.00    -0.744 OA
ENDBRANCH  80  84
ENDBRANCH  63  77
BRANCH  64  88
ATOM     88  C   UNL A   1      42.239  25.157  27.596  1.00  0.00     0.023 A 
ATOM     89  C   UNL A   1      41.498  23.966  27.632  1.00  0.00     0.031 A 
ATOM     90  C   UNL A   1      42.958  25.449  26.422  1.00  0.00     0.131 A 
ATOM     91  C   UNL A   1      41.531  23.087  26.539  1.00  0.00     0.055 A 
ATOM     92  C   UNL A   1      42.942  24.599  25.315  1.00  0.00     0.041 A 
ATOM     93  F   UNL A   1      43.682  26.576  26.331  1.00  0.00    -0.206 F 
ATOM     94  C   UNL A   1      42.236  23.402  25.375  1.00  0.00     0.022 A 
BRANCH  91  95
ATOM     95  S   UNL A   1      40.711  21.476  26.695  1.00  0.00     0.124 S 
ATOM     96  O   UNL A   1      39.379  21.771  26.178  1.00  0.00    -0.237 OA
ATOM     97  O   UNL A   1      41.551  20.627  25.858  1.00  0.00    -0.237 OA
ATOM     98  O   UNL A   1      40.777  21.198  28.127  1.00  0.00    -0.744 OA
ENDBRANCH  91  95
ENDBRANCH  64  88
BRANCH  76  99
ATOM     99  C   UNL A   1      46.810  25.911  32.814  1.00  0.00     0.023 A 
ATOM    100  C   UNL A   1      48.047  26.191  32.208  1.00  0.00     0.031 A 
ATOM    101  C   UNL A   1      46.764  24.894  33.783  1.00  0.00     0.131 A 
ATOM    102  C   UNL A   1      49.176  25.426  32.538  1.00  0.00     0.055 A 
ATOM    103  C   UNL A   1      47.903  24.178  34.154  1.00  0.00     0.041 A 
ATOM    104  F   UNL A   1      45.607  24.582  34.391  1.00  0.00    -0.206 F 
ATOM    105  C   UNL A   1      49.115  24.434  33.522  1.00  0.00     0.022 A 
BRANCH 102 106
ATOM    106  S   UNL A   1      50.707  25.684  31.601  1.00  0.00     0.124 S 
ATOM    107  O   UNL A   1      50.418  24.989  30.352  1.00  0.00    -0.237 OA
ATOM    108  O   UNL A   1      50.783  27.139  31.518  1.00  0.00    -0.237 OA
ATOM    109  O   UNL A   1      51.731  25.058  32.437  1.00  0.00    -0.744 OA
ENDBRANCH 102 106
ENDBRANCH  76  99
ENDBRANCH  50  51
ENDBRANCH  42  45
ENDBRANCH  40  41
ENDBRANCH  39  40
ENDBRANCH  38  39
ENDBRANCH   1  38
TORSDOF 22
ENDMDL
MODEL 2
REMARK VINA RESULT:     -11.7      2.169      7.430
REMARK SMILES NC(=O)[C@@H]1CCC[N@@H+]1[C@@H](C(=O)NCCCCCCNC(=O)c1ccc(-c2c3nc(c(-c4cc(S(=O)(=O)[O-])ccc4F)c4ccc([nH]4)c(-c4cc(S(=O)(=O)[O-])ccc4F)c4nc(c(-c5cc(S(=O)(=O)[O-])ccc5F)c5ccc2[nH]5)C=C4)C=C3)cc1)c1c[nH]c2cc(OCc3ccccc3)ccc12
REMARK SMILES IDX 15 1 14 2 13 3 12 4 10 5 11 6 9 8 8 9 4 10 5 11 6 12 7 13
REMARK SMILES IDX 2 15 1 16 3 19 85 20 86 21 101 22 87 23 88 24 100 25 89 27
REMARK SMILES IDX 99 28 90 29 91 30 92 31 93 32 94 33 98 34 95 35 97 36 96 37
REMARK SMILES IDX 16 38 17 39 18 40 19 41 20 42 21 44 22 45 23 46 84 47 24 48
REMARK SMILES IDX 83 49 25 50 26 51 27 52 77 53 28 54 82 55 76 56 78 57 29 58
REMARK SMILES IDX 81 59 75 60 74 61 30 63 62 64 42 65 61 66 43 67 46 68 60 69
REMARK SMILES IDX 79 70 44 71 45 72 59 74 80 75 47 76 31 77 32 78 40 79 33 80
REMARK SMILES IDX 39 81 41 82 38 83 34 84 35 85 36 86 37 87 63 88 64 89 72 90
REMARK SMILES IDX 65 91 71 92 73 93 70 94 66 95 67 96 68 97 69 98 48 99 49 100
REMARK SMILES IDX 57 101 50 102 56 103 58 104 55 105 51 106 52 107 53 108
REMARK SMILES IDX 54 109
REMARK H PARENT 12 7 8 14 1 17 1 18 87 26 19 43 78 62 46 73
REMARK Flexibility Score: inf
ROOT
ATOM      1  C   UNL A   1      31.534  27.820  26.792  1.00  0.00     0.002 C 
ENDROOT
BRANCH   1   2
ATOM      2  C   UNL A   1      32.769  27.393  25.983  1.00  0.00     0.021 C 
BRANCH   2   3
ATOM      3  C   UNL A   1      32.981  25.868  25.874  1.00  0.00     0.116 C 
BRANCH   3   4
ATOM      4  N   UNL A   1      31.998  25.082  26.605  1.00  0.00    -0.351 N 
ATOM      5  C   UNL A   1      31.426  23.845  26.528  1.00  0.00     0.283 C 
ATOM      6  O   UNL A   1      30.600  23.684  27.437  1.00  0.00    -0.268 OA
ATOM      7  H   UNL A   1      31.645  25.586  27.374  1.00  0.00     0.163 HD
BRANCH   5   8
ATOM      8  C   UNL A   1      31.775  22.725  25.483  1.00  0.00     0.308 C 
BRANCH   8   9
ATOM      9  N   UNL A   1      33.236  22.312  25.352  1.00  0.00    -0.311 N 
ATOM     10  C   UNL A   1      33.690  21.021  25.903  1.00  0.00     0.275 C 
ATOM     11  C   UNL A   1      33.982  21.328  27.374  1.00  0.00     0.081 C 
ATOM     12  C   UNL A   1      34.429  22.782  27.370  1.00  0.00     0.068 C 
ATOM     13  C   UNL A   1      34.260  23.196  25.928  1.00  0.00     0.264 C 
ATOM     14  H   UNL A   1      33.182  22.317  24.333  1.00  0.00     0.349 HD
BRANCH  10  15
ATOM     15  C   UNL A   1      32.960  19.767  25.426  1.00  0.00     0.275 C 
ATOM     16  N   UNL A   1      32.794  18.793  26.373  1.00  0.00    -0.365 N 
ATOM     17  H   UNL A   1      32.332  17.955  26.143  1.00  0.00     0.159 HD
ATOM     18  H   UNL A   1      33.136  18.931  27.286  1.00  0.00     0.159 HD
ATOM     19  O   UNL A   1      32.616  19.541  24.269  1.00  0.00    -0.268 OA
ENDBRANCH  10  15
ENDBRANCH   8   9
BRANCH   8  20
ATOM     20  C   UNL A   1      31.263  23.065  24.002  1.00  0.00     0.044 A 
ATOM     21  C   UNL A   1      31.911  22.663  22.836  1.00  0.00     0.094 A 
ATOM     22  C   UNL A   1      30.667  24.300  23.534  1.00  0.00     0.009 A 
ATOM     23  N   UNL A   1      32.473  23.816  22.349  1.00  0.00    -0.361 N 
ATOM     24  C   UNL A   1      31.658  24.861  22.719  1.00  0.00     0.050 A 
ATOM     25  C   UNL A   1      29.570  25.115  23.870  1.00  0.00     0.015 A 
ATOM     26  H   UNL A   1      33.307  23.883  21.830  1.00  0.00     0.166 HD
ATOM     27  C   UNL A   1      31.783  26.243  22.548  1.00  0.00     0.073 A 
ATOM     28  C   UNL A   1      29.622  26.495  23.615  1.00  0.00     0.047 A 
ATOM     29  C   UNL A   1      30.778  27.056  23.085  1.00  0.00     0.121 A 
BRANCH  29  30
ATOM     30  O   UNL A   1      31.131  28.371  23.201  1.00  0.00    -0.489 OA
BRANCH  30  31
ATOM     31  C   UNL A   1      30.984  29.226  22.075  1.00  0.00     0.265 C 
BRANCH  31  32
ATOM     32  C   UNL A   1      29.808  30.120  22.363  1.00  0.00    -0.011 A 
ATOM     33  C   UNL A   1      29.519  30.496  23.683  1.00  0.00     0.007 A 
ATOM     34  C   UNL A   1      29.071  30.678  21.313  1.00  0.00     0.007 A 
ATOM     35  C   UNL A   1      28.512  31.422  23.947  1.00  0.00     0.000 A 
ATOM     36  C   UNL A   1      28.063  31.602  21.579  1.00  0.00     0.000 A 
ATOM     37  C   UNL A   1      27.787  31.976  22.894  1.00  0.00     0.000 A 
ENDBRANCH  31  32
ENDBRANCH  30  31
ENDBRANCH  29  30
ENDBRANCH   8  20
ENDBRANCH   5   8
ENDBRANCH   3   4
ENDBRANCH   2   3
ENDBRANCH   1   2
BRANCH   1  38
ATOM     38  C   UNL A   1      31.765  29.101  27.595  1.00  0.00     0.002 C 
BRANCH  38  39
ATOM     39  C   UNL A   1      31.973  30.367  26.757  1.00  0.00     0.021 C 
BRANCH  39  40
ATOM     40  C   UNL A   1      33.242  31.149  27.085  1.00  0.00     0.116 C 
BRANCH  40  41
ATOM     41  N   UNL A   1      32.950  32.555  27.314  1.00  0.00    -0.352 N 
ATOM     42  C   UNL A   1      33.499  33.395  28.256  1.00  0.00     0.251 C 
ATOM     43  H   UNL A   1      32.274  32.956  26.720  1.00  0.00     0.163 HD
ATOM     44  O   UNL A   1      32.940  34.439  28.556  1.00  0.00    -0.269 OA
BRANCH  42  45
ATOM     45  C   UNL A   1      34.774  33.008  28.896  1.00  0.00     0.039 A 
ATOM     46  C   UNL A   1      34.760  32.154  30.000  1.00  0.00     0.014 A 
ATOM     47  C   UNL A   1      35.984  33.489  28.387  1.00  0.00     0.014 A 
ATOM     48  C   UNL A   1      35.971  31.739  30.562  1.00  0.00     0.010 A 
ATOM     49  C   UNL A   1      37.187  33.022  28.905  1.00  0.00     0.010 A 
ATOM     50  C   UNL A   1      37.193  32.145  30.001  1.00  0.00    -0.014 A 
BRANCH  50  51
ATOM     51  C   UNL A   1      38.490  31.671  30.549  1.00  0.00     0.031 A 
ATOM     52  C   UNL A   1      39.261  30.597  29.829  1.00  0.00     0.074 A 
ATOM     53  C   UNL A   1      38.940  32.161  31.720  1.00  0.00     0.049 A 
ATOM     54  N   UNL A   1      40.367  29.993  30.183  1.00  0.00    -0.248 NA
ATOM     55  C   UNL A   1      38.695  30.119  28.559  1.00  0.00     0.031 C 
ATOM     56  C   UNL A   1      38.261  33.180  32.525  1.00  0.00     0.029 A 
ATOM     57  N   UNL A   1      40.067  31.864  32.446  1.00  0.00    -0.354 N 
ATOM     58  C   UNL A   1      40.624  29.059  29.185  1.00  0.00     0.074 A 
ATOM     59  C   UNL A   1      39.524  29.134  28.249  1.00  0.00     0.031 C 
ATOM     60  C   UNL A   1      38.996  33.438  33.619  1.00  0.00     0.029 A 
ATOM     61  C   UNL A   1      40.170  32.572  33.622  1.00  0.00     0.049 A 
ATOM     62  H   UNL A   1      40.737  31.206  32.153  1.00  0.00     0.167 HD
ATOM     63  C   UNL A   1      41.692  28.234  29.051  1.00  0.00     0.034 A 
ATOM     64  C   UNL A   1      41.099  32.519  34.599  1.00  0.00     0.034 A 
ATOM     65  C   UNL A   1      42.784  28.181  29.993  1.00  0.00     0.049 A 
ATOM     66  C   UNL A   1      42.257  31.564  34.448  1.00  0.00     0.074 A 
ATOM     67  C   UNL A   1      43.942  27.425  29.927  1.00  0.00     0.029 A 
ATOM     68  N   UNL A   1      42.851  28.905  31.177  1.00  0.00    -0.354 N 
ATOM     69  N   UNL A   1      42.514  30.724  33.470  1.00  0.00    -0.248 NA
ATOM     70  C   UNL A   1      43.254  31.555  35.526  1.00  0.00     0.031 C 
ATOM     71  C   UNL A   1      44.668  27.632  31.105  1.00  0.00     0.029 A 
ATOM     72  C   UNL A   1      44.009  28.582  31.868  1.00  0.00     0.049 A 
ATOM     73  H   UNL A   1      42.174  29.552  31.481  1.00  0.00     0.167 HD
ATOM     74  C   UNL A   1      43.718  30.110  33.805  1.00  0.00     0.074 A 
ATOM     75  C   UNL A   1      44.142  30.687  35.063  1.00  0.00     0.031 C 
ATOM     76  C   UNL A   1      44.412  29.158  33.131  1.00  0.00     0.034 A 
BRANCH  63  77
ATOM     77  C   UNL A   1      41.711  27.307  27.859  1.00  0.00     0.023 A 
ATOM     78  C   UNL A   1      41.276  25.973  27.953  1.00  0.00     0.031 A 
ATOM     79  C   UNL A   1      42.192  27.752  26.615  1.00  0.00     0.131 A 
ATOM     80  C   UNL A   1      41.403  25.113  26.851  1.00  0.00     0.055 A 
ATOM     81  C   UNL A   1      42.234  26.916  25.497  1.00  0.00     0.041 A 
ATOM     82  F   UNL A   1      42.642  29.008  26.467  1.00  0.00    -0.206 F 
ATOM     83  C   UNL A   1      41.853  25.583  25.615  1.00  0.00     0.022 A 
BRANCH  80  84
ATOM     84  S   UNL A   1      41.112  23.340  27.099  1.00  0.00     0.124 S 
ATOM     85  O   UNL A   1      39.653  23.280  27.105  1.00  0.00    -0.237 OA
ATOM     86  O   UNL A   1      41.771  22.748  25.941  1.00  0.00    -0.237 OA
ATOM     87  O   UNL A   1      41.746  23.066  28.388  1.00  0.00    -0.744 OA
ENDBRANCH  80  84
ENDBRANCH  63  77
BRANCH  64  88
ATOM     88  C   UNL A   1      40.972  33.376  35.811  1.00  0.00     0.023 A 
ATOM     89  C   UNL A   1      40.360  32.893  36.979  1.00  0.00     0.031 A 
ATOM     90  C   UNL A   1      41.423  34.709  35.809  1.00  0.00     0.131 A 
ATOM     91  C   UNL A   1      40.169  33.749  38.075  1.00  0.00     0.055 A 
ATOM     92  C   UNL A   1      41.284  35.539  36.923  1.00  0.00     0.041 A 
ATOM     93  F   UNL A   1      42.020  35.222  34.721  1.00  0.00    -0.206 F 
ATOM     94  C   UNL A   1      40.641  35.063  38.061  1.00  0.00     0.022 A 
BRANCH  91  95
ATOM     95  S   UNL A   1      39.212  33.144  39.492  1.00  0.00     0.124 S 
ATOM     96  O   UNL A   1      40.257  32.562  40.328  1.00  0.00    -0.237 OA
ATOM     97  O   UNL A   1      38.601  34.371  39.990  1.00  0.00    -0.237 OA
ATOM     98  O   UNL A   1      38.286  32.186  38.894  1.00  0.00    -0.744 OA
ENDBRANCH  91  95
ENDBRANCH  64  88
BRANCH  76  99
ATOM     99  C   UNL A   1      45.726  28.713  33.728  1.00  0.00     0.023 A 
ATOM    100  C   UNL A   1      46.932  29.374  33.437  1.00  0.00     0.031 A 
ATOM    101  C   UNL A   1      45.770  27.610  34.599  1.00  0.00     0.131 A 
ATOM    102  C   UNL A   1      48.138  28.893  33.968  1.00  0.00     0.055 A 
ATOM    103  C   UNL A   1      46.964  27.175  35.176  1.00  0.00     0.041 A 
ATOM    104  F   UNL A   1      44.648  26.939  34.909  1.00  0.00    -0.206 F 
ATOM    105  C   UNL A   1      48.159  27.810  34.852  1.00  0.00     0.022 A 
BRANCH 102 106
ATOM    106  S   UNL A   1      49.693  29.649  33.421  1.00  0.00     0.124 S 
ATOM    107  O   UNL A   1      49.274  31.010  33.107  1.00  0.00    -0.237 OA
ATOM    108  O   UNL A   1      50.545  29.500  34.597  1.00  0.00    -0.237 OA
ATOM    109  O   UNL A   1      50.083  28.838  32.269  1.00  0.00    -0.744 OA
ENDBRANCH 102 106
ENDBRANCH  76  99
ENDBRANCH  50  51
ENDBRANCH  42  45
ENDBRANCH  40  41
ENDBRANCH  39  40
ENDBRANCH  38  39
ENDBRANCH   1  38
TORSDOF 22
ENDMDL
MODEL 3
REMARK VINA RESULT:     -11.5      2.077      2.383
REMARK SMILES NC(=O)[C@@H]1CCC[N@@H+]1[C@@H](C(=O)NCCCCCCNC(=O)c1ccc(-c2c3nc(c(-c4cc(S(=O)(=O)[O-])ccc4F)c4ccc([nH]4)c(-c4cc(S(=O)(=O)[O-])ccc4F)c4nc(c(-c5cc(S(=O)(=O)[O-])ccc5F)c5ccc2[nH]5)C=C4)C=C3)cc1)c1c[nH]c2cc(OCc3ccccc3)ccc12
REMARK SMILES IDX 15 1 14 2 13 3 12 4 10 5 11 6 9 8 8 9 4 10 5 11 6 12 7 13
REMARK SMILES IDX 2 15 1 16 3 19 85 20 86 21 101 22 87 23 88 24 100 25 89 27
REMARK SMILES IDX 99 28 90 29 91 30 92 31 93 32 94 33 98 34 95 35 97 36 96 37
REMARK SMILES IDX 16 38 17 39 18 40 19 41 20 42 21 44 22 45 23 46 84 47 24 48
REMARK SMILES IDX 83 49 25 50 26 51 27 52 77 53 28 54 82 55 76 56 78 57 29 58
REMARK SMILES IDX 81 59 75 60 74 61 30 63 62 64 42 65 61 66 43 67 46 68 60 69
REMARK SMILES IDX 79 70 44 71 45 72 59 74 80 75 47 76 31 77 32 78 40 79 33 80
REMARK SMILES IDX 39 81 41 82 38 83 34 84 35 85 36 86 37 87 63 88 64 89 72 90
REMARK SMILES IDX 65 91 71 92 73 93 70 94 66 95 67 96 68 97 69 98 48 99 49 100
REMARK SMILES IDX 57 101 50 102 56 103 58 104 55 105 51 106 52 107 53 108
REMARK SMILES IDX 54 109
REMARK H PARENT 12 7 8 14 1 17 1 18 87 26 19 43 78 62 46 73
REMARK Flexibility Score: inf
ROOT
ATOM      1  C   UNL A   1      31.590  27.770  26.810  1.00  0.00     0.002 C 
ENDROOT
BRANCH   1   2
ATOM      2  C   UNL A   1      32.888  27.388  26.082  1.00  0.00     0.021 C 
BRANCH   2   3
ATOM      3  C   UNL A   1      33.065  25.877  25.817  1.00  0.00     0.116 C 
BRANCH   3   4
ATOM      4  N   UNL A   1      32.121  25.037  26.539  1.00  0.00    -0.351 N 
ATOM      5  C   UNL A   1      31.615  23.771  26.454  1.00  0.00     0.283 C 
ATOM      6  O   UNL A   1      30.795  23.563  27.359  1.00  0.00    -0.268 OA
ATOM      7  H   UNL A   1      31.739  25.518  27.309  1.00  0.00     0.163 HD
BRANCH   5   8
ATOM      8  C   UNL A   1      32.027  22.676  25.405  1.00  0.00     0.308 C 
BRANCH   8   9
ATOM      9  N   UNL A   1      33.507  22.332  25.289  1.00  0.00    -0.311 N 
ATOM     10  C   UNL A   1      34.012  21.054  25.829  1.00  0.00     0.275 C 
ATOM     11  C   UNL A   1      34.269  21.352  27.308  1.00  0.00     0.081 C 
ATOM     12  C   UNL A   1      34.650  22.824  27.330  1.00  0.00     0.068 C 
ATOM     13  C   UNL A   1      34.482  23.251  25.893  1.00  0.00     0.264 C 
ATOM     14  H   UNL A   1      33.467  22.349  24.270  1.00  0.00     0.349 HD
BRANCH  10  15
ATOM     15  C   UNL A   1      33.345  19.776  25.323  1.00  0.00     0.275 C 
ATOM     16  N   UNL A   1      32.734  19.018  26.285  1.00  0.00    -0.365 N 
ATOM     17  H   UNL A   1      32.282  18.179  26.037  1.00  0.00     0.159 HD
ATOM     18  H   UNL A   1      32.746  19.311  27.224  1.00  0.00     0.159 HD
ATOM     19  O   UNL A   1      33.406  19.349  24.174  1.00  0.00    -0.268 OA
ENDBRANCH  10  15
ENDBRANCH   8   9
BRANCH   8  20
ATOM     20  C   UNL A   1      31.518  23.005  23.920  1.00  0.00     0.044 A 
ATOM     21  C   UNL A   1      32.182  22.613  22.759  1.00  0.00     0.094 A 
ATOM     22  C   UNL A   1      30.903  24.227  23.446  1.00  0.00     0.009 A 
ATOM     23  N   UNL A   1      32.725  23.776  22.274  1.00  0.00    -0.361 N 
ATOM     24  C   UNL A   1      31.888  24.806  22.637  1.00  0.00     0.050 A 
ATOM     25  C   UNL A   1      29.788  25.022  23.775  1.00  0.00     0.015 A 
ATOM     26  H   UNL A   1      33.561  23.858  21.760  1.00  0.00     0.166 HD
ATOM     27  C   UNL A   1      31.988  26.189  22.465  1.00  0.00     0.073 A 
ATOM     28  C   UNL A   1      29.816  26.402  23.518  1.00  0.00     0.047 A 
ATOM     29  C   UNL A   1      30.965  26.984  22.994  1.00  0.00     0.121 A 
BRANCH  29  30
ATOM     30  O   UNL A   1      31.291  28.306  23.110  1.00  0.00    -0.489 OA
BRANCH  30  31
ATOM     31  C   UNL A   1      30.807  29.224  22.138  1.00  0.00     0.265 C 
BRANCH  31  32
ATOM     32  C   UNL A   1      29.600  29.891  22.739  1.00  0.00    -0.011 A 
ATOM     33  C   UNL A   1      29.699  31.197  23.244  1.00  0.00     0.007 A 
ATOM     34  C   UNL A   1      28.350  29.267  22.691  1.00  0.00     0.007 A 
ATOM     35  C   UNL A   1      28.560  31.869  23.686  1.00  0.00     0.000 A 
ATOM     36  C   UNL A   1      27.213  29.939  23.137  1.00  0.00     0.000 A 
ATOM     37  C   UNL A   1      27.319  31.239  23.630  1.00  0.00     0.000 A 
ENDBRANCH  31  32
ENDBRANCH  30  31
ENDBRANCH  29  30
ENDBRANCH   8  20
ENDBRANCH   5   8
ENDBRANCH   3   4
ENDBRANCH   2   3
ENDBRANCH   1   2
BRANCH   1  38
ATOM     38  C   UNL A   1      31.677  29.132  27.501  1.00  0.00     0.002 C 
BRANCH  38  39
ATOM     39  C   UNL A   1      32.296  30.252  26.658  1.00  0.00     0.021 C 
BRANCH  39  40
ATOM     40  C   UNL A   1      33.608  30.810  27.202  1.00  0.00     0.116 C 
BRANCH  40  41
ATOM     41  N   UNL A   1      33.491  32.227  27.508  1.00  0.00    -0.352 N 
ATOM     42  C   UNL A   1      34.151  32.944  28.481  1.00  0.00     0.251 C 
ATOM     43  H   UNL A   1      32.861  32.737  26.950  1.00  0.00     0.163 HD
ATOM     44  O   UNL A   1      33.726  34.030  28.846  1.00  0.00    -0.269 OA
BRANCH  42  45
ATOM     45  C   UNL A   1      35.379  32.373  29.074  1.00  0.00     0.039 A 
ATOM     46  C   UNL A   1      35.277  31.456  30.122  1.00  0.00     0.014 A 
ATOM     47  C   UNL A   1      36.631  32.745  28.577  1.00  0.00     0.014 A 
ATOM     48  C   UNL A   1      36.437  30.870  30.636  1.00  0.00     0.010 A 
ATOM     49  C   UNL A   1      37.777  32.111  29.044  1.00  0.00     0.010 A 
ATOM     50  C   UNL A   1      37.693  31.170  30.082  1.00  0.00    -0.014 A 
BRANCH  50  51
ATOM     51  C   UNL A   1      38.932  30.517  30.577  1.00  0.00     0.031 A 
ATOM     52  C   UNL A   1      39.587  31.010  31.840  1.00  0.00     0.074 A 
ATOM     53  C   UNL A   1      39.498  29.527  29.859  1.00  0.00     0.049 A 
ATOM     54  N   UNL A   1      40.711  30.630  32.392  1.00  0.00    -0.248 NA
ATOM     55  C   UNL A   1      38.901  32.094  32.557  1.00  0.00     0.031 C 
ATOM     56  C   UNL A   1      38.973  28.989  28.602  1.00  0.00     0.029 A 
ATOM     57  N   UNL A   1      40.645  28.803  30.075  1.00  0.00    -0.354 N 
ATOM     58  C   UNL A   1      40.870  31.434  33.516  1.00  0.00     0.074 A 
ATOM     59  C   UNL A   1      39.761  32.364  33.526  1.00  0.00     0.031 C 
ATOM     60  C   UNL A   1      39.782  28.007  28.173  1.00  0.00     0.029 A 
ATOM     61  C   UNL A   1      40.907  27.877  29.092  1.00  0.00     0.049 A 
ATOM     62  H   UNL A   1      41.225  28.935  30.859  1.00  0.00     0.167 HD
ATOM     63  C   UNL A   1      41.839  31.384  34.464  1.00  0.00     0.034 A 
ATOM     64  C   UNL A   1      41.945  27.028  28.941  1.00  0.00     0.034 A 
ATOM     65  C   UNL A   1      42.933  30.443  34.439  1.00  0.00     0.049 A 
ATOM     66  C   UNL A   1      43.033  27.019  29.986  1.00  0.00     0.074 A 
ATOM     67  C   UNL A   1      43.938  30.266  35.375  1.00  0.00     0.029 A 
ATOM     68  N   UNL A   1      43.173  29.525  33.423  1.00  0.00    -0.354 N 
ATOM     69  N   UNL A   1      43.142  27.750  31.072  1.00  0.00    -0.248 NA
ATOM     70  C   UNL A   1      44.132  26.065  29.790  1.00  0.00     0.031 C 
ATOM     71  C   UNL A   1      44.825  29.299  34.888  1.00  0.00     0.029 A 
ATOM     72  C   UNL A   1      44.330  28.810  33.690  1.00  0.00     0.049 A 
ATOM     73  H   UNL A   1      42.603  29.403  32.629  1.00  0.00     0.167 HD
ATOM     74  C   UNL A   1      44.306  27.321  31.702  1.00  0.00     0.074 A 
ATOM     75  C   UNL A   1      44.853  26.259  30.885  1.00  0.00     0.031 C 
ATOM     76  C   UNL A   1      44.871  27.762  32.855  1.00  0.00     0.034 A 
BRANCH  63  77
ATOM     77  C   UNL A   1      41.771  32.393  35.585  1.00  0.00     0.023 A 
ATOM     78  C   UNL A   1      40.957  32.190  36.714  1.00  0.00     0.031 A 
ATOM     79  C   UNL A   1      42.511  33.587  35.518  1.00  0.00     0.131 A 
ATOM     80  C   UNL A   1      40.841  33.195  37.686  1.00  0.00     0.055 A 
ATOM     81  C   UNL A   1      42.460  34.545  36.533  1.00  0.00     0.041 A 
ATOM     82  F   UNL A   1      43.290  33.849  34.457  1.00  0.00    -0.206 F 
ATOM     83  C   UNL A   1      41.609  34.359  37.618  1.00  0.00     0.022 A 
BRANCH  80  84
ATOM     84  S   UNL A   1      39.563  33.021  38.962  1.00  0.00     0.124 S 
ATOM     85  O   UNL A   1      40.323  32.428  40.060  1.00  0.00    -0.237 OA
ATOM     86  O   UNL A   1      39.124  34.397  39.158  1.00  0.00    -0.237 OA
ATOM     87  O   UNL A   1      38.580  32.133  38.343  1.00  0.00    -0.744 OA
ENDBRANCH  80  84
ENDBRANCH  63  77
BRANCH  64  88
ATOM     88  C   UNL A   1      42.022  26.131  27.752  1.00  0.00     0.023 A 
ATOM     89  C   UNL A   1      41.604  24.793  27.828  1.00  0.00     0.031 A 
ATOM     90  C   UNL A   1      42.555  26.586  26.533  1.00  0.00     0.131 A 
ATOM     91  C   UNL A   1      41.772  23.944  26.723  1.00  0.00     0.055 A 
ATOM     92  C   UNL A   1      42.666  25.752  25.418  1.00  0.00     0.041 A 
ATOM     93  F   UNL A   1      42.967  27.857  26.403  1.00  0.00    -0.206 F 
ATOM     94  C   UNL A   1      42.286  24.418  25.514  1.00  0.00     0.022 A 
BRANCH  91  95
ATOM     95  S   UNL A   1      41.391  22.181  26.918  1.00  0.00     0.124 S 
ATOM     96  O   UNL A   1      42.615  21.558  26.424  1.00  0.00    -0.237 OA
ATOM     97  O   UNL A   1      41.153  22.079  28.354  1.00  0.00    -0.237 OA
ATOM     98  O   UNL A   1      40.212  21.992  26.077  1.00  0.00    -0.744 OA
ENDBRANCH  91  95
ENDBRANCH  64  88
BRANCH  76  99
ATOM     99  C   UNL A   1      46.128  27.063  33.317  1.00  0.00     0.023 A 
ATOM    100  C   UNL A   1      46.080  25.900  34.104  1.00  0.00     0.031 A 
ATOM    101  C   UNL A   1      47.390  27.572  32.964  1.00  0.00     0.131 A 
ATOM    102  C   UNL A   1      47.272  25.314  34.558  1.00  0.00     0.055 A 
ATOM    103  C   UNL A   1      48.573  26.949  33.366  1.00  0.00     0.041 A 
ATOM    104  F   UNL A   1      47.494  28.683  32.217  1.00  0.00    -0.206 F 
ATOM    105  C   UNL A   1      48.518  25.821  34.177  1.00  0.00     0.022 A 
BRANCH 102 106
ATOM    106  S   UNL A   1      47.172  23.931  35.727  1.00  0.00     0.124 S 
ATOM    107  O   UNL A   1      45.908  23.307  35.350  1.00  0.00    -0.237 OA
ATOM    108  O   UNL A   1      48.377  23.169  35.414  1.00  0.00    -0.237 OA
ATOM    109  O   UNL A   1      47.176  24.585  37.034  1.00  0.00    -0.744 OA
ENDBRANCH 102 106
ENDBRANCH  76  99
ENDBRANCH  50  51
ENDBRANCH  42  45
ENDBRANCH  40  41
ENDBRANCH  39  40
ENDBRANCH  38  39
ENDBRANCH   1  38
TORSDOF 22
ENDMDL
