MODEL 1
REMARK VINA RESULT:     -11.2      0.000      0.000
REMARK SMILES CC[C@@](O)(C(=O)NCCCCCCNC(=O)c1ccc(-c2c3nc(c(-c4cc(S(=O)(=O)[O-])ccc4F)c4ccc([nH]4)c(-c4cc(S(=O)(=O)[O-])ccc4F)c4nc(c(-c5cc(S(=O)(=O)[O-])ccc5F)c5ccc2[nH]5)C=C4)C=C3)cc1)[C@H]1CCc2ccc(OC)cc21
REMARK SMILES IDX 11 1 10 2 9 3 8 4 7 5 5 6 6 7 3 9 2 10 1 11 4 12 80 14 81 15
REMARK SMILES IDX 90 16 82 17 83 18 89 19 84 20 86 21 85 22 87 23 88 24 12 25
REMARK SMILES IDX 13 26 14 27 15 28 16 30 17 31 18 32 79 33 19 34 78 35 20 36
REMARK SMILES IDX 21 37 22 38 72 39 23 40 77 41 71 42 73 43 24 44 76 45 70 46
REMARK SMILES IDX 69 47 25 49 57 50 37 51 56 52 38 53 41 54 55 55 74 56 39 57
REMARK SMILES IDX 40 58 54 60 75 61 42 62 26 63 27 64 35 65 28 66 34 67 36 68
REMARK SMILES IDX 33 69 29 70 30 71 31 72 32 73 58 74 59 75 67 76 60 77 66 78
REMARK SMILES IDX 68 79 65 80 61 81 62 82 63 83 64 84 43 85 44 86 52 87 45 88
REMARK SMILES IDX 51 89 53 90 50 91 46 92 47 93 48 94 49 95
REMARK H PARENT 7 8 4 13 14 29 73 48 41 59
REMARK Flexibility Score: inf
ROOT
ATOM      1  C   UNL A   1      33.413  27.721  23.483  1.00  0.00     0.002 C 
ENDROOT
BRANCH   1   2
ATOM      2  C   UNL A   1      32.333  28.555  22.787  1.00  0.00     0.002 C 
BRANCH   2   3
ATOM      3  C   UNL A   1      30.991  27.832  22.590  1.00  0.00     0.021 C 
BRANCH   3   4
ATOM      4  C   UNL A   1      30.906  26.480  23.302  1.00  0.00     0.116 C 
BRANCH   4   5
ATOM      5  N   UNL A   1      30.957  26.678  24.731  1.00  0.00    -0.354 N 
ATOM      6  C   UNL A   1      31.084  25.807  25.763  1.00  0.00     0.252 C 
ATOM      7  O   UNL A   1      31.105  26.346  26.874  1.00  0.00    -0.272 OA
ATOM      8  H   UNL A   1      30.889  27.620  25.008  1.00  0.00     0.163 HD
BRANCH   6   9
ATOM      9  C   UNL A   1      31.229  24.260  25.542  1.00  0.00     0.149 C 
BRANCH   9  10
ATOM     10  C   UNL A   1      31.095  23.448  26.860  1.00  0.00     0.043 C 
ATOM     11  C   UNL A   1      29.693  22.917  27.154  1.00  0.00     0.007 C 
ENDBRANCH   9  10
BRANCH   9  12
ATOM     12  O   UNL A   1      30.120  23.878  24.696  1.00  0.00    -0.379 OA
ATOM     13  H   UNL A   1      30.221  24.292  23.825  1.00  0.00     0.212 HD
ENDBRANCH   9  12
BRANCH   9  14
ATOM     14  C   UNL A   1      32.571  23.932  24.796  1.00  0.00     0.061 C 
ATOM     15  C   UNL A   1      33.815  24.561  25.492  1.00  0.00     0.017 C 
ATOM     16  C   UNL A   1      33.019  22.488  24.692  1.00  0.00    -0.035 A 
ATOM     17  C   UNL A   1      35.024  23.739  25.033  1.00  0.00     0.036 C 
ATOM     18  C   UNL A   1      34.401  22.387  24.895  1.00  0.00    -0.044 A 
ATOM     19  C   UNL A   1      32.254  21.339  24.533  1.00  0.00     0.050 A 
ATOM     20  C   UNL A   1      35.026  21.154  24.985  1.00  0.00     0.008 A 
ATOM     21  C   UNL A   1      32.856  20.087  24.679  1.00  0.00     0.119 A 
ATOM     22  C   UNL A   1      34.239  20.002  24.897  1.00  0.00     0.047 A 
BRANCH  21  23
ATOM     23  O   UNL A   1      32.190  18.889  24.652  1.00  0.00    -0.497 OA
ATOM     24  C   UNL A   1      32.912  17.757  25.132  1.00  0.00     0.278 C 
ENDBRANCH  21  23
ENDBRANCH   9  14
ENDBRANCH   6   9
ENDBRANCH   4   5
ENDBRANCH   3   4
ENDBRANCH   2   3
ENDBRANCH   1   2
BRANCH   1  25
ATOM     25  C   UNL A   1      34.384  28.532  24.343  1.00  0.00     0.021 C 
BRANCH  25  26
ATOM     26  C   UNL A   1      34.007  28.587  25.817  1.00  0.00     0.116 C 
BRANCH  26  27
ATOM     27  N   UNL A   1      33.622  29.929  26.224  1.00  0.00    -0.352 N 
ATOM     28  C   UNL A   1      34.139  30.700  27.232  1.00  0.00     0.251 C 
ATOM     29  H   UNL A   1      32.891  30.337  25.706  1.00  0.00     0.163 HD
ATOM     30  O   UNL A   1      33.542  31.713  27.597  1.00  0.00    -0.269 OA
BRANCH  28  31
ATOM     31  C   UNL A   1      35.399  30.293  27.887  1.00  0.00     0.039 A 
ATOM     32  C   UNL A   1      35.350  29.728  29.161  1.00  0.00     0.014 A 
ATOM     33  C   UNL A   1      36.624  30.458  27.233  1.00  0.00     0.014 A 
ATOM     34  C   UNL A   1      36.528  29.275  29.758  1.00  0.00     0.010 A 
ATOM     35  C   UNL A   1      37.783  29.934  27.796  1.00  0.00     0.010 A 
ATOM     36  C   UNL A   1      37.749  29.343  29.068  1.00  0.00    -0.014 A 
BRANCH  36  37
ATOM     37  C   UNL A   1      39.001  28.808  29.664  1.00  0.00     0.031 A 
ATOM     38  C   UNL A   1      39.532  29.387  30.947  1.00  0.00     0.074 A 
ATOM     39  C   UNL A   1      39.682  27.838  29.024  1.00  0.00     0.049 A 
ATOM     40  N   UNL A   1      40.633  29.099  31.592  1.00  0.00    -0.248 NA
ATOM     41  C   UNL A   1      38.733  30.453  31.570  1.00  0.00     0.031 C 
ATOM     42  C   UNL A   1      39.284  27.224  27.755  1.00  0.00     0.029 A 
ATOM     43  N   UNL A   1      40.853  27.200  29.346  1.00  0.00    -0.354 N 
ATOM     44  C   UNL A   1      40.664  29.952  32.690  1.00  0.00     0.074 A 
ATOM     45  C   UNL A   1      39.507  30.816  32.581  1.00  0.00     0.031 C 
ATOM     46  C   UNL A   1      40.177  26.278  27.425  1.00  0.00     0.029 A 
ATOM     47  C   UNL A   1      41.238  26.252  28.427  1.00  0.00     0.049 A 
ATOM     48  H   UNL A   1      41.369  27.401  30.160  1.00  0.00     0.167 HD
ATOM     49  C   UNL A   1      41.560  29.995  33.707  1.00  0.00     0.034 A 
ATOM     50  C   UNL A   1      42.330  25.461  28.387  1.00  0.00     0.034 A 
ATOM     51  C   UNL A   1      42.706  29.122  33.800  1.00  0.00     0.049 A 
ATOM     52  C   UNL A   1      43.335  25.556  29.506  1.00  0.00     0.074 A 
ATOM     53  C   UNL A   1      43.649  29.043  34.810  1.00  0.00     0.029 A 
ATOM     54  N   UNL A   1      43.074  28.186  32.840  1.00  0.00    -0.354 N 
ATOM     55  N   UNL A   1      43.324  26.332  30.566  1.00  0.00    -0.248 NA
ATOM     56  C   UNL A   1      44.498  24.661  29.428  1.00  0.00     0.031 C 
ATOM     57  C   UNL A   1      44.628  28.121  34.424  1.00  0.00     0.029 A 
ATOM     58  C   UNL A   1      44.252  27.555  33.217  1.00  0.00     0.049 A 
ATOM     59  H   UNL A   1      42.573  27.998  32.014  1.00  0.00     0.167 HD
ATOM     60  C   UNL A   1      44.461  25.995  31.296  1.00  0.00     0.074 A 
ATOM     61  C   UNL A   1      45.123  24.935  30.563  1.00  0.00     0.031 C 
ATOM     62  C   UNL A   1      44.912  26.510  32.469  1.00  0.00     0.034 A 
BRANCH  49  63
ATOM     63  C   UNL A   1      41.346  31.039  34.779  1.00  0.00     0.023 A 
ATOM     64  C   UNL A   1      40.231  31.003  35.636  1.00  0.00     0.031 A 
ATOM     65  C   UNL A   1      42.251  32.105  34.928  1.00  0.00     0.131 A 
ATOM     66  C   UNL A   1      40.005  32.053  36.539  1.00  0.00     0.055 A 
ATOM     67  C   UNL A   1      42.069  33.098  35.892  1.00  0.00     0.041 A 
ATOM     68  F   UNL A   1      43.323  32.209  34.126  1.00  0.00    -0.206 F 
ATOM     69  C   UNL A   1      40.931  33.086  36.692  1.00  0.00     0.022 A 
BRANCH  66  70
ATOM     70  S   UNL A   1      38.404  32.133  37.389  1.00  0.00     0.124 S 
ATOM     71  O   UNL A   1      38.818  32.325  38.777  1.00  0.00    -0.237 OA
ATOM     72  O   UNL A   1      37.765  33.275  36.747  1.00  0.00    -0.237 OA
ATOM     73  O   UNL A   1      37.799  30.834  37.101  1.00  0.00    -0.744 OA
ENDBRANCH  66  70
ENDBRANCH  49  63
BRANCH  50  74
ATOM     74  C   UNL A   1      42.539  24.521  27.248  1.00  0.00     0.023 A 
ATOM     75  C   UNL A   1      42.008  23.221  27.276  1.00  0.00     0.031 A 
ATOM     76  C   UNL A   1      43.306  24.894  26.130  1.00  0.00     0.131 A 
ATOM     77  C   UNL A   1      42.291  22.327  26.231  1.00  0.00     0.055 A 
ATOM     78  C   UNL A   1      43.535  24.021  25.067  1.00  0.00     0.041 A 
ATOM     79  F   UNL A   1      43.836  26.125  26.051  1.00  0.00    -0.206 F 
ATOM     80  C   UNL A   1      43.037  22.722  25.119  1.00  0.00     0.022 A 
BRANCH  77  81
ATOM     81  S   UNL A   1      41.743  20.605  26.390  1.00  0.00     0.124 S 
ATOM     82  O   UNL A   1      42.561  19.940  25.381  1.00  0.00    -0.237 OA
ATOM     83  O   UNL A   1      42.071  20.309  27.781  1.00  0.00    -0.237 OA
ATOM     84  O   UNL A   1      40.315  20.675  26.089  1.00  0.00    -0.744 OA
ENDBRANCH  77  81
ENDBRANCH  50  74
BRANCH  62  85
ATOM     85  C   UNL A   1      46.165  25.898  33.051  1.00  0.00     0.023 A 
ATOM     86  C   UNL A   1      46.120  24.779  33.900  1.00  0.00     0.031 A 
ATOM     87  C   UNL A   1      47.424  26.453  32.757  1.00  0.00     0.131 A 
ATOM     88  C   UNL A   1      47.303  24.288  34.474  1.00  0.00     0.055 A 
ATOM     89  C   UNL A   1      48.603  25.917  33.275  1.00  0.00     0.041 A 
ATOM     90  F   UNL A   1      47.528  27.525  31.956  1.00  0.00    -0.206 F 
ATOM     91  C   UNL A   1      48.546  24.837  34.150  1.00  0.00     0.022 A 
BRANCH  88  92
ATOM     92  S   UNL A   1      47.186  22.985  35.730  1.00  0.00     0.124 S 
ATOM     93  O   UNL A   1      45.869  23.238  36.307  1.00  0.00    -0.237 OA
ATOM     94  O   UNL A   1      47.310  21.769  34.934  1.00  0.00    -0.237 OA
ATOM     95  O   UNL A   1      48.314  23.262  36.618  1.00  0.00    -0.744 OA
ENDBRANCH  88  92
ENDBRANCH  62  85
ENDBRANCH  36  37
ENDBRANCH  28  31
ENDBRANCH  26  27
ENDBRANCH  25  26
ENDBRANCH   1  25
TORSDOF 20
ENDMDL
MODEL 2
REMARK VINA RESULT:     -11.1      4.388      9.500
REMARK SMILES CC[C@@](O)(C(=O)NCCCCCCNC(=O)c1ccc(-c2c3nc(c(-c4cc(S(=O)(=O)[O-])ccc4F)c4ccc([nH]4)c(-c4cc(S(=O)(=O)[O-])ccc4F)c4nc(c(-c5cc(S(=O)(=O)[O-])ccc5F)c5ccc2[nH]5)C=C4)C=C3)cc1)[C@H]1CCc2ccc(OC)cc21
REMARK SMILES IDX 11 1 10 2 9 3 8 4 7 5 5 6 6 7 3 9 2 10 1 11 4 12 80 14 81 15
REMARK SMILES IDX 90 16 82 17 83 18 89 19 84 20 86 21 85 22 87 23 88 24 12 25
REMARK SMILES IDX 13 26 14 27 15 28 16 30 17 31 18 32 79 33 19 34 78 35 20 36
REMARK SMILES IDX 21 37 22 38 72 39 23 40 77 41 71 42 73 43 24 44 76 45 70 46
REMARK SMILES IDX 69 47 25 49 57 50 37 51 56 52 38 53 41 54 55 55 74 56 39 57
REMARK SMILES IDX 40 58 54 60 75 61 42 62 26 63 27 64 35 65 28 66 34 67 36 68
REMARK SMILES IDX 33 69 29 70 30 71 31 72 32 73 58 74 59 75 67 76 60 77 66 78
REMARK SMILES IDX 68 79 65 80 61 81 62 82 63 83 64 84 43 85 44 86 52 87 45 88
REMARK SMILES IDX 51 89 53 90 50 91 46 92 47 93 48 94 49 95
REMARK H PARENT 7 8 4 13 14 29 73 48 41 59
REMARK Flexibility Score: inf
ROOT
ATOM      1  C   UNL A   1      35.859  20.851  24.985  1.00  0.00     0.002 C 
ENDROOT
BRANCH   1   2
ATOM      2  C   UNL A   1      34.378  20.633  24.659  1.00  0.00     0.002 C 
BRANCH   2   3
ATOM      3  C   UNL A   1      33.404  21.098  25.753  1.00  0.00     0.021 C 
BRANCH   3   4
ATOM      4  C   UNL A   1      31.992  21.391  25.238  1.00  0.00     0.116 C 
BRANCH   4   5
ATOM      5  N   UNL A   1      31.168  21.869  26.324  1.00  0.00    -0.354 N 
ATOM      6  C   UNL A   1      30.617  23.082  26.577  1.00  0.00     0.252 C 
ATOM      7  O   UNL A   1      29.948  23.122  27.614  1.00  0.00    -0.272 OA
ATOM      8  H   UNL A   1      30.968  21.188  27.005  1.00  0.00     0.163 HD
BRANCH   6   9
ATOM      9  C   UNL A   1      30.795  24.304  25.607  1.00  0.00     0.149 C 
BRANCH   9  10
ATOM     10  C   UNL A   1      30.976  23.874  24.124  1.00  0.00     0.043 C 
ATOM     11  C   UNL A   1      30.203  24.713  23.108  1.00  0.00     0.007 C 
ENDBRANCH   9  10
BRANCH   9  12
ATOM     12  O   UNL A   1      29.558  25.048  25.682  1.00  0.00    -0.379 OA
ATOM     13  H   UNL A   1      29.504  25.499  26.539  1.00  0.00     0.212 HD
ENDBRANCH   9  12
BRANCH   9  14
ATOM     14  C   UNL A   1      31.972  25.224  26.088  1.00  0.00     0.061 C 
ATOM     15  C   UNL A   1      33.374  24.637  25.748  1.00  0.00     0.017 C 
ATOM     16  C   UNL A   1      32.108  26.613  25.495  1.00  0.00    -0.035 A 
ATOM     17  C   UNL A   1      34.346  25.821  25.747  1.00  0.00     0.036 C 
ATOM     18  C   UNL A   1      33.453  26.910  25.245  1.00  0.00    -0.044 A 
ATOM     19  C   UNL A   1      31.115  27.505  25.109  1.00  0.00     0.050 A 
ATOM     20  C   UNL A   1      33.821  28.065  24.576  1.00  0.00     0.008 A 
ATOM     21  C   UNL A   1      31.463  28.646  24.382  1.00  0.00     0.119 A 
ATOM     22  C   UNL A   1      32.813  28.923  24.127  1.00  0.00     0.047 A 
BRANCH  21  23
ATOM     23  O   UNL A   1      30.568  29.542  23.855  1.00  0.00    -0.497 OA
ATOM     24  C   UNL A   1      29.442  28.983  23.181  1.00  0.00     0.278 C 
ENDBRANCH  21  23
ENDBRANCH   9  14
ENDBRANCH   6   9
ENDBRANCH   4   5
ENDBRANCH   3   4
ENDBRANCH   2   3
ENDBRANCH   1   2
BRANCH   1  25
ATOM     25  C   UNL A   1      36.357  22.277  24.744  1.00  0.00     0.021 C 
BRANCH  25  26
ATOM     26  C   UNL A   1      37.259  22.813  25.848  1.00  0.00     0.116 C 
BRANCH  26  27
ATOM     27  N   UNL A   1      38.408  21.951  26.069  1.00  0.00    -0.352 N 
ATOM     28  C   UNL A   1      39.682  22.298  26.437  1.00  0.00     0.251 C 
ATOM     29  H   UNL A   1      38.250  20.988  25.935  1.00  0.00     0.163 HD
ATOM     30  O   UNL A   1      40.592  21.475  26.348  1.00  0.00    -0.269 OA
BRANCH  28  31
ATOM     31  C   UNL A   1      39.953  23.669  26.916  1.00  0.00     0.039 A 
ATOM     32  C   UNL A   1      40.428  23.854  28.214  1.00  0.00     0.014 A 
ATOM     33  C   UNL A   1      39.749  24.768  26.075  1.00  0.00     0.014 A 
ATOM     34  C   UNL A   1      40.753  25.139  28.652  1.00  0.00     0.010 A 
ATOM     35  C   UNL A   1      40.150  26.035  26.485  1.00  0.00     0.010 A 
ATOM     36  C   UNL A   1      40.649  26.236  27.781  1.00  0.00    -0.014 A 
BRANCH  36  37
ATOM     37  C   UNL A   1      41.052  27.601  28.211  1.00  0.00     0.031 A 
ATOM     38  C   UNL A   1      42.499  28.008  28.168  1.00  0.00     0.074 A 
ATOM     39  C   UNL A   1      40.121  28.451  28.684  1.00  0.00     0.049 A 
ATOM     40  N   UNL A   1      43.056  29.127  28.554  1.00  0.00    -0.248 NA
ATOM     41  C   UNL A   1      43.450  27.012  27.651  1.00  0.00     0.031 C 
ATOM     42  C   UNL A   1      38.691  28.155  28.807  1.00  0.00     0.029 A 
ATOM     43  N   UNL A   1      40.234  29.735  29.156  1.00  0.00    -0.354 N 
ATOM     44  C   UNL A   1      44.420  28.967  28.336  1.00  0.00     0.074 A 
ATOM     45  C   UNL A   1      44.611  27.617  27.850  1.00  0.00     0.031 C 
ATOM     46  C   UNL A   1      38.058  29.236  29.288  1.00  0.00     0.029 A 
ATOM     47  C   UNL A   1      39.038  30.283  29.560  1.00  0.00     0.049 A 
ATOM     48  H   UNL A   1      41.090  30.219  29.200  1.00  0.00     0.167 HD
ATOM     49  C   UNL A   1      45.418  29.872  28.500  1.00  0.00     0.034 A 
ATOM     50  C   UNL A   1      38.764  31.488  30.101  1.00  0.00     0.034 A 
ATOM     51  C   UNL A   1      45.207  31.215  28.981  1.00  0.00     0.049 A 
ATOM     52  C   UNL A   1      39.895  32.461  30.316  1.00  0.00     0.074 A 
ATOM     53  C   UNL A   1      46.136  32.230  29.138  1.00  0.00     0.029 A 
ATOM     54  N   UNL A   1      43.985  31.730  29.398  1.00  0.00    -0.354 N 
ATOM     55  N   UNL A   1      41.174  32.314  30.054  1.00  0.00    -0.248 NA
ATOM     56  C   UNL A   1      39.544  33.766  30.890  1.00  0.00     0.031 C 
ATOM     57  C   UNL A   1      45.493  33.326  29.724  1.00  0.00     0.029 A 
ATOM     58  C   UNL A   1      44.145  33.033  29.849  1.00  0.00     0.049 A 
ATOM     59  H   UNL A   1      43.130  31.242  29.377  1.00  0.00     0.167 HD
ATOM     60  C   UNL A   1      41.774  33.521  30.404  1.00  0.00     0.074 A 
ATOM     61  C   UNL A   1      40.714  34.388  30.877  1.00  0.00     0.031 C 
ATOM     62  C   UNL A   1      43.081  33.883  30.334  1.00  0.00     0.034 A 
BRANCH  49  63
ATOM     63  C   UNL A   1      46.825  29.419  28.184  1.00  0.00     0.023 A 
ATOM     64  C   UNL A   1      47.683  28.917  29.180  1.00  0.00     0.031 A 
ATOM     65  C   UNL A   1      47.331  29.520  26.876  1.00  0.00     0.131 A 
ATOM     66  C   UNL A   1      49.018  28.618  28.871  1.00  0.00     0.055 A 
ATOM     67  C   UNL A   1      48.634  29.133  26.556  1.00  0.00     0.041 A 
ATOM     68  F   UNL A   1      46.570  30.013  25.885  1.00  0.00    -0.206 F 
ATOM     69  C   UNL A   1      49.492  28.696  27.560  1.00  0.00     0.022 A 
BRANCH  66  70
ATOM     70  S   UNL A   1      50.168  28.285  30.235  1.00  0.00     0.124 S 
ATOM     71  O   UNL A   1      50.246  26.826  30.204  1.00  0.00    -0.237 OA
ATOM     72  O   UNL A   1      51.367  29.000  29.816  1.00  0.00    -0.237 OA
ATOM     73  O   UNL A   1      49.484  28.839  31.401  1.00  0.00    -0.744 OA
ENDBRANCH  66  70
ENDBRANCH  49  63
BRANCH  50  74
ATOM     74  C   UNL A   1      37.367  31.840  30.489  1.00  0.00     0.023 A 
ATOM     75  C   UNL A   1      36.505  32.480  29.584  1.00  0.00     0.031 A 
ATOM     76  C   UNL A   1      36.886  31.577  31.783  1.00  0.00     0.131 A 
ATOM     77  C   UNL A   1      35.224  32.878  30.000  1.00  0.00     0.055 A 
ATOM     78  C   UNL A   1      35.591  31.923  32.174  1.00  0.00     0.041 A 
ATOM     79  F   UNL A   1      37.668  30.967  32.688  1.00  0.00    -0.206 F 
ATOM     80  C   UNL A   1      34.756  32.589  31.284  1.00  0.00     0.022 A 
BRANCH  77  81
ATOM     81  S   UNL A   1      34.209  33.862  28.864  1.00  0.00     0.124 S 
ATOM     82  O   UNL A   1      35.192  34.787  28.313  1.00  0.00    -0.237 OA
ATOM     83  O   UNL A   1      33.702  32.842  27.951  1.00  0.00    -0.237 OA
ATOM     84  O   UNL A   1      33.206  34.464  29.740  1.00  0.00    -0.744 OA
ENDBRANCH  77  81
ENDBRANCH  50  74
BRANCH  62  85
ATOM     85  C   UNL A   1      43.426  35.296  30.742  1.00  0.00     0.023 A 
ATOM     86  C   UNL A   1      43.622  35.653  32.088  1.00  0.00     0.031 A 
ATOM     87  C   UNL A   1      43.552  36.302  29.768  1.00  0.00     0.131 A 
ATOM     88  C   UNL A   1      43.873  36.992  32.427  1.00  0.00     0.055 A 
ATOM     89  C   UNL A   1      43.869  37.618  30.105  1.00  0.00     0.041 A 
ATOM     90  F   UNL A   1      43.371  36.021  28.467  1.00  0.00    -0.206 F 
ATOM     91  C   UNL A   1      44.018  37.972  31.442  1.00  0.00     0.022 A 
BRANCH  88  92
ATOM     92  S   UNL A   1      43.904  37.454  34.180  1.00  0.00     0.124 S 
ATOM     93  O   UNL A   1      45.144  38.218  34.270  1.00  0.00    -0.237 OA
ATOM     94  O   UNL A   1      42.671  38.221  34.324  1.00  0.00    -0.237 OA
ATOM     95  O   UNL A   1      43.917  36.168  34.875  1.00  0.00    -0.744 OA
ENDBRANCH  88  92
ENDBRANCH  62  85
ENDBRANCH  36  37
ENDBRANCH  28  31
ENDBRANCH  26  27
ENDBRANCH  25  26
ENDBRANCH   1  25
TORSDOF 20
ENDMDL
MODEL 3
REMARK VINA RESULT:     -11.1      1.915      7.756
REMARK SMILES CC[C@@](O)(C(=O)NCCCCCCNC(=O)c1ccc(-c2c3nc(c(-c4cc(S(=O)(=O)[O-])ccc4F)c4ccc([nH]4)c(-c4cc(S(=O)(=O)[O-])ccc4F)c4nc(c(-c5cc(S(=O)(=O)[O-])ccc5F)c5ccc2[nH]5)C=C4)C=C3)cc1)[C@H]1CCc2ccc(OC)cc21
REMARK SMILES IDX 11 1 10 2 9 3 8 4 7 5 5 6 6 7 3 9 2 10 1 11 4 12 80 14 81 15
REMARK SMILES IDX 90 16 82 17 83 18 89 19 84 20 86 21 85 22 87 23 88 24 12 25
REMARK SMILES IDX 13 26 14 27 15 28 16 30 17 31 18 32 79 33 19 34 78 35 20 36
REMARK SMILES IDX 21 37 22 38 72 39 23 40 77 41 71 42 73 43 24 44 76 45 70 46
REMARK SMILES IDX 69 47 25 49 57 50 37 51 56 52 38 53 41 54 55 55 74 56 39 57
REMARK SMILES IDX 40 58 54 60 75 61 42 62 26 63 27 64 35 65 28 66 34 67 36 68
REMARK SMILES IDX 33 69 29 70 30 71 31 72 32 73 58 74 59 75 67 76 60 77 66 78
REMARK SMILES IDX 68 79 65 80 61 81 62 82 63 83 64 84 43 85 44 86 52 87 45 88
REMARK SMILES IDX 51 89 53 90 50 91 46 92 47 93 48 94 49 95
REMARK H PARENT 7 8 4 13 14 29 73 48 41 59
REMARK Flexibility Score: inf
ROOT
ATOM      1  C   UNL A   1      31.209  28.815  23.660  1.00  0.00     0.002 C 
ENDROOT
BRANCH   1   2
ATOM      2  C   UNL A   1      30.629  27.754  22.720  1.00  0.00     0.002 C 
BRANCH   2   3
ATOM      3  C   UNL A   1      29.997  26.544  23.427  1.00  0.00     0.021 C 
BRANCH   3   4
ATOM      4  C   UNL A   1      30.779  25.242  23.241  1.00  0.00     0.116 C 
BRANCH   4   5
ATOM      5  N   UNL A   1      30.388  24.290  24.255  1.00  0.00    -0.354 N 
ATOM      6  C   UNL A   1      31.019  23.841  25.368  1.00  0.00     0.252 C 
ATOM      7  O   UNL A   1      30.364  23.022  26.020  1.00  0.00    -0.272 OA
ATOM      8  H   UNL A   1      29.498  23.896  24.112  1.00  0.00     0.163 HD
BRANCH   6   9
ATOM      9  C   UNL A   1      32.440  24.356  25.793  1.00  0.00     0.149 C 
BRANCH   9  10
ATOM     10  C   UNL A   1      32.496  25.900  25.958  1.00  0.00     0.043 C 
ATOM     11  C   UNL A   1      31.420  26.494  26.866  1.00  0.00     0.007 C 
ENDBRANCH   9  10
BRANCH   9  12
ATOM     12  O   UNL A   1      32.692  23.782  27.096  1.00  0.00    -0.379 OA
ATOM     13  H   UNL A   1      32.960  24.483  27.711  1.00  0.00     0.212 HD
ENDBRANCH   9  12
BRANCH   9  14
ATOM     14  C   UNL A   1      33.535  23.843  24.792  1.00  0.00     0.061 C 
ATOM     15  C   UNL A   1      34.941  24.453  25.072  1.00  0.00     0.017 C 
ATOM     16  C   UNL A   1      33.878  22.366  24.773  1.00  0.00    -0.035 A 
ATOM     17  C   UNL A   1      35.957  23.494  24.444  1.00  0.00     0.036 C 
ATOM     18  C   UNL A   1      35.261  22.186  24.643  1.00  0.00    -0.044 A 
ATOM     19  C   UNL A   1      33.048  21.268  24.960  1.00  0.00     0.050 A 
ATOM     20  C   UNL A   1      35.834  20.928  24.740  1.00  0.00     0.008 A 
ATOM     21  C   UNL A   1      33.613  20.000  25.119  1.00  0.00     0.119 A 
ATOM     22  C   UNL A   1      35.001  19.837  25.001  1.00  0.00     0.047 A 
BRANCH  21  23
ATOM     23  O   UNL A   1      32.909  18.861  25.415  1.00  0.00    -0.497 OA
ATOM     24  C   UNL A   1      32.523  18.055  24.304  1.00  0.00     0.278 C 
ENDBRANCH  21  23
ENDBRANCH   9  14
ENDBRANCH   6   9
ENDBRANCH   4   5
ENDBRANCH   3   4
ENDBRANCH   2   3
ENDBRANCH   1   2
BRANCH   1  25
ATOM     25  C   UNL A   1      32.734  28.797  23.771  1.00  0.00     0.021 C 
BRANCH  25  26
ATOM     26  C   UNL A   1      33.264  29.301  25.107  1.00  0.00     0.116 C 
BRANCH  26  27
ATOM     27  N   UNL A   1      32.593  30.521  25.525  1.00  0.00    -0.352 N 
ATOM     28  C   UNL A   1      32.762  31.240  26.680  1.00  0.00     0.251 C 
ATOM     29  H   UNL A   1      31.927  30.878  24.894  1.00  0.00     0.163 HD
ATOM     30  O   UNL A   1      31.949  32.111  26.985  1.00  0.00    -0.269 OA
BRANCH  28  31
ATOM     31  C   UNL A   1      33.912  30.943  27.560  1.00  0.00     0.039 A 
ATOM     32  C   UNL A   1      34.255  29.613  27.802  1.00  0.00     0.014 A 
ATOM     33  C   UNL A   1      34.656  31.981  28.130  1.00  0.00     0.014 A 
ATOM     34  C   UNL A   1      35.382  29.323  28.574  1.00  0.00     0.010 A 
ATOM     35  C   UNL A   1      35.822  31.691  28.831  1.00  0.00     0.010 A 
ATOM     36  C   UNL A   1      36.194  30.358  29.067  1.00  0.00    -0.014 A 
BRANCH  36  37
ATOM     37  C   UNL A   1      37.431  30.065  29.836  1.00  0.00     0.031 A 
ATOM     38  C   UNL A   1      38.495  29.182  29.245  1.00  0.00     0.074 A 
ATOM     39  C   UNL A   1      37.570  30.554  31.084  1.00  0.00     0.049 A 
ATOM     40  N   UNL A   1      39.614  28.762  29.778  1.00  0.00    -0.248 NA
ATOM     41  C   UNL A   1      38.254  28.680  27.884  1.00  0.00     0.031 C 
ATOM     42  C   UNL A   1      36.589  31.393  31.777  1.00  0.00     0.029 A 
ATOM     43  N   UNL A   1      38.587  30.415  31.995  1.00  0.00    -0.354 N 
ATOM     44  C   UNL A   1      40.204  27.942  28.824  1.00  0.00     0.074 A 
ATOM     45  C   UNL A   1      39.284  27.867  27.709  1.00  0.00     0.031 C 
ATOM     46  C   UNL A   1      37.066  31.719  32.988  1.00  0.00     0.029 A 
ATOM     47  C   UNL A   1      38.360  31.072  33.182  1.00  0.00     0.049 A 
ATOM     48  H   UNL A   1      39.403  29.895  31.815  1.00  0.00     0.167 HD
ATOM     49  C   UNL A   1      41.413  27.327  28.864  1.00  0.00     0.034 A 
ATOM     50  C   UNL A   1      39.104  31.135  34.306  1.00  0.00     0.034 A 
ATOM     51  C   UNL A   1      42.319  27.417  29.983  1.00  0.00     0.049 A 
ATOM     52  C   UNL A   1      40.424  30.409  34.344  1.00  0.00     0.074 A 
ATOM     53  C   UNL A   1      43.588  26.879  30.111  1.00  0.00     0.029 A 
ATOM     54  N   UNL A   1      42.047  28.076  31.177  1.00  0.00    -0.354 N 
ATOM     55  N   UNL A   1      40.994  29.678  33.412  1.00  0.00    -0.248 NA
ATOM     56  C   UNL A   1      41.206  30.522  35.582  1.00  0.00     0.031 C 
ATOM     57  C   UNL A   1      44.048  27.142  31.405  1.00  0.00     0.029 A 
ATOM     58  C   UNL A   1      43.108  27.923  32.058  1.00  0.00     0.049 A 
ATOM     59  H   UNL A   1      41.223  28.579  31.369  1.00  0.00     0.167 HD
ATOM     60  C   UNL A   1      42.216  29.272  33.943  1.00  0.00     0.074 A 
ATOM     61  C   UNL A   1      42.305  29.854  35.267  1.00  0.00     0.031 C 
ATOM     62  C   UNL A   1      43.179  28.496  33.383  1.00  0.00     0.034 A 
BRANCH  49  63
ATOM     63  C   UNL A   1      41.804  26.484  27.672  1.00  0.00     0.023 A 
ATOM     64  C   UNL A   1      41.539  25.102  27.624  1.00  0.00     0.031 A 
ATOM     65  C   UNL A   1      42.479  27.058  26.580  1.00  0.00     0.131 A 
ATOM     66  C   UNL A   1      42.021  24.332  26.554  1.00  0.00     0.055 A 
ATOM     67  C   UNL A   1      42.875  26.302  25.476  1.00  0.00     0.041 A 
ATOM     68  F   UNL A   1      42.782  28.367  26.576  1.00  0.00    -0.206 F 
ATOM     69  C   UNL A   1      42.663  24.926  25.466  1.00  0.00     0.022 A 
BRANCH  66  70
ATOM     70  S   UNL A   1      41.943  22.525  26.687  1.00  0.00     0.124 S 
ATOM     71  O   UNL A   1      42.970  22.259  27.691  1.00  0.00    -0.237 OA
ATOM     72  O   UNL A   1      40.565  22.299  27.105  1.00  0.00    -0.237 OA
ATOM     73  O   UNL A   1      42.269  22.069  25.338  1.00  0.00    -0.744 OA
ENDBRANCH  66  70
ENDBRANCH  49  63
BRANCH  50  74
ATOM     74  C   UNL A   1      38.617  31.901  35.490  1.00  0.00     0.023 A 
ATOM     75  C   UNL A   1      38.125  31.239  36.626  1.00  0.00     0.031 A 
ATOM     76  C   UNL A   1      38.602  33.307  35.488  1.00  0.00     0.131 A 
ATOM     77  C   UNL A   1      37.594  31.982  37.693  1.00  0.00     0.055 A 
ATOM     78  C   UNL A   1      38.127  34.041  36.576  1.00  0.00     0.041 A 
ATOM     79  F   UNL A   1      39.061  33.990  34.428  1.00  0.00    -0.206 F 
ATOM     80  C   UNL A   1      37.606  33.378  37.683  1.00  0.00     0.022 A 
BRANCH  77  81
ATOM     81  S   UNL A   1      36.802  31.092  39.061  1.00  0.00     0.124 S 
ATOM     82  O   UNL A   1      35.574  31.859  39.241  1.00  0.00    -0.237 OA
ATOM     83  O   UNL A   1      36.647  29.753  38.502  1.00  0.00    -0.237 OA
ATOM     84  O   UNL A   1      37.773  31.204  40.146  1.00  0.00    -0.744 OA
ENDBRANCH  77  81
ENDBRANCH  50  74
BRANCH  62  85
ATOM     85  C   UNL A   1      44.434  28.267  34.194  1.00  0.00     0.023 A 
ATOM     86  C   UNL A   1      44.537  27.216  35.122  1.00  0.00     0.031 A 
ATOM     87  C   UNL A   1      45.541  29.121  34.038  1.00  0.00     0.131 A 
ATOM     88  C   UNL A   1      45.696  27.085  35.903  1.00  0.00     0.055 A 
ATOM     89  C   UNL A   1      46.716  28.943  34.767  1.00  0.00     0.041 A 
ATOM     90  F   UNL A   1      45.498  30.145  33.169  1.00  0.00    -0.206 F 
ATOM     91  C   UNL A   1      46.794  27.929  35.717  1.00  0.00     0.022 A 
BRANCH  88  92
ATOM     92  S   UNL A   1      45.711  25.858  37.239  1.00  0.00     0.124 S 
ATOM     93  O   UNL A   1      44.289  25.705  37.525  1.00  0.00    -0.237 OA
ATOM     94  O   UNL A   1      46.361  24.714  36.607  1.00  0.00    -0.237 OA
ATOM     95  O   UNL A   1      46.489  26.507  38.292  1.00  0.00    -0.744 OA
ENDBRANCH  88  92
ENDBRANCH  62  85
ENDBRANCH  36  37
ENDBRANCH  28  31
ENDBRANCH  26  27
ENDBRANCH  25  26
ENDBRANCH   1  25
TORSDOF 20
ENDMDL
