MODEL 1
REMARK VINA RESULT:      -9.3      0.000      0.000
REMARK SMILES O=C1OC(c2ccc(Cl)cc2)=N/C1=C/Nc1ccc(O)c(C(=O)NCCCCCCNC(=O)c2ccc(-c3c4nc(c(-c5cc(S(=O)(=O)[O-])ccc5F)c5ccc([nH]5)c(-c5cc(S(=O)(=O)[O-])ccc5F)c5nc(c(-c6cc(S(=O)(=O)[O-])ccc6F)c6ccc3[nH]6)C=C5)C=C4)cc2)c1
REMARK SMILES IDX 27 1 26 2 25 3 24 4 22 5 23 6 21 8 16 9 17 10 97 11 18 12
REMARK SMILES IDX 19 13 15 14 14 16 1 17 2 18 3 19 13 20 4 21 12 22 5 23 6 24
REMARK SMILES IDX 11 25 7 26 10 27 8 28 9 29 20 30 28 32 29 33 30 34 31 35
REMARK SMILES IDX 32 36 33 38 34 39 35 40 96 41 36 42 95 43 37 44 38 45 39 46
REMARK SMILES IDX 89 47 40 48 94 49 88 50 90 51 41 52 93 53 87 54 86 55 42 57
REMARK SMILES IDX 74 58 54 59 73 60 55 61 58 62 72 63 91 64 56 65 57 66 71 68
REMARK SMILES IDX 92 69 59 70 43 71 44 72 52 73 45 74 51 75 53 76 50 77 46 78
REMARK SMILES IDX 47 79 48 80 49 81 75 82 76 83 84 84 77 85 83 86 85 87 82 88
REMARK SMILES IDX 78 89 79 90 80 91 81 92 60 93 61 94 69 95 62 96 68 97 70 98
REMARK SMILES IDX 67 99 63 100 64 101 65 102 66 103
REMARK H PARENT 24 7 15 15 20 31 31 37 90 56 58 67
REMARK Flexibility Score: inf
ROOT
ATOM      1  C   UNL A   1      43.766  23.466  26.841  1.00  0.00     0.002 C 
ENDROOT
BRANCH   1   2
ATOM      2  C   UNL A   1      42.900  22.266  27.239  1.00  0.00     0.021 C 
BRANCH   2   3
ATOM      3  C   UNL A   1      41.720  22.658  28.134  1.00  0.00     0.116 C 
BRANCH   3   4
ATOM      4  N   UNL A   1      40.522  22.731  27.331  1.00  0.00    -0.352 N 
ATOM      5  C   UNL A   1      39.705  23.777  26.998  1.00  0.00     0.255 C 
ATOM      6  O   UNL A   1      38.651  23.475  26.428  1.00  0.00    -0.269 OA
ATOM      7  H   UNL A   1      40.240  21.867  26.953  1.00  0.00     0.163 HD
BRANCH   5   8
ATOM      8  C   UNL A   1      40.045  25.225  27.159  1.00  0.00     0.083 A 
ATOM      9  C   UNL A   1      39.857  27.094  28.751  1.00  0.00     0.039 A 
ATOM     10  C   UNL A   1      40.351  27.957  27.776  1.00  0.00     0.030 A 
ATOM     11  C   UNL A   1      39.681  25.747  28.418  1.00  0.00     0.043 A 
ATOM     12  C   UNL A   1      40.778  27.461  26.546  1.00  0.00     0.049 A 
ATOM     13  C   UNL A   1      40.665  26.096  26.257  1.00  0.00     0.128 A 
BRANCH   9  14
ATOM     14  N   UNL A   1      39.478  27.531  30.024  1.00  0.00    -0.360 N 
ATOM     15  H   UNL A   1      40.055  27.261  30.774  1.00  0.00     0.166 HD
BRANCH  14  16
ATOM     16  C   UNL A   1      38.389  28.298  30.333  1.00  0.00     0.119 C 
ATOM     17  O   UNL A   1      40.712  30.147  30.907  1.00  0.00    -0.244 OA
ATOM     18  C   UNL A   1      39.534  30.399  31.048  1.00  0.00     0.365 C 
ATOM     19  O   UNL A   1      38.979  31.577  31.457  1.00  0.00    -0.402 OA
ATOM     20  C   UNL A   1      38.342  29.536  30.828  1.00  0.00     0.168 C 
ATOM     21  C   UNL A   1      37.645  31.360  31.508  1.00  0.00     0.231 C 
ATOM     22  N   UNL A   1      37.195  30.198  31.167  1.00  0.00    -0.204 NA
BRANCH  21  23
ATOM     23  C   UNL A   1      36.854  32.471  32.017  1.00  0.00     0.037 A 
ATOM     24  C   UNL A   1      35.462  32.387  32.071  1.00  0.00     0.015 A 
ATOM     25  C   UNL A   1      37.528  33.601  32.490  1.00  0.00     0.015 A 
ATOM     26  C   UNL A   1      34.737  33.451  32.611  1.00  0.00     0.021 A 
ATOM     27  C   UNL A   1      36.797  34.669  33.011  1.00  0.00     0.021 A 
ATOM     28  C   UNL A   1      35.405  34.587  33.073  1.00  0.00     0.041 A 
ATOM     29  Cl  UNL A   1      34.506  35.897  33.732  1.00  0.00    -0.084 Cl
ENDBRANCH  21  23
ENDBRANCH  14  16
ENDBRANCH   9  14
BRANCH  13  30
ATOM     30  O   UNL A   1      41.251  25.667  25.103  1.00  0.00    -0.507 OA
ATOM     31  H   UNL A   1      42.184  25.598  25.048  1.00  0.00     0.293 HD
ENDBRANCH  13  30
ENDBRANCH   5   8
ENDBRANCH   3   4
ENDBRANCH   2   3
ENDBRANCH   1   2
BRANCH   1  32
ATOM     32  C   UNL A   1      43.971  23.614  25.329  1.00  0.00     0.002 C 
BRANCH  32  33
ATOM     33  C   UNL A   1      45.394  23.318  24.851  1.00  0.00     0.021 C 
BRANCH  33  34
ATOM     34  C   UNL A   1      46.469  24.072  25.625  1.00  0.00     0.116 C 
BRANCH  34  35
ATOM     35  N   UNL A   1      47.054  25.129  24.813  1.00  0.00    -0.352 N 
ATOM     36  C   UNL A   1      46.813  26.480  24.856  1.00  0.00     0.251 C 
ATOM     37  H   UNL A   1      47.713  24.835  24.142  1.00  0.00     0.163 HD
ATOM     38  O   UNL A   1      47.151  27.196  23.921  1.00  0.00    -0.269 OA
BRANCH  36  39
ATOM     39  C   UNL A   1      46.133  27.049  26.037  1.00  0.00     0.039 A 
ATOM     40  C   UNL A   1      46.897  27.552  27.091  1.00  0.00     0.014 A 
ATOM     41  C   UNL A   1      44.736  27.093  26.090  1.00  0.00     0.014 A 
ATOM     42  C   UNL A   1      46.257  28.154  28.177  1.00  0.00     0.010 A 
ATOM     43  C   UNL A   1      44.106  27.765  27.130  1.00  0.00     0.010 A 
ATOM     44  C   UNL A   1      44.858  28.298  28.188  1.00  0.00    -0.014 A 
BRANCH  44  45
ATOM     45  C   UNL A   1      44.158  28.990  29.299  1.00  0.00     0.031 A 
ATOM     46  C   UNL A   1      43.802  30.445  29.168  1.00  0.00     0.074 A 
ATOM     47  C   UNL A   1      43.903  28.327  30.446  1.00  0.00     0.049 A 
ATOM     48  N   UNL A   1      43.284  31.254  30.055  1.00  0.00    -0.248 NA
ATOM     49  C   UNL A   1      44.095  31.081  27.873  1.00  0.00     0.031 C 
ATOM     50  C   UNL A   1      44.226  26.920  30.698  1.00  0.00     0.029 A 
ATOM     51  N   UNL A   1      43.323  28.747  31.616  1.00  0.00    -0.354 N 
ATOM     52  C   UNL A   1      43.198  32.495  29.432  1.00  0.00     0.074 A 
ATOM     53  C   UNL A   1      43.779  32.344  28.116  1.00  0.00     0.031 C 
ATOM     54  C   UNL A   1      43.815  26.590  31.932  1.00  0.00     0.029 A 
ATOM     55  C   UNL A   1      43.255  27.770  32.583  1.00  0.00     0.049 A 
ATOM     56  H   UNL A   1      42.987  29.663  31.752  1.00  0.00     0.167 HD
ATOM     57  C   UNL A   1      42.660  33.645  29.906  1.00  0.00     0.034 A 
ATOM     58  C   UNL A   1      42.811  27.824  33.855  1.00  0.00     0.034 A 
ATOM     59  C   UNL A   1      42.079  33.773  31.220  1.00  0.00     0.049 A 
ATOM     60  C   UNL A   1      42.269  29.132  34.379  1.00  0.00     0.074 A 
ATOM     61  C   UNL A   1      41.470  34.879  31.787  1.00  0.00     0.029 A 
ATOM     62  N   UNL A   1      42.041  32.767  32.176  1.00  0.00    -0.354 N 
ATOM     63  N   UNL A   1      42.159  30.288  33.762  1.00  0.00    -0.248 NA
ATOM     64  C   UNL A   1      41.784  29.142  35.765  1.00  0.00     0.031 C 
ATOM     65  C   UNL A   1      41.139  34.567  33.109  1.00  0.00     0.029 A 
ATOM     66  C   UNL A   1      41.452  33.237  33.339  1.00  0.00     0.049 A 
ATOM     67  H   UNL A   1      42.381  31.851  32.046  1.00  0.00     0.167 HD
ATOM     68  C   UNL A   1      41.555  31.148  34.676  1.00  0.00     0.074 A 
ATOM     69  C   UNL A   1      41.315  30.377  35.878  1.00  0.00     0.031 C 
ATOM     70  C   UNL A   1      41.221  32.456  34.532  1.00  0.00     0.034 A 
BRANCH  57  71
ATOM     71  C   UNL A   1      42.701  34.858  29.008  1.00  0.00     0.023 A 
ATOM     72  C   UNL A   1      43.909  35.506  28.694  1.00  0.00     0.031 A 
ATOM     73  C   UNL A   1      41.515  35.385  28.466  1.00  0.00     0.131 A 
ATOM     74  C   UNL A   1      43.898  36.678  27.926  1.00  0.00     0.055 A 
ATOM     75  C   UNL A   1      41.519  36.503  27.630  1.00  0.00     0.041 A 
ATOM     76  F   UNL A   1      40.327  34.826  28.748  1.00  0.00    -0.206 F 
ATOM     77  C   UNL A   1      42.714  37.166  27.366  1.00  0.00     0.022 A 
BRANCH  74  78
ATOM     78  S   UNL A   1      45.430  37.639  27.791  1.00  0.00     0.124 S 
ATOM     79  O   UNL A   1      44.913  38.997  27.639  1.00  0.00    -0.237 OA
ATOM     80  O   UNL A   1      46.098  37.347  29.054  1.00  0.00    -0.237 OA
ATOM     81  O   UNL A   1      46.076  37.089  26.601  1.00  0.00    -0.744 OA
ENDBRANCH  74  78
ENDBRANCH  57  71
BRANCH  58  82
ATOM     82  C   UNL A   1      42.872  26.620  34.735  1.00  0.00     0.023 A 
ATOM     83  C   UNL A   1      44.101  26.143  35.221  1.00  0.00     0.031 A 
ATOM     84  C   UNL A   1      41.713  25.891  35.053  1.00  0.00     0.131 A 
ATOM     85  C   UNL A   1      44.148  24.942  35.944  1.00  0.00     0.055 A 
ATOM     86  C   UNL A   1      41.757  24.732  35.831  1.00  0.00     0.041 A 
ATOM     87  F   UNL A   1      40.511  26.300  34.615  1.00  0.00    -0.206 F 
ATOM     88  C   UNL A   1      42.984  24.242  36.266  1.00  0.00     0.022 A 
BRANCH  85  89
ATOM     89  S   UNL A   1      45.770  24.242  36.357  1.00  0.00     0.124 S 
ATOM     90  O   UNL A   1      46.448  24.289  35.066  1.00  0.00    -0.237 OA
ATOM     91  O   UNL A   1      46.253  25.177  37.369  1.00  0.00    -0.237 OA
ATOM     92  O   UNL A   1      45.449  22.904  36.847  1.00  0.00    -0.744 OA
ENDBRANCH  85  89
ENDBRANCH  58  82
BRANCH  70  93
ATOM     93  C   UNL A   1      40.505  33.119  35.685  1.00  0.00     0.023 A 
ATOM     94  C   UNL A   1      41.176  33.937  36.609  1.00  0.00     0.031 A 
ATOM     95  C   UNL A   1      39.120  32.930  35.853  1.00  0.00     0.131 A 
ATOM     96  C   UNL A   1      40.474  34.495  37.688  1.00  0.00     0.055 A 
ATOM     97  C   UNL A   1      38.414  33.542  36.889  1.00  0.00     0.041 A 
ATOM     98  F   UNL A   1      38.428  32.155  35.003  1.00  0.00    -0.206 F 
ATOM     99  C   UNL A   1      39.094  34.319  37.822  1.00  0.00     0.022 A 
BRANCH  96 100
ATOM    100  S   UNL A   1      41.404  35.377  38.971  1.00  0.00     0.124 S 
ATOM    101  O   UNL A   1      42.531  34.478  39.200  1.00  0.00    -0.237 OA
ATOM    102  O   UNL A   1      41.721  36.641  38.314  1.00  0.00    -0.237 OA
ATOM    103  O   UNL A   1      40.455  35.475  40.078  1.00  0.00    -0.744 OA
ENDBRANCH  96 100
ENDBRANCH  70  93
ENDBRANCH  44  45
ENDBRANCH  36  39
ENDBRANCH  34  35
ENDBRANCH  33  34
ENDBRANCH  32  33
ENDBRANCH   1  32
TORSDOF 20
ENDMDL
MODEL 2
REMARK VINA RESULT:      -9.2      1.930      2.283
REMARK SMILES O=C1OC(c2ccc(Cl)cc2)=N/C1=C/Nc1ccc(O)c(C(=O)NCCCCCCNC(=O)c2ccc(-c3c4nc(c(-c5cc(S(=O)(=O)[O-])ccc5F)c5ccc([nH]5)c(-c5cc(S(=O)(=O)[O-])ccc5F)c5nc(c(-c6cc(S(=O)(=O)[O-])ccc6F)c6ccc3[nH]6)C=C5)C=C4)cc2)c1
REMARK SMILES IDX 27 1 26 2 25 3 24 4 22 5 23 6 21 8 16 9 17 10 97 11 18 12
REMARK SMILES IDX 19 13 15 14 14 16 1 17 2 18 3 19 13 20 4 21 12 22 5 23 6 24
REMARK SMILES IDX 11 25 7 26 10 27 8 28 9 29 20 30 28 32 29 33 30 34 31 35
REMARK SMILES IDX 32 36 33 38 34 39 35 40 96 41 36 42 95 43 37 44 38 45 39 46
REMARK SMILES IDX 89 47 40 48 94 49 88 50 90 51 41 52 93 53 87 54 86 55 42 57
REMARK SMILES IDX 74 58 54 59 73 60 55 61 58 62 72 63 91 64 56 65 57 66 71 68
REMARK SMILES IDX 92 69 59 70 43 71 44 72 52 73 45 74 51 75 53 76 50 77 46 78
REMARK SMILES IDX 47 79 48 80 49 81 75 82 76 83 84 84 77 85 83 86 85 87 82 88
REMARK SMILES IDX 78 89 79 90 80 91 81 92 60 93 61 94 69 95 62 96 68 97 70 98
REMARK SMILES IDX 67 99 63 100 64 101 65 102 66 103
REMARK H PARENT 24 7 15 15 20 31 31 37 90 56 58 67
REMARK Flexibility Score: inf
ROOT
ATOM      1  C   UNL A   1      46.124  24.895  27.655  1.00  0.00     0.002 C 
ENDROOT
BRANCH   1   2
ATOM      2  C   UNL A   1      45.475  23.513  27.786  1.00  0.00     0.021 C 
BRANCH   2   3
ATOM      3  C   UNL A   1      44.672  23.356  29.081  1.00  0.00     0.116 C 
BRANCH   3   4
ATOM      4  N   UNL A   1      43.470  22.605  28.803  1.00  0.00    -0.352 N 
ATOM      5  C   UNL A   1      42.241  22.983  28.338  1.00  0.00     0.255 C 
ATOM      6  O   UNL A   1      41.362  22.115  28.372  1.00  0.00    -0.269 OA
ATOM      7  H   UNL A   1      43.550  21.640  28.983  1.00  0.00     0.163 HD
BRANCH   5   8
ATOM      8  C   UNL A   1      41.926  24.297  27.695  1.00  0.00     0.083 A 
ATOM      9  C   UNL A   1      41.329  26.624  28.233  1.00  0.00     0.039 A 
ATOM     10  C   UNL A   1      41.125  26.873  26.878  1.00  0.00     0.030 A 
ATOM     11  C   UNL A   1      41.696  25.333  28.624  1.00  0.00     0.043 A 
ATOM     12  C   UNL A   1      41.405  25.889  25.932  1.00  0.00     0.049 A 
ATOM     13  C   UNL A   1      41.845  24.623  26.337  1.00  0.00     0.128 A 
BRANCH   9  14
ATOM     14  N   UNL A   1      41.126  27.598  29.217  1.00  0.00    -0.360 N 
ATOM     15  H   UNL A   1      41.431  27.376  30.127  1.00  0.00     0.166 HD
BRANCH  14  16
ATOM     16  C   UNL A   1      40.550  28.825  29.045  1.00  0.00     0.119 C 
ATOM     17  O   UNL A   1      38.508  27.339  30.708  1.00  0.00    -0.244 OA
ATOM     18  C   UNL A   1      38.418  28.477  30.299  1.00  0.00     0.365 C 
ATOM     19  O   UNL A   1      37.405  29.364  30.522  1.00  0.00    -0.402 OA
ATOM     20  C   UNL A   1      39.355  29.260  29.447  1.00  0.00     0.168 C 
ATOM     21  C   UNL A   1      37.727  30.477  29.825  1.00  0.00     0.231 C 
ATOM     22  N   UNL A   1      38.838  30.494  29.167  1.00  0.00    -0.204 NA
BRANCH  21  23
ATOM     23  C   UNL A   1      36.725  31.533  29.845  1.00  0.00     0.037 A 
ATOM     24  C   UNL A   1      35.789  31.605  30.878  1.00  0.00     0.015 A 
ATOM     25  C   UNL A   1      36.756  32.495  28.830  1.00  0.00     0.015 A 
ATOM     26  C   UNL A   1      34.874  32.660  30.894  1.00  0.00     0.021 A 
ATOM     27  C   UNL A   1      35.826  33.535  28.841  1.00  0.00     0.021 A 
ATOM     28  C   UNL A   1      34.893  33.615  29.876  1.00  0.00     0.041 A 
ATOM     29  Cl  UNL A   1      33.760  34.909  29.897  1.00  0.00    -0.084 Cl
ENDBRANCH  21  23
ENDBRANCH  14  16
ENDBRANCH   9  14
BRANCH  13  30
ATOM     30  O   UNL A   1      42.251  23.775  25.350  1.00  0.00    -0.507 OA
ATOM     31  H   UNL A   1      43.085  23.351  25.409  1.00  0.00     0.293 HD
ENDBRANCH  13  30
ENDBRANCH   5   8
ENDBRANCH   3   4
ENDBRANCH   2   3
ENDBRANCH   1   2
BRANCH   1  32
ATOM     32  C   UNL A   1      47.657  24.865  27.626  1.00  0.00     0.002 C 
BRANCH  32  33
ATOM     33  C   UNL A   1      48.272  25.203  26.267  1.00  0.00     0.021 C 
BRANCH  33  34
ATOM     34  C   UNL A   1      47.283  25.118  25.110  1.00  0.00     0.116 C 
BRANCH  34  35
ATOM     35  N   UNL A   1      47.420  26.261  24.219  1.00  0.00    -0.352 N 
ATOM     36  C   UNL A   1      46.836  27.500  24.315  1.00  0.00     0.251 C 
ATOM     37  H   UNL A   1      48.011  26.128  23.443  1.00  0.00     0.163 HD
ATOM     38  O   UNL A   1      46.810  28.245  23.342  1.00  0.00    -0.269 OA
BRANCH  36  39
ATOM     39  C   UNL A   1      46.235  27.912  25.599  1.00  0.00     0.039 A 
ATOM     40  C   UNL A   1      47.047  28.475  26.586  1.00  0.00     0.014 A 
ATOM     41  C   UNL A   1      44.864  27.749  25.817  1.00  0.00     0.014 A 
ATOM     42  C   UNL A   1      46.469  28.930  27.773  1.00  0.00     0.010 A 
ATOM     43  C   UNL A   1      44.281  28.276  26.964  1.00  0.00     0.010 A 
ATOM     44  C   UNL A   1      45.077  28.867  27.956  1.00  0.00    -0.014 A 
BRANCH  44  45
ATOM     45  C   UNL A   1      44.430  29.400  29.182  1.00  0.00     0.031 A 
ATOM     46  C   UNL A   1      44.001  30.841  29.234  1.00  0.00     0.074 A 
ATOM     47  C   UNL A   1      44.290  28.608  30.264  1.00  0.00     0.049 A 
ATOM     48  N   UNL A   1      43.516  31.524  30.238  1.00  0.00    -0.248 NA
ATOM     49  C   UNL A   1      44.170  31.625  28.000  1.00  0.00     0.031 C 
ATOM     50  C   UNL A   1      44.692  27.201  30.338  1.00  0.00     0.029 A 
ATOM     51  N   UNL A   1      43.779  28.872  31.510  1.00  0.00    -0.354 N 
ATOM     52  C   UNL A   1      43.329  32.817  29.762  1.00  0.00     0.074 A 
ATOM     53  C   UNL A   1      43.818  32.837  28.400  1.00  0.00     0.031 C 
ATOM     54  C   UNL A   1      44.388  26.721  31.554  1.00  0.00     0.029 A 
ATOM     55  C   UNL A   1      43.826  27.796  32.367  1.00  0.00     0.049 A 
ATOM     56  H   UNL A   1      43.414  29.749  31.767  1.00  0.00     0.167 HD
ATOM     57  C   UNL A   1      42.777  33.882  30.394  1.00  0.00     0.034 A 
ATOM     58  C   UNL A   1      43.475  27.692  33.665  1.00  0.00     0.034 A 
ATOM     59  C   UNL A   1      42.290  33.840  31.751  1.00  0.00     0.049 A 
ATOM     60  C   UNL A   1      42.916  28.907  34.364  1.00  0.00     0.074 A 
ATOM     61  C   UNL A   1      41.676  34.847  32.476  1.00  0.00     0.029 A 
ATOM     62  N   UNL A   1      42.366  32.737  32.592  1.00  0.00    -0.354 N 
ATOM     63  N   UNL A   1      42.710  30.114  33.886  1.00  0.00    -0.248 NA
ATOM     64  C   UNL A   1      42.534  28.746  35.773  1.00  0.00     0.031 C 
ATOM     65  C   UNL A   1      41.457  34.380  33.775  1.00  0.00     0.029 A 
ATOM     66  C   UNL A   1      41.845  33.051  33.837  1.00  0.00     0.049 A 
ATOM     67  H   UNL A   1      42.736  31.860  32.340  1.00  0.00     0.167 HD
ATOM     68  C   UNL A   1      42.137  30.841  34.928  1.00  0.00     0.074 A 
ATOM     69  C   UNL A   1      42.021  29.935  36.051  1.00  0.00     0.031 C 
ATOM     70  C   UNL A   1      41.737  32.137  34.950  1.00  0.00     0.034 A 
BRANCH  57  71
ATOM     71  C   UNL A   1      42.698  35.183  29.633  1.00  0.00     0.023 A 
ATOM     72  C   UNL A   1      43.719  36.147  29.709  1.00  0.00     0.031 A 
ATOM     73  C   UNL A   1      41.582  35.473  28.828  1.00  0.00     0.131 A 
ATOM     74  C   UNL A   1      43.571  37.379  29.055  1.00  0.00     0.055 A 
ATOM     75  C   UNL A   1      41.479  36.666  28.110  1.00  0.00     0.041 A 
ATOM     76  F   UNL A   1      40.562  34.604  28.735  1.00  0.00    -0.206 F 
ATOM     77  C   UNL A   1      42.472  37.634  28.232  1.00  0.00     0.022 A 
BRANCH  74  78
ATOM     78  S   UNL A   1      44.763  38.698  29.414  1.00  0.00     0.124 S 
ATOM     79  O   UNL A   1      44.513  38.942  30.832  1.00  0.00    -0.237 OA
ATOM     80  O   UNL A   1      46.038  38.068  29.089  1.00  0.00    -0.237 OA
ATOM     81  O   UNL A   1      44.356  39.780  28.521  1.00  0.00    -0.744 OA
ENDBRANCH  74  78
ENDBRANCH  57  71
BRANCH  58  82
ATOM     82  C   UNL A   1      43.654  26.406  34.402  1.00  0.00     0.023 A 
ATOM     83  C   UNL A   1      44.934  25.951  34.758  1.00  0.00     0.031 A 
ATOM     84  C   UNL A   1      42.555  25.582  34.706  1.00  0.00     0.131 A 
ATOM     85  C   UNL A   1      45.088  24.684  35.341  1.00  0.00     0.055 A 
ATOM     86  C   UNL A   1      42.709  24.352  35.348  1.00  0.00     0.041 A 
ATOM     87  F   UNL A   1      41.308  25.967  34.388  1.00  0.00    -0.206 F 
ATOM     88  C   UNL A   1      43.985  23.888  35.653  1.00  0.00     0.022 A 
BRANCH  85  89
ATOM     89  S   UNL A   1      46.767  24.038  35.577  1.00  0.00     0.124 S 
ATOM     90  O   UNL A   1      47.581  25.186  35.193  1.00  0.00    -0.237 OA
ATOM     91  O   UNL A   1      46.764  23.699  36.996  1.00  0.00    -0.237 OA
ATOM     92  O   UNL A   1      46.823  22.898  34.664  1.00  0.00    -0.744 OA
ENDBRANCH  85  89
ENDBRANCH  58  82
BRANCH  70  93
ATOM     93  C   UNL A   1      41.079  32.637  36.215  1.00  0.00     0.023 A 
ATOM     94  C   UNL A   1      39.791  32.225  36.599  1.00  0.00     0.031 A 
ATOM     95  C   UNL A   1      41.760  33.539  37.052  1.00  0.00     0.131 A 
ATOM     96  C   UNL A   1      39.206  32.752  37.759  1.00  0.00     0.055 A 
ATOM     97  C   UNL A   1      41.200  34.008  38.241  1.00  0.00     0.041 A 
ATOM     98  F   UNL A   1      42.991  33.971  36.733  1.00  0.00    -0.206 F 
ATOM     99  C   UNL A   1      39.910  33.624  38.593  1.00  0.00     0.022 A 
BRANCH  96 100
ATOM    100  S   UNL A   1      37.473  32.356  38.119  1.00  0.00     0.124 S 
ATOM    101  O   UNL A   1      37.403  30.944  37.754  1.00  0.00    -0.237 OA
ATOM    102  O   UNL A   1      37.374  32.651  39.545  1.00  0.00    -0.237 OA
ATOM    103  O   UNL A   1      36.725  33.259  37.246  1.00  0.00    -0.744 OA
ENDBRANCH  96 100
ENDBRANCH  70  93
ENDBRANCH  44  45
ENDBRANCH  36  39
ENDBRANCH  34  35
ENDBRANCH  33  34
ENDBRANCH  32  33
ENDBRANCH   1  32
TORSDOF 20
ENDMDL
MODEL 3
REMARK VINA RESULT:      -9.1      3.536      7.823
REMARK SMILES O=C1OC(c2ccc(Cl)cc2)=N/C1=C/Nc1ccc(O)c(C(=O)NCCCCCCNC(=O)c2ccc(-c3c4nc(c(-c5cc(S(=O)(=O)[O-])ccc5F)c5ccc([nH]5)c(-c5cc(S(=O)(=O)[O-])ccc5F)c5nc(c(-c6cc(S(=O)(=O)[O-])ccc6F)c6ccc3[nH]6)C=C5)C=C4)cc2)c1
REMARK SMILES IDX 27 1 26 2 25 3 24 4 22 5 23 6 21 8 16 9 17 10 97 11 18 12
REMARK SMILES IDX 19 13 15 14 14 16 1 17 2 18 3 19 13 20 4 21 12 22 5 23 6 24
REMARK SMILES IDX 11 25 7 26 10 27 8 28 9 29 20 30 28 32 29 33 30 34 31 35
REMARK SMILES IDX 32 36 33 38 34 39 35 40 96 41 36 42 95 43 37 44 38 45 39 46
REMARK SMILES IDX 89 47 40 48 94 49 88 50 90 51 41 52 93 53 87 54 86 55 42 57
REMARK SMILES IDX 74 58 54 59 73 60 55 61 58 62 72 63 91 64 56 65 57 66 71 68
REMARK SMILES IDX 92 69 59 70 43 71 44 72 52 73 45 74 51 75 53 76 50 77 46 78
REMARK SMILES IDX 47 79 48 80 49 81 75 82 76 83 84 84 77 85 83 86 85 87 82 88
REMARK SMILES IDX 78 89 79 90 80 91 81 92 60 93 61 94 69 95 62 96 68 97 70 98
REMARK SMILES IDX 67 99 63 100 64 101 65 102 66 103
REMARK H PARENT 24 7 15 15 20 31 31 37 90 56 58 67
REMARK Flexibility Score: inf
ROOT
ATOM      1  C   UNL A   1      43.035  24.228  28.318  1.00  0.00     0.002 C 
ENDROOT
BRANCH   1   2
ATOM      2  C   UNL A   1      44.563  24.338  28.275  1.00  0.00     0.021 C 
BRANCH   2   3
ATOM      3  C   UNL A   1      45.121  24.280  26.849  1.00  0.00     0.116 C 
BRANCH   3   4
ATOM      4  N   UNL A   1      44.161  24.863  25.942  1.00  0.00    -0.352 N 
ATOM      5  C   UNL A   1      43.989  26.142  25.489  1.00  0.00     0.255 C 
ATOM      6  O   UNL A   1      42.955  26.349  24.844  1.00  0.00    -0.269 OA
ATOM      7  H   UNL A   1      43.508  24.220  25.582  1.00  0.00     0.163 HD
BRANCH   5   8
ATOM      8  C   UNL A   1      44.992  27.245  25.609  1.00  0.00     0.083 A 
ATOM      9  C   UNL A   1      45.418  29.356  26.803  1.00  0.00     0.039 A 
ATOM     10  C   UNL A   1      46.535  29.571  25.999  1.00  0.00     0.030 A 
ATOM     11  C   UNL A   1      44.646  28.213  26.575  1.00  0.00     0.043 A 
ATOM     12  C   UNL A   1      46.939  28.604  25.081  1.00  0.00     0.049 A 
ATOM     13  C   UNL A   1      46.196  27.428  24.919  1.00  0.00     0.128 A 
BRANCH   9  14
ATOM     14  N   UNL A   1      45.009  30.264  27.785  1.00  0.00    -0.360 N 
ATOM     15  H   UNL A   1      45.389  30.142  28.685  1.00  0.00     0.166 HD
BRANCH  14  16
ATOM     16  C   UNL A   1      44.139  31.305  27.622  1.00  0.00     0.119 C 
ATOM     17  O   UNL A   1      46.746  32.690  28.279  1.00  0.00    -0.244 OA
ATOM     18  C   UNL A   1      45.677  33.223  28.063  1.00  0.00     0.365 C 
ATOM     19  O   UNL A   1      45.407  34.560  28.024  1.00  0.00    -0.402 OA
ATOM     20  C   UNL A   1      44.350  32.614  27.775  1.00  0.00     0.168 C 
ATOM     21  C   UNL A   1      44.078  34.663  27.799  1.00  0.00     0.231 C 
ATOM     22  N   UNL A   1      43.391  33.579  27.651  1.00  0.00    -0.204 NA
BRANCH  21  23
ATOM     23  C   UNL A   1      43.549  36.019  27.813  1.00  0.00     0.037 A 
ATOM     24  C   UNL A   1      42.677  36.453  26.813  1.00  0.00     0.015 A 
ATOM     25  C   UNL A   1      43.902  36.857  28.876  1.00  0.00     0.015 A 
ATOM     26  C   UNL A   1      42.149  37.743  26.883  1.00  0.00     0.021 A 
ATOM     27  C   UNL A   1      43.387  38.152  28.930  1.00  0.00     0.021 A 
ATOM     28  C   UNL A   1      42.509  38.587  27.936  1.00  0.00     0.041 A 
ATOM     29  Cl  UNL A   1      41.860  40.178  28.015  1.00  0.00    -0.084 Cl
ENDBRANCH  21  23
ENDBRANCH  14  16
ENDBRANCH   9  14
BRANCH  13  30
ATOM     30  O   UNL A   1      46.743  26.467  24.123  1.00  0.00    -0.507 OA
ATOM     31  H   UNL A   1      46.416  25.588  24.156  1.00  0.00     0.293 HD
ENDBRANCH  13  30
ENDBRANCH   5   8
ENDBRANCH   3   4
ENDBRANCH   2   3
ENDBRANCH   1   2
BRANCH   1  32
ATOM     32  C   UNL A   1      42.520  22.887  28.853  1.00  0.00     0.002 C 
BRANCH  32  33
ATOM     33  C   UNL A   1      41.855  21.998  27.799  1.00  0.00     0.021 C 
BRANCH  33  34
ATOM     34  C   UNL A   1      41.711  22.667  26.437  1.00  0.00     0.116 C 
BRANCH  34  35
ATOM     35  N   UNL A   1      40.341  22.580  25.954  1.00  0.00    -0.352 N 
ATOM     36  C   UNL A   1      39.250  23.327  26.323  1.00  0.00     0.251 C 
ATOM     37  H   UNL A   1      40.174  21.892  25.270  1.00  0.00     0.163 HD
ATOM     38  O   UNL A   1      38.119  22.941  26.053  1.00  0.00    -0.269 OA
BRANCH  36  39
ATOM     39  C   UNL A   1      39.462  24.592  27.056  1.00  0.00     0.039 A 
ATOM     40  C   UNL A   1      39.065  24.684  28.391  1.00  0.00     0.014 A 
ATOM     41  C   UNL A   1      40.063  25.681  26.418  1.00  0.00     0.014 A 
ATOM     42  C   UNL A   1      39.328  25.854  29.106  1.00  0.00     0.010 A 
ATOM     43  C   UNL A   1      40.396  26.812  27.154  1.00  0.00     0.010 A 
ATOM     44  C   UNL A   1      40.028  26.914  28.503  1.00  0.00    -0.014 A 
BRANCH  44  45
ATOM     45  C   UNL A   1      40.375  28.145  29.259  1.00  0.00     0.031 A 
ATOM     46  C   UNL A   1      41.775  28.335  29.774  1.00  0.00     0.074 A 
ATOM     47  C   UNL A   1      39.418  29.053  29.535  1.00  0.00     0.049 A 
ATOM     48  N   UNL A   1      42.254  29.283  30.537  1.00  0.00    -0.248 NA
ATOM     49  C   UNL A   1      42.760  27.306  29.405  1.00  0.00     0.031 C 
ATOM     50  C   UNL A   1      38.019  28.962  29.109  1.00  0.00     0.029 A 
ATOM     51  N   UNL A   1      39.471  30.226  30.245  1.00  0.00    -0.354 N 
ATOM     52  C   UNL A   1      43.591  28.961  30.747  1.00  0.00     0.074 A 
ATOM     53  C   UNL A   1      43.826  27.696  30.086  1.00  0.00     0.031 C 
ATOM     54  C   UNL A   1      37.356  30.046  29.544  1.00  0.00     0.029 A 
ATOM     55  C   UNL A   1      38.262  30.880  30.328  1.00  0.00     0.049 A 
ATOM     56  H   UNL A   1      40.297  30.569  30.657  1.00  0.00     0.167 HD
ATOM     57  C   UNL A   1      44.539  29.669  31.409  1.00  0.00     0.034 A 
ATOM     58  C   UNL A   1      37.918  32.010  30.977  1.00  0.00     0.034 A 
ATOM     59  C   UNL A   1      44.286  30.932  32.056  1.00  0.00     0.049 A 
ATOM     60  C   UNL A   1      38.979  32.750  31.755  1.00  0.00     0.074 A 
ATOM     61  C   UNL A   1      45.181  31.754  32.719  1.00  0.00     0.029 A 
ATOM     62  N   UNL A   1      43.047  31.556  32.131  1.00  0.00    -0.354 N 
ATOM     63  N   UNL A   1      40.249  32.451  31.911  1.00  0.00    -0.248 NA
ATOM     64  C   UNL A   1      38.564  33.983  32.437  1.00  0.00     0.031 C 
ATOM     65  C   UNL A   1      44.470  32.828  33.262  1.00  0.00     0.029 A 
ATOM     66  C   UNL A   1      43.148  32.731  32.859  1.00  0.00     0.049 A 
ATOM     67  H   UNL A   1      42.217  31.213  31.725  1.00  0.00     0.167 HD
ATOM     68  C   UNL A   1      40.790  33.483  32.675  1.00  0.00     0.074 A 
ATOM     69  C   UNL A   1      39.713  34.414  32.937  1.00  0.00     0.031 C 
ATOM     70  C   UNL A   1      42.063  33.650  33.114  1.00  0.00     0.034 A 
BRANCH  57  71
ATOM     71  C   UNL A   1      45.926  29.078  31.485  1.00  0.00     0.023 A 
ATOM     72  C   UNL A   1      46.855  29.234  30.441  1.00  0.00     0.031 A 
ATOM     73  C   UNL A   1      46.325  28.336  32.612  1.00  0.00     0.131 A 
ATOM     74  C   UNL A   1      48.103  28.599  30.511  1.00  0.00     0.055 A 
ATOM     75  C   UNL A   1      47.601  27.778  32.714  1.00  0.00     0.041 A 
ATOM     76  F   UNL A   1      45.475  28.130  33.631  1.00  0.00    -0.206 F 
ATOM     77  C   UNL A   1      48.495  27.897  31.653  1.00  0.00     0.022 A 
BRANCH  74  78
ATOM     78  S   UNL A   1      49.150  28.582  29.030  1.00  0.00     0.124 S 
ATOM     79  O   UNL A   1      49.049  29.968  28.582  1.00  0.00    -0.237 OA
ATOM     80  O   UNL A   1      50.445  28.175  29.564  1.00  0.00    -0.237 OA
ATOM     81  O   UNL A   1      48.497  27.604  28.161  1.00  0.00    -0.744 OA
ENDBRANCH  74  78
ENDBRANCH  57  71
BRANCH  58  82
ATOM     82  C   UNL A   1      36.511  32.509  30.946  1.00  0.00     0.023 A 
ATOM     83  C   UNL A   1      35.983  33.103  29.789  1.00  0.00     0.031 A 
ATOM     84  C   UNL A   1      35.695  32.456  32.089  1.00  0.00     0.131 A 
ATOM     85  C   UNL A   1      34.701  33.674  29.819  1.00  0.00     0.055 A 
ATOM     86  C   UNL A   1      34.395  32.965  32.093  1.00  0.00     0.041 A 
ATOM     87  F   UNL A   1      36.148  31.899  33.224  1.00  0.00    -0.206 F 
ATOM     88  C   UNL A   1      33.898  33.595  30.957  1.00  0.00     0.022 A 
BRANCH  85  89
ATOM     89  S   UNL A   1      34.145  34.629  28.380  1.00  0.00     0.124 S 
ATOM     90  O   UNL A   1      34.302  35.999  28.858  1.00  0.00    -0.237 OA
ATOM     91  O   UNL A   1      35.084  34.198  27.350  1.00  0.00    -0.237 OA
ATOM     92  O   UNL A   1      32.765  34.187  28.192  1.00  0.00    -0.744 OA
ENDBRANCH  85  89
ENDBRANCH  58  82
BRANCH  70  93
ATOM     93  C   UNL A   1      42.374  34.918  33.873  1.00  0.00     0.023 A 
ATOM     94  C   UNL A   1      42.131  35.041  35.252  1.00  0.00     0.031 A 
ATOM     95  C   UNL A   1      42.931  36.021  33.200  1.00  0.00     0.131 A 
ATOM     96  C   UNL A   1      42.396  36.255  35.903  1.00  0.00     0.055 A 
ATOM     97  C   UNL A   1      43.256  37.203  33.865  1.00  0.00     0.041 A 
ATOM     98  F   UNL A   1      43.180  35.962  31.881  1.00  0.00    -0.206 F 
ATOM     99  C   UNL A   1      42.976  37.329  35.223  1.00  0.00     0.022 A 
BRANCH  96 100
ATOM    100  S   UNL A   1      41.885  36.446  37.632  1.00  0.00     0.124 S 
ATOM    101  O   UNL A   1      42.822  37.456  38.114  1.00  0.00    -0.237 OA
ATOM    102  O   UNL A   1      40.496  36.876  37.503  1.00  0.00    -0.237 OA
ATOM    103  O   UNL A   1      42.070  35.111  38.196  1.00  0.00    -0.744 OA
ENDBRANCH  96 100
ENDBRANCH  70  93
ENDBRANCH  44  45
ENDBRANCH  36  39
ENDBRANCH  34  35
ENDBRANCH  33  34
ENDBRANCH  32  33
ENDBRANCH   1  32
TORSDOF 20
ENDMDL
