MODEL 1
REMARK VINA RESULT:     -10.8      0.000      0.000
REMARK SMILES CCC[NH2+]CC(=O)N1[C@@H](C(=O)NCCCCCCNC(=O)c2ccc(-c3c4nc(c(-c5cc(S(=O)(=O)[O-])ccc5F)c5ccc([nH]5)c(-c5cc(S(=O)(=O)[O-])ccc5F)c5nc(c(-c6cc(S(=O)(=O)[O-])ccc6F)c6ccc3[nH]6)C=C5)C=C4)cc2)CC[C@@H]2CCCC[C@@H]21
REMARK SMILES IDX 14 1 13 2 12 3 10 4 11 5 9 7 8 8 92 9 85 10 87 11 91 12
REMARK SMILES IDX 86 13 88 14 90 15 89 16 6 17 7 18 5 19 4 20 3 23 2 24 1 25
REMARK SMILES IDX 15 26 16 27 17 28 18 29 19 30 20 31 21 33 22 34 23 35 84 36
REMARK SMILES IDX 24 37 83 38 25 39 26 40 27 41 77 42 28 43 82 44 76 45 78 46
REMARK SMILES IDX 29 47 81 48 75 49 74 50 30 52 62 53 42 54 61 55 43 56 46 57
REMARK SMILES IDX 60 58 79 59 44 60 45 61 59 63 80 64 47 65 31 66 32 67 40 68
REMARK SMILES IDX 33 69 39 70 41 71 38 72 34 73 35 74 36 75 37 76 63 77 64 78
REMARK SMILES IDX 72 79 65 80 71 81 73 82 70 83 66 84 67 85 68 86 69 87 48 88
REMARK SMILES IDX 49 89 57 90 50 91 56 92 58 93 55 94 51 95 52 96 53 97 54 98
REMARK H PARENT 12 6 4 21 4 22 19 32 78 51 46 62
REMARK Flexibility Score: inf
ROOT
ATOM      1  C   UNL A   1      33.470  23.923  23.333  1.00  0.00     0.021 C 
ENDROOT
BRANCH   1   2
ATOM      2  C   UNL A   1      33.176  25.366  22.902  1.00  0.00     0.116 C 
BRANCH   2   3
ATOM      3  N   UNL A   1      31.756  25.580  22.778  1.00  0.00    -0.354 N 
ATOM      4  C   UNL A   1      30.813  25.940  23.672  1.00  0.00     0.242 C 
ATOM      5  O   UNL A   1      29.679  25.510  23.433  1.00  0.00    -0.273 OA
ATOM      6  H   UNL A   1      31.408  25.436  21.868  1.00  0.00     0.163 HD
BRANCH   4   7
ATOM      7  C   UNL A   1      31.027  26.986  24.789  1.00  0.00     0.175 C 
ATOM      8  N   UNL A   1      31.854  28.067  24.220  1.00  0.00    -0.323 N 
ATOM      9  C   UNL A   1      32.783  28.826  25.072  1.00  0.00     0.089 C 
ATOM     10  C   UNL A   1      31.481  26.374  26.120  1.00  0.00     0.036 C 
ATOM     11  C   UNL A   1      33.374  27.997  26.219  1.00  0.00     0.012 C 
ATOM     12  C   UNL A   1      32.089  30.110  25.584  1.00  0.00     0.025 C 
ATOM     13  C   UNL A   1      32.253  27.328  27.018  1.00  0.00     0.008 C 
ATOM     14  C   UNL A   1      34.278  28.862  27.108  1.00  0.00     0.006 C 
ATOM     15  C   UNL A   1      32.964  30.932  26.525  1.00  0.00     0.002 C 
ATOM     16  C   UNL A   1      33.569  30.100  27.648  1.00  0.00     0.000 C 
BRANCH   8  17
ATOM     17  C   UNL A   1      31.633  28.619  22.956  1.00  0.00     0.278 C 
ATOM     18  O   UNL A   1      32.617  28.967  22.286  1.00  0.00    -0.268 OA
BRANCH  17  19
ATOM     19  C   UNL A   1      30.244  29.122  22.495  1.00  0.00     0.362 C 
BRANCH  19  20
ATOM     20  N   UNL A   1      30.096  30.446  21.896  1.00  0.00    -0.338 N 
ATOM     21  H   UNL A   1      30.358  31.140  22.596  1.00  0.00     0.346 HD
ATOM     22  H   UNL A   1      30.696  30.454  21.071  1.00  0.00     0.346 HD
BRANCH  20  23
ATOM     23  C   UNL A   1      28.761  30.764  21.426  1.00  0.00     0.260 C 
BRANCH  23  24
ATOM     24  C   UNL A   1      27.667  30.512  22.475  1.00  0.00     0.058 C 
ATOM     25  C   UNL A   1      27.611  31.504  23.629  1.00  0.00     0.010 C 
ENDBRANCH  23  24
ENDBRANCH  20  23
ENDBRANCH  19  20
ENDBRANCH  17  19
ENDBRANCH   8  17
ENDBRANCH   4   7
ENDBRANCH   2   3
ENDBRANCH   1   2
BRANCH   1  26
ATOM     26  C   UNL A   1      33.609  23.664  24.847  1.00  0.00     0.002 C 
BRANCH  26  27
ATOM     27  C   UNL A   1      34.493  22.497  25.303  1.00  0.00     0.002 C 
BRANCH  27  28
ATOM     28  C   UNL A   1      35.530  22.818  26.370  1.00  0.00     0.021 C 
BRANCH  28  29
ATOM     29  C   UNL A   1      36.842  23.351  25.823  1.00  0.00     0.116 C 
BRANCH  29  30
ATOM     30  N   UNL A   1      37.941  22.422  26.013  1.00  0.00    -0.352 N 
ATOM     31  C   UNL A   1      39.213  22.716  26.445  1.00  0.00     0.251 C 
ATOM     32  H   UNL A   1      37.756  21.477  25.809  1.00  0.00     0.163 HD
ATOM     33  O   UNL A   1      40.095  21.865  26.423  1.00  0.00    -0.269 OA
BRANCH  31  34
ATOM     34  C   UNL A   1      39.498  24.094  26.896  1.00  0.00     0.039 A 
ATOM     35  C   UNL A   1      39.321  24.419  28.242  1.00  0.00     0.014 A 
ATOM     36  C   UNL A   1      40.011  25.035  25.997  1.00  0.00     0.014 A 
ATOM     37  C   UNL A   1      39.707  25.680  28.700  1.00  0.00     0.010 A 
ATOM     38  C   UNL A   1      40.461  26.261  26.469  1.00  0.00     0.010 A 
ATOM     39  C   UNL A   1      40.301  26.601  27.821  1.00  0.00    -0.014 A 
BRANCH  39  40
ATOM     40  C   UNL A   1      40.721  27.945  28.288  1.00  0.00     0.031 A 
ATOM     41  C   UNL A   1      42.186  28.255  28.424  1.00  0.00     0.074 A 
ATOM     42  C   UNL A   1      39.796  28.847  28.660  1.00  0.00     0.049 A 
ATOM     43  N   UNL A   1      42.768  29.336  28.877  1.00  0.00    -0.248 NA
ATOM     44  C   UNL A   1      43.118  27.185  28.040  1.00  0.00     0.031 C 
ATOM     45  C   UNL A   1      38.347  28.632  28.641  1.00  0.00     0.029 A 
ATOM     46  N   UNL A   1      39.937  30.123  29.145  1.00  0.00    -0.354 N 
ATOM     47  C   UNL A   1      44.132  29.066  28.854  1.00  0.00     0.074 A 
ATOM     48  C   UNL A   1      44.280  27.696  28.411  1.00  0.00     0.031 C 
ATOM     49  C   UNL A   1      37.734  29.741  29.087  1.00  0.00     0.029 A 
ATOM     50  C   UNL A   1      38.743  30.734  29.444  1.00  0.00     0.049 A 
ATOM     51  H   UNL A   1      40.811  30.559  29.267  1.00  0.00     0.167 HD
ATOM     52  C   UNL A   1      45.166  29.894  29.148  1.00  0.00     0.034 A 
ATOM     53  C   UNL A   1      38.491  31.955  29.954  1.00  0.00     0.034 A 
ATOM     54  C   UNL A   1      44.994  31.264  29.566  1.00  0.00     0.049 A 
ATOM     55  C   UNL A   1      39.647  32.875  30.244  1.00  0.00     0.074 A 
ATOM     56  C   UNL A   1      45.962  32.223  29.804  1.00  0.00     0.029 A 
ATOM     57  N   UNL A   1      43.767  31.866  29.817  1.00  0.00    -0.354 N 
ATOM     58  N   UNL A   1      40.935  32.638  30.140  1.00  0.00    -0.248 NA
ATOM     59  C   UNL A   1      39.316  34.230  30.701  1.00  0.00     0.031 C 
ATOM     60  C   UNL A   1      45.324  33.387  30.253  1.00  0.00     0.029 A 
ATOM     61  C   UNL A   1      43.954  33.175  30.236  1.00  0.00     0.049 A 
ATOM     62  H   UNL A   1      42.893  31.428  29.713  1.00  0.00     0.167 HD
ATOM     63  C   UNL A   1      41.569  33.822  30.504  1.00  0.00     0.074 A 
ATOM     64  C   UNL A   1      40.520  34.773  30.817  1.00  0.00     0.031 C 
ATOM     65  C   UNL A   1      42.896  34.100  30.569  1.00  0.00     0.034 A 
BRANCH  52  66
ATOM     66  C   UNL A   1      46.558  29.314  29.050  1.00  0.00     0.023 A 
ATOM     67  C   UNL A   1      47.254  29.272  27.829  1.00  0.00     0.031 A 
ATOM     68  C   UNL A   1      47.167  28.726  30.171  1.00  0.00     0.131 A 
ATOM     69  C   UNL A   1      48.460  28.560  27.732  1.00  0.00     0.055 A 
ATOM     70  C   UNL A   1      48.414  28.101  30.090  1.00  0.00     0.041 A 
ATOM     71  F   UNL A   1      46.546  28.718  31.362  1.00  0.00    -0.206 F 
ATOM     72  C   UNL A   1      49.057  27.995  28.860  1.00  0.00     0.022 A 
BRANCH  69  73
ATOM     73  S   UNL A   1      49.132  28.223  26.081  1.00  0.00     0.124 S 
ATOM     74  O   UNL A   1      50.112  29.299  25.936  1.00  0.00    -0.237 OA
ATOM     75  O   UNL A   1      49.677  26.879  26.230  1.00  0.00    -0.237 OA
ATOM     76  O   UNL A   1      47.966  28.333  25.207  1.00  0.00    -0.744 OA
ENDBRANCH  69  73
ENDBRANCH  52  66
BRANCH  53  77
ATOM     77  C   UNL A   1      37.089  32.373  30.223  1.00  0.00     0.023 A 
ATOM     78  C   UNL A   1      36.359  33.111  29.281  1.00  0.00     0.031 A 
ATOM     79  C   UNL A   1      36.458  32.027  31.430  1.00  0.00     0.131 A 
ATOM     80  C   UNL A   1      35.043  33.506  29.572  1.00  0.00     0.055 A 
ATOM     81  C   UNL A   1      35.139  32.390  31.702  1.00  0.00     0.041 A 
ATOM     82  F   UNL A   1      37.114  31.306  32.355  1.00  0.00    -0.206 F 
ATOM     83  C   UNL A   1      34.425  33.141  30.771  1.00  0.00     0.022 A 
BRANCH  80  84
ATOM     84  S   UNL A   1      34.153  34.528  28.368  1.00  0.00     0.124 S 
ATOM     85  O   UNL A   1      34.947  34.325  27.161  1.00  0.00    -0.237 OA
ATOM     86  O   UNL A   1      32.826  33.921  28.373  1.00  0.00    -0.237 OA
ATOM     87  O   UNL A   1      34.222  35.870  28.943  1.00  0.00    -0.744 OA
ENDBRANCH  80  84
ENDBRANCH  53  77
BRANCH  65  88
ATOM     88  C   UNL A   1      43.278  35.502  30.973  1.00  0.00     0.023 A 
ATOM     89  C   UNL A   1      43.330  35.890  32.323  1.00  0.00     0.031 A 
ATOM     90  C   UNL A   1      43.583  36.461  29.992  1.00  0.00     0.131 A 
ATOM     91  C   UNL A   1      43.636  37.218  32.654  1.00  0.00     0.055 A 
ATOM     92  C   UNL A   1      43.936  37.768  30.330  1.00  0.00     0.041 A 
ATOM     93  F   UNL A   1      43.545  36.142  28.689  1.00  0.00    -0.206 F 
ATOM     94  C   UNL A   1      43.953  38.155  31.667  1.00  0.00     0.022 A 
BRANCH  91  95
ATOM     95  S   UNL A   1      43.540  37.726  34.392  1.00  0.00     0.124 S 
ATOM     96  O   UNL A   1      43.238  39.150  34.276  1.00  0.00    -0.237 OA
ATOM     97  O   UNL A   1      42.464  36.885  34.905  1.00  0.00    -0.237 OA
ATOM     98  O   UNL A   1      44.870  37.416  34.915  1.00  0.00    -0.744 OA
ENDBRANCH  91  95
ENDBRANCH  65  88
ENDBRANCH  39  40
ENDBRANCH  31  34
ENDBRANCH  29  30
ENDBRANCH  28  29
ENDBRANCH  27  28
ENDBRANCH  26  27
ENDBRANCH   1  26
TORSDOF 21
ENDMDL
MODEL 2
REMARK VINA RESULT:     -10.1      4.124      9.445
REMARK SMILES CCC[NH2+]CC(=O)N1[C@@H](C(=O)NCCCCCCNC(=O)c2ccc(-c3c4nc(c(-c5cc(S(=O)(=O)[O-])ccc5F)c5ccc([nH]5)c(-c5cc(S(=O)(=O)[O-])ccc5F)c5nc(c(-c6cc(S(=O)(=O)[O-])ccc6F)c6ccc3[nH]6)C=C5)C=C4)cc2)CC[C@@H]2CCCC[C@@H]21
REMARK SMILES IDX 14 1 13 2 12 3 10 4 11 5 9 7 8 8 92 9 85 10 87 11 91 12
REMARK SMILES IDX 86 13 88 14 90 15 89 16 6 17 7 18 5 19 4 20 3 23 2 24 1 25
REMARK SMILES IDX 15 26 16 27 17 28 18 29 19 30 20 31 21 33 22 34 23 35 84 36
REMARK SMILES IDX 24 37 83 38 25 39 26 40 27 41 77 42 28 43 82 44 76 45 78 46
REMARK SMILES IDX 29 47 81 48 75 49 74 50 30 52 62 53 42 54 61 55 43 56 46 57
REMARK SMILES IDX 60 58 79 59 44 60 45 61 59 63 80 64 47 65 31 66 32 67 40 68
REMARK SMILES IDX 33 69 39 70 41 71 38 72 34 73 35 74 36 75 37 76 63 77 64 78
REMARK SMILES IDX 72 79 65 80 71 81 73 82 70 83 66 84 67 85 68 86 69 87 48 88
REMARK SMILES IDX 49 89 57 90 50 91 56 92 58 93 55 94 51 95 52 96 53 97 54 98
REMARK H PARENT 12 6 4 21 4 22 19 32 78 51 46 62
REMARK Flexibility Score: inf
ROOT
ATOM      1  C   UNL A   1      37.743  23.955  26.479  1.00  0.00     0.021 C 
ENDROOT
BRANCH   1   2
ATOM      2  C   UNL A   1      36.307  23.937  25.936  1.00  0.00     0.116 C 
BRANCH   2   3
ATOM      3  N   UNL A   1      35.453  23.145  26.784  1.00  0.00    -0.354 N 
ATOM      4  C   UNL A   1      34.417  22.326  26.513  1.00  0.00     0.242 C 
ATOM      5  O   UNL A   1      33.570  22.244  27.410  1.00  0.00    -0.273 OA
ATOM      6  H   UNL A   1      35.666  23.214  27.743  1.00  0.00     0.163 HD
BRANCH   4   7
ATOM      7  C   UNL A   1      34.357  21.369  25.301  1.00  0.00     0.175 C 
ATOM      8  N   UNL A   1      32.933  21.073  25.050  1.00  0.00    -0.323 N 
ATOM      9  C   UNL A   1      32.527  19.774  24.491  1.00  0.00     0.089 C 
ATOM     10  C   UNL A   1      35.317  20.178  25.415  1.00  0.00     0.036 C 
ATOM     11  C   UNL A   1      33.437  18.616  24.916  1.00  0.00     0.012 C 
ATOM     12  C   UNL A   1      32.408  19.883  22.953  1.00  0.00     0.025 C 
ATOM     13  C   UNL A   1      34.898  18.956  24.614  1.00  0.00     0.008 C 
ATOM     14  C   UNL A   1      33.000  17.306  24.246  1.00  0.00     0.006 C 
ATOM     15  C   UNL A   1      32.044  18.563  22.283  1.00  0.00     0.002 C 
ATOM     16  C   UNL A   1      32.934  17.409  22.726  1.00  0.00     0.000 C 
BRANCH   8  17
ATOM     17  C   UNL A   1      31.934  22.049  25.056  1.00  0.00     0.278 C 
ATOM     18  O   UNL A   1      30.902  21.828  25.708  1.00  0.00    -0.268 OA
BRANCH  17  19
ATOM     19  C   UNL A   1      31.900  23.217  24.042  1.00  0.00     0.362 C 
BRANCH  19  20
ATOM     20  N   UNL A   1      32.938  24.244  24.059  1.00  0.00    -0.338 N 
ATOM     21  H   UNL A   1      32.520  25.111  24.399  1.00  0.00     0.346 HD
ATOM     22  H   UNL A   1      33.681  23.888  24.660  1.00  0.00     0.346 HD
BRANCH  20  23
ATOM     23  C   UNL A   1      33.556  24.518  22.775  1.00  0.00     0.260 C 
BRANCH  23  24
ATOM     24  C   UNL A   1      33.239  25.919  22.231  1.00  0.00     0.058 C 
ATOM     25  C   UNL A   1      33.288  27.053  23.246  1.00  0.00     0.010 C 
ENDBRANCH  23  24
ENDBRANCH  20  23
ENDBRANCH  19  20
ENDBRANCH  17  19
ENDBRANCH   8  17
ENDBRANCH   4   7
ENDBRANCH   2   3
ENDBRANCH   1   2
BRANCH   1  26
ATOM     26  C   UNL A   1      38.656  22.783  26.068  1.00  0.00     0.002 C 
BRANCH  26  27
ATOM     27  C   UNL A   1      38.153  21.820  24.985  1.00  0.00     0.002 C 
BRANCH  27  28
ATOM     28  C   UNL A   1      38.669  20.390  25.068  1.00  0.00     0.021 C 
BRANCH  28  29
ATOM     29  C   UNL A   1      39.466  20.087  26.323  1.00  0.00     0.116 C 
BRANCH  29  30
ATOM     30  N   UNL A   1      40.592  19.206  26.066  1.00  0.00    -0.352 N 
ATOM     31  C   UNL A   1      41.918  19.558  25.974  1.00  0.00     0.251 C 
ATOM     32  H   UNL A   1      40.383  18.252  25.944  1.00  0.00     0.163 HD
ATOM     33  O   UNL A   1      42.758  18.744  25.608  1.00  0.00    -0.269 OA
BRANCH  31  34
ATOM     34  C   UNL A   1      42.297  20.951  26.289  1.00  0.00     0.039 A 
ATOM     35  C   UNL A   1      42.637  21.283  27.601  1.00  0.00     0.014 A 
ATOM     36  C   UNL A   1      42.385  21.902  25.267  1.00  0.00     0.014 A 
ATOM     37  C   UNL A   1      43.116  22.564  27.882  1.00  0.00     0.010 A 
ATOM     38  C   UNL A   1      42.930  23.151  25.536  1.00  0.00     0.010 A 
ATOM     39  C   UNL A   1      43.287  23.499  26.848  1.00  0.00    -0.014 A 
BRANCH  39  40
ATOM     40  C   UNL A   1      43.798  24.864  27.125  1.00  0.00     0.031 A 
ATOM     41  C   UNL A   1      42.873  25.896  27.707  1.00  0.00     0.074 A 
ATOM     42  C   UNL A   1      45.057  25.193  26.782  1.00  0.00     0.049 A 
ATOM     43  N   UNL A   1      43.093  27.160  27.961  1.00  0.00    -0.248 NA
ATOM     44  C   UNL A   1      41.502  25.452  28.000  1.00  0.00     0.031 C 
ATOM     45  C   UNL A   1      46.023  24.296  26.143  1.00  0.00     0.029 A 
ATOM     46  N   UNL A   1      45.735  26.378  26.907  1.00  0.00    -0.354 N 
ATOM     47  C   UNL A   1      41.883  27.667  28.421  1.00  0.00     0.074 A 
ATOM     48  C   UNL A   1      40.920  26.589  28.340  1.00  0.00     0.031 C 
ATOM     49  C   UNL A   1      47.171  24.962  25.939  1.00  0.00     0.029 A 
ATOM     50  C   UNL A   1      47.017  26.335  26.411  1.00  0.00     0.049 A 
ATOM     51  H   UNL A   1      45.342  27.183  27.314  1.00  0.00     0.167 HD
ATOM     52  C   UNL A   1      41.607  28.909  28.893  1.00  0.00     0.034 A 
ATOM     53  C   UNL A   1      47.957  27.296  26.339  1.00  0.00     0.034 A 
ATOM     54  C   UNL A   1      42.590  29.961  28.986  1.00  0.00     0.049 A 
ATOM     55  C   UNL A   1      47.648  28.660  26.897  1.00  0.00     0.074 A 
ATOM     56  C   UNL A   1      42.454  31.226  29.529  1.00  0.00     0.029 A 
ATOM     57  N   UNL A   1      43.894  29.869  28.514  1.00  0.00    -0.354 N 
ATOM     58  N   UNL A   1      46.523  29.106  27.408  1.00  0.00    -0.248 NA
ATOM     59  C   UNL A   1      48.740  29.641  26.888  1.00  0.00     0.031 C 
ATOM     60  C   UNL A   1      43.656  31.918  29.333  1.00  0.00     0.029 A 
ATOM     61  C   UNL A   1      44.564  31.065  28.725  1.00  0.00     0.049 A 
ATOM     62  H   UNL A   1      44.285  29.072  28.090  1.00  0.00     0.167 HD
ATOM     63  C   UNL A   1      46.777  30.418  27.795  1.00  0.00     0.074 A 
ATOM     64  C   UNL A   1      48.165  30.684  27.471  1.00  0.00     0.031 C 
ATOM     65  C   UNL A   1      45.941  31.320  28.371  1.00  0.00     0.034 A 
BRANCH  52  66
ATOM     66  C   UNL A   1      40.181  29.183  29.312  1.00  0.00     0.023 A 
ATOM     67  C   UNL A   1      39.795  29.174  30.664  1.00  0.00     0.031 A 
ATOM     68  C   UNL A   1      39.179  29.378  28.346  1.00  0.00     0.131 A 
ATOM     69  C   UNL A   1      38.436  29.243  31.007  1.00  0.00     0.055 A 
ATOM     70  C   UNL A   1      37.837  29.542  28.699  1.00  0.00     0.041 A 
ATOM     71  F   UNL A   1      39.481  29.379  27.037  1.00  0.00    -0.206 F 
ATOM     72  C   UNL A   1      37.456  29.452  30.035  1.00  0.00     0.022 A 
BRANCH  69  73
ATOM     73  S   UNL A   1      37.957  28.865  32.716  1.00  0.00     0.124 S 
ATOM     74  O   UNL A   1      38.052  27.406  32.732  1.00  0.00    -0.237 OA
ATOM     75  O   UNL A   1      38.965  29.579  33.491  1.00  0.00    -0.237 OA
ATOM     76  O   UNL A   1      36.599  29.394  32.817  1.00  0.00    -0.744 OA
ENDBRANCH  69  73
ENDBRANCH  52  66
BRANCH  53  77
ATOM     77  C   UNL A   1      49.274  27.001  25.713  1.00  0.00     0.023 A 
ATOM     78  C   UNL A   1      49.581  27.451  24.421  1.00  0.00     0.031 A 
ATOM     79  C   UNL A   1      50.249  26.268  26.412  1.00  0.00     0.131 A 
ATOM     80  C   UNL A   1      50.827  27.140  23.852  1.00  0.00     0.055 A 
ATOM     81  C   UNL A   1      51.499  25.991  25.856  1.00  0.00     0.041 A 
ATOM     82  F   UNL A   1      50.005  25.831  27.658  1.00  0.00    -0.206 F 
ATOM     83  C   UNL A   1      51.791  26.423  24.565  1.00  0.00     0.022 A 
BRANCH  80  84
ATOM     84  S   UNL A   1      51.163  27.668  22.150  1.00  0.00     0.124 S 
ATOM     85  O   UNL A   1      50.473  28.952  22.094  1.00  0.00    -0.237 OA
ATOM     86  O   UNL A   1      52.621  27.720  22.129  1.00  0.00    -0.237 OA
ATOM     87  O   UNL A   1      50.570  26.604  21.341  1.00  0.00    -0.744 OA
ENDBRANCH  80  84
ENDBRANCH  53  77
BRANCH  65  88
ATOM     88  C   UNL A   1      46.524  32.669  28.707  1.00  0.00     0.023 A 
ATOM     89  C   UNL A   1      46.430  33.753  27.817  1.00  0.00     0.031 A 
ATOM     90  C   UNL A   1      47.188  32.867  29.929  1.00  0.00     0.131 A 
ATOM     91  C   UNL A   1      47.033  34.976  28.143  1.00  0.00     0.055 A 
ATOM     92  C   UNL A   1      47.743  34.101  30.270  1.00  0.00     0.041 A 
ATOM     93  F   UNL A   1      47.307  31.864  30.813  1.00  0.00    -0.206 F 
ATOM     94  C   UNL A   1      47.677  35.161  29.370  1.00  0.00     0.022 A 
BRANCH  91  95
ATOM     95  S   UNL A   1      47.033  36.305  26.909  1.00  0.00     0.124 S 
ATOM     96  O   UNL A   1      46.467  35.635  25.741  1.00  0.00    -0.237 OA
ATOM     97  O   UNL A   1      46.187  37.314  27.536  1.00  0.00    -0.237 OA
ATOM     98  O   UNL A   1      48.445  36.666  26.792  1.00  0.00    -0.744 OA
ENDBRANCH  91  95
ENDBRANCH  65  88
ENDBRANCH  39  40
ENDBRANCH  31  34
ENDBRANCH  29  30
ENDBRANCH  28  29
ENDBRANCH  27  28
ENDBRANCH  26  27
ENDBRANCH   1  26
TORSDOF 21
ENDMDL
MODEL 3
REMARK VINA RESULT:     -10.0      5.052      9.785
REMARK SMILES CCC[NH2+]CC(=O)N1[C@@H](C(=O)NCCCCCCNC(=O)c2ccc(-c3c4nc(c(-c5cc(S(=O)(=O)[O-])ccc5F)c5ccc([nH]5)c(-c5cc(S(=O)(=O)[O-])ccc5F)c5nc(c(-c6cc(S(=O)(=O)[O-])ccc6F)c6ccc3[nH]6)C=C5)C=C4)cc2)CC[C@@H]2CCCC[C@@H]21
REMARK SMILES IDX 14 1 13 2 12 3 10 4 11 5 9 7 8 8 92 9 85 10 87 11 91 12
REMARK SMILES IDX 86 13 88 14 90 15 89 16 6 17 7 18 5 19 4 20 3 23 2 24 1 25
REMARK SMILES IDX 15 26 16 27 17 28 18 29 19 30 20 31 21 33 22 34 23 35 84 36
REMARK SMILES IDX 24 37 83 38 25 39 26 40 27 41 77 42 28 43 82 44 76 45 78 46
REMARK SMILES IDX 29 47 81 48 75 49 74 50 30 52 62 53 42 54 61 55 43 56 46 57
REMARK SMILES IDX 60 58 79 59 44 60 45 61 59 63 80 64 47 65 31 66 32 67 40 68
REMARK SMILES IDX 33 69 39 70 41 71 38 72 34 73 35 74 36 75 37 76 63 77 64 78
REMARK SMILES IDX 72 79 65 80 71 81 73 82 70 83 66 84 67 85 68 86 69 87 48 88
REMARK SMILES IDX 49 89 57 90 50 91 56 92 58 93 55 94 51 95 52 96 53 97 54 98
REMARK H PARENT 12 6 4 21 4 22 19 32 78 51 46 62
REMARK Flexibility Score: inf
ROOT
ATOM      1  C   UNL A   1      34.193  30.435  27.868  1.00  0.00     0.021 C 
ENDROOT
BRANCH   1   2
ATOM      2  C   UNL A   1      33.364  29.873  26.705  1.00  0.00     0.116 C 
BRANCH   2   3
ATOM      3  N   UNL A   1      32.525  28.792  27.155  1.00  0.00    -0.354 N 
ATOM      4  C   UNL A   1      32.003  27.725  26.516  1.00  0.00     0.242 C 
ATOM      5  O   UNL A   1      30.931  27.317  26.975  1.00  0.00    -0.273 OA
ATOM      6  H   UNL A   1      32.287  28.841  28.108  1.00  0.00     0.163 HD
BRANCH   4   7
ATOM      7  C   UNL A   1      32.751  26.900  25.444  1.00  0.00     0.175 C 
ATOM      8  N   UNL A   1      31.865  26.809  24.269  1.00  0.00    -0.323 N 
ATOM      9  C   UNL A   1      31.906  25.629  23.391  1.00  0.00     0.089 C 
ATOM     10  C   UNL A   1      33.346  25.593  25.984  1.00  0.00     0.036 C 
ATOM     11  C   UNL A   1      32.255  24.331  24.130  1.00  0.00     0.012 C 
ATOM     12  C   UNL A   1      32.862  25.894  22.205  1.00  0.00     0.025 C 
ATOM     13  C   UNL A   1      33.544  24.513  24.934  1.00  0.00     0.008 C 
ATOM     14  C   UNL A   1      32.348  23.154  23.149  1.00  0.00     0.006 C 
ATOM     15  C   UNL A   1      33.009  24.698  21.271  1.00  0.00     0.002 C 
ATOM     16  C   UNL A   1      33.331  23.406  22.011  1.00  0.00     0.000 C 
BRANCH   8  17
ATOM     17  C   UNL A   1      31.153  27.897  23.757  1.00  0.00     0.278 C 
ATOM     18  O   UNL A   1      31.532  29.039  24.057  1.00  0.00    -0.268 OA
BRANCH  17  19
ATOM     19  C   UNL A   1      29.747  27.755  23.127  1.00  0.00     0.362 C 
BRANCH  19  20
ATOM     20  N   UNL A   1      28.759  28.821  23.270  1.00  0.00    -0.338 N 
ATOM     21  H   UNL A   1      27.860  28.392  23.490  1.00  0.00     0.346 HD
ATOM     22  H   UNL A   1      29.108  29.435  24.007  1.00  0.00     0.346 HD
BRANCH  20  23
ATOM     23  C   UNL A   1      28.582  29.659  22.099  1.00  0.00     0.260 C 
BRANCH  23  24
ATOM     24  C   UNL A   1      28.647  31.163  22.408  1.00  0.00     0.058 C 
ATOM     25  C   UNL A   1      27.648  31.673  23.438  1.00  0.00     0.010 C 
ENDBRANCH  23  24
ENDBRANCH  20  23
ENDBRANCH  19  20
ENDBRANCH  17  19
ENDBRANCH   8  17
ENDBRANCH   4   7
ENDBRANCH   2   3
ENDBRANCH   1   2
BRANCH   1  26
ATOM     26  C   UNL A   1      35.113  31.632  27.551  1.00  0.00     0.002 C 
BRANCH  26  27
ATOM     27  C   UNL A   1      35.047  32.858  28.470  1.00  0.00     0.002 C 
BRANCH  27  28
ATOM     28  C   UNL A   1      33.817  33.743  28.320  1.00  0.00     0.021 C 
BRANCH  28  29
ATOM     29  C   UNL A   1      34.028  35.182  28.753  1.00  0.00     0.116 C 
BRANCH  29  30
ATOM     30  N   UNL A   1      33.068  35.607  29.756  1.00  0.00    -0.352 N 
ATOM     31  C   UNL A   1      33.079  35.306  31.097  1.00  0.00     0.251 C 
ATOM     32  H   UNL A   1      32.327  36.173  29.441  1.00  0.00     0.163 HD
ATOM     33  O   UNL A   1      32.130  35.604  31.814  1.00  0.00    -0.269 OA
BRANCH  31  34
ATOM     34  C   UNL A   1      34.245  34.578  31.642  1.00  0.00     0.039 A 
ATOM     35  C   UNL A   1      34.117  33.223  31.950  1.00  0.00     0.014 A 
ATOM     36  C   UNL A   1      35.478  35.227  31.772  1.00  0.00     0.014 A 
ATOM     37  C   UNL A   1      35.245  32.501  32.345  1.00  0.00     0.010 A 
ATOM     38  C   UNL A   1      36.610  34.490  32.094  1.00  0.00     0.010 A 
ATOM     39  C   UNL A   1      36.502  33.124  32.398  1.00  0.00    -0.014 A 
BRANCH  39  40
ATOM     40  C   UNL A   1      37.713  32.374  32.811  1.00  0.00     0.031 A 
ATOM     41  C   UNL A   1      38.370  32.695  34.125  1.00  0.00     0.074 A 
ATOM     42  C   UNL A   1      38.261  31.469  31.979  1.00  0.00     0.049 A 
ATOM     43  N   UNL A   1      39.469  32.212  34.645  1.00  0.00    -0.248 NA
ATOM     44  C   UNL A   1      37.723  33.734  34.940  1.00  0.00     0.031 C 
ATOM     45  C   UNL A   1      37.754  31.128  30.648  1.00  0.00     0.029 A 
ATOM     46  N   UNL A   1      39.377  30.685  32.123  1.00  0.00    -0.354 N 
ATOM     47  C   UNL A   1      39.657  32.904  35.836  1.00  0.00     0.074 A 
ATOM     48  C   UNL A   1      38.599  33.888  35.920  1.00  0.00     0.031 C 
ATOM     49  C   UNL A   1      38.553  30.196  30.101  1.00  0.00     0.029 A 
ATOM     50  C   UNL A   1      39.638  29.893  31.030  1.00  0.00     0.049 A 
ATOM     51  H   UNL A   1      39.937  30.688  32.931  1.00  0.00     0.167 HD
ATOM     52  C   UNL A   1      40.609  32.718  36.785  1.00  0.00     0.034 A 
ATOM     53  C   UNL A   1      40.643  29.026  30.801  1.00  0.00     0.034 A 
ATOM     54  C   UNL A   1      41.642  31.715  36.690  1.00  0.00     0.049 A 
ATOM     55  C   UNL A   1      41.673  28.805  31.876  1.00  0.00     0.074 A 
ATOM     56  C   UNL A   1      42.603  31.373  37.624  1.00  0.00     0.029 A 
ATOM     57  N   UNL A   1      41.851  30.898  35.585  1.00  0.00    -0.354 N 
ATOM     58  N   UNL A   1      41.795  29.408  33.037  1.00  0.00    -0.248 NA
ATOM     59  C   UNL A   1      42.687  27.776  31.620  1.00  0.00     0.031 C 
ATOM     60  C   UNL A   1      43.428  30.389  37.062  1.00  0.00     0.029 A 
ATOM     61  C   UNL A   1      42.945  30.073  35.802  1.00  0.00     0.049 A 
ATOM     62  H   UNL A   1      41.304  30.905  34.768  1.00  0.00     0.167 HD
ATOM     63  C   UNL A   1      42.892  28.819  33.657  1.00  0.00     0.074 A 
ATOM     64  C   UNL A   1      43.386  27.804  32.746  1.00  0.00     0.031 C 
ATOM     65  C   UNL A   1      43.438  29.086  34.871  1.00  0.00     0.034 A 
BRANCH  52  66
ATOM     66  C   UNL A   1      40.576  33.643  37.980  1.00  0.00     0.023 A 
ATOM     67  C   UNL A   1      39.724  33.405  39.073  1.00  0.00     0.031 A 
ATOM     68  C   UNL A   1      41.347  34.818  37.994  1.00  0.00     0.131 A 
ATOM     69  C   UNL A   1      39.579  34.377  40.075  1.00  0.00     0.055 A 
ATOM     70  C   UNL A   1      41.269  35.738  39.043  1.00  0.00     0.041 A 
ATOM     71  F   UNL A   1      42.167  35.112  36.972  1.00  0.00    -0.206 F 
ATOM     72  C   UNL A   1      40.364  35.530  40.080  1.00  0.00     0.022 A 
BRANCH  69  73
ATOM     73  S   UNL A   1      38.217  34.196  41.260  1.00  0.00     0.124 S 
ATOM     74  O   UNL A   1      37.255  33.414  40.486  1.00  0.00    -0.237 OA
ATOM     75  O   UNL A   1      38.856  33.503  42.372  1.00  0.00    -0.237 OA
ATOM     76  O   UNL A   1      37.813  35.574  41.531  1.00  0.00    -0.744 OA
ENDBRANCH  69  73
ENDBRANCH  52  66
BRANCH  53  77
ATOM     77  C   UNL A   1      40.721  28.307  29.501  1.00  0.00     0.023 A 
ATOM     78  C   UNL A   1      41.646  28.684  28.517  1.00  0.00     0.031 A 
ATOM     79  C   UNL A   1      39.871  27.220  29.233  1.00  0.00     0.131 A 
ATOM     80  C   UNL A   1      41.682  27.996  27.293  1.00  0.00     0.055 A 
ATOM     81  C   UNL A   1      39.934  26.516  28.029  1.00  0.00     0.041 A 
ATOM     82  F   UNL A   1      38.981  26.813  30.152  1.00  0.00    -0.206 F 
ATOM     83  C   UNL A   1      40.840  26.908  27.048  1.00  0.00     0.022 A 
BRANCH  80  84
ATOM     84  S   UNL A   1      42.834  28.560  26.011  1.00  0.00     0.124 S 
ATOM     85  O   UNL A   1      44.030  27.784  26.322  1.00  0.00    -0.237 OA
ATOM     86  O   UNL A   1      42.131  28.192  24.787  1.00  0.00    -0.237 OA
ATOM     87  O   UNL A   1      42.940  29.997  26.256  1.00  0.00    -0.744 OA
ENDBRANCH  80  84
ENDBRANCH  53  77
BRANCH  65  88
ATOM     88  C   UNL A   1      44.620  28.246  35.284  1.00  0.00     0.023 A 
ATOM     89  C   UNL A   1      44.455  26.951  35.806  1.00  0.00     0.031 A 
ATOM     90  C   UNL A   1      45.925  28.753  35.161  1.00  0.00     0.131 A 
ATOM     91  C   UNL A   1      45.577  26.223  36.230  1.00  0.00     0.055 A 
ATOM     92  C   UNL A   1      47.041  28.004  35.537  1.00  0.00     0.041 A 
ATOM     93  F   UNL A   1      46.136  29.984  34.669  1.00  0.00    -0.206 F 
ATOM     94  C   UNL A   1      46.869  26.736  36.086  1.00  0.00     0.022 A 
BRANCH  91  95
ATOM     95  S   UNL A   1      45.320  24.624  37.045  1.00  0.00     0.124 S 
ATOM     96  O   UNL A   1      44.741  25.024  38.324  1.00  0.00    -0.237 OA
ATOM     97  O   UNL A   1      44.418  23.944  36.122  1.00  0.00    -0.237 OA
ATOM     98  O   UNL A   1      46.667  24.059  37.125  1.00  0.00    -0.744 OA
ENDBRANCH  91  95
ENDBRANCH  65  88
ENDBRANCH  39  40
ENDBRANCH  31  34
ENDBRANCH  29  30
ENDBRANCH  28  29
ENDBRANCH  27  28
ENDBRANCH  26  27
ENDBRANCH   1  26
TORSDOF 21
ENDMDL
