MODEL 1
REMARK VINA RESULT:     -10.6      0.000      0.000
REMARK SMILES Cc1ccc(O)c(C[C@H](NC=O)C(=O)NCCCCCCNC(=O)c2ccc(-c3c4nc(c(-c5cc(S(=O)(=O)[O-])ccc5F)c5ccc([nH]5)c(-c5cc(S(=O)(=O)[O-])ccc5F)c5nc(c(-c6cc(S(=O)(=O)[O-])ccc6F)c6ccc3[nH]6)C=C5)C=C4)cc2)n1
REMARK SMILES IDX 18 1 17 2 16 3 15 4 13 5 14 6 9 8 8 9 7 10 1 11 2 12 3 13
REMARK SMILES IDX 88 14 4 15 5 16 6 17 10 19 11 20 12 22 19 23 20 24 21 25
REMARK SMILES IDX 22 26 23 27 24 29 25 30 26 31 87 32 27 33 86 34 28 35 29 36
REMARK SMILES IDX 30 37 80 38 31 39 85 40 79 41 81 42 32 43 84 44 78 45 77 46
REMARK SMILES IDX 33 48 65 49 45 50 64 51 46 52 49 53 63 54 82 55 47 56 48 57
REMARK SMILES IDX 62 59 83 60 50 61 34 62 35 63 43 64 36 65 42 66 44 67 41 68
REMARK SMILES IDX 37 69 38 70 39 71 40 72 66 73 67 74 75 75 68 76 74 77 76 78
REMARK SMILES IDX 73 79 69 80 70 81 71 82 72 83 51 84 52 85 60 86 53 87 59 88
REMARK SMILES IDX 61 89 58 90 54 91 55 92 56 93 57 94
REMARK H PARENT 15 7 6 18 10 21 22 28 81 47 49 58
REMARK Flexibility Score: inf
ROOT
ATOM      1  C   UNL A   1      31.229  30.227  24.731  1.00  0.00     0.002 C 
ENDROOT
BRANCH   1   2
ATOM      2  C   UNL A   1      30.664  28.834  24.429  1.00  0.00     0.021 C 
BRANCH   2   3
ATOM      3  C   UNL A   1      30.701  28.458  22.953  1.00  0.00     0.116 C 
BRANCH   3   4
ATOM      4  N   UNL A   1      32.054  28.515  22.426  1.00  0.00    -0.354 N 
ATOM      5  C   UNL A   1      33.037  27.567  22.458  1.00  0.00     0.242 C 
ATOM      6  O   UNL A   1      34.043  27.742  21.764  1.00  0.00    -0.273 OA
ATOM      7  H   UNL A   1      32.298  29.359  21.981  1.00  0.00     0.163 HD
BRANCH   5   8
ATOM      8  C   UNL A   1      32.902  26.320  23.354  1.00  0.00     0.177 C 
BRANCH   8   9
ATOM      9  C   UNL A   1      33.380  26.501  24.807  1.00  0.00     0.095 C 
BRANCH   9  10
ATOM     10  C   UNL A   1      33.898  25.248  25.466  1.00  0.00     0.085 A 
ATOM     11  C   UNL A   1      37.196  23.610  25.455  1.00  0.00     0.067 C 
ATOM     12  C   UNL A   1      35.746  23.842  25.751  1.00  0.00     0.038 A 
ATOM     13  C   UNL A   1      35.020  22.985  26.562  1.00  0.00     0.027 A 
ATOM     14  N   UNL A   1      35.189  24.936  25.186  1.00  0.00    -0.254 NA
ATOM     15  C   UNL A   1      33.684  23.282  26.821  1.00  0.00     0.050 A 
ATOM     16  C   UNL A   1      33.118  24.431  26.274  1.00  0.00     0.137 A 
BRANCH  16  17
ATOM     17  O   UNL A   1      31.814  24.744  26.523  1.00  0.00    -0.506 OA
ATOM     18  H   UNL A   1      31.144  24.471  25.927  1.00  0.00     0.293 HD
ENDBRANCH  16  17
ENDBRANCH   9  10
ENDBRANCH   8   9
BRANCH   8  19
ATOM     19  N   UNL A   1      33.578  25.216  22.659  1.00  0.00    -0.347 N 
ATOM     20  C   UNL A   1      33.019  24.387  21.744  1.00  0.00     0.337 C 
ATOM     21  H   UNL A   1      34.526  25.064  22.878  1.00  0.00     0.164 HD
ATOM     22  O   UNL A   1      33.650  23.492  21.195  1.00  0.00    -0.279 OA
ENDBRANCH   8  19
ENDBRANCH   5   8
ENDBRANCH   3   4
ENDBRANCH   2   3
ENDBRANCH   1   2
BRANCH   1  23
ATOM     23  C   UNL A   1      31.777  30.412  26.150  1.00  0.00     0.002 C 
BRANCH  23  24
ATOM     24  C   UNL A   1      31.576  31.805  26.749  1.00  0.00     0.021 C 
BRANCH  24  25
ATOM     25  C   UNL A   1      32.863  32.503  27.169  1.00  0.00     0.116 C 
BRANCH  25  26
ATOM     26  N   UNL A   1      32.634  33.886  27.551  1.00  0.00    -0.352 N 
ATOM     27  C   UNL A   1      33.194  34.603  28.579  1.00  0.00     0.251 C 
ATOM     28  H   UNL A   1      31.986  34.378  26.996  1.00  0.00     0.163 HD
ATOM     29  O   UNL A   1      32.732  35.700  28.878  1.00  0.00    -0.269 OA
BRANCH  27  30
ATOM     30  C   UNL A   1      34.332  34.035  29.332  1.00  0.00     0.039 A 
ATOM     31  C   UNL A   1      34.073  33.159  30.388  1.00  0.00     0.014 A 
ATOM     32  C   UNL A   1      35.650  34.368  29.002  1.00  0.00     0.014 A 
ATOM     33  C   UNL A   1      35.138  32.586  31.085  1.00  0.00     0.010 A 
ATOM     34  C   UNL A   1      36.708  33.729  29.642  1.00  0.00     0.010 A 
ATOM     35  C   UNL A   1      36.464  32.845  30.703  1.00  0.00    -0.014 A 
BRANCH  35  36
ATOM     36  C   UNL A   1      37.604  32.228  31.428  1.00  0.00     0.031 A 
ATOM     37  C   UNL A   1      38.372  31.096  30.799  1.00  0.00     0.074 A 
ATOM     38  C   UNL A   1      37.926  32.662  32.663  1.00  0.00     0.049 A 
ATOM     39  N   UNL A   1      39.371  30.403  31.282  1.00  0.00    -0.248 NA
ATOM     40  C   UNL A   1      37.934  30.665  29.462  1.00  0.00     0.031 C 
ATOM     41  C   UNL A   1      37.231  33.726  33.392  1.00  0.00     0.029 A 
ATOM     42  N   UNL A   1      38.918  32.266  33.525  1.00  0.00    -0.354 N 
ATOM     43  C   UNL A   1      39.676  29.452  30.312  1.00  0.00     0.074 A 
ATOM     44  C   UNL A   1      38.704  29.609  29.252  1.00  0.00     0.031 C 
ATOM     45  C   UNL A   1      37.842  33.922  34.571  1.00  0.00     0.029 A 
ATOM     46  C   UNL A   1      38.938  32.970  34.706  1.00  0.00     0.049 A 
ATOM     47  H   UNL A   1      39.556  31.546  33.315  1.00  0.00     0.167 HD
ATOM     48  C   UNL A   1      40.690  28.552  30.294  1.00  0.00     0.034 A 
ATOM     49  C   UNL A   1      39.746  32.855  35.779  1.00  0.00     0.034 A 
ATOM     50  C   UNL A   1      41.653  28.413  31.360  1.00  0.00     0.049 A 
ATOM     51  C   UNL A   1      40.848  31.826  35.751  1.00  0.00     0.074 A 
ATOM     52  C   UNL A   1      42.744  27.564  31.432  1.00  0.00     0.029 A 
ATOM     53  N   UNL A   1      41.637  29.136  32.547  1.00  0.00    -0.354 N 
ATOM     54  N   UNL A   1      41.154  30.966  34.806  1.00  0.00    -0.248 NA
ATOM     55  C   UNL A   1      41.723  31.762  36.928  1.00  0.00     0.031 C 
ATOM     56  C   UNL A   1      43.339  27.719  32.688  1.00  0.00     0.029 A 
ATOM     57  C   UNL A   1      42.679  28.730  33.367  1.00  0.00     0.049 A 
ATOM     58  H   UNL A   1      40.982  29.835  32.773  1.00  0.00     0.167 HD
ATOM     59  C   UNL A   1      42.282  30.287  35.262  1.00  0.00     0.074 A 
ATOM     60  C   UNL A   1      42.607  30.850  36.556  1.00  0.00     0.031 C 
ATOM     61  C   UNL A   1      42.989  29.293  34.662  1.00  0.00     0.034 A 
BRANCH  48  62
ATOM     62  C   UNL A   1      40.783  27.633  29.096  1.00  0.00     0.023 A 
ATOM     63  C   UNL A   1      41.715  27.855  28.066  1.00  0.00     0.031 A 
ATOM     64  C   UNL A   1      39.906  26.543  28.962  1.00  0.00     0.131 A 
ATOM     65  C   UNL A   1      41.690  27.056  26.913  1.00  0.00     0.055 A 
ATOM     66  C   UNL A   1      39.948  25.694  27.852  1.00  0.00     0.041 A 
ATOM     67  F   UNL A   1      38.979  26.290  29.899  1.00  0.00    -0.206 F 
ATOM     68  C   UNL A   1      40.832  25.960  26.811  1.00  0.00     0.022 A 
BRANCH  65  69
ATOM     69  S   UNL A   1      42.679  27.572  25.481  1.00  0.00     0.124 S 
ATOM     70  O   UNL A   1      41.981  28.787  25.064  1.00  0.00    -0.237 OA
ATOM     71  O   UNL A   1      44.001  27.764  26.064  1.00  0.00    -0.237 OA
ATOM     72  O   UNL A   1      42.558  26.446  24.558  1.00  0.00    -0.744 OA
ENDBRANCH  65  69
ENDBRANCH  48  62
BRANCH  49  73
ATOM     73  C   UNL A   1      39.552  33.733  36.970  1.00  0.00     0.023 A 
ATOM     74  C   UNL A   1      38.970  33.239  38.148  1.00  0.00     0.031 A 
ATOM     75  C   UNL A   1      39.904  35.095  36.932  1.00  0.00     0.131 A 
ATOM     76  C   UNL A   1      38.710  34.107  39.220  1.00  0.00     0.055 A 
ATOM     77  C   UNL A   1      39.698  35.942  38.022  1.00  0.00     0.041 A 
ATOM     78  F   UNL A   1      40.467  35.620  35.832  1.00  0.00    -0.206 F 
ATOM     79  C   UNL A   1      39.084  35.452  39.170  1.00  0.00     0.022 A 
BRANCH  76  80
ATOM     80  S   UNL A   1      37.788  33.475  40.648  1.00  0.00     0.124 S 
ATOM     81  O   UNL A   1      36.509  33.123  40.042  1.00  0.00    -0.237 OA
ATOM     82  O   UNL A   1      38.625  32.359  41.078  1.00  0.00    -0.237 OA
ATOM     83  O   UNL A   1      37.754  34.615  41.562  1.00  0.00    -0.744 OA
ENDBRANCH  76  80
ENDBRANCH  49  73
BRANCH  61  84
ATOM     84  C   UNL A   1      44.220  28.796  35.383  1.00  0.00     0.023 A 
ATOM     85  C   UNL A   1      44.165  27.742  36.312  1.00  0.00     0.031 A 
ATOM     86  C   UNL A   1      45.466  29.405  35.149  1.00  0.00     0.131 A 
ATOM     87  C   UNL A   1      45.318  27.378  37.024  1.00  0.00     0.055 A 
ATOM     88  C   UNL A   1      46.625  28.988  35.807  1.00  0.00     0.041 A 
ATOM     89  F   UNL A   1      45.580  30.419  34.277  1.00  0.00    -0.206 F 
ATOM     90  C   UNL A   1      46.551  27.980  36.764  1.00  0.00     0.022 A 
BRANCH  87  91
ATOM     91  S   UNL A   1      45.160  26.188  38.385  1.00  0.00     0.124 S 
ATOM     92  O   UNL A   1      45.275  24.912  37.686  1.00  0.00    -0.237 OA
ATOM     93  O   UNL A   1      46.283  26.546  39.245  1.00  0.00    -0.237 OA
ATOM     94  O   UNL A   1      43.838  26.474  38.940  1.00  0.00    -0.744 OA
ENDBRANCH  87  91
ENDBRANCH  61  84
ENDBRANCH  35  36
ENDBRANCH  27  30
ENDBRANCH  25  26
ENDBRANCH  24  25
ENDBRANCH  23  24
ENDBRANCH   1  23
TORSDOF 20
ENDMDL
MODEL 2
REMARK VINA RESULT:     -10.5      1.849      3.211
REMARK SMILES Cc1ccc(O)c(C[C@H](NC=O)C(=O)NCCCCCCNC(=O)c2ccc(-c3c4nc(c(-c5cc(S(=O)(=O)[O-])ccc5F)c5ccc([nH]5)c(-c5cc(S(=O)(=O)[O-])ccc5F)c5nc(c(-c6cc(S(=O)(=O)[O-])ccc6F)c6ccc3[nH]6)C=C5)C=C4)cc2)n1
REMARK SMILES IDX 18 1 17 2 16 3 15 4 13 5 14 6 9 8 8 9 7 10 1 11 2 12 3 13
REMARK SMILES IDX 88 14 4 15 5 16 6 17 10 19 11 20 12 22 19 23 20 24 21 25
REMARK SMILES IDX 22 26 23 27 24 29 25 30 26 31 87 32 27 33 86 34 28 35 29 36
REMARK SMILES IDX 30 37 80 38 31 39 85 40 79 41 81 42 32 43 84 44 78 45 77 46
REMARK SMILES IDX 33 48 65 49 45 50 64 51 46 52 49 53 63 54 82 55 47 56 48 57
REMARK SMILES IDX 62 59 83 60 50 61 34 62 35 63 43 64 36 65 42 66 44 67 41 68
REMARK SMILES IDX 37 69 38 70 39 71 40 72 66 73 67 74 75 75 68 76 74 77 76 78
REMARK SMILES IDX 73 79 69 80 70 81 71 82 72 83 51 84 52 85 60 86 53 87 59 88
REMARK SMILES IDX 61 89 58 90 54 91 55 92 56 93 57 94
REMARK H PARENT 15 7 6 18 10 21 22 28 81 47 49 58
REMARK Flexibility Score: inf
ROOT
ATOM      1  C   UNL A   1      32.508  29.964  27.257  1.00  0.00     0.002 C 
ENDROOT
BRANCH   1   2
ATOM      2  C   UNL A   1      32.686  28.477  26.930  1.00  0.00     0.021 C 
BRANCH   2   3
ATOM      3  C   UNL A   1      31.410  27.656  27.067  1.00  0.00     0.116 C 
BRANCH   3   4
ATOM      4  N   UNL A   1      31.654  26.249  26.797  1.00  0.00    -0.354 N 
ATOM      5  C   UNL A   1      31.789  25.608  25.598  1.00  0.00     0.242 C 
ATOM      6  O   UNL A   1      32.203  24.444  25.600  1.00  0.00    -0.273 OA
ATOM      7  H   UNL A   1      31.733  25.675  27.593  1.00  0.00     0.163 HD
BRANCH   5   8
ATOM      8  C   UNL A   1      31.414  26.312  24.280  1.00  0.00     0.177 C 
BRANCH   8   9
ATOM      9  C   UNL A   1      30.024  25.957  23.718  1.00  0.00     0.095 C 
BRANCH   9  10
ATOM     10  C   UNL A   1      29.131  27.139  23.439  1.00  0.00     0.085 A 
ATOM     11  C   UNL A   1      29.793  30.489  22.062  1.00  0.00     0.067 C 
ATOM     12  C   UNL A   1      29.036  29.342  22.658  1.00  0.00     0.038 A 
ATOM     13  C   UNL A   1      27.671  29.407  22.883  1.00  0.00     0.027 A 
ATOM     14  N   UNL A   1      29.760  28.241  22.960  1.00  0.00    -0.254 NA
ATOM     15  C   UNL A   1      27.027  28.289  23.410  1.00  0.00     0.050 A 
ATOM     16  C   UNL A   1      27.764  27.138  23.683  1.00  0.00     0.137 A 
BRANCH  16  17
ATOM     17  O   UNL A   1      27.151  26.031  24.191  1.00  0.00    -0.506 OA
ATOM     18  H   UNL A   1      27.660  25.359  24.600  1.00  0.00     0.293 HD
ENDBRANCH  16  17
ENDBRANCH   9  10
ENDBRANCH   8   9
BRANCH   8  19
ATOM     19  N   UNL A   1      32.503  26.051  23.328  1.00  0.00    -0.347 N 
ATOM     20  C   UNL A   1      32.423  26.140  21.978  1.00  0.00     0.337 C 
ATOM     21  H   UNL A   1      33.373  25.787  23.707  1.00  0.00     0.164 HD
ATOM     22  O   UNL A   1      33.380  25.918  21.247  1.00  0.00    -0.279 OA
ENDBRANCH   8  19
ENDBRANCH   5   8
ENDBRANCH   3   4
ENDBRANCH   2   3
ENDBRANCH   1   2
BRANCH   1  23
ATOM     23  C   UNL A   1      31.473  30.698  26.399  1.00  0.00     0.002 C 
BRANCH  23  24
ATOM     24  C   UNL A   1      31.453  32.219  26.562  1.00  0.00     0.021 C 
BRANCH  24  25
ATOM     25  C   UNL A   1      32.760  32.816  27.069  1.00  0.00     0.116 C 
BRANCH  25  26
ATOM     26  N   UNL A   1      32.584  34.170  27.566  1.00  0.00    -0.352 N 
ATOM     27  C   UNL A   1      33.197  34.787  28.628  1.00  0.00     0.251 C 
ATOM     28  H   UNL A   1      31.935  34.722  27.072  1.00  0.00     0.163 HD
ATOM     29  O   UNL A   1      32.778  35.869  29.027  1.00  0.00    -0.269 OA
BRANCH  27  30
ATOM     30  C   UNL A   1      34.340  34.129  29.297  1.00  0.00     0.039 A 
ATOM     31  C   UNL A   1      34.092  33.066  30.168  1.00  0.00     0.014 A 
ATOM     32  C   UNL A   1      35.650  34.561  29.070  1.00  0.00     0.014 A 
ATOM     33  C   UNL A   1      35.162  32.412  30.778  1.00  0.00     0.010 A 
ATOM     34  C   UNL A   1      36.718  33.852  29.612  1.00  0.00     0.010 A 
ATOM     35  C   UNL A   1      36.486  32.781  30.487  1.00  0.00    -0.014 A 
BRANCH  35  36
ATOM     36  C   UNL A   1      37.633  32.081  31.120  1.00  0.00     0.031 A 
ATOM     37  C   UNL A   1      38.399  31.041  30.345  1.00  0.00     0.074 A 
ATOM     38  C   UNL A   1      37.962  32.354  32.398  1.00  0.00     0.049 A 
ATOM     39  N   UNL A   1      39.404  30.296  30.728  1.00  0.00    -0.248 NA
ATOM     40  C   UNL A   1      37.954  30.784  28.967  1.00  0.00     0.031 C 
ATOM     41  C   UNL A   1      37.269  33.313  33.262  1.00  0.00     0.029 A 
ATOM     42  N   UNL A   1      38.962  31.855  33.195  1.00  0.00    -0.354 N 
ATOM     43  C   UNL A   1      39.705  29.479  29.642  1.00  0.00     0.074 A 
ATOM     44  C   UNL A   1      38.725  29.767  28.618  1.00  0.00     0.031 C 
ATOM     45  C   UNL A   1      37.888  33.358  34.452  1.00  0.00     0.029 A 
ATOM     46  C   UNL A   1      38.988  32.401  34.457  1.00  0.00     0.049 A 
ATOM     47  H   UNL A   1      39.600  31.170  32.890  1.00  0.00     0.167 HD
ATOM     48  C   UNL A   1      40.721  28.592  29.502  1.00  0.00     0.034 A 
ATOM     49  C   UNL A   1      39.804  32.153  35.500  1.00  0.00     0.034 A 
ATOM     50  C   UNL A   1      41.693  28.321  30.535  1.00  0.00     0.049 A 
ATOM     51  C   UNL A   1      40.909  31.139  35.333  1.00  0.00     0.074 A 
ATOM     52  C   UNL A   1      42.786  27.474  30.490  1.00  0.00     0.029 A 
ATOM     53  N   UNL A   1      41.683  28.886  31.805  1.00  0.00    -0.354 N 
ATOM     54  N   UNL A   1      41.210  30.409  34.284  1.00  0.00    -0.248 NA
ATOM     55  C   UNL A   1      41.792  30.928  36.487  1.00  0.00     0.031 C 
ATOM     56  C   UNL A   1      43.389  27.469  31.752  1.00  0.00     0.029 A 
ATOM     57  C   UNL A   1      42.732  28.383  32.559  1.00  0.00     0.049 A 
ATOM     58  H   UNL A   1      41.027  29.547  32.123  1.00  0.00     0.167 HD
ATOM     59  C   UNL A   1      42.344  29.682  34.641  1.00  0.00     0.074 A 
ATOM     60  C   UNL A   1      42.676  30.075  35.994  1.00  0.00     0.031 C 
ATOM     61  C   UNL A   1      43.049  28.776  33.914  1.00  0.00     0.034 A 
BRANCH  48  62
ATOM     62  C   UNL A   1      40.808  27.835  28.195  1.00  0.00     0.023 A 
ATOM     63  C   UNL A   1      40.270  26.543  28.053  1.00  0.00     0.031 A 
ATOM     64  C   UNL A   1      41.468  28.395  27.088  1.00  0.00     0.131 A 
ATOM     65  C   UNL A   1      40.477  25.824  26.866  1.00  0.00     0.055 A 
ATOM     66  C   UNL A   1      41.590  27.709  25.877  1.00  0.00     0.041 A 
ATOM     67  F   UNL A   1      42.023  29.615  27.166  1.00  0.00    -0.206 F 
ATOM     68  C   UNL A   1      41.108  26.408  25.767  1.00  0.00     0.022 A 
BRANCH  65  69
ATOM     69  S   UNL A   1      40.055  24.059  26.840  1.00  0.00     0.124 S 
ATOM     70  O   UNL A   1      38.851  24.057  26.010  1.00  0.00    -0.237 OA
ATOM     71  O   UNL A   1      41.242  23.459  26.244  1.00  0.00    -0.237 OA
ATOM     72  O   UNL A   1      39.832  23.739  28.249  1.00  0.00    -0.744 OA
ENDBRANCH  65  69
ENDBRANCH  48  62
BRANCH  49  73
ATOM     73  C   UNL A   1      39.616  32.870  36.795  1.00  0.00     0.023 A 
ATOM     74  C   UNL A   1      38.715  32.396  37.762  1.00  0.00     0.031 A 
ATOM     75  C   UNL A   1      40.302  34.067  37.067  1.00  0.00     0.131 A 
ATOM     76  C   UNL A   1      38.484  33.139  38.930  1.00  0.00     0.055 A 
ATOM     77  C   UNL A   1      40.114  34.773  38.257  1.00  0.00     0.041 A 
ATOM     78  F   UNL A   1      41.178  34.565  36.180  1.00  0.00    -0.206 F 
ATOM     79  C   UNL A   1      39.189  34.317  39.191  1.00  0.00     0.022 A 
BRANCH  76  80
ATOM     80  S   UNL A   1      37.178  32.595  40.065  1.00  0.00     0.124 S 
ATOM     81  O   UNL A   1      37.123  33.706  41.007  1.00  0.00    -0.237 OA
ATOM     82  O   UNL A   1      36.036  32.455  39.167  1.00  0.00    -0.237 OA
ATOM     83  O   UNL A   1      37.700  31.342  40.607  1.00  0.00    -0.744 OA
ENDBRANCH  76  80
ENDBRANCH  49  73
BRANCH  61  84
ATOM     84  C   UNL A   1      44.287  28.194  34.556  1.00  0.00     0.023 A 
ATOM     85  C   UNL A   1      44.251  27.000  35.297  1.00  0.00     0.031 A 
ATOM     86  C   UNL A   1      45.519  28.864  34.442  1.00  0.00     0.131 A 
ATOM     87  C   UNL A   1      45.408  26.550  35.953  1.00  0.00     0.055 A 
ATOM     88  C   UNL A   1      46.683  28.371  35.034  1.00  0.00     0.041 A 
ATOM     89  F   UNL A   1      45.614  30.011  33.751  1.00  0.00    -0.206 F 
ATOM     90  C   UNL A   1      46.627  27.216  35.810  1.00  0.00     0.022 A 
BRANCH  87  91
ATOM     91  S   UNL A   1      45.269  25.147  37.095  1.00  0.00     0.124 S 
ATOM     92  O   UNL A   1      44.131  24.418  36.543  1.00  0.00    -0.237 OA
ATOM     93  O   UNL A   1      46.569  24.501  36.954  1.00  0.00    -0.237 OA
ATOM     94  O   UNL A   1      45.030  25.782  38.390  1.00  0.00    -0.744 OA
ENDBRANCH  87  91
ENDBRANCH  61  84
ENDBRANCH  35  36
ENDBRANCH  27  30
ENDBRANCH  25  26
ENDBRANCH  24  25
ENDBRANCH  23  24
ENDBRANCH   1  23
TORSDOF 20
ENDMDL
MODEL 3
REMARK VINA RESULT:     -10.4      2.000      8.267
REMARK SMILES Cc1ccc(O)c(C[C@H](NC=O)C(=O)NCCCCCCNC(=O)c2ccc(-c3c4nc(c(-c5cc(S(=O)(=O)[O-])ccc5F)c5ccc([nH]5)c(-c5cc(S(=O)(=O)[O-])ccc5F)c5nc(c(-c6cc(S(=O)(=O)[O-])ccc6F)c6ccc3[nH]6)C=C5)C=C4)cc2)n1
REMARK SMILES IDX 18 1 17 2 16 3 15 4 13 5 14 6 9 8 8 9 7 10 1 11 2 12 3 13
REMARK SMILES IDX 88 14 4 15 5 16 6 17 10 19 11 20 12 22 19 23 20 24 21 25
REMARK SMILES IDX 22 26 23 27 24 29 25 30 26 31 87 32 27 33 86 34 28 35 29 36
REMARK SMILES IDX 30 37 80 38 31 39 85 40 79 41 81 42 32 43 84 44 78 45 77 46
REMARK SMILES IDX 33 48 65 49 45 50 64 51 46 52 49 53 63 54 82 55 47 56 48 57
REMARK SMILES IDX 62 59 83 60 50 61 34 62 35 63 43 64 36 65 42 66 44 67 41 68
REMARK SMILES IDX 37 69 38 70 39 71 40 72 66 73 67 74 75 75 68 76 74 77 76 78
REMARK SMILES IDX 73 79 69 80 70 81 71 82 72 83 51 84 52 85 60 86 53 87 59 88
REMARK SMILES IDX 61 89 58 90 54 91 55 92 56 93 57 94
REMARK H PARENT 15 7 6 18 10 21 22 28 81 47 49 58
REMARK Flexibility Score: inf
ROOT
ATOM      1  C   UNL A   1      32.404  29.903  26.405  1.00  0.00     0.002 C 
ENDROOT
BRANCH   1   2
ATOM      2  C   UNL A   1      32.961  28.926  25.364  1.00  0.00     0.021 C 
BRANCH   2   3
ATOM      3  C   UNL A   1      33.059  27.487  25.855  1.00  0.00     0.116 C 
BRANCH   3   4
ATOM      4  N   UNL A   1      31.768  26.991  26.301  1.00  0.00    -0.354 N 
ATOM      5  C   UNL A   1      31.032  25.942  25.827  1.00  0.00     0.242 C 
ATOM      6  O   UNL A   1      30.062  25.561  26.489  1.00  0.00    -0.273 OA
ATOM      7  H   UNL A   1      31.366  27.481  27.055  1.00  0.00     0.163 HD
BRANCH   5   8
ATOM      8  C   UNL A   1      31.392  25.267  24.490  1.00  0.00     0.177 C 
BRANCH   8   9
ATOM      9  C   UNL A   1      30.397  25.513  23.340  1.00  0.00     0.095 C 
BRANCH   9  10
ATOM     10  C   UNL A   1      30.135  26.965  23.028  1.00  0.00     0.085 A 
ATOM     11  C   UNL A   1      27.154  29.094  23.397  1.00  0.00     0.067 C 
ATOM     12  C   UNL A   1      28.549  28.684  23.037  1.00  0.00     0.038 A 
ATOM     13  C   UNL A   1      29.459  29.583  22.503  1.00  0.00     0.027 A 
ATOM     14  N   UNL A   1      28.870  27.391  23.266  1.00  0.00    -0.254 NA
ATOM     15  C   UNL A   1      30.750  29.138  22.223  1.00  0.00     0.050 A 
ATOM     16  C   UNL A   1      31.095  27.817  22.496  1.00  0.00     0.137 A 
BRANCH  16  17
ATOM     17  O   UNL A   1      32.356  27.366  22.237  1.00  0.00    -0.506 OA
ATOM     18  H   UNL A   1      32.503  26.454  22.075  1.00  0.00     0.293 HD
ENDBRANCH  16  17
ENDBRANCH   9  10
ENDBRANCH   8   9
BRANCH   8  19
ATOM     19  N   UNL A   1      31.603  23.839  24.772  1.00  0.00    -0.347 N 
ATOM     20  C   UNL A   1      32.764  23.268  25.176  1.00  0.00     0.337 C 
ATOM     21  H   UNL A   1      30.828  23.242  24.658  1.00  0.00     0.164 HD
ATOM     22  O   UNL A   1      32.862  22.069  25.405  1.00  0.00    -0.279 OA
ENDBRANCH   8  19
ENDBRANCH   5   8
ENDBRANCH   3   4
ENDBRANCH   2   3
ENDBRANCH   1   2
BRANCH   1  23
ATOM     23  C   UNL A   1      31.348  30.880  25.879  1.00  0.00     0.002 C 
BRANCH  23  24
ATOM     24  C   UNL A   1      31.356  32.262  26.536  1.00  0.00     0.021 C 
BRANCH  24  25
ATOM     25  C   UNL A   1      32.693  32.662  27.149  1.00  0.00     0.116 C 
BRANCH  25  26
ATOM     26  N   UNL A   1      32.649  33.992  27.732  1.00  0.00    -0.352 N 
ATOM     27  C   UNL A   1      33.394  34.508  28.762  1.00  0.00     0.251 C 
ATOM     28  H   UNL A   1      31.994  34.609  27.333  1.00  0.00     0.163 HD
ATOM     29  O   UNL A   1      33.082  35.587  29.258  1.00  0.00    -0.269 OA
BRANCH  27  30
ATOM     30  C   UNL A   1      34.549  33.747  29.283  1.00  0.00     0.039 A 
ATOM     31  C   UNL A   1      35.838  34.148  28.928  1.00  0.00     0.014 A 
ATOM     32  C   UNL A   1      34.363  32.638  30.115  1.00  0.00     0.014 A 
ATOM     33  C   UNL A   1      36.940  33.463  29.442  1.00  0.00     0.010 A 
ATOM     34  C   UNL A   1      35.463  32.011  30.693  1.00  0.00     0.010 A 
ATOM     35  C   UNL A   1      36.764  32.404  30.348  1.00  0.00    -0.014 A 
BRANCH  35  36
ATOM     36  C   UNL A   1      37.930  31.678  30.913  1.00  0.00     0.031 A 
ATOM     37  C   UNL A   1      38.407  31.989  32.306  1.00  0.00     0.074 A 
ATOM     38  C   UNL A   1      38.579  30.766  30.161  1.00  0.00     0.049 A 
ATOM     39  N   UNL A   1      39.424  31.493  32.965  1.00  0.00    -0.248 NA
ATOM     40  C   UNL A   1      37.661  33.019  33.045  1.00  0.00     0.031 C 
ATOM     41  C   UNL A   1      38.233  30.408  28.783  1.00  0.00     0.029 A 
ATOM     42  N   UNL A   1      39.662  29.973  30.446  1.00  0.00    -0.354 N 
ATOM     43  C   UNL A   1      39.442  32.155  34.189  1.00  0.00     0.074 A 
ATOM     44  C   UNL A   1      38.383  33.141  34.147  1.00  0.00     0.031 C 
ATOM     45  C   UNL A   1      39.063  29.441  28.360  1.00  0.00     0.029 A 
ATOM     46  C   UNL A   1      40.029  29.144  29.412  1.00  0.00     0.049 A 
ATOM     47  H   UNL A   1      40.131  29.995  31.311  1.00  0.00     0.167 HD
ATOM     48  C   UNL A   1      40.247  31.941  35.259  1.00  0.00     0.034 A 
ATOM     49  C   UNL A   1      41.033  28.250  29.321  1.00  0.00     0.034 A 
ATOM     50  C   UNL A   1      41.295  30.949  35.283  1.00  0.00     0.049 A 
ATOM     51  C   UNL A   1      41.936  28.050  30.512  1.00  0.00     0.074 A 
ATOM     52  C   UNL A   1      42.144  30.618  36.324  1.00  0.00     0.029 A 
ATOM     53  N   UNL A   1      41.645  30.134  34.214  1.00  0.00    -0.354 N 
ATOM     54  N   UNL A   1      41.910  28.649  31.681  1.00  0.00    -0.248 NA
ATOM     55  C   UNL A   1      42.994  27.041  30.377  1.00  0.00     0.031 C 
ATOM     56  C   UNL A   1      43.053  29.661  35.861  1.00  0.00     0.029 A 
ATOM     57  C   UNL A   1      42.715  29.323  34.560  1.00  0.00     0.049 A 
ATOM     58  H   UNL A   1      41.197  30.131  33.337  1.00  0.00     0.167 HD
ATOM     59  C   UNL A   1      42.925  28.060  32.432  1.00  0.00     0.074 A 
ATOM     60  C   UNL A   1      43.529  27.050  31.588  1.00  0.00     0.031 C 
ATOM     61  C   UNL A   1      43.317  28.325  33.706  1.00  0.00     0.034 A 
BRANCH  48  62
ATOM     62  C   UNL A   1      40.037  32.818  36.473  1.00  0.00     0.023 A 
ATOM     63  C   UNL A   1      39.213  32.417  37.540  1.00  0.00     0.031 A 
ATOM     64  C   UNL A   1      40.637  34.086  36.551  1.00  0.00     0.131 A 
ATOM     65  C   UNL A   1      38.943  33.306  38.592  1.00  0.00     0.055 A 
ATOM     66  C   UNL A   1      40.438  34.931  37.646  1.00  0.00     0.041 A 
ATOM     67  F   UNL A   1      41.416  34.538  35.555  1.00  0.00    -0.206 F 
ATOM     68  C   UNL A   1      39.573  34.549  38.667  1.00  0.00     0.022 A 
BRANCH  65  69
ATOM     69  S   UNL A   1      37.633  32.878  39.772  1.00  0.00     0.124 S 
ATOM     70  O   UNL A   1      38.125  31.612  40.312  1.00  0.00    -0.237 OA
ATOM     71  O   UNL A   1      37.649  34.012  40.687  1.00  0.00    -0.237 OA
ATOM     72  O   UNL A   1      36.440  32.767  38.934  1.00  0.00    -0.744 OA
ENDBRANCH  65  69
ENDBRANCH  48  62
BRANCH  49  73
ATOM     73  C   UNL A   1      41.244  27.474  28.064  1.00  0.00     0.023 A 
ATOM     74  C   UNL A   1      40.936  26.106  27.996  1.00  0.00     0.031 A 
ATOM     75  C   UNL A   1      41.801  28.080  26.923  1.00  0.00     0.131 A 
ATOM     76  C   UNL A   1      41.233  25.377  26.833  1.00  0.00     0.055 A 
ATOM     77  C   UNL A   1      42.040  27.365  25.749  1.00  0.00     0.041 A 
ATOM     78  F   UNL A   1      42.112  29.386  26.931  1.00  0.00    -0.206 F 
ATOM     79  C   UNL A   1      41.768  26.001  25.704  1.00  0.00     0.022 A 
BRANCH  76  80
ATOM     80  S   UNL A   1      40.996  23.579  26.849  1.00  0.00     0.124 S 
ATOM     81  O   UNL A   1      41.898  23.152  25.786  1.00  0.00    -0.237 OA
ATOM     82  O   UNL A   1      41.395  23.233  28.209  1.00  0.00    -0.237 OA
ATOM     83  O   UNL A   1      39.572  23.421  26.560  1.00  0.00    -0.744 OA
ENDBRANCH  76  80
ENDBRANCH  49  73
BRANCH  61  84
ATOM     84  C   UNL A   1      44.418  27.463  34.278  1.00  0.00     0.023 A 
ATOM     85  C   UNL A   1      44.159  26.209  34.858  1.00  0.00     0.031 A 
ATOM     86  C   UNL A   1      45.749  27.920  34.261  1.00  0.00     0.131 A 
ATOM     87  C   UNL A   1      45.202  25.488  35.460  1.00  0.00     0.055 A 
ATOM     88  C   UNL A   1      46.794  27.164  34.794  1.00  0.00     0.041 A 
ATOM     89  F   UNL A   1      46.058  29.111  33.725  1.00  0.00    -0.206 F 
ATOM     90  C   UNL A   1      46.521  25.948  35.414  1.00  0.00     0.022 A 
BRANCH  87  91
ATOM     91  S   UNL A   1      44.794  23.998  36.411  1.00  0.00     0.124 S 
ATOM     92  O   UNL A   1      44.434  24.557  37.710  1.00  0.00    -0.237 OA
ATOM     93  O   UNL A   1      43.697  23.425  35.638  1.00  0.00    -0.237 OA
ATOM     94  O   UNL A   1      46.036  23.227  36.390  1.00  0.00    -0.744 OA
ENDBRANCH  87  91
ENDBRANCH  61  84
ENDBRANCH  35  36
ENDBRANCH  27  30
ENDBRANCH  25  26
ENDBRANCH  24  25
ENDBRANCH  23  24
ENDBRANCH   1  23
TORSDOF 20
ENDMDL
