MODEL 1
REMARK VINA RESULT:     -12.9      0.000      0.000
REMARK SMILES O=C(NCCCCCCNC(=O)[C@@H]1[C@H](C(=O)Nc2ccc(Cn3cncn3)cc2)[C@@H]2C=C[C@H]1CC2)c1ccc(-c2c3nc(c(-c4cc(S(=O)(=O)[O-])ccc4F)c4ccc([nH]4)c(-c4cc(S(=O)(=O)[O-])ccc4F)c4nc(c(-c5cc(S(=O)(=O)[O-])ccc5F)c5ccc2[nH]5)C=C4)C=C3)cc1
REMARK SMILES IDX 7 1 6 2 5 3 4 4 3 5 1 6 2 7 36 9 37 10 98 11 38 12 97 13
REMARK SMILES IDX 39 14 40 15 41 16 91 17 42 18 96 19 90 20 92 21 43 22 95 23
REMARK SMILES IDX 89 24 88 25 44 27 76 28 56 29 75 30 57 31 60 32 74 33 93 34
REMARK SMILES IDX 58 35 59 36 73 38 94 39 61 40 45 41 46 42 54 43 47 44 53 45
REMARK SMILES IDX 55 46 52 47 48 48 49 49 50 50 51 51 77 52 78 53 86 54 79 55
REMARK SMILES IDX 85 56 87 57 84 58 80 59 81 60 82 61 83 62 62 63 63 64 71 65
REMARK SMILES IDX 64 66 70 67 72 68 69 69 65 70 66 71 67 72 68 73 8 74 9 75
REMARK SMILES IDX 10 76 11 77 12 79 13 80 14 81 33 82 30 83 32 84 34 85 31 86
REMARK SMILES IDX 35 87 15 88 16 89 17 90 18 92 19 93 29 94 20 95 28 96 21 97
REMARK SMILES IDX 22 98 23 99 24 100 27 101 25 102 26 103
REMARK H PARENT 3 8 92 26 60 37 10 78 17 91
REMARK Flexibility Score: inf
ROOT
ATOM      1  C   UNL A   1      35.152  23.501  23.680  1.00  0.00     0.002 C 
ENDROOT
BRANCH   1   2
ATOM      2  C   UNL A   1      36.569  22.974  23.479  1.00  0.00     0.002 C 
BRANCH   2   3
ATOM      3  C   UNL A   1      37.129  22.097  24.604  1.00  0.00     0.021 C 
BRANCH   3   4
ATOM      4  C   UNL A   1      37.839  22.843  25.735  1.00  0.00     0.116 C 
BRANCH   4   5
ATOM      5  N   UNL A   1      39.102  22.272  26.150  1.00  0.00    -0.352 N 
ATOM      6  O   UNL A   1      41.030  21.903  27.171  1.00  0.00    -0.269 OA
ATOM      7  C   UNL A   1      40.139  22.719  26.922  1.00  0.00     0.251 C 
ATOM      8  H   UNL A   1      39.246  21.362  25.801  1.00  0.00     0.163 HD
BRANCH   7   9
ATOM      9  C   UNL A   1      40.280  24.114  27.419  1.00  0.00     0.039 A 
ATOM     10  C   UNL A   1      39.392  25.159  27.164  1.00  0.00     0.014 A 
ATOM     11  C   UNL A   1      41.404  24.371  28.226  1.00  0.00     0.014 A 
ATOM     12  C   UNL A   1      39.657  26.443  27.633  1.00  0.00     0.010 A 
ATOM     13  C   UNL A   1      41.658  25.646  28.724  1.00  0.00     0.010 A 
ATOM     14  C   UNL A   1      40.796  26.693  28.406  1.00  0.00    -0.014 A 
BRANCH  14  15
ATOM     15  C   UNL A   1      40.942  28.024  29.001  1.00  0.00     0.031 A 
ATOM     16  C   UNL A   1      42.122  28.809  28.522  1.00  0.00     0.074 A 
ATOM     17  C   UNL A   1      40.026  28.609  29.800  1.00  0.00     0.049 A 
ATOM     18  N   UNL A   1      43.086  29.327  29.213  1.00  0.00    -0.248 NA
ATOM     19  C   UNL A   1      42.287  28.966  27.068  1.00  0.00     0.031 C 
ATOM     20  C   UNL A   1      38.687  28.126  30.141  1.00  0.00     0.029 A 
ATOM     21  N   UNL A   1      40.075  29.836  30.397  1.00  0.00    -0.354 N 
ATOM     22  C   UNL A   1      43.888  30.025  28.310  1.00  0.00     0.074 A 
ATOM     23  C   UNL A   1      43.418  29.668  26.998  1.00  0.00     0.031 C 
ATOM     24  C   UNL A   1      37.979  29.135  30.698  1.00  0.00     0.029 A 
ATOM     25  C   UNL A   1      38.849  30.287  30.874  1.00  0.00     0.049 A 
ATOM     26  H   UNL A   1      40.906  30.357  30.483  1.00  0.00     0.167 HD
ATOM     27  C   UNL A   1      44.789  30.969  28.710  1.00  0.00     0.034 A 
ATOM     28  C   UNL A   1      38.547  31.533  31.327  1.00  0.00     0.034 A 
ATOM     29  C   UNL A   1      45.134  30.814  30.100  1.00  0.00     0.049 A 
ATOM     30  C   UNL A   1      39.819  32.178  31.728  1.00  0.00     0.074 A 
ATOM     31  C   UNL A   1      45.713  29.801  30.841  1.00  0.00     0.029 A 
ATOM     32  N   UNL A   1      44.565  31.657  31.024  1.00  0.00    -0.354 N 
ATOM     33  N   UNL A   1      40.552  31.769  32.725  1.00  0.00    -0.248 NA
ATOM     34  C   UNL A   1      40.510  33.007  30.753  1.00  0.00     0.031 C 
ATOM     35  C   UNL A   1      45.010  29.810  32.082  1.00  0.00     0.029 A 
ATOM     36  C   UNL A   1      44.095  30.864  32.044  1.00  0.00     0.049 A 
ATOM     37  H   UNL A   1      44.506  32.638  30.967  1.00  0.00     0.167 HD
ATOM     38  C   UNL A   1      41.861  31.913  32.293  1.00  0.00     0.074 A 
ATOM     39  C   UNL A   1      41.775  32.778  31.118  1.00  0.00     0.031 C 
ATOM     40  C   UNL A   1      42.858  31.105  32.761  1.00  0.00     0.034 A 
BRANCH  27  41
ATOM     41  C   UNL A   1      45.172  32.194  27.909  1.00  0.00     0.023 A 
ATOM     42  C   UNL A   1      44.339  33.330  27.977  1.00  0.00     0.031 A 
ATOM     43  C   UNL A   1      46.151  32.212  26.890  1.00  0.00     0.131 A 
ATOM     44  C   UNL A   1      44.458  34.375  27.040  1.00  0.00     0.055 A 
ATOM     45  C   UNL A   1      46.309  33.281  26.003  1.00  0.00     0.041 A 
ATOM     46  F   UNL A   1      46.943  31.163  26.635  1.00  0.00    -0.206 F 
ATOM     47  C   UNL A   1      45.443  34.361  26.057  1.00  0.00     0.022 A 
BRANCH  44  48
ATOM     48  S   UNL A   1      43.193  35.674  27.014  1.00  0.00     0.124 S 
ATOM     49  O   UNL A   1      42.487  35.432  28.267  1.00  0.00    -0.237 OA
ATOM     50  O   UNL A   1      44.006  36.884  26.956  1.00  0.00    -0.237 OA
ATOM     51  O   UNL A   1      42.429  35.380  25.803  1.00  0.00    -0.744 OA
ENDBRANCH  44  48
ENDBRANCH  27  41
BRANCH  28  52
ATOM     52  C   UNL A   1      37.281  32.282  31.112  1.00  0.00     0.023 A 
ATOM     53  C   UNL A   1      36.428  32.671  32.167  1.00  0.00     0.031 A 
ATOM     54  C   UNL A   1      37.017  32.844  29.842  1.00  0.00     0.131 A 
ATOM     55  C   UNL A   1      35.364  33.574  31.925  1.00  0.00     0.055 A 
ATOM     56  C   UNL A   1      35.963  33.728  29.608  1.00  0.00     0.041 A 
ATOM     57  F   UNL A   1      37.831  32.617  28.799  1.00  0.00    -0.206 F 
ATOM     58  C   UNL A   1      35.134  34.104  30.652  1.00  0.00     0.022 A 
BRANCH  55  59
ATOM     59  S   UNL A   1      34.315  34.154  33.298  1.00  0.00     0.124 S 
ATOM     60  O   UNL A   1      33.168  33.251  33.214  1.00  0.00    -0.237 OA
ATOM     61  O   UNL A   1      35.185  33.992  34.452  1.00  0.00    -0.237 OA
ATOM     62  O   UNL A   1      34.023  35.545  32.940  1.00  0.00    -0.744 OA
ENDBRANCH  55  59
ENDBRANCH  28  52
BRANCH  40  63
ATOM     63  C   UNL A   1      42.570  30.220  33.960  1.00  0.00     0.023 A 
ATOM     64  C   UNL A   1      42.546  28.805  33.929  1.00  0.00     0.031 A 
ATOM     65  C   UNL A   1      42.435  30.843  35.214  1.00  0.00     0.131 A 
ATOM     66  C   UNL A   1      42.377  28.073  35.121  1.00  0.00     0.055 A 
ATOM     67  C   UNL A   1      42.289  30.114  36.396  1.00  0.00     0.041 A 
ATOM     68  F   UNL A   1      42.480  32.182  35.319  1.00  0.00    -0.206 F 
ATOM     69  C   UNL A   1      42.253  28.726  36.352  1.00  0.00     0.022 A 
BRANCH  66  70
ATOM     70  S   UNL A   1      42.307  26.253  35.092  1.00  0.00     0.124 S 
ATOM     71  O   UNL A   1      43.058  25.900  33.894  1.00  0.00    -0.237 OA
ATOM     72  O   UNL A   1      42.921  25.891  36.366  1.00  0.00    -0.237 OA
ATOM     73  O   UNL A   1      40.871  25.970  35.012  1.00  0.00    -0.744 OA
ENDBRANCH  66  70
ENDBRANCH  40  63
ENDBRANCH  14  15
ENDBRANCH   7   9
ENDBRANCH   4   5
ENDBRANCH   3   4
ENDBRANCH   2   3
ENDBRANCH   1   2
BRANCH   1  74
ATOM     74  C   UNL A   1      34.080  22.957  22.736  1.00  0.00     0.021 C 
BRANCH  74  75
ATOM     75  C   UNL A   1      33.296  23.967  21.896  1.00  0.00     0.116 C 
BRANCH  75  76
ATOM     76  N   UNL A   1      31.980  24.261  22.436  1.00  0.00    -0.356 N 
ATOM     77  C   UNL A   1      31.543  25.261  23.250  1.00  0.00     0.224 C 
ATOM     78  H   UNL A   1      31.281  23.622  22.168  1.00  0.00     0.163 HD
ATOM     79  O   UNL A   1      30.321  25.450  23.281  1.00  0.00    -0.275 OA
BRANCH  77  80
ATOM     80  C   UNL A   1      32.492  26.171  24.017  1.00  0.00     0.098 C 
ATOM     81  C   UNL A   1      32.536  26.201  25.564  1.00  0.00     0.098 C 
ATOM     82  C   UNL A   1      32.493  27.661  23.495  1.00  0.00     0.025 C 
ATOM     83  C   UNL A   1      32.928  27.629  26.056  1.00  0.00     0.025 C 
ATOM     84  C   UNL A   1      31.581  28.558  24.320  1.00  0.00    -0.027 C 
ATOM     85  C   UNL A   1      33.905  28.233  23.782  1.00  0.00     0.009 C 
ATOM     86  C   UNL A   1      31.831  28.571  25.638  1.00  0.00    -0.027 C 
ATOM     87  C   UNL A   1      34.206  28.089  25.297  1.00  0.00     0.009 C 
BRANCH  81  88
ATOM     88  C   UNL A   1      31.500  25.574  26.507  1.00  0.00     0.228 C 
ATOM     89  O   UNL A   1      30.584  26.328  26.890  1.00  0.00    -0.274 OA
ATOM     90  N   UNL A   1      31.321  24.277  26.869  1.00  0.00    -0.326 N 
ATOM     91  H   UNL A   1      30.588  24.151  27.515  1.00  0.00     0.169 HD
BRANCH  90  92
ATOM     92  C   UNL A   1      31.955  23.086  26.517  1.00  0.00     0.041 A 
ATOM     93  C   UNL A   1      31.341  22.285  25.556  1.00  0.00     0.026 A 
ATOM     94  C   UNL A   1      33.121  22.631  27.107  1.00  0.00     0.026 A 
ATOM     95  C   UNL A   1      32.025  21.196  25.011  1.00  0.00     0.008 A 
ATOM     96  C   UNL A   1      33.821  21.550  26.569  1.00  0.00     0.008 A 
ATOM     97  C   UNL A   1      33.314  20.875  25.458  1.00  0.00    -0.026 A 
BRANCH  97  98
ATOM     98  C   UNL A   1      34.152  19.848  24.747  1.00  0.00     0.181 C 
BRANCH  98  99
ATOM     99  N   UNL A   1      33.644  18.506  24.924  1.00  0.00    -0.249 N 
ATOM    100  C   UNL A   1      34.255  17.338  24.591  1.00  0.00     0.220 A 
ATOM    101  N   UNL A   1      32.487  18.278  25.577  1.00  0.00    -0.160 NA
ATOM    102  N   UNL A   1      33.513  16.327  24.981  1.00  0.00    -0.224 NA
ATOM    103  C   UNL A   1      32.439  16.944  25.558  1.00  0.00     0.246 A 
ENDBRANCH  98  99
ENDBRANCH  97  98
ENDBRANCH  90  92
ENDBRANCH  81  88
ENDBRANCH  77  80
ENDBRANCH  75  76
ENDBRANCH  74  75
ENDBRANCH   1  74
TORSDOF 20
ENDMDL
MODEL 2
REMARK VINA RESULT:     -12.8      3.255      6.930
REMARK SMILES O=C(NCCCCCCNC(=O)[C@@H]1[C@H](C(=O)Nc2ccc(Cn3cncn3)cc2)[C@@H]2C=C[C@H]1CC2)c1ccc(-c2c3nc(c(-c4cc(S(=O)(=O)[O-])ccc4F)c4ccc([nH]4)c(-c4cc(S(=O)(=O)[O-])ccc4F)c4nc(c(-c5cc(S(=O)(=O)[O-])ccc5F)c5ccc2[nH]5)C=C4)C=C3)cc1
REMARK SMILES IDX 7 1 6 2 5 3 4 4 3 5 1 6 2 7 36 9 37 10 98 11 38 12 97 13
REMARK SMILES IDX 39 14 40 15 41 16 91 17 42 18 96 19 90 20 92 21 43 22 95 23
REMARK SMILES IDX 89 24 88 25 44 27 76 28 56 29 75 30 57 31 60 32 74 33 93 34
REMARK SMILES IDX 58 35 59 36 73 38 94 39 61 40 45 41 46 42 54 43 47 44 53 45
REMARK SMILES IDX 55 46 52 47 48 48 49 49 50 50 51 51 77 52 78 53 86 54 79 55
REMARK SMILES IDX 85 56 87 57 84 58 80 59 81 60 82 61 83 62 62 63 63 64 71 65
REMARK SMILES IDX 64 66 70 67 72 68 69 69 65 70 66 71 67 72 68 73 8 74 9 75
REMARK SMILES IDX 10 76 11 77 12 79 13 80 14 81 33 82 30 83 32 84 34 85 31 86
REMARK SMILES IDX 35 87 15 88 16 89 17 90 18 92 19 93 29 94 20 95 28 96 21 97
REMARK SMILES IDX 22 98 23 99 24 100 27 101 25 102 26 103
REMARK H PARENT 3 8 92 26 60 37 10 78 17 91
REMARK Flexibility Score: inf
ROOT
ATOM      1  C   UNL A   1      36.519  22.255  24.005  1.00  0.00     0.002 C 
ENDROOT
BRANCH   1   2
ATOM      2  C   UNL A   1      36.936  20.921  24.613  1.00  0.00     0.002 C 
BRANCH   2   3
ATOM      3  C   UNL A   1      38.381  20.831  25.116  1.00  0.00     0.021 C 
BRANCH   3   4
ATOM      4  C   UNL A   1      38.757  19.528  25.822  1.00  0.00     0.116 C 
BRANCH   4   5
ATOM      5  N   UNL A   1      40.096  19.049  25.555  1.00  0.00    -0.352 N 
ATOM      6  O   UNL A   1      42.290  18.755  25.579  1.00  0.00    -0.269 OA
ATOM      7  C   UNL A   1      41.348  19.494  25.880  1.00  0.00     0.251 C 
ATOM      8  H   UNL A   1      40.109  18.219  25.023  1.00  0.00     0.163 HD
BRANCH   7   9
ATOM      9  C   UNL A   1      41.638  20.811  26.508  1.00  0.00     0.039 A 
ATOM     10  C   UNL A   1      41.955  21.983  25.822  1.00  0.00     0.014 A 
ATOM     11  C   UNL A   1      41.562  20.855  27.913  1.00  0.00     0.014 A 
ATOM     12  C   UNL A   1      42.267  23.148  26.519  1.00  0.00     0.010 A 
ATOM     13  C   UNL A   1      41.843  22.025  28.613  1.00  0.00     0.010 A 
ATOM     14  C   UNL A   1      42.221  23.171  27.917  1.00  0.00    -0.014 A 
BRANCH  14  15
ATOM     15  C   UNL A   1      42.407  24.459  28.588  1.00  0.00     0.031 A 
ATOM     16  C   UNL A   1      41.335  25.471  28.332  1.00  0.00     0.074 A 
ATOM     17  C   UNL A   1      43.363  24.713  29.504  1.00  0.00     0.049 A 
ATOM     18  N   UNL A   1      41.447  26.667  27.852  1.00  0.00    -0.248 NA
ATOM     19  C   UNL A   1      39.942  25.058  28.568  1.00  0.00     0.031 C 
ATOM     20  C   UNL A   1      44.313  23.773  30.101  1.00  0.00     0.029 A 
ATOM     21  N   UNL A   1      43.613  25.875  30.178  1.00  0.00    -0.354 N 
ATOM     22  C   UNL A   1      40.170  27.228  27.887  1.00  0.00     0.074 A 
ATOM     23  C   UNL A   1      39.271  26.155  28.221  1.00  0.00     0.031 C 
ATOM     24  C   UNL A   1      44.881  24.342  31.188  1.00  0.00     0.029 A 
ATOM     25  C   UNL A   1      44.439  25.724  31.286  1.00  0.00     0.049 A 
ATOM     26  H   UNL A   1      43.241  26.744  29.902  1.00  0.00     0.167 HD
ATOM     27  C   UNL A   1      39.958  28.572  27.786  1.00  0.00     0.034 A 
ATOM     28  C   UNL A   1      44.698  26.645  32.253  1.00  0.00     0.034 A 
ATOM     29  C   UNL A   1      41.086  29.241  27.190  1.00  0.00     0.049 A 
ATOM     30  C   UNL A   1      44.400  27.980  31.684  1.00  0.00     0.074 A 
ATOM     31  C   UNL A   1      41.726  29.148  25.968  1.00  0.00     0.029 A 
ATOM     32  N   UNL A   1      41.959  29.925  28.003  1.00  0.00    -0.354 N 
ATOM     33  N   UNL A   1      45.076  28.514  30.705  1.00  0.00    -0.248 NA
ATOM     34  C   UNL A   1      43.076  28.543  31.899  1.00  0.00     0.031 C 
ATOM     35  C   UNL A   1      43.112  29.293  26.271  1.00  0.00     0.029 A 
ATOM     36  C   UNL A   1      43.225  29.529  27.643  1.00  0.00     0.049 A 
ATOM     37  H   UNL A   1      41.723  30.572  28.706  1.00  0.00     0.167 HD
ATOM     38  C   UNL A   1      44.129  29.156  29.922  1.00  0.00     0.074 A 
ATOM     39  C   UNL A   1      42.936  29.231  30.762  1.00  0.00     0.031 C 
ATOM     40  C   UNL A   1      44.313  29.324  28.579  1.00  0.00     0.034 A 
BRANCH  27  41
ATOM     41  C   UNL A   1      38.830  29.324  28.458  1.00  0.00     0.023 A 
ATOM     42  C   UNL A   1      38.815  29.397  29.866  1.00  0.00     0.031 A 
ATOM     43  C   UNL A   1      37.643  29.736  27.810  1.00  0.00     0.131 A 
ATOM     44  C   UNL A   1      37.658  29.803  30.560  1.00  0.00     0.055 A 
ATOM     45  C   UNL A   1      36.519  30.201  28.500  1.00  0.00     0.041 A 
ATOM     46  F   UNL A   1      37.470  29.623  26.488  1.00  0.00    -0.206 F 
ATOM     47  C   UNL A   1      36.511  30.212  29.884  1.00  0.00     0.022 A 
BRANCH  44  48
ATOM     48  S   UNL A   1      37.612  29.622  32.364  1.00  0.00     0.124 S 
ATOM     49  O   UNL A   1      37.476  28.179  32.519  1.00  0.00    -0.237 OA
ATOM     50  O   UNL A   1      38.895  30.195  32.756  1.00  0.00    -0.237 OA
ATOM     51  O   UNL A   1      36.438  30.402  32.753  1.00  0.00    -0.744 OA
ENDBRANCH  44  48
ENDBRANCH  27  41
BRANCH  28  52
ATOM     52  C   UNL A   1      44.861  26.394  33.710  1.00  0.00     0.023 A 
ATOM     53  C   UNL A   1      43.817  26.567  34.643  1.00  0.00     0.031 A 
ATOM     54  C   UNL A   1      46.022  25.731  34.171  1.00  0.00     0.131 A 
ATOM     55  C   UNL A   1      43.965  26.095  35.970  1.00  0.00     0.055 A 
ATOM     56  C   UNL A   1      46.165  25.276  35.482  1.00  0.00     0.041 A 
ATOM     57  F   UNL A   1      47.028  25.428  33.335  1.00  0.00    -0.206 F 
ATOM     58  C   UNL A   1      45.131  25.449  36.388  1.00  0.00     0.022 A 
BRANCH  55  59
ATOM     59  S   UNL A   1      42.587  26.230  37.156  1.00  0.00     0.124 S 
ATOM     60  O   UNL A   1      41.902  27.438  36.698  1.00  0.00    -0.237 OA
ATOM     61  O   UNL A   1      41.881  24.973  36.966  1.00  0.00    -0.237 OA
ATOM     62  O   UNL A   1      43.262  26.365  38.449  1.00  0.00    -0.744 OA
ENDBRANCH  55  59
ENDBRANCH  28  52
BRANCH  40  63
ATOM     63  C   UNL A   1      45.685  29.038  27.994  1.00  0.00     0.023 A 
ATOM     64  C   UNL A   1      46.125  27.766  27.558  1.00  0.00     0.031 A 
ATOM     65  C   UNL A   1      46.535  30.133  27.758  1.00  0.00     0.131 A 
ATOM     66  C   UNL A   1      47.378  27.627  26.928  1.00  0.00     0.055 A 
ATOM     67  C   UNL A   1      47.766  29.996  27.115  1.00  0.00     0.041 A 
ATOM     68  F   UNL A   1      46.166  31.374  28.119  1.00  0.00    -0.206 F 
ATOM     69  C   UNL A   1      48.195  28.740  26.703  1.00  0.00     0.022 A 
BRANCH  66  70
ATOM     70  S   UNL A   1      47.973  25.989  26.395  1.00  0.00     0.124 S 
ATOM     71  O   UNL A   1      46.759  25.184  26.340  1.00  0.00    -0.237 OA
ATOM     72  O   UNL A   1      48.608  26.285  25.114  1.00  0.00    -0.237 OA
ATOM     73  O   UNL A   1      48.907  25.606  27.457  1.00  0.00    -0.744 OA
ENDBRANCH  66  70
ENDBRANCH  40  63
ENDBRANCH  14  15
ENDBRANCH   7   9
ENDBRANCH   4   5
ENDBRANCH   3   4
ENDBRANCH   2   3
ENDBRANCH   1   2
BRANCH   1  74
ATOM     74  C   UNL A   1      36.451  23.450  24.957  1.00  0.00     0.021 C 
BRANCH  74  75
ATOM     75  C   UNL A   1      35.074  24.045  25.252  1.00  0.00     0.116 C 
BRANCH  75  76
ATOM     76  N   UNL A   1      34.469  24.688  24.099  1.00  0.00    -0.356 N 
ATOM     77  C   UNL A   1      33.774  25.853  23.977  1.00  0.00     0.224 C 
ATOM     78  H   UNL A   1      34.581  24.193  23.255  1.00  0.00     0.163 HD
ATOM     79  O   UNL A   1      33.664  26.311  22.834  1.00  0.00    -0.275 OA
BRANCH  77  80
ATOM     80  C   UNL A   1      33.232  26.615  25.178  1.00  0.00     0.098 C 
ATOM     81  C   UNL A   1      31.738  26.564  25.581  1.00  0.00     0.098 C 
ATOM     82  C   UNL A   1      33.706  28.119  25.234  1.00  0.00     0.025 C 
ATOM     83  C   UNL A   1      31.320  27.915  26.241  1.00  0.00     0.025 C 
ATOM     84  C   UNL A   1      32.671  29.069  24.648  1.00  0.00    -0.027 C 
ATOM     85  C   UNL A   1      33.746  28.519  26.730  1.00  0.00     0.009 C 
ATOM     86  C   UNL A   1      31.448  28.990  25.195  1.00  0.00    -0.027 C 
ATOM     87  C   UNL A   1      32.348  28.269  27.355  1.00  0.00     0.009 C 
BRANCH  81  88
ATOM     88  C   UNL A   1      30.592  26.009  24.725  1.00  0.00     0.228 C 
ATOM     89  O   UNL A   1      29.868  26.856  24.166  1.00  0.00    -0.274 OA
ATOM     90  N   UNL A   1      30.330  24.733  24.338  1.00  0.00    -0.326 N 
ATOM     91  H   UNL A   1      29.506  24.650  23.804  1.00  0.00     0.169 HD
BRANCH  90  92
ATOM     92  C   UNL A   1      30.982  23.517  24.536  1.00  0.00     0.041 A 
ATOM     93  C   UNL A   1      31.511  22.876  23.417  1.00  0.00     0.026 A 
ATOM     94  C   UNL A   1      31.083  22.888  25.764  1.00  0.00     0.026 A 
ATOM     95  C   UNL A   1      32.353  21.773  23.573  1.00  0.00     0.008 A 
ATOM     96  C   UNL A   1      31.926  21.790  25.939  1.00  0.00     0.008 A 
ATOM     97  C   UNL A   1      32.636  21.276  24.853  1.00  0.00    -0.026 A 
BRANCH  97  98
ATOM     98  C   UNL A   1      33.699  20.232  25.066  1.00  0.00     0.181 C 
BRANCH  98  99
ATOM     99  N   UNL A   1      33.215  18.895  24.805  1.00  0.00    -0.249 N 
ATOM    100  C   UNL A   1      33.467  18.120  23.716  1.00  0.00     0.220 A 
ATOM    101  N   UNL A   1      32.512  18.213  25.731  1.00  0.00    -0.160 NA
ATOM    102  N   UNL A   1      32.918  16.939  23.881  1.00  0.00    -0.224 NA
ATOM    103  C   UNL A   1      32.331  17.045  25.110  1.00  0.00     0.246 A 
ENDBRANCH  98  99
ENDBRANCH  97  98
ENDBRANCH  90  92
ENDBRANCH  81  88
ENDBRANCH  77  80
ENDBRANCH  75  76
ENDBRANCH  74  75
ENDBRANCH   1  74
TORSDOF 20
ENDMDL
MODEL 3
REMARK VINA RESULT:     -12.7      1.819      2.327
REMARK SMILES O=C(NCCCCCCNC(=O)[C@@H]1[C@H](C(=O)Nc2ccc(Cn3cncn3)cc2)[C@@H]2C=C[C@H]1CC2)c1ccc(-c2c3nc(c(-c4cc(S(=O)(=O)[O-])ccc4F)c4ccc([nH]4)c(-c4cc(S(=O)(=O)[O-])ccc4F)c4nc(c(-c5cc(S(=O)(=O)[O-])ccc5F)c5ccc2[nH]5)C=C4)C=C3)cc1
REMARK SMILES IDX 7 1 6 2 5 3 4 4 3 5 1 6 2 7 36 9 37 10 98 11 38 12 97 13
REMARK SMILES IDX 39 14 40 15 41 16 91 17 42 18 96 19 90 20 92 21 43 22 95 23
REMARK SMILES IDX 89 24 88 25 44 27 76 28 56 29 75 30 57 31 60 32 74 33 93 34
REMARK SMILES IDX 58 35 59 36 73 38 94 39 61 40 45 41 46 42 54 43 47 44 53 45
REMARK SMILES IDX 55 46 52 47 48 48 49 49 50 50 51 51 77 52 78 53 86 54 79 55
REMARK SMILES IDX 85 56 87 57 84 58 80 59 81 60 82 61 83 62 62 63 63 64 71 65
REMARK SMILES IDX 64 66 70 67 72 68 69 69 65 70 66 71 67 72 68 73 8 74 9 75
REMARK SMILES IDX 10 76 11 77 12 79 13 80 14 81 33 82 30 83 32 84 34 85 31 86
REMARK SMILES IDX 35 87 15 88 16 89 17 90 18 92 19 93 29 94 20 95 28 96 21 97
REMARK SMILES IDX 22 98 23 99 24 100 27 101 25 102 26 103
REMARK H PARENT 3 8 92 26 60 37 10 78 17 91
REMARK Flexibility Score: inf
ROOT
ATOM      1  C   UNL A   1      37.534  22.778  25.501  1.00  0.00     0.002 C 
ENDROOT
BRANCH   1   2
ATOM      2  C   UNL A   1      38.160  23.996  26.171  1.00  0.00     0.002 C 
BRANCH   2   3
ATOM      3  C   UNL A   1      39.143  23.709  27.310  1.00  0.00     0.021 C 
BRANCH   3   4
ATOM      4  C   UNL A   1      40.076  22.517  27.095  1.00  0.00     0.116 C 
BRANCH   4   5
ATOM      5  N   UNL A   1      41.190  22.761  26.204  1.00  0.00    -0.352 N 
ATOM      6  O   UNL A   1      43.007  23.600  25.258  1.00  0.00    -0.269 OA
ATOM      7  C   UNL A   1      42.094  23.779  26.070  1.00  0.00     0.251 C 
ATOM      8  H   UNL A   1      41.328  22.035  25.553  1.00  0.00     0.163 HD
BRANCH   7   9
ATOM      9  C   UNL A   1      42.010  25.082  26.784  1.00  0.00     0.039 A 
ATOM     10  C   UNL A   1      42.609  25.372  28.009  1.00  0.00     0.014 A 
ATOM     11  C   UNL A   1      41.274  26.093  26.139  1.00  0.00     0.014 A 
ATOM     12  C   UNL A   1      42.414  26.612  28.615  1.00  0.00     0.010 A 
ATOM     13  C   UNL A   1      41.101  27.344  26.726  1.00  0.00     0.010 A 
ATOM     14  C   UNL A   1      41.652  27.598  27.980  1.00  0.00    -0.014 A 
BRANCH  14  15
ATOM     15  C   UNL A   1      41.609  28.930  28.588  1.00  0.00     0.031 A 
ATOM     16  C   UNL A   1      42.672  29.876  28.125  1.00  0.00     0.074 A 
ATOM     17  C   UNL A   1      40.617  29.374  29.386  1.00  0.00     0.049 A 
ATOM     18  N   UNL A   1      43.551  30.514  28.828  1.00  0.00    -0.248 NA
ATOM     19  C   UNL A   1      42.822  30.069  26.674  1.00  0.00     0.031 C 
ATOM     20  C   UNL A   1      39.355  28.708  29.713  1.00  0.00     0.029 A 
ATOM     21  N   UNL A   1      40.492  30.590  29.996  1.00  0.00    -0.354 N 
ATOM     22  C   UNL A   1      44.254  31.326  27.938  1.00  0.00     0.074 A 
ATOM     23  C   UNL A   1      43.845  30.921  26.619  1.00  0.00     0.031 C 
ATOM     24  C   UNL A   1      38.511  29.602  30.275  1.00  0.00     0.029 A 
ATOM     25  C   UNL A   1      39.213  30.862  30.469  1.00  0.00     0.049 A 
ATOM     26  H   UNL A   1      41.243  31.220  30.093  1.00  0.00     0.167 HD
ATOM     27  C   UNL A   1      45.013  32.381  28.353  1.00  0.00     0.034 A 
ATOM     28  C   UNL A   1      38.739  32.049  30.931  1.00  0.00     0.034 A 
ATOM     29  C   UNL A   1      45.369  32.260  29.744  1.00  0.00     0.049 A 
ATOM     30  C   UNL A   1      39.907  32.860  31.347  1.00  0.00     0.074 A 
ATOM     31  C   UNL A   1      46.078  31.329  30.480  1.00  0.00     0.029 A 
ATOM     32  N   UNL A   1      44.684  33.007  30.672  1.00  0.00    -0.354 N 
ATOM     33  N   UNL A   1      40.684  32.546  32.346  1.00  0.00    -0.248 NA
ATOM     34  C   UNL A   1      40.483  33.786  30.385  1.00  0.00     0.031 C 
ATOM     35  C   UNL A   1      45.374  31.228  31.715  1.00  0.00     0.029 A 
ATOM     36  C   UNL A   1      44.322  32.146  31.681  1.00  0.00     0.049 A 
ATOM     37  H   UNL A   1      44.489  33.971  30.624  1.00  0.00     0.167 HD
ATOM     38  C   UNL A   1      41.963  32.873  31.924  1.00  0.00     0.074 A 
ATOM     39  C   UNL A   1      41.764  33.730  30.757  1.00  0.00     0.031 C 
ATOM     40  C   UNL A   1      43.059  32.206  32.391  1.00  0.00     0.034 A 
BRANCH  27  41
ATOM     41  C   UNL A   1      45.228  33.655  27.567  1.00  0.00     0.023 A 
ATOM     42  C   UNL A   1      46.523  33.935  27.080  1.00  0.00     0.031 A 
ATOM     43  C   UNL A   1      44.305  34.723  27.501  1.00  0.00     0.131 A 
ATOM     44  C   UNL A   1      46.862  35.222  26.619  1.00  0.00     0.055 A 
ATOM     45  C   UNL A   1      44.628  35.980  26.981  1.00  0.00     0.041 A 
ATOM     46  F   UNL A   1      43.074  34.641  28.020  1.00  0.00    -0.206 F 
ATOM     47  C   UNL A   1      45.920  36.245  26.560  1.00  0.00     0.022 A 
BRANCH  44  48
ATOM     48  S   UNL A   1      48.601  35.592  26.260  1.00  0.00     0.124 S 
ATOM     49  O   UNL A   1      48.836  34.797  25.061  1.00  0.00    -0.237 OA
ATOM     50  O   UNL A   1      48.569  37.039  26.079  1.00  0.00    -0.237 OA
ATOM     51  O   UNL A   1      49.300  35.131  27.458  1.00  0.00    -0.744 OA
ENDBRANCH  44  48
ENDBRANCH  27  41
BRANCH  28  52
ATOM     52  C   UNL A   1      37.382  32.619  30.715  1.00  0.00     0.023 A 
ATOM     53  C   UNL A   1      36.571  33.097  31.766  1.00  0.00     0.031 A 
ATOM     54  C   UNL A   1      36.961  32.922  29.399  1.00  0.00     0.131 A 
ATOM     55  C   UNL A   1      35.396  33.832  31.478  1.00  0.00     0.055 A 
ATOM     56  C   UNL A   1      35.798  33.640  29.122  1.00  0.00     0.041 A 
ATOM     57  F   UNL A   1      37.717  32.600  28.337  1.00  0.00    -0.206 F 
ATOM     58  C   UNL A   1      35.013  34.107  30.163  1.00  0.00     0.022 A 
BRANCH  55  59
ATOM     59  S   UNL A   1      34.392  34.534  32.828  1.00  0.00     0.124 S 
ATOM     60  O   UNL A   1      35.240  35.623  33.310  1.00  0.00    -0.237 OA
ATOM     61  O   UNL A   1      33.167  34.919  32.146  1.00  0.00    -0.237 OA
ATOM     62  O   UNL A   1      34.248  33.415  33.763  1.00  0.00    -0.744 OA
ENDBRANCH  55  59
ENDBRANCH  28  52
BRANCH  40  63
ATOM     63  C   UNL A   1      42.889  31.277  33.580  1.00  0.00     0.023 A 
ATOM     64  C   UNL A   1      42.391  29.955  33.503  1.00  0.00     0.031 A 
ATOM     65  C   UNL A   1      43.371  31.716  34.827  1.00  0.00     0.131 A 
ATOM     66  C   UNL A   1      42.375  29.136  34.650  1.00  0.00     0.055 A 
ATOM     67  C   UNL A   1      43.374  30.896  35.955  1.00  0.00     0.041 A 
ATOM     68  F   UNL A   1      43.886  32.950  34.962  1.00  0.00    -0.206 F 
ATOM     69  C   UNL A   1      42.869  29.604  35.872  1.00  0.00     0.022 A 
BRANCH  66  70
ATOM     70  S   UNL A   1      41.702  27.444  34.574  1.00  0.00     0.124 S 
ATOM     71  O   UNL A   1      40.532  27.579  33.716  1.00  0.00    -0.237 OA
ATOM     72  O   UNL A   1      42.820  26.683  34.023  1.00  0.00    -0.237 OA
ATOM     73  O   UNL A   1      41.396  27.138  35.974  1.00  0.00    -0.744 OA
ENDBRANCH  66  70
ENDBRANCH  40  63
ENDBRANCH  14  15
ENDBRANCH   7   9
ENDBRANCH   4   5
ENDBRANCH   3   4
ENDBRANCH   2   3
ENDBRANCH   1   2
BRANCH   1  74
ATOM     74  C   UNL A   1      36.216  23.006  24.759  1.00  0.00     0.021 C 
BRANCH  74  75
ATOM     75  C   UNL A   1      35.403  24.250  25.122  1.00  0.00     0.116 C 
BRANCH  75  76
ATOM     76  N   UNL A   1      34.562  24.720  24.035  1.00  0.00    -0.356 N 
ATOM     77  C   UNL A   1      33.719  25.785  23.944  1.00  0.00     0.224 C 
ATOM     78  H   UNL A   1      34.608  24.169  23.221  1.00  0.00     0.163 HD
ATOM     79  O   UNL A   1      33.387  26.128  22.804  1.00  0.00    -0.275 OA
BRANCH  77  80
ATOM     80  C   UNL A   1      33.270  26.584  25.160  1.00  0.00     0.098 C 
ATOM     81  C   UNL A   1      31.815  26.538  25.686  1.00  0.00     0.098 C 
ATOM     82  C   UNL A   1      33.733  28.093  25.127  1.00  0.00     0.025 C 
ATOM     83  C   UNL A   1      31.440  27.908  26.333  1.00  0.00     0.025 C 
ATOM     84  C   UNL A   1      32.646  29.016  24.597  1.00  0.00    -0.027 C 
ATOM     85  C   UNL A   1      33.893  28.543  26.601  1.00  0.00     0.009 C 
ATOM     86  C   UNL A   1      31.473  28.948  25.245  1.00  0.00    -0.027 C 
ATOM     87  C   UNL A   1      32.552  28.305  27.346  1.00  0.00     0.009 C 
BRANCH  81  88
ATOM     88  C   UNL A   1      30.607  25.947  24.945  1.00  0.00     0.228 C 
ATOM     89  O   UNL A   1      29.800  26.771  24.472  1.00  0.00    -0.274 OA
ATOM     90  N   UNL A   1      30.353  24.665  24.573  1.00  0.00    -0.326 N 
ATOM     91  H   UNL A   1      29.482  24.555  24.126  1.00  0.00     0.169 HD
BRANCH  90  92
ATOM     92  C   UNL A   1      31.065  23.472  24.690  1.00  0.00     0.041 A 
ATOM     93  C   UNL A   1      31.425  22.815  23.515  1.00  0.00     0.026 A 
ATOM     94  C   UNL A   1      31.382  22.880  25.900  1.00  0.00     0.026 A 
ATOM     95  C   UNL A   1      32.314  21.739  23.558  1.00  0.00     0.008 A 
ATOM     96  C   UNL A   1      32.275  21.809  25.961  1.00  0.00     0.008 A 
ATOM     97  C   UNL A   1      32.815  21.285  24.786  1.00  0.00    -0.026 A 
BRANCH  97  98
ATOM     98  C   UNL A   1      33.929  20.276  24.847  1.00  0.00     0.181 C 
BRANCH  98  99
ATOM     99  N   UNL A   1      33.446  18.917  24.736  1.00  0.00    -0.249 N 
ATOM    100  C   UNL A   1      33.988  17.902  24.011  1.00  0.00     0.220 A 
ATOM    101  N   UNL A   1      32.408  18.482  25.478  1.00  0.00    -0.160 NA
ATOM    102  N   UNL A   1      33.311  16.798  24.227  1.00  0.00    -0.224 NA
ATOM    103  C   UNL A   1      32.348  17.200  25.110  1.00  0.00     0.246 A 
ENDBRANCH  98  99
ENDBRANCH  97  98
ENDBRANCH  90  92
ENDBRANCH  81  88
ENDBRANCH  77  80
ENDBRANCH  75  76
ENDBRANCH  74  75
ENDBRANCH   1  74
TORSDOF 20
ENDMDL
