MODEL 1
REMARK VINA RESULT:     -10.1      0.000      0.000
REMARK SMILES O=C(/C=C/C(=O)NCc1ccc(-c2cccs2)s1)NCCCCCCNC(=O)c1ccc(-c2c3nc(c(-c4cc(S(=O)(=O)[O-])ccc4F)c4ccc([nH]4)c(-c4cc(S(=O)(=O)[O-])ccc4F)c4nc(c(-c5cc(S(=O)(=O)[O-])ccc5F)c5ccc2[nH]5)C=C4)C=C3)cc1
REMARK SMILES IDX 22 1 21 2 20 3 19 4 1 5 2 6 3 8 4 9 5 10 6 11 7 12 8 14 9 15
REMARK SMILES IDX 10 16 18 17 11 18 12 19 13 20 14 21 17 22 15 23 16 24 23 25
REMARK SMILES IDX 24 26 25 27 26 28 27 29 28 31 29 32 30 33 91 34 31 35 90 36
REMARK SMILES IDX 32 37 33 38 34 39 84 40 35 41 89 42 83 43 85 44 36 45 88 46
REMARK SMILES IDX 82 47 81 48 37 50 69 51 49 52 68 53 50 54 53 55 67 56 86 57
REMARK SMILES IDX 51 58 52 59 66 61 87 62 54 63 38 64 39 65 47 66 40 67 46 68
REMARK SMILES IDX 48 69 45 70 41 71 42 72 43 73 44 74 70 75 71 76 79 77 72 78
REMARK SMILES IDX 78 79 80 80 77 81 73 82 74 83 75 84 76 85 55 86 56 87 64 88
REMARK SMILES IDX 57 89 63 90 65 91 62 92 58 93 59 94 60 95 61 96
REMARK H PARENT 19 7 7 13 26 30 85 49 53 60
REMARK Flexibility Score: inf
ROOT
ATOM      1  C   UNL A   1      40.566  22.167  26.761  1.00  0.00     0.002 C 
ENDROOT
BRANCH   1   2
ATOM      2  C   UNL A   1      39.527  23.210  27.191  1.00  0.00     0.021 C 
BRANCH   2   3
ATOM      3  C   UNL A   1      38.631  23.721  26.064  1.00  0.00     0.116 C 
BRANCH   3   4
ATOM      4  N   UNL A   1      37.297  23.156  26.132  1.00  0.00    -0.353 N 
ATOM      5  O   UNL A   1      37.777  21.208  25.000  1.00  0.00    -0.270 OA
ATOM      6  C   UNL A   1      36.987  21.946  25.573  1.00  0.00     0.244 C 
ATOM      7  H   UNL A   1      36.590  23.660  26.596  1.00  0.00     0.163 HD
BRANCH   6   8
ATOM      8  C   UNL A   1      35.586  21.507  25.754  1.00  0.00     0.077 C 
ATOM      9  C   UNL A   1      34.907  20.870  24.793  1.00  0.00     0.077 C 
BRANCH   9  10
ATOM     10  C   UNL A   1      33.526  20.355  24.895  1.00  0.00     0.244 C 
ATOM     11  O   UNL A   1      33.266  19.562  25.801  1.00  0.00    -0.270 OA
ATOM     12  N   UNL A   1      32.525  20.779  24.088  1.00  0.00    -0.348 N 
ATOM     13  H   UNL A   1      31.660  20.344  24.265  1.00  0.00     0.164 HD
BRANCH  12  14
ATOM     14  C   UNL A   1      32.483  21.748  23.013  1.00  0.00     0.163 C 
BRANCH  14  15
ATOM     15  C   UNL A   1      32.124  23.116  23.526  1.00  0.00     0.024 A 
ATOM     16  C   UNL A   1      30.872  23.703  23.512  1.00  0.00     0.018 A 
ATOM     17  S   UNL A   1      33.274  24.167  24.253  1.00  0.00    -0.138 S 
ATOM     18  C   UNL A   1      30.873  25.018  24.063  1.00  0.00     0.022 A 
ATOM     19  C   UNL A   1      32.129  25.416  24.477  1.00  0.00     0.045 A 
BRANCH  19  20
ATOM     20  C   UNL A   1      32.476  26.692  25.047  1.00  0.00     0.044 A 
ATOM     21  C   UNL A   1      33.640  27.005  25.725  1.00  0.00     0.021 A 
ATOM     22  S   UNL A   1      31.401  28.029  25.011  1.00  0.00    -0.143 S 
ATOM     23  C   UNL A   1      33.641  28.342  26.222  1.00  0.00     0.012 A 
ATOM     24  C   UNL A   1      32.477  29.007  25.910  1.00  0.00     0.065 A 
ENDBRANCH  19  20
ENDBRANCH  14  15
ENDBRANCH  12  14
ENDBRANCH   9  10
ENDBRANCH   6   8
ENDBRANCH   3   4
ENDBRANCH   2   3
ENDBRANCH   1   2
BRANCH   1  25
ATOM     25  C   UNL A   1      40.886  21.090  27.802  1.00  0.00     0.002 C 
BRANCH  25  26
ATOM     26  C   UNL A   1      41.653  19.877  27.272  1.00  0.00     0.021 C 
BRANCH  26  27
ATOM     27  C   UNL A   1      41.664  19.739  25.753  1.00  0.00     0.116 C 
BRANCH  27  28
ATOM     28  N   UNL A   1      42.971  19.354  25.245  1.00  0.00    -0.352 N 
ATOM     29  C   UNL A   1      44.076  20.137  25.003  1.00  0.00     0.251 C 
ATOM     30  H   UNL A   1      43.080  18.397  25.046  1.00  0.00     0.163 HD
ATOM     31  O   UNL A   1      45.028  19.671  24.389  1.00  0.00    -0.269 OA
BRANCH  29  32
ATOM     32  C   UNL A   1      44.094  21.544  25.461  1.00  0.00     0.039 A 
ATOM     33  C   UNL A   1      44.503  21.827  26.767  1.00  0.00     0.014 A 
ATOM     34  C   UNL A   1      43.716  22.583  24.606  1.00  0.00     0.014 A 
ATOM     35  C   UNL A   1      44.593  23.155  27.192  1.00  0.00     0.010 A 
ATOM     36  C   UNL A   1      43.882  23.907  25.005  1.00  0.00     0.010 A 
ATOM     37  C   UNL A   1      44.321  24.209  26.304  1.00  0.00    -0.014 A 
BRANCH  37  38
ATOM     38  C   UNL A   1      44.489  25.628  26.715  1.00  0.00     0.031 A 
ATOM     39  C   UNL A   1      45.844  26.281  26.642  1.00  0.00     0.074 A 
ATOM     40  C   UNL A   1      43.435  26.311  27.206  1.00  0.00     0.049 A 
ATOM     41  N   UNL A   1      46.205  27.482  27.015  1.00  0.00    -0.248 NA
ATOM     42  C   UNL A   1      46.941  25.464  26.103  1.00  0.00     0.031 C 
ATOM     43  C   UNL A   1      42.081  25.776  27.358  1.00  0.00     0.029 A 
ATOM     44  N   UNL A   1      43.335  27.597  27.672  1.00  0.00    -0.354 N 
ATOM     45  C   UNL A   1      47.571  27.563  26.765  1.00  0.00     0.074 A 
ATOM     46  C   UNL A   1      47.982  26.265  26.273  1.00  0.00     0.031 C 
ATOM     47  C   UNL A   1      41.281  26.735  27.850  1.00  0.00     0.029 A 
ATOM     48  C   UNL A   1      42.072  27.935  28.102  1.00  0.00     0.049 A 
ATOM     49  H   UNL A   1      44.097  28.222  27.697  1.00  0.00     0.167 HD
ATOM     50  C   UNL A   1      48.400  28.627  26.909  1.00  0.00     0.034 A 
ATOM     51  C   UNL A   1      41.606  29.075  28.650  1.00  0.00     0.034 A 
ATOM     52  C   UNL A   1      47.972  29.915  27.398  1.00  0.00     0.049 A 
ATOM     53  C   UNL A   1      42.558  30.230  28.846  1.00  0.00     0.074 A 
ATOM     54  C   UNL A   1      48.715  31.074  27.538  1.00  0.00     0.029 A 
ATOM     55  N   UNL A   1      46.689  30.214  27.841  1.00  0.00    -0.354 N 
ATOM     56  N   UNL A   1      43.837  30.306  28.556  1.00  0.00    -0.248 NA
ATOM     57  C   UNL A   1      42.001  31.455  29.433  1.00  0.00     0.031 C 
ATOM     58  C   UNL A   1      47.908  32.045  28.138  1.00  0.00     0.029 A 
ATOM     59  C   UNL A   1      46.632  31.526  28.289  1.00  0.00     0.049 A 
ATOM     60  H   UNL A   1      45.931  29.586  27.836  1.00  0.00     0.167 HD
ATOM     61  C   UNL A   1      44.226  31.600  28.894  1.00  0.00     0.074 A 
ATOM     62  C   UNL A   1      43.043  32.270  29.393  1.00  0.00     0.031 C 
ATOM     63  C   UNL A   1      45.448  32.183  28.795  1.00  0.00     0.034 A 
BRANCH  50  64
ATOM     64  C   UNL A   1      49.857  28.426  26.561  1.00  0.00     0.023 A 
ATOM     65  C   UNL A   1      50.349  28.670  25.265  1.00  0.00     0.031 A 
ATOM     66  C   UNL A   1      50.765  27.959  27.528  1.00  0.00     0.131 A 
ATOM     67  C   UNL A   1      51.683  28.368  24.953  1.00  0.00     0.055 A 
ATOM     68  C   UNL A   1      52.114  27.747  27.233  1.00  0.00     0.041 A 
ATOM     69  F   UNL A   1      50.354  27.686  28.777  1.00  0.00    -0.206 F 
ATOM     70  C   UNL A   1      52.577  27.936  25.935  1.00  0.00     0.022 A 
BRANCH  67  71
ATOM     71  S   UNL A   1      52.191  28.398  23.212  1.00  0.00     0.124 S 
ATOM     72  O   UNL A   1      53.563  28.887  23.314  1.00  0.00    -0.237 OA
ATOM     73  O   UNL A   1      52.037  27.004  22.814  1.00  0.00    -0.237 OA
ATOM     74  O   UNL A   1      51.250  29.332  22.596  1.00  0.00    -0.744 OA
ENDBRANCH  67  71
ENDBRANCH  50  64
BRANCH  51  75
ATOM     75  C   UNL A   1      40.178  29.188  29.066  1.00  0.00     0.023 A 
ATOM     76  C   UNL A   1      39.812  29.140  30.421  1.00  0.00     0.031 A 
ATOM     77  C   UNL A   1      39.149  29.296  28.112  1.00  0.00     0.131 A 
ATOM     78  C   UNL A   1      38.456  29.145  30.781  1.00  0.00     0.055 A 
ATOM     79  C   UNL A   1      37.804  29.364  28.479  1.00  0.00     0.041 A 
ATOM     80  F   UNL A   1      39.440  29.347  26.802  1.00  0.00    -0.206 F 
ATOM     81  C   UNL A   1      37.450  29.273  29.822  1.00  0.00     0.022 A 
BRANCH  78  82
ATOM     82  S   UNL A   1      38.019  28.880  32.523  1.00  0.00     0.124 S 
ATOM     83  O   UNL A   1      38.157  27.433  32.646  1.00  0.00    -0.237 OA
ATOM     84  O   UNL A   1      39.025  29.682  33.212  1.00  0.00    -0.237 OA
ATOM     85  O   UNL A   1      36.652  29.388  32.611  1.00  0.00    -0.744 OA
ENDBRANCH  78  82
ENDBRANCH  51  75
BRANCH  63  86
ATOM     86  C   UNL A   1      45.552  33.638  29.188  1.00  0.00     0.023 A 
ATOM     87  C   UNL A   1      45.382  34.675  28.254  1.00  0.00     0.031 A 
ATOM     88  C   UNL A   1      45.837  33.990  30.520  1.00  0.00     0.131 A 
ATOM     89  C   UNL A   1      45.557  36.009  28.652  1.00  0.00     0.055 A 
ATOM     90  C   UNL A   1      45.941  35.322  30.924  1.00  0.00     0.041 A 
ATOM     91  F   UNL A   1      46.015  33.043  31.455  1.00  0.00    -0.206 F 
ATOM     92  C   UNL A   1      45.815  36.341  29.984  1.00  0.00     0.022 A 
BRANCH  89  93
ATOM     93  S   UNL A   1      45.545  37.306  27.382  1.00  0.00     0.124 S 
ATOM     94  O   UNL A   1      46.373  36.713  26.337  1.00  0.00    -0.237 OA
ATOM     95  O   UNL A   1      44.124  37.429  27.075  1.00  0.00    -0.237 OA
ATOM     96  O   UNL A   1      46.133  38.458  28.062  1.00  0.00    -0.744 OA
ENDBRANCH  89  93
ENDBRANCH  63  86
ENDBRANCH  37  38
ENDBRANCH  29  32
ENDBRANCH  27  28
ENDBRANCH  26  27
ENDBRANCH  25  26
ENDBRANCH   1  25
TORSDOF 20
ENDMDL
MODEL 2
REMARK VINA RESULT:     -10.0      1.749      8.271
REMARK SMILES O=C(/C=C/C(=O)NCc1ccc(-c2cccs2)s1)NCCCCCCNC(=O)c1ccc(-c2c3nc(c(-c4cc(S(=O)(=O)[O-])ccc4F)c4ccc([nH]4)c(-c4cc(S(=O)(=O)[O-])ccc4F)c4nc(c(-c5cc(S(=O)(=O)[O-])ccc5F)c5ccc2[nH]5)C=C4)C=C3)cc1
REMARK SMILES IDX 22 1 21 2 20 3 19 4 1 5 2 6 3 8 4 9 5 10 6 11 7 12 8 14 9 15
REMARK SMILES IDX 10 16 18 17 11 18 12 19 13 20 14 21 17 22 15 23 16 24 23 25
REMARK SMILES IDX 24 26 25 27 26 28 27 29 28 31 29 32 30 33 91 34 31 35 90 36
REMARK SMILES IDX 32 37 33 38 34 39 84 40 35 41 89 42 83 43 85 44 36 45 88 46
REMARK SMILES IDX 82 47 81 48 37 50 69 51 49 52 68 53 50 54 53 55 67 56 86 57
REMARK SMILES IDX 51 58 52 59 66 61 87 62 54 63 38 64 39 65 47 66 40 67 46 68
REMARK SMILES IDX 48 69 45 70 41 71 42 72 43 73 44 74 70 75 71 76 79 77 72 78
REMARK SMILES IDX 78 79 80 80 77 81 73 82 74 83 75 84 76 85 55 86 56 87 64 88
REMARK SMILES IDX 57 89 63 90 65 91 62 92 58 93 59 94 60 95 61 96
REMARK H PARENT 19 7 7 13 26 30 85 49 53 60
REMARK Flexibility Score: inf
ROOT
ATOM      1  C   UNL A   1      41.092  22.267  26.704  1.00  0.00     0.002 C 
ENDROOT
BRANCH   1   2
ATOM      2  C   UNL A   1      39.842  23.080  26.348  1.00  0.00     0.021 C 
BRANCH   2   3
ATOM      3  C   UNL A   1      38.567  22.254  26.187  1.00  0.00     0.116 C 
BRANCH   3   4
ATOM      4  N   UNL A   1      37.653  22.847  25.229  1.00  0.00    -0.353 N 
ATOM      5  O   UNL A   1      36.605  20.889  24.617  1.00  0.00    -0.270 OA
ATOM      6  C   UNL A   1      36.759  22.099  24.513  1.00  0.00     0.244 C 
ATOM      7  H   UNL A   1      37.678  23.821  25.090  1.00  0.00     0.163 HD
BRANCH   6   8
ATOM      8  C   UNL A   1      35.887  22.864  23.596  1.00  0.00     0.077 C 
ATOM      9  C   UNL A   1      34.798  23.515  24.022  1.00  0.00     0.077 C 
BRANCH   9  10
ATOM     10  C   UNL A   1      33.895  24.339  23.193  1.00  0.00     0.244 C 
ATOM     11  O   UNL A   1      34.397  25.112  22.377  1.00  0.00    -0.270 OA
ATOM     12  N   UNL A   1      32.547  24.221  23.241  1.00  0.00    -0.348 N 
ATOM     13  H   UNL A   1      32.072  24.840  22.639  1.00  0.00     0.164 HD
BRANCH  12  14
ATOM     14  C   UNL A   1      31.669  23.362  24.006  1.00  0.00     0.163 C 
BRANCH  14  15
ATOM     15  C   UNL A   1      31.966  21.909  23.746  1.00  0.00     0.024 A 
ATOM     16  C   UNL A   1      31.960  21.270  22.520  1.00  0.00     0.018 A 
ATOM     17  S   UNL A   1      32.396  20.811  24.997  1.00  0.00    -0.138 S 
ATOM     18  C   UNL A   1      32.272  19.883  22.620  1.00  0.00     0.022 A 
ATOM     19  C   UNL A   1      32.498  19.485  23.923  1.00  0.00     0.045 A 
BRANCH  19  20
ATOM     20  C   UNL A   1      32.805  18.151  24.367  1.00  0.00     0.044 A 
ATOM     21  C   UNL A   1      32.531  17.609  25.610  1.00  0.00     0.021 A 
ATOM     22  S   UNL A   1      33.655  17.034  23.380  1.00  0.00    -0.143 S 
ATOM     23  C   UNL A   1      33.028  16.280  25.751  1.00  0.00     0.012 A 
ATOM     24  C   UNL A   1      33.669  15.849  24.612  1.00  0.00     0.065 A 
ENDBRANCH  19  20
ENDBRANCH  14  15
ENDBRANCH  12  14
ENDBRANCH   9  10
ENDBRANCH   6   8
ENDBRANCH   3   4
ENDBRANCH   2   3
ENDBRANCH   1   2
BRANCH   1  25
ATOM     25  C   UNL A   1      40.831  20.836  27.186  1.00  0.00     0.002 C 
BRANCH  25  26
ATOM     26  C   UNL A   1      41.273  19.732  26.224  1.00  0.00     0.021 C 
BRANCH  26  27
ATOM     27  C   UNL A   1      42.663  19.164  26.494  1.00  0.00     0.116 C 
BRANCH  27  28
ATOM     28  N   UNL A   1      43.424  18.968  25.271  1.00  0.00    -0.352 N 
ATOM     29  C   UNL A   1      44.094  19.894  24.505  1.00  0.00     0.251 C 
ATOM     30  H   UNL A   1      43.467  18.041  24.945  1.00  0.00     0.163 HD
ATOM     31  O   UNL A   1      44.517  19.576  23.399  1.00  0.00    -0.269 OA
BRANCH  29  32
ATOM     32  C   UNL A   1      44.273  21.274  25.008  1.00  0.00     0.039 A 
ATOM     33  C   UNL A   1      44.904  21.470  26.239  1.00  0.00     0.014 A 
ATOM     34  C   UNL A   1      43.826  22.372  24.268  1.00  0.00     0.014 A 
ATOM     35  C   UNL A   1      45.143  22.768  26.696  1.00  0.00     0.010 A 
ATOM     36  C   UNL A   1      44.136  23.664  24.686  1.00  0.00     0.010 A 
ATOM     37  C   UNL A   1      44.796  23.877  25.906  1.00  0.00    -0.014 A 
BRANCH  37  38
ATOM     38  C   UNL A   1      45.116  25.264  26.340  1.00  0.00     0.031 A 
ATOM     39  C   UNL A   1      44.028  26.161  26.866  1.00  0.00     0.074 A 
ATOM     40  C   UNL A   1      46.374  25.731  26.210  1.00  0.00     0.049 A 
ATOM     41  N   UNL A   1      44.093  27.416  27.230  1.00  0.00    -0.248 NA
ATOM     42  C   UNL A   1      42.682  25.576  26.967  1.00  0.00     0.031 C 
ATOM     43  C   UNL A   1      47.506  24.969  25.682  1.00  0.00     0.029 A 
ATOM     44  N   UNL A   1      46.912  26.959  26.505  1.00  0.00    -0.354 N 
ATOM     45  C   UNL A   1      42.800  27.774  27.595  1.00  0.00     0.074 A 
ATOM     46  C   UNL A   1      41.961  26.622  27.342  1.00  0.00     0.031 C 
ATOM     47  C   UNL A   1      48.608  25.734  25.721  1.00  0.00     0.029 A 
ATOM     48  C   UNL A   1      48.255  27.057  26.222  1.00  0.00     0.049 A 
ATOM     49  H   UNL A   1      46.386  27.700  26.884  1.00  0.00     0.167 HD
ATOM     50  C   UNL A   1      42.357  28.945  28.117  1.00  0.00     0.034 A 
ATOM     51  C   UNL A   1      49.103  28.099  26.339  1.00  0.00     0.034 A 
ATOM     52  C   UNL A   1      43.209  30.083  28.366  1.00  0.00     0.049 A 
ATOM     53  C   UNL A   1      48.578  29.408  26.876  1.00  0.00     0.074 A 
ATOM     54  C   UNL A   1      42.876  31.300  28.935  1.00  0.00     0.029 A 
ATOM     55  N   UNL A   1      44.560  30.153  28.051  1.00  0.00    -0.354 N 
ATOM     56  N   UNL A   1      47.360  29.714  27.265  1.00  0.00    -0.248 NA
ATOM     57  C   UNL A   1      49.542  30.508  26.998  1.00  0.00     0.031 C 
ATOM     58  C   UNL A   1      44.000  32.130  28.890  1.00  0.00     0.029 A 
ATOM     59  C   UNL A   1      45.063  31.403  28.378  1.00  0.00     0.049 A 
ATOM     60  H   UNL A   1      45.084  29.420  27.654  1.00  0.00     0.167 HD
ATOM     61  C   UNL A   1      47.426  31.032  27.712  1.00  0.00     0.074 A 
ATOM     62  C   UNL A   1      48.802  31.453  27.558  1.00  0.00     0.031 C 
ATOM     63  C   UNL A   1      46.438  31.819  28.210  1.00  0.00     0.034 A 
BRANCH  50  64
ATOM     64  C   UNL A   1      40.881  29.058  28.421  1.00  0.00     0.023 A 
ATOM     65  C   UNL A   1      40.385  28.960  29.734  1.00  0.00     0.031 A 
ATOM     66  C   UNL A   1      39.949  29.241  27.383  1.00  0.00     0.131 A 
ATOM     67  C   UNL A   1      39.002  28.960  29.965  1.00  0.00     0.055 A 
ATOM     68  C   UNL A   1      38.578  29.332  27.629  1.00  0.00     0.041 A 
ATOM     69  F   UNL A   1      40.356  29.320  26.106  1.00  0.00    -0.206 F 
ATOM     70  C   UNL A   1      38.095  29.174  28.924  1.00  0.00     0.022 A 
BRANCH  67  71
ATOM     71  S   UNL A   1      38.400  28.518  31.618  1.00  0.00     0.124 S 
ATOM     72  O   UNL A   1      39.339  29.238  32.475  1.00  0.00    -0.237 OA
ATOM     73  O   UNL A   1      37.033  29.022  31.602  1.00  0.00    -0.237 OA
ATOM     74  O   UNL A   1      38.530  27.062  31.652  1.00  0.00    -0.744 OA
ENDBRANCH  67  71
ENDBRANCH  50  64
BRANCH  51  75
ATOM     75  C   UNL A   1      50.533  27.963  25.933  1.00  0.00     0.023 A 
ATOM     76  C   UNL A   1      50.915  28.052  24.585  1.00  0.00     0.031 A 
ATOM     77  C   UNL A   1      51.535  27.691  26.883  1.00  0.00     0.131 A 
ATOM     78  C   UNL A   1      52.248  27.818  24.218  1.00  0.00     0.055 A 
ATOM     79  C   UNL A   1      52.871  27.522  26.519  1.00  0.00     0.041 A 
ATOM     80  F   UNL A   1      51.227  27.596  28.187  1.00  0.00    -0.206 F 
ATOM     81  C   UNL A   1      53.233  27.570  25.176  1.00  0.00     0.022 A 
BRANCH  78  82
ATOM     82  S   UNL A   1      52.663  27.745  22.453  1.00  0.00     0.124 S 
ATOM     83  O   UNL A   1      51.403  28.145  21.836  1.00  0.00    -0.237 OA
ATOM     84  O   UNL A   1      53.758  28.704  22.359  1.00  0.00    -0.237 OA
ATOM     85  O   UNL A   1      53.042  26.348  22.251  1.00  0.00    -0.744 OA
ENDBRANCH  78  82
ENDBRANCH  51  75
BRANCH  63  86
ATOM     86  C   UNL A   1      46.827  33.203  28.674  1.00  0.00     0.023 A 
ATOM     87  C   UNL A   1      46.769  34.318  27.819  1.00  0.00     0.031 A 
ATOM     88  C   UNL A   1      47.274  33.405  29.992  1.00  0.00     0.131 A 
ATOM     89  C   UNL A   1      47.207  35.571  28.274  1.00  0.00     0.055 A 
ATOM     90  C   UNL A   1      47.642  34.668  30.459  1.00  0.00     0.041 A 
ATOM     91  F   UNL A   1      47.355  32.377  30.852  1.00  0.00    -0.206 F 
ATOM     92  C   UNL A   1      47.624  35.758  29.594  1.00  0.00     0.022 A 
BRANCH  89  93
ATOM     93  S   UNL A   1      47.324  36.938  27.086  1.00  0.00     0.124 S 
ATOM     94  O   UNL A   1      48.014  36.307  25.966  1.00  0.00    -0.237 OA
ATOM     95  O   UNL A   1      45.922  37.276  26.861  1.00  0.00    -0.237 OA
ATOM     96  O   UNL A   1      48.097  37.950  27.801  1.00  0.00    -0.744 OA
ENDBRANCH  89  93
ENDBRANCH  63  86
ENDBRANCH  37  38
ENDBRANCH  29  32
ENDBRANCH  27  28
ENDBRANCH  26  27
ENDBRANCH  25  26
ENDBRANCH   1  25
TORSDOF 20
ENDMDL
MODEL 3
REMARK VINA RESULT:      -9.7      5.374     11.077
REMARK SMILES O=C(/C=C/C(=O)NCc1ccc(-c2cccs2)s1)NCCCCCCNC(=O)c1ccc(-c2c3nc(c(-c4cc(S(=O)(=O)[O-])ccc4F)c4ccc([nH]4)c(-c4cc(S(=O)(=O)[O-])ccc4F)c4nc(c(-c5cc(S(=O)(=O)[O-])ccc5F)c5ccc2[nH]5)C=C4)C=C3)cc1
REMARK SMILES IDX 22 1 21 2 20 3 19 4 1 5 2 6 3 8 4 9 5 10 6 11 7 12 8 14 9 15
REMARK SMILES IDX 10 16 18 17 11 18 12 19 13 20 14 21 17 22 15 23 16 24 23 25
REMARK SMILES IDX 24 26 25 27 26 28 27 29 28 31 29 32 30 33 91 34 31 35 90 36
REMARK SMILES IDX 32 37 33 38 34 39 84 40 35 41 89 42 83 43 85 44 36 45 88 46
REMARK SMILES IDX 82 47 81 48 37 50 69 51 49 52 68 53 50 54 53 55 67 56 86 57
REMARK SMILES IDX 51 58 52 59 66 61 87 62 54 63 38 64 39 65 47 66 40 67 46 68
REMARK SMILES IDX 48 69 45 70 41 71 42 72 43 73 44 74 70 75 71 76 79 77 72 78
REMARK SMILES IDX 78 79 80 80 77 81 73 82 74 83 75 84 76 85 55 86 56 87 64 88
REMARK SMILES IDX 57 89 63 90 65 91 62 92 58 93 59 94 60 95 61 96
REMARK H PARENT 19 7 7 13 26 30 85 49 53 60
REMARK Flexibility Score: inf
ROOT
ATOM      1  C   UNL A   1      31.025  28.485  24.432  1.00  0.00     0.002 C 
ENDROOT
BRANCH   1   2
ATOM      2  C   UNL A   1      31.670  28.122  23.088  1.00  0.00     0.021 C 
BRANCH   2   3
ATOM      3  C   UNL A   1      31.220  26.784  22.505  1.00  0.00     0.116 C 
BRANCH   3   4
ATOM      4  N   UNL A   1      32.078  25.693  22.926  1.00  0.00    -0.353 N 
ATOM      5  O   UNL A   1      33.300  25.549  20.979  1.00  0.00    -0.270 OA
ATOM      6  C   UNL A   1      33.037  25.160  22.109  1.00  0.00     0.244 C 
ATOM      7  H   UNL A   1      31.964  25.323  23.832  1.00  0.00     0.163 HD
BRANCH   6   8
ATOM      8  C   UNL A   1      33.837  24.067  22.704  1.00  0.00     0.077 C 
ATOM      9  C   UNL A   1      33.535  23.523  23.888  1.00  0.00     0.077 C 
BRANCH   9  10
ATOM     10  C   UNL A   1      34.245  22.403  24.540  1.00  0.00     0.244 C 
ATOM     11  O   UNL A   1      33.867  21.256  24.301  1.00  0.00    -0.270 OA
ATOM     12  N   UNL A   1      35.336  22.584  25.322  1.00  0.00    -0.348 N 
ATOM     13  H   UNL A   1      35.699  21.749  25.697  1.00  0.00     0.164 HD
BRANCH  12  14
ATOM     14  C   UNL A   1      36.068  23.769  25.715  1.00  0.00     0.163 C 
BRANCH  14  15
ATOM     15  C   UNL A   1      37.499  23.440  26.047  1.00  0.00     0.024 A 
ATOM     16  C   UNL A   1      38.392  24.239  26.737  1.00  0.00     0.018 A 
ATOM     17  S   UNL A   1      38.234  21.948  25.613  1.00  0.00    -0.138 S 
ATOM     18  C   UNL A   1      39.678  23.637  26.873  1.00  0.00     0.022 A 
ATOM     19  C   UNL A   1      39.747  22.396  26.272  1.00  0.00     0.045 A 
BRANCH  19  20
ATOM     20  C   UNL A   1      40.904  21.543  26.203  1.00  0.00     0.044 A 
ATOM     21  C   UNL A   1      42.184  21.914  25.832  1.00  0.00     0.021 A 
ATOM     22  S   UNL A   1      40.816  19.859  26.523  1.00  0.00    -0.143 S 
ATOM     23  C   UNL A   1      43.088  20.811  25.804  1.00  0.00     0.012 A 
ATOM     24  C   UNL A   1      42.469  19.631  26.150  1.00  0.00     0.065 A 
ENDBRANCH  19  20
ENDBRANCH  14  15
ENDBRANCH  12  14
ENDBRANCH   9  10
ENDBRANCH   6   8
ENDBRANCH   3   4
ENDBRANCH   2   3
ENDBRANCH   1   2
BRANCH   1  25
ATOM     25  C   UNL A   1      31.879  28.196  25.670  1.00  0.00     0.002 C 
BRANCH  25  26
ATOM     26  C   UNL A   1      33.335  27.821  25.387  1.00  0.00     0.021 C 
BRANCH  26  27
ATOM     27  C   UNL A   1      34.369  28.776  25.974  1.00  0.00     0.116 C 
BRANCH  27  28
ATOM     28  N   UNL A   1      33.831  30.111  26.178  1.00  0.00    -0.352 N 
ATOM     29  C   UNL A   1      34.116  31.023  27.168  1.00  0.00     0.251 C 
ATOM     30  H   UNL A   1      33.169  30.405  25.512  1.00  0.00     0.163 HD
ATOM     31  O   UNL A   1      33.420  32.024  27.291  1.00  0.00    -0.269 OA
BRANCH  29  32
ATOM     32  C   UNL A   1      35.243  30.774  28.094  1.00  0.00     0.039 A 
ATOM     33  C   UNL A   1      35.244  29.606  28.862  1.00  0.00     0.014 A 
ATOM     34  C   UNL A   1      36.298  31.684  28.204  1.00  0.00     0.014 A 
ATOM     35  C   UNL A   1      36.333  29.322  29.690  1.00  0.00     0.010 A 
ATOM     36  C   UNL A   1      37.417  31.361  28.968  1.00  0.00     0.010 A 
ATOM     37  C   UNL A   1      37.447  30.178  29.721  1.00  0.00    -0.014 A 
BRANCH  37  38
ATOM     38  C   UNL A   1      38.648  29.850  30.535  1.00  0.00     0.031 A 
ATOM     39  C   UNL A   1      38.807  30.429  31.915  1.00  0.00     0.074 A 
ATOM     40  C   UNL A   1      39.620  29.077  30.010  1.00  0.00     0.049 A 
ATOM     41  N   UNL A   1      39.807  30.316  32.751  1.00  0.00    -0.248 NA
ATOM     42  C   UNL A   1      37.706  31.269  32.409  1.00  0.00     0.031 C 
ATOM     43  C   UNL A   1      39.597  28.486  28.671  1.00  0.00     0.029 A 
ATOM     44  N   UNL A   1      40.818  28.658  30.534  1.00  0.00    -0.354 N 
ATOM     45  C   UNL A   1      39.462  31.075  33.863  1.00  0.00     0.074 A 
ATOM     46  C   UNL A   1      38.190  31.698  33.564  1.00  0.00     0.031 C 
ATOM     47  C   UNL A   1      40.710  27.757  28.492  1.00  0.00     0.029 A 
ATOM     48  C   UNL A   1      41.553  27.871  29.677  1.00  0.00     0.049 A 
ATOM     49  H   UNL A   1      41.123  28.899  31.439  1.00  0.00     0.167 HD
ATOM     50  C   UNL A   1      40.131  31.220  35.035  1.00  0.00     0.034 A 
ATOM     51  C   UNL A   1      42.773  27.317  29.822  1.00  0.00     0.034 A 
ATOM     52  C   UNL A   1      41.397  30.589  35.317  1.00  0.00     0.049 A 
ATOM     53  C   UNL A   1      43.520  27.532  31.116  1.00  0.00     0.074 A 
ATOM     54  C   UNL A   1      42.137  30.628  36.486  1.00  0.00     0.029 A 
ATOM     55  N   UNL A   1      42.120  29.814  34.418  1.00  0.00    -0.354 N 
ATOM     56  N   UNL A   1      43.155  28.213  32.179  1.00  0.00    -0.248 NA
ATOM     57  C   UNL A   1      44.839  26.897  31.232  1.00  0.00     0.031 C 
ATOM     58  C   UNL A   1      43.340  29.948  36.268  1.00  0.00     0.029 A 
ATOM     59  C   UNL A   1      43.314  29.403  34.994  1.00  0.00     0.049 A 
ATOM     60  H   UNL A   1      41.827  29.588  33.506  1.00  0.00     0.167 HD
ATOM     61  C   UNL A   1      44.186  28.054  33.102  1.00  0.00     0.074 A 
ATOM     62  C   UNL A   1      45.176  27.203  32.476  1.00  0.00     0.031 C 
ATOM     63  C   UNL A   1      44.301  28.562  34.356  1.00  0.00     0.034 A 
BRANCH  50  64
ATOM     64  C   UNL A   1      39.515  32.121  36.081  1.00  0.00     0.023 A 
ATOM     65  C   UNL A   1      40.023  33.406  36.344  1.00  0.00     0.031 A 
ATOM     66  C   UNL A   1      38.419  31.682  36.846  1.00  0.00     0.131 A 
ATOM     67  C   UNL A   1      39.495  34.169  37.396  1.00  0.00     0.055 A 
ATOM     68  C   UNL A   1      37.838  32.483  37.831  1.00  0.00     0.041 A 
ATOM     69  F   UNL A   1      37.901  30.457  36.658  1.00  0.00    -0.206 F 
ATOM     70  C   UNL A   1      38.386  33.728  38.123  1.00  0.00     0.022 A 
BRANCH  67  71
ATOM     71  S   UNL A   1      40.376  35.670  37.903  1.00  0.00     0.124 S 
ATOM     72  O   UNL A   1      40.194  35.643  39.352  1.00  0.00    -0.237 OA
ATOM     73  O   UNL A   1      41.729  35.420  37.423  1.00  0.00    -0.237 OA
ATOM     74  O   UNL A   1      39.655  36.740  37.213  1.00  0.00    -0.744 OA
ENDBRANCH  67  71
ENDBRANCH  50  64
BRANCH  51  75
ATOM     75  C   UNL A   1      43.379  26.515  28.719  1.00  0.00     0.023 A 
ATOM     76  C   UNL A   1      44.331  27.077  27.853  1.00  0.00     0.031 A 
ATOM     77  C   UNL A   1      42.977  25.188  28.481  1.00  0.00     0.131 A 
ATOM     78  C   UNL A   1      44.809  26.336  26.762  1.00  0.00     0.055 A 
ATOM     79  C   UNL A   1      43.502  24.434  27.430  1.00  0.00     0.041 A 
ATOM     80  F   UNL A   1      42.070  24.599  29.277  1.00  0.00    -0.206 F 
ATOM     81  C   UNL A   1      44.414  25.014  26.553  1.00  0.00     0.022 A 
BRANCH  78  82
ATOM     82  S   UNL A   1      45.883  27.163  25.555  1.00  0.00     0.124 S 
ATOM     83  O   UNL A   1      46.006  26.142  24.520  1.00  0.00    -0.237 OA
ATOM     84  O   UNL A   1      45.095  28.340  25.205  1.00  0.00    -0.237 OA
ATOM     85  O   UNL A   1      47.101  27.434  26.315  1.00  0.00    -0.744 OA
ENDBRANCH  78  82
ENDBRANCH  51  75
BRANCH  63  86
ATOM     86  C   UNL A   1      45.521  28.163  35.152  1.00  0.00     0.023 A 
ATOM     87  C   UNL A   1      45.537  27.017  35.967  1.00  0.00     0.031 A 
ATOM     88  C   UNL A   1      46.685  28.952  35.102  1.00  0.00     0.131 A 
ATOM     89  C   UNL A   1      46.669  26.726  36.742  1.00  0.00     0.055 A 
ATOM     90  C   UNL A   1      47.833  28.618  35.822  1.00  0.00     0.041 A 
ATOM     91  F   UNL A   1      46.727  30.060  34.346  1.00  0.00    -0.206 F 
ATOM     92  C   UNL A   1      47.825  27.506  36.659  1.00  0.00     0.022 A 
BRANCH  89  93
ATOM     93  S   UNL A   1      46.578  25.367  37.942  1.00  0.00     0.124 S 
ATOM     94  O   UNL A   1      45.138  25.214  38.117  1.00  0.00    -0.237 OA
ATOM     95  O   UNL A   1      47.253  24.282  37.237  1.00  0.00    -0.237 OA
ATOM     96  O   UNL A   1      47.293  25.888  39.105  1.00  0.00    -0.744 OA
ENDBRANCH  89  93
ENDBRANCH  63  86
ENDBRANCH  37  38
ENDBRANCH  29  32
ENDBRANCH  27  28
ENDBRANCH  26  27
ENDBRANCH  25  26
ENDBRANCH   1  25
TORSDOF 20
ENDMDL
