MODEL 1
REMARK VINA RESULT:     -12.8      0.000      0.000
REMARK SMILES CC(=O)Nc1cccc(-c2cc(F)ccc2C(=O)NCCCCCCNC(=O)c2ccc(-c3c4nc(c(-c5cc(S(=O)(=O)[O-])ccc5F)c5ccc([nH]5)c(-c5cc(S(=O)(=O)[O-])ccc5F)c5nc(c(-c6cc(S(=O)(=O)[O-])ccc6F)c6ccc3[nH]6)C=C5)C=C4)cc2)c1
REMARK SMILES IDX 23 1 22 2 21 3 20 4 19 5 17 6 18 7 16 9 10 10 11 11 12 12
REMARK SMILES IDX 15 13 13 14 14 15 9 16 5 17 6 18 92 19 7 20 8 21 4 22 1 23
REMARK SMILES IDX 2 24 3 25 24 27 25 28 26 29 27 30 28 32 29 33 30 34 91 35
REMARK SMILES IDX 31 36 90 37 32 38 33 39 34 40 84 41 35 42 89 43 83 44 85 45
REMARK SMILES IDX 36 46 88 47 82 48 81 49 37 51 69 52 49 53 68 54 50 55 53 56
REMARK SMILES IDX 67 57 86 58 51 59 52 60 66 62 87 63 54 64 38 65 39 66 47 67
REMARK SMILES IDX 40 68 46 69 48 70 45 71 41 72 42 73 43 74 44 75 70 76 71 77
REMARK SMILES IDX 79 78 72 79 78 80 80 81 77 82 73 83 74 84 75 85 76 86 55 87
REMARK SMILES IDX 56 88 64 89 57 90 63 91 65 92 62 93 58 94 59 95 60 96 61 97
REMARK H PARENT 19 8 4 26 26 31 85 50 53 61
REMARK Flexibility Score: inf
ROOT
ATOM      1  C   UNL A   1      31.933  27.220  24.452  1.00  0.00     0.002 C 
ENDROOT
BRANCH   1   2
ATOM      2  C   UNL A   1      30.861  26.133  24.616  1.00  0.00     0.002 C 
BRANCH   2   3
ATOM      3  C   UNL A   1      30.527  25.224  23.428  1.00  0.00     0.021 C 
BRANCH   3   4
ATOM      4  C   UNL A   1      30.647  23.713  23.612  1.00  0.00     0.116 C 
BRANCH   4   5
ATOM      5  N   UNL A   1      30.721  23.224  24.964  1.00  0.00    -0.352 N 
ATOM      6  C   UNL A   1      31.788  23.017  25.807  1.00  0.00     0.251 C 
ATOM      7  O   UNL A   1      31.488  22.734  26.973  1.00  0.00    -0.269 OA
ATOM      8  H   UNL A   1      29.848  22.996  25.357  1.00  0.00     0.163 HD
BRANCH   6   9
ATOM      9  C   UNL A   1      33.260  23.016  25.458  1.00  0.00     0.047 A 
ATOM     10  C   UNL A   1      34.054  22.033  24.811  1.00  0.00    -0.003 A 
ATOM     11  C   UNL A   1      35.413  22.341  24.527  1.00  0.00     0.048 A 
ATOM     12  C   UNL A   1      35.974  23.567  24.853  1.00  0.00     0.123 A 
ATOM     13  C   UNL A   1      33.881  24.259  25.772  1.00  0.00     0.017 A 
ATOM     14  F   UNL A   1      37.256  23.813  24.551  1.00  0.00    -0.207 F 
ATOM     15  C   UNL A   1      35.217  24.535  25.475  1.00  0.00     0.040 A 
BRANCH  10  16
ATOM     16  C   UNL A   1      33.620  20.699  24.370  1.00  0.00    -0.015 A 
ATOM     17  C   UNL A   1      33.936  18.288  24.231  1.00  0.00     0.041 A 
ATOM     18  C   UNL A   1      32.832  18.205  23.370  1.00  0.00     0.026 A 
ATOM     19  C   UNL A   1      34.307  19.535  24.750  1.00  0.00     0.034 A 
ATOM     20  C   UNL A   1      32.101  19.341  23.036  1.00  0.00     0.003 A 
ATOM     21  C   UNL A   1      32.489  20.579  23.538  1.00  0.00     0.009 A 
BRANCH  17  22
ATOM     22  N   UNL A   1      34.705  17.122  24.378  1.00  0.00    -0.326 N 
ATOM     23  C   UNL A   1      33.083  15.537  25.396  1.00  0.00     0.114 C 
ATOM     24  C   UNL A   1      34.483  15.961  25.058  1.00  0.00     0.221 C 
ATOM     25  O   UNL A   1      35.444  15.243  25.341  1.00  0.00    -0.275 OA
ATOM     26  H   UNL A   1      35.565  17.147  23.900  1.00  0.00     0.169 HD
ENDBRANCH  17  22
ENDBRANCH  10  16
ENDBRANCH   6   9
ENDBRANCH   4   5
ENDBRANCH   3   4
ENDBRANCH   2   3
ENDBRANCH   1   2
BRANCH   1  27
ATOM     27  C   UNL A   1      31.573  28.658  24.830  1.00  0.00     0.021 C 
BRANCH  27  28
ATOM     28  C   UNL A   1      32.694  29.561  25.337  1.00  0.00     0.116 C 
BRANCH  28  29
ATOM     29  N   UNL A   1      32.220  30.843  25.820  1.00  0.00    -0.352 N 
ATOM     30  C   UNL A   1      32.666  31.631  26.854  1.00  0.00     0.251 C 
ATOM     31  H   UNL A   1      31.452  31.211  25.325  1.00  0.00     0.163 HD
ATOM     32  O   UNL A   1      32.007  32.625  27.165  1.00  0.00    -0.269 OA
BRANCH  30  33
ATOM     33  C   UNL A   1      33.901  31.307  27.616  1.00  0.00     0.039 A 
ATOM     34  C   UNL A   1      34.775  32.349  27.950  1.00  0.00     0.014 A 
ATOM     35  C   UNL A   1      34.249  29.994  27.946  1.00  0.00     0.014 A 
ATOM     36  C   UNL A   1      35.962  32.087  28.649  1.00  0.00     0.010 A 
ATOM     37  C   UNL A   1      35.400  29.740  28.698  1.00  0.00     0.010 A 
ATOM     38  C   UNL A   1      36.276  30.781  29.052  1.00  0.00    -0.014 A 
BRANCH  38  39
ATOM     39  C   UNL A   1      37.527  30.468  29.801  1.00  0.00     0.031 A 
ATOM     40  C   UNL A   1      38.575  29.583  29.176  1.00  0.00     0.074 A 
ATOM     41  C   UNL A   1      37.701  30.918  31.061  1.00  0.00     0.049 A 
ATOM     42  N   UNL A   1      39.659  29.075  29.704  1.00  0.00    -0.248 NA
ATOM     43  C   UNL A   1      38.351  29.197  27.775  1.00  0.00     0.031 C 
ATOM     44  C   UNL A   1      36.770  31.784  31.785  1.00  0.00     0.029 A 
ATOM     45  N   UNL A   1      38.714  30.694  31.962  1.00  0.00    -0.354 N 
ATOM     46  C   UNL A   1      40.232  28.285  28.712  1.00  0.00     0.074 A 
ATOM     47  C   UNL A   1      39.348  28.350  27.567  1.00  0.00     0.031 C 
ATOM     48  C   UNL A   1      37.261  32.028  33.011  1.00  0.00     0.029 A 
ATOM     49  C   UNL A   1      38.513  31.296  33.184  1.00  0.00     0.049 A 
ATOM     50  H   UNL A   1      39.509  30.154  31.753  1.00  0.00     0.167 HD
ATOM     51  C   UNL A   1      41.393  27.581  28.748  1.00  0.00     0.034 A 
ATOM     52  C   UNL A   1      39.240  31.248  34.319  1.00  0.00     0.034 A 
ATOM     53  C   UNL A   1      42.282  27.550  29.885  1.00  0.00     0.049 A 
ATOM     54  C   UNL A   1      40.504  30.424  34.352  1.00  0.00     0.074 A 
ATOM     55  C   UNL A   1      43.513  26.927  29.999  1.00  0.00     0.029 A 
ATOM     56  N   UNL A   1      42.034  28.162  31.106  1.00  0.00    -0.354 N 
ATOM     57  N   UNL A   1      41.044  29.702  33.397  1.00  0.00    -0.248 NA
ATOM     58  C   UNL A   1      41.258  30.409  35.613  1.00  0.00     0.031 C 
ATOM     59  C   UNL A   1      43.976  27.103  31.307  1.00  0.00     0.029 A 
ATOM     60  C   UNL A   1      43.071  27.901  31.989  1.00  0.00     0.049 A 
ATOM     61  H   UNL A   1      41.238  28.704  31.315  1.00  0.00     0.167 HD
ATOM     62  C   UNL A   1      42.222  29.185  33.932  1.00  0.00     0.074 A 
ATOM     63  C   UNL A   1      42.310  29.670  35.293  1.00  0.00     0.031 C 
ATOM     64  C   UNL A   1      43.151  28.391  33.345  1.00  0.00     0.034 A 
BRANCH  51  65
ATOM     65  C   UNL A   1      41.745  26.755  27.533  1.00  0.00     0.023 A 
ATOM     66  C   UNL A   1      41.413  25.392  27.439  1.00  0.00     0.031 A 
ATOM     67  C   UNL A   1      42.447  27.335  26.462  1.00  0.00     0.131 A 
ATOM     68  C   UNL A   1      41.857  24.638  26.342  1.00  0.00     0.055 A 
ATOM     69  C   UNL A   1      42.811  26.599  25.333  1.00  0.00     0.041 A 
ATOM     70  F   UNL A   1      42.808  28.628  26.501  1.00  0.00    -0.206 F 
ATOM     71  C   UNL A   1      42.533  25.236  25.277  1.00  0.00     0.022 A 
BRANCH  68  72
ATOM     72  S   UNL A   1      41.681  22.833  26.404  1.00  0.00     0.124 S 
ATOM     73  O   UNL A   1      40.230  22.677  26.344  1.00  0.00    -0.237 OA
ATOM     74  O   UNL A   1      42.419  22.406  25.217  1.00  0.00    -0.237 OA
ATOM     75  O   UNL A   1      42.289  22.472  27.680  1.00  0.00    -0.744 OA
ENDBRANCH  68  72
ENDBRANCH  51  65
BRANCH  52  76
ATOM     76  C   UNL A   1      38.791  31.986  35.535  1.00  0.00     0.023 A 
ATOM     77  C   UNL A   1      38.199  31.306  36.611  1.00  0.00     0.031 A 
ATOM     78  C   UNL A   1      38.907  33.384  35.620  1.00  0.00     0.131 A 
ATOM     79  C   UNL A   1      37.709  32.029  37.709  1.00  0.00     0.055 A 
ATOM     80  C   UNL A   1      38.463  34.094  36.737  1.00  0.00     0.041 A 
ATOM     81  F   UNL A   1      39.467  34.083  34.620  1.00  0.00    -0.206 F 
ATOM     82  C   UNL A   1      37.848  33.416  37.786  1.00  0.00     0.022 A 
BRANCH  79  83
ATOM     83  S   UNL A   1      36.812  31.132  39.007  1.00  0.00     0.124 S 
ATOM     84  O   UNL A   1      35.580  31.906  39.104  1.00  0.00    -0.237 OA
ATOM     85  O   UNL A   1      36.691  29.800  38.426  1.00  0.00    -0.237 OA
ATOM     86  O   UNL A   1      37.702  31.227  40.162  1.00  0.00    -0.744 OA
ENDBRANCH  79  83
ENDBRANCH  52  76
BRANCH  64  87
ATOM     87  C   UNL A   1      44.382  28.051  34.148  1.00  0.00     0.023 A 
ATOM     88  C   UNL A   1      44.455  26.897  34.946  1.00  0.00     0.031 A 
ATOM     89  C   UNL A   1      45.508  28.892  34.092  1.00  0.00     0.131 A 
ATOM     90  C   UNL A   1      45.620  26.634  35.685  1.00  0.00     0.055 A 
ATOM     91  C   UNL A   1      46.680  28.600  34.789  1.00  0.00     0.041 A 
ATOM     92  F   UNL A   1      45.489  30.008  33.343  1.00  0.00    -0.206 F 
ATOM     93  C   UNL A   1      46.738  27.469  35.598  1.00  0.00     0.022 A 
BRANCH  90  94
ATOM     94  S   UNL A   1      45.642  25.207  36.806  1.00  0.00     0.124 S 
ATOM     95  O   UNL A   1      46.861  24.518  36.395  1.00  0.00    -0.237 OA
ATOM     96  O   UNL A   1      45.679  25.840  38.120  1.00  0.00    -0.237 OA
ATOM     97  O   UNL A   1      44.398  24.506  36.492  1.00  0.00    -0.744 OA
ENDBRANCH  90  94
ENDBRANCH  64  87
ENDBRANCH  38  39
ENDBRANCH  30  33
ENDBRANCH  28  29
ENDBRANCH  27  28
ENDBRANCH   1  27
TORSDOF 18
ENDMDL
MODEL 2
REMARK VINA RESULT:     -12.7      3.242      9.008
REMARK SMILES CC(=O)Nc1cccc(-c2cc(F)ccc2C(=O)NCCCCCCNC(=O)c2ccc(-c3c4nc(c(-c5cc(S(=O)(=O)[O-])ccc5F)c5ccc([nH]5)c(-c5cc(S(=O)(=O)[O-])ccc5F)c5nc(c(-c6cc(S(=O)(=O)[O-])ccc6F)c6ccc3[nH]6)C=C5)C=C4)cc2)c1
REMARK SMILES IDX 23 1 22 2 21 3 20 4 19 5 17 6 18 7 16 9 10 10 11 11 12 12
REMARK SMILES IDX 15 13 13 14 14 15 9 16 5 17 6 18 92 19 7 20 8 21 4 22 1 23
REMARK SMILES IDX 2 24 3 25 24 27 25 28 26 29 27 30 28 32 29 33 30 34 91 35
REMARK SMILES IDX 31 36 90 37 32 38 33 39 34 40 84 41 35 42 89 43 83 44 85 45
REMARK SMILES IDX 36 46 88 47 82 48 81 49 37 51 69 52 49 53 68 54 50 55 53 56
REMARK SMILES IDX 67 57 86 58 51 59 52 60 66 62 87 63 54 64 38 65 39 66 47 67
REMARK SMILES IDX 40 68 46 69 48 70 45 71 41 72 42 73 43 74 44 75 70 76 71 77
REMARK SMILES IDX 79 78 72 79 78 80 80 81 77 82 73 83 74 84 75 85 76 86 55 87
REMARK SMILES IDX 56 88 64 89 57 90 63 91 65 92 62 93 58 94 59 95 60 96 61 97
REMARK H PARENT 19 8 4 26 26 31 85 50 53 61
REMARK Flexibility Score: inf
ROOT
ATOM      1  C   UNL A   1      31.042  31.241  25.721  1.00  0.00     0.002 C 
ENDROOT
BRANCH   1   2
ATOM      2  C   UNL A   1      31.986  30.041  25.881  1.00  0.00     0.002 C 
BRANCH   2   3
ATOM      3  C   UNL A   1      32.071  29.328  27.236  1.00  0.00     0.021 C 
BRANCH   3   4
ATOM      4  C   UNL A   1      32.258  27.814  27.250  1.00  0.00     0.116 C 
BRANCH   4   5
ATOM      5  N   UNL A   1      31.086  27.009  27.023  1.00  0.00    -0.352 N 
ATOM      6  C   UNL A   1      30.645  26.324  25.916  1.00  0.00     0.251 C 
ATOM      7  O   UNL A   1      29.666  25.593  26.107  1.00  0.00    -0.269 OA
ATOM      8  H   UNL A   1      30.492  26.936  27.805  1.00  0.00     0.163 HD
BRANCH   6   9
ATOM      9  C   UNL A   1      31.161  26.422  24.497  1.00  0.00     0.047 A 
ATOM     10  C   UNL A   1      30.684  27.177  23.393  1.00  0.00    -0.003 A 
ATOM     11  C   UNL A   1      31.430  27.149  22.182  1.00  0.00     0.048 A 
ATOM     12  C   UNL A   1      32.603  26.419  22.056  1.00  0.00     0.123 A 
ATOM     13  C   UNL A   1      32.369  25.689  24.319  1.00  0.00     0.017 A 
ATOM     14  F   UNL A   1      33.276  26.436  20.898  1.00  0.00    -0.207 F 
ATOM     15  C   UNL A   1      33.083  25.686  23.119  1.00  0.00     0.040 A 
BRANCH  10  16
ATOM     16  C   UNL A   1      29.484  28.025  23.356  1.00  0.00    -0.015 A 
ATOM     17  C   UNL A   1      28.415  30.212  23.278  1.00  0.00     0.041 A 
ATOM     18  C   UNL A   1      27.167  29.595  23.447  1.00  0.00     0.026 A 
ATOM     19  C   UNL A   1      29.566  29.418  23.205  1.00  0.00     0.034 A 
ATOM     20  C   UNL A   1      27.061  28.210  23.533  1.00  0.00     0.003 A 
ATOM     21  C   UNL A   1      28.212  27.430  23.482  1.00  0.00     0.009 A 
BRANCH  17  22
ATOM     22  N   UNL A   1      28.438  31.614  23.366  1.00  0.00    -0.326 N 
ATOM     23  C   UNL A   1      28.050  32.303  21.009  1.00  0.00     0.114 C 
ATOM     24  C   UNL A   1      28.499  32.588  22.413  1.00  0.00     0.221 C 
ATOM     25  O   UNL A   1      28.876  33.715  22.738  1.00  0.00    -0.275 OA
ATOM     26  H   UNL A   1      28.403  31.957  24.287  1.00  0.00     0.169 HD
ENDBRANCH  17  22
ENDBRANCH  10  16
ENDBRANCH   6   9
ENDBRANCH   4   5
ENDBRANCH   3   4
ENDBRANCH   2   3
ENDBRANCH   1   2
BRANCH   1  27
ATOM     27  C   UNL A   1      31.216  32.434  26.662  1.00  0.00     0.021 C 
BRANCH  27  28
ATOM     28  C   UNL A   1      32.637  32.829  27.051  1.00  0.00     0.116 C 
BRANCH  28  29
ATOM     29  N   UNL A   1      32.724  34.160  27.620  1.00  0.00    -0.352 N 
ATOM     30  C   UNL A   1      33.525  34.655  28.621  1.00  0.00     0.251 C 
ATOM     31  H   UNL A   1      32.108  34.818  27.224  1.00  0.00     0.163 HD
ATOM     32  O   UNL A   1      33.318  35.798  29.032  1.00  0.00    -0.269 OA
BRANCH  30  33
ATOM     33  C   UNL A   1      34.613  33.848  29.233  1.00  0.00     0.039 A 
ATOM     34  C   UNL A   1      35.941  34.168  28.925  1.00  0.00     0.014 A 
ATOM     35  C   UNL A   1      34.351  32.740  30.045  1.00  0.00     0.014 A 
ATOM     36  C   UNL A   1      36.997  33.420  29.463  1.00  0.00     0.010 A 
ATOM     37  C   UNL A   1      35.405  32.033  30.632  1.00  0.00     0.010 A 
ATOM     38  C   UNL A   1      36.742  32.358  30.342  1.00  0.00    -0.014 A 
BRANCH  38  39
ATOM     39  C   UNL A   1      37.842  31.545  30.935  1.00  0.00     0.031 A 
ATOM     40  C   UNL A   1      38.318  31.834  32.336  1.00  0.00     0.074 A 
ATOM     41  C   UNL A   1      38.461  30.595  30.205  1.00  0.00     0.049 A 
ATOM     42  N   UNL A   1      39.345  31.347  32.984  1.00  0.00    -0.248 NA
ATOM     43  C   UNL A   1      37.545  32.828  33.095  1.00  0.00     0.031 C 
ATOM     44  C   UNL A   1      38.102  30.210  28.840  1.00  0.00     0.029 A 
ATOM     45  N   UNL A   1      39.535  29.791  30.503  1.00  0.00    -0.354 N 
ATOM     46  C   UNL A   1      39.362  31.996  34.215  1.00  0.00     0.074 A 
ATOM     47  C   UNL A   1      38.265  32.942  34.201  1.00  0.00     0.031 C 
ATOM     48  C   UNL A   1      38.930  29.238  28.425  1.00  0.00     0.029 A 
ATOM     49  C   UNL A   1      39.913  28.964  29.470  1.00  0.00     0.049 A 
ATOM     50  H   UNL A   1      39.991  29.805  31.376  1.00  0.00     0.167 HD
ATOM     51  C   UNL A   1      40.205  31.813  35.264  1.00  0.00     0.034 A 
ATOM     52  C   UNL A   1      40.945  28.100  29.366  1.00  0.00     0.034 A 
ATOM     53  C   UNL A   1      41.275  30.844  35.278  1.00  0.00     0.049 A 
ATOM     54  C   UNL A   1      41.896  27.943  30.527  1.00  0.00     0.074 A 
ATOM     55  C   UNL A   1      42.139  30.530  36.313  1.00  0.00     0.029 A 
ATOM     56  N   UNL A   1      41.632  30.036  34.206  1.00  0.00    -0.354 N 
ATOM     57  N   UNL A   1      41.883  28.547  31.692  1.00  0.00    -0.248 NA
ATOM     58  C   UNL A   1      43.000  26.987  30.359  1.00  0.00     0.031 C 
ATOM     59  C   UNL A   1      43.060  29.586  35.846  1.00  0.00     0.029 A 
ATOM     60  C   UNL A   1      42.725  29.253  34.544  1.00  0.00     0.049 A 
ATOM     61  H   UNL A   1      41.175  30.022  33.333  1.00  0.00     0.167 HD
ATOM     62  C   UNL A   1      42.950  28.011  32.410  1.00  0.00     0.074 A 
ATOM     63  C   UNL A   1      43.589  27.042  31.545  1.00  0.00     0.031 C 
ATOM     64  C   UNL A   1      43.355  28.287  33.674  1.00  0.00     0.034 A 
BRANCH  51  65
ATOM     65  C   UNL A   1      40.025  32.708  36.468  1.00  0.00     0.023 A 
ATOM     66  C   UNL A   1      39.240  32.326  37.568  1.00  0.00     0.031 A 
ATOM     67  C   UNL A   1      40.630  33.978  36.502  1.00  0.00     0.131 A 
ATOM     68  C   UNL A   1      39.010  33.233  38.613  1.00  0.00     0.055 A 
ATOM     69  C   UNL A   1      40.468  34.843  37.585  1.00  0.00     0.041 A 
ATOM     70  F   UNL A   1      41.378  34.407  35.472  1.00  0.00    -0.206 F 
ATOM     71  C   UNL A   1      39.638  34.480  38.642  1.00  0.00     0.022 A 
BRANCH  68  72
ATOM     72  S   UNL A   1      37.751  32.824  39.854  1.00  0.00     0.124 S 
ATOM     73  O   UNL A   1      37.760  34.024  40.688  1.00  0.00    -0.237 OA
ATOM     74  O   UNL A   1      36.558  32.625  39.036  1.00  0.00    -0.237 OA
ATOM     75  O   UNL A   1      38.277  31.624  40.494  1.00  0.00    -0.744 OA
ENDBRANCH  68  72
ENDBRANCH  51  65
BRANCH  52  76
ATOM     76  C   UNL A   1      41.153  27.322  28.111  1.00  0.00     0.023 A 
ATOM     77  C   UNL A   1      40.859  25.950  28.058  1.00  0.00     0.031 A 
ATOM     78  C   UNL A   1      41.690  27.927  26.961  1.00  0.00     0.131 A 
ATOM     79  C   UNL A   1      41.140  25.219  26.894  1.00  0.00     0.055 A 
ATOM     80  C   UNL A   1      41.921  27.205  25.788  1.00  0.00     0.041 A 
ATOM     81  F   UNL A   1      41.988  29.236  26.957  1.00  0.00    -0.206 F 
ATOM     82  C   UNL A   1      41.656  25.839  25.754  1.00  0.00     0.022 A 
BRANCH  79  83
ATOM     83  S   UNL A   1      40.891  23.422  26.917  1.00  0.00     0.124 S 
ATOM     84  O   UNL A   1      41.804  22.984  25.867  1.00  0.00    -0.237 OA
ATOM     85  O   UNL A   1      41.271  23.082  28.283  1.00  0.00    -0.237 OA
ATOM     86  O   UNL A   1      39.470  23.272  26.612  1.00  0.00    -0.744 OA
ENDBRANCH  79  83
ENDBRANCH  52  76
BRANCH  64  87
ATOM     87  C   UNL A   1      44.504  27.482  34.227  1.00  0.00     0.023 A 
ATOM     88  C   UNL A   1      44.301  26.314  34.981  1.00  0.00     0.031 A 
ATOM     89  C   UNL A   1      45.827  27.886  33.972  1.00  0.00     0.131 A 
ATOM     90  C   UNL A   1      45.407  25.608  35.483  1.00  0.00     0.055 A 
ATOM     91  C   UNL A   1      46.922  27.155  34.432  1.00  0.00     0.041 A 
ATOM     92  F   UNL A   1      46.075  28.996  33.256  1.00  0.00    -0.206 F 
ATOM     93  C   UNL A   1      46.715  26.012  35.199  1.00  0.00     0.022 A 
BRANCH  90  94
ATOM     94  S   UNL A   1      45.116  24.176  36.559  1.00  0.00     0.124 S 
ATOM     95  O   UNL A   1      44.232  24.736  37.576  1.00  0.00    -0.237 OA
ATOM     96  O   UNL A   1      44.509  23.215  35.644  1.00  0.00    -0.237 OA
ATOM     97  O   UNL A   1      46.455  23.822  37.028  1.00  0.00    -0.744 OA
ENDBRANCH  90  94
ENDBRANCH  64  87
ENDBRANCH  38  39
ENDBRANCH  30  33
ENDBRANCH  28  29
ENDBRANCH  27  28
ENDBRANCH   1  27
TORSDOF 18
ENDMDL
MODEL 3
REMARK VINA RESULT:     -12.6      3.584      5.575
REMARK SMILES CC(=O)Nc1cccc(-c2cc(F)ccc2C(=O)NCCCCCCNC(=O)c2ccc(-c3c4nc(c(-c5cc(S(=O)(=O)[O-])ccc5F)c5ccc([nH]5)c(-c5cc(S(=O)(=O)[O-])ccc5F)c5nc(c(-c6cc(S(=O)(=O)[O-])ccc6F)c6ccc3[nH]6)C=C5)C=C4)cc2)c1
REMARK SMILES IDX 23 1 22 2 21 3 20 4 19 5 17 6 18 7 16 9 10 10 11 11 12 12
REMARK SMILES IDX 15 13 13 14 14 15 9 16 5 17 6 18 92 19 7 20 8 21 4 22 1 23
REMARK SMILES IDX 2 24 3 25 24 27 25 28 26 29 27 30 28 32 29 33 30 34 91 35
REMARK SMILES IDX 31 36 90 37 32 38 33 39 34 40 84 41 35 42 89 43 83 44 85 45
REMARK SMILES IDX 36 46 88 47 82 48 81 49 37 51 69 52 49 53 68 54 50 55 53 56
REMARK SMILES IDX 67 57 86 58 51 59 52 60 66 62 87 63 54 64 38 65 39 66 47 67
REMARK SMILES IDX 40 68 46 69 48 70 45 71 41 72 42 73 43 74 44 75 70 76 71 77
REMARK SMILES IDX 79 78 72 79 78 80 80 81 77 82 73 83 74 84 75 85 76 86 55 87
REMARK SMILES IDX 56 88 64 89 57 90 63 91 65 92 62 93 58 94 59 95 60 96 61 97
REMARK H PARENT 19 8 4 26 26 31 85 50 53 61
REMARK Flexibility Score: inf
ROOT
ATOM      1  C   UNL A   1      34.258  30.389  27.844  1.00  0.00     0.002 C 
ENDROOT
BRANCH   1   2
ATOM      2  C   UNL A   1      34.536  29.208  26.904  1.00  0.00     0.002 C 
BRANCH   2   3
ATOM      3  C   UNL A   1      33.443  28.155  26.679  1.00  0.00     0.021 C 
BRANCH   3   4
ATOM      4  C   UNL A   1      32.011  28.496  27.082  1.00  0.00     0.116 C 
BRANCH   4   5
ATOM      5  N   UNL A   1      31.042  27.434  27.006  1.00  0.00    -0.352 N 
ATOM      6  C   UNL A   1      30.755  26.524  26.017  1.00  0.00     0.251 C 
ATOM      7  O   UNL A   1      29.959  25.633  26.338  1.00  0.00    -0.269 OA
ATOM      8  H   UNL A   1      30.480  27.345  27.810  1.00  0.00     0.163 HD
BRANCH   6   9
ATOM      9  C   UNL A   1      31.232  26.532  24.581  1.00  0.00     0.047 A 
ATOM     10  C   UNL A   1      30.706  27.192  23.439  1.00  0.00    -0.003 A 
ATOM     11  C   UNL A   1      31.422  27.095  22.214  1.00  0.00     0.048 A 
ATOM     12  C   UNL A   1      32.611  26.388  22.108  1.00  0.00     0.123 A 
ATOM     13  C   UNL A   1      32.455  25.819  24.423  1.00  0.00     0.017 A 
ATOM     14  F   UNL A   1      33.253  26.339  20.934  1.00  0.00    -0.207 F 
ATOM     15  C   UNL A   1      33.138  25.747  23.207  1.00  0.00     0.040 A 
BRANCH  10  16
ATOM     16  C   UNL A   1      29.482  28.004  23.374  1.00  0.00    -0.015 A 
ATOM     17  C   UNL A   1      28.350  30.159  23.294  1.00  0.00     0.041 A 
ATOM     18  C   UNL A   1      27.116  29.502  23.411  1.00  0.00     0.026 A 
ATOM     19  C   UNL A   1      29.527  29.401  23.248  1.00  0.00     0.034 A 
ATOM     20  C   UNL A   1      27.051  28.113  23.471  1.00  0.00     0.003 A 
ATOM     21  C   UNL A   1      28.226  27.369  23.447  1.00  0.00     0.009 A 
BRANCH  17  22
ATOM     22  N   UNL A   1      28.327  31.559  23.405  1.00  0.00    -0.326 N 
ATOM     23  C   UNL A   1      28.188  32.280  21.030  1.00  0.00     0.114 C 
ATOM     24  C   UNL A   1      28.469  32.550  22.480  1.00  0.00     0.221 C 
ATOM     25  O   UNL A   1      28.778  33.681  22.862  1.00  0.00    -0.275 OA
ATOM     26  H   UNL A   1      28.180  31.885  24.322  1.00  0.00     0.169 HD
ENDBRANCH  17  22
ENDBRANCH  10  16
ENDBRANCH   6   9
ENDBRANCH   4   5
ENDBRANCH   3   4
ENDBRANCH   2   3
ENDBRANCH   1   2
BRANCH   1  27
ATOM     27  C   UNL A   1      33.950  31.754  27.224  1.00  0.00     0.021 C 
BRANCH  27  28
ATOM     28  C   UNL A   1      32.526  32.285  27.351  1.00  0.00     0.116 C 
BRANCH  28  29
ATOM     29  N   UNL A   1      32.470  33.699  27.670  1.00  0.00    -0.352 N 
ATOM     30  C   UNL A   1      33.220  34.449  28.544  1.00  0.00     0.251 C 
ATOM     31  H   UNL A   1      31.782  34.204  27.180  1.00  0.00     0.163 HD
ATOM     32  O   UNL A   1      32.891  35.619  28.749  1.00  0.00    -0.269 OA
BRANCH  30  33
ATOM     33  C   UNL A   1      34.394  33.887  29.261  1.00  0.00     0.039 A 
ATOM     34  C   UNL A   1      35.678  34.206  28.799  1.00  0.00     0.014 A 
ATOM     35  C   UNL A   1      34.258  32.996  30.330  1.00  0.00     0.014 A 
ATOM     36  C   UNL A   1      36.813  33.681  29.431  1.00  0.00     0.010 A 
ATOM     37  C   UNL A   1      35.390  32.522  30.999  1.00  0.00     0.010 A 
ATOM     38  C   UNL A   1      36.682  32.851  30.554  1.00  0.00    -0.014 A 
BRANCH  38  39
ATOM     39  C   UNL A   1      37.869  32.279  31.253  1.00  0.00     0.031 A 
ATOM     40  C   UNL A   1      38.640  31.148  30.620  1.00  0.00     0.074 A 
ATOM     41  C   UNL A   1      38.221  32.721  32.477  1.00  0.00     0.049 A 
ATOM     42  N   UNL A   1      39.606  30.419  31.117  1.00  0.00    -0.248 NA
ATOM     43  C   UNL A   1      38.246  30.775  29.254  1.00  0.00     0.031 C 
ATOM     44  C   UNL A   1      37.566  33.809  33.204  1.00  0.00     0.029 A 
ATOM     45  N   UNL A   1      39.208  32.298  33.335  1.00  0.00    -0.354 N 
ATOM     46  C   UNL A   1      39.916  29.479  30.137  1.00  0.00     0.074 A 
ATOM     47  C   UNL A   1      39.003  29.709  29.037  1.00  0.00     0.031 C 
ATOM     48  C   UNL A   1      38.175  33.975  34.389  1.00  0.00     0.029 A 
ATOM     49  C   UNL A   1      39.230  32.974  34.534  1.00  0.00     0.049 A 
ATOM     50  H   UNL A   1      39.840  31.577  33.113  1.00  0.00     0.167 HD
ATOM     51  C   UNL A   1      40.879  28.523  30.149  1.00  0.00     0.034 A 
ATOM     52  C   UNL A   1      39.994  32.797  35.631  1.00  0.00     0.034 A 
ATOM     53  C   UNL A   1      41.805  28.324  31.238  1.00  0.00     0.049 A 
ATOM     54  C   UNL A   1      41.030  31.700  35.640  1.00  0.00     0.074 A 
ATOM     55  C   UNL A   1      42.861  27.433  31.320  1.00  0.00     0.029 A 
ATOM     56  N   UNL A   1      41.784  29.022  32.438  1.00  0.00    -0.354 N 
ATOM     57  N   UNL A   1      41.325  30.836  34.697  1.00  0.00    -0.248 NA
ATOM     58  C   UNL A   1      41.835  31.554  36.861  1.00  0.00     0.031 C 
ATOM     59  C   UNL A   1      43.433  27.542  32.592  1.00  0.00     0.029 A 
ATOM     60  C   UNL A   1      42.784  28.556  33.279  1.00  0.00     0.049 A 
ATOM     61  H   UNL A   1      41.151  29.744  32.661  1.00  0.00     0.167 HD
ATOM     62  C   UNL A   1      42.380  30.075  35.196  1.00  0.00     0.074 A 
ATOM     63  C   UNL A   1      42.664  30.575  36.524  1.00  0.00     0.031 C 
ATOM     64  C   UNL A   1      43.060  29.063  34.602  1.00  0.00     0.034 A 
BRANCH  51  65
ATOM     65  C   UNL A   1      40.952  27.592  28.960  1.00  0.00     0.023 A 
ATOM     66  C   UNL A   1      41.921  27.746  27.955  1.00  0.00     0.031 A 
ATOM     67  C   UNL A   1      40.019  26.550  28.819  1.00  0.00     0.131 A 
ATOM     68  C   UNL A   1      41.882  26.929  26.814  1.00  0.00     0.055 A 
ATOM     69  C   UNL A   1      40.039  25.684  27.724  1.00  0.00     0.041 A 
ATOM     70  F   UNL A   1      39.057  26.364  29.739  1.00  0.00    -0.206 F 
ATOM     71  C   UNL A   1      40.964  25.884  26.703  1.00  0.00     0.022 A 
BRANCH  68  72
ATOM     72  S   UNL A   1      42.945  27.355  25.407  1.00  0.00     0.124 S 
ATOM     73  O   UNL A   1      43.034  26.076  24.708  1.00  0.00    -0.237 OA
ATOM     74  O   UNL A   1      42.171  28.397  24.735  1.00  0.00    -0.237 OA
ATOM     75  O   UNL A   1      44.182  27.804  26.034  1.00  0.00    -0.744 OA
ENDBRANCH  68  72
ENDBRANCH  51  65
BRANCH  52  76
ATOM     76  C   UNL A   1      39.806  33.665  36.830  1.00  0.00     0.023 A 
ATOM     77  C   UNL A   1      39.193  33.167  37.990  1.00  0.00     0.031 A 
ATOM     78  C   UNL A   1      40.197  35.016  36.817  1.00  0.00     0.131 A 
ATOM     79  C   UNL A   1      38.952  34.022  39.075  1.00  0.00     0.055 A 
ATOM     80  C   UNL A   1      40.000  35.850  37.919  1.00  0.00     0.041 A 
ATOM     81  F   UNL A   1      40.789  35.543  35.734  1.00  0.00    -0.206 F 
ATOM     82  C   UNL A   1      39.362  35.356  39.054  1.00  0.00     0.022 A 
BRANCH  79  83
ATOM     83  S   UNL A   1      38.018  33.381  40.493  1.00  0.00     0.124 S 
ATOM     84  O   UNL A   1      36.724  33.090  39.888  1.00  0.00    -0.237 OA
ATOM     85  O   UNL A   1      38.819  32.227  40.886  1.00  0.00    -0.237 OA
ATOM     86  O   UNL A   1      38.030  34.496  41.439  1.00  0.00    -0.744 OA
ENDBRANCH  79  83
ENDBRANCH  52  76
BRANCH  64  87
ATOM     87  C   UNL A   1      44.224  28.472  35.357  1.00  0.00     0.023 A 
ATOM     88  C   UNL A   1      44.050  27.476  36.333  1.00  0.00     0.031 A 
ATOM     89  C   UNL A   1      45.533  28.902  35.073  1.00  0.00     0.131 A 
ATOM     90  C   UNL A   1      45.168  26.969  37.017  1.00  0.00     0.055 A 
ATOM     91  C   UNL A   1      46.643  28.359  35.720  1.00  0.00     0.041 A 
ATOM     92  F   UNL A   1      45.753  29.851  34.148  1.00  0.00    -0.206 F 
ATOM     93  C   UNL A   1      46.463  27.391  36.704  1.00  0.00     0.022 A 
BRANCH  90  94
ATOM     94  S   UNL A   1      44.904  25.777  38.360  1.00  0.00     0.124 S 
ATOM     95  O   UNL A   1      43.958  26.488  39.214  1.00  0.00    -0.237 OA
ATOM     96  O   UNL A   1      44.377  24.616  37.651  1.00  0.00    -0.237 OA
ATOM     97  O   UNL A   1      46.240  25.600  38.929  1.00  0.00    -0.744 OA
ENDBRANCH  90  94
ENDBRANCH  64  87
ENDBRANCH  38  39
ENDBRANCH  30  33
ENDBRANCH  28  29
ENDBRANCH  27  28
ENDBRANCH   1  27
TORSDOF 18
ENDMDL
