MODEL 1
REMARK VINA RESULT:     -11.8      0.000      0.000
REMARK SMILES O=C(Cn1cc(/C=C2\SC(=S)N(C[C@H]3CCCO3)C2=O)c2ccccc21)NCCCCCCNC(=O)c1ccc(-c2c3nc(c(-c4cc(S(=O)(=O)[O-])ccc4F)c4ccc([nH]4)c(-c4cc(S(=O)(=O)[O-])ccc4F)c4nc(c(-c5cc(S(=O)(=O)[O-])ccc5F)c5ccc2[nH]5)C=C4)C=C3)cc1
REMARK SMILES IDX 30 1 29 2 28 3 27 4 1 5 2 6 3 8 4 9 5 10 26 11 6 12 21 13
REMARK SMILES IDX 25 14 22 15 24 16 23 17 7 18 8 19 9 20 19 21 10 22 12 23
REMARK SMILES IDX 20 24 11 25 13 26 14 27 15 28 18 29 16 30 17 31 31 32 32 33
REMARK SMILES IDX 33 34 34 35 35 36 36 38 37 39 38 40 99 41 39 42 98 43 40 44
REMARK SMILES IDX 41 45 42 46 92 47 43 48 97 49 91 50 93 51 44 52 96 53 90 54
REMARK SMILES IDX 89 55 45 57 77 58 57 59 76 60 58 61 61 62 75 63 94 64 59 65
REMARK SMILES IDX 60 66 74 68 95 69 62 70 46 71 47 72 55 73 48 74 54 75 56 76
REMARK SMILES IDX 53 77 49 78 50 79 51 80 52 81 78 82 79 83 87 84 80 85 86 86
REMARK SMILES IDX 88 87 85 88 81 89 82 90 83 91 84 92 63 93 64 94 72 95 65 96
REMARK SMILES IDX 71 97 73 98 70 99 66 100 67 101 68 102 69 103
REMARK H PARENT 27 7 34 37 93 56 61 67
REMARK Flexibility Score: inf
ROOT
ATOM      1  C   UNL A   1      40.693  22.146  27.597  1.00  0.00     0.002 C 
ENDROOT
BRANCH   1   2
ATOM      2  C   UNL A   1      40.068  22.711  26.313  1.00  0.00     0.021 C 
BRANCH   2   3
ATOM      3  C   UNL A   1      39.072  23.853  26.528  1.00  0.00     0.116 C 
BRANCH   3   4
ATOM      4  N   UNL A   1      37.735  23.345  26.751  1.00  0.00    -0.355 N 
ATOM      5  O   UNL A   1      37.289  22.746  24.586  1.00  0.00    -0.273 OA
ATOM      6  C   UNL A   1      36.917  22.870  25.751  1.00  0.00     0.239 C 
ATOM      7  H   UNL A   1      37.390  23.339  27.674  1.00  0.00     0.163 HD
BRANCH   6   8
ATOM      8  C   UNL A   1      35.463  22.653  26.135  1.00  0.00     0.222 C 
BRANCH   8   9
ATOM      9  N   UNL A   1      34.521  22.874  25.049  1.00  0.00    -0.337 N 
ATOM     10  C   UNL A   1      34.265  24.104  24.501  1.00  0.00     0.095 A 
ATOM     11  C   UNL A   1      33.719  21.914  24.460  1.00  0.00     0.049 A 
ATOM     12  C   UNL A   1      33.335  23.933  23.503  1.00  0.00     0.001 A 
ATOM     13  C   UNL A   1      33.014  22.548  23.430  1.00  0.00     0.007 A 
ATOM     14  C   UNL A   1      33.569  20.541  24.726  1.00  0.00     0.027 A 
ATOM     15  C   UNL A   1      32.181  21.768  22.598  1.00  0.00     0.011 A 
ATOM     16  C   UNL A   1      32.755  19.789  23.876  1.00  0.00     0.002 A 
ATOM     17  C   UNL A   1      32.079  20.389  22.819  1.00  0.00     0.001 A 
BRANCH  12  18
ATOM     18  C   UNL A   1      32.756  25.010  22.778  1.00  0.00     0.031 C 
ATOM     19  C   UNL A   1      32.399  26.211  23.254  1.00  0.00     0.081 C 
ATOM     20  S   UNL A   1      32.665  26.873  24.810  1.00  0.00    -0.054 SA
ATOM     21  C   UNL A   1      31.653  27.171  22.415  1.00  0.00     0.266 C 
ATOM     22  C   UNL A   1      31.966  28.429  24.364  1.00  0.00     0.148 C 
ATOM     23  N   UNL A   1      31.516  28.384  23.056  1.00  0.00    -0.290 N 
ATOM     24  O   UNL A   1      31.162  26.868  21.329  1.00  0.00    -0.268 OA
ATOM     25  S   UNL A   1      31.875  29.693  25.446  1.00  0.00    -0.052 S 
BRANCH  23  26
ATOM     26  C   UNL A   1      30.789  29.466  22.383  1.00  0.00     0.159 C 
BRANCH  26  27
ATOM     27  C   UNL A   1      29.280  29.540  22.715  1.00  0.00     0.138 C 
ATOM     28  C   UNL A   1      28.820  30.780  23.473  1.00  0.00     0.036 C 
ATOM     29  O   UNL A   1      28.568  29.617  21.455  1.00  0.00    -0.376 OA
ATOM     30  C   UNL A   1      28.693  31.804  22.373  1.00  0.00     0.031 C 
ATOM     31  C   UNL A   1      28.114  30.966  21.253  1.00  0.00     0.160 C 
ENDBRANCH  26  27
ENDBRANCH  23  26
ENDBRANCH  12  18
ENDBRANCH   8   9
ENDBRANCH   6   8
ENDBRANCH   3   4
ENDBRANCH   2   3
ENDBRANCH   1   2
BRANCH   1  32
ATOM     32  C   UNL A   1      40.830  20.622  27.654  1.00  0.00     0.002 C 
BRANCH  32  33
ATOM     33  C   UNL A   1      42.186  20.060  27.205  1.00  0.00     0.021 C 
BRANCH  33  34
ATOM     34  C   UNL A   1      42.220  19.529  25.770  1.00  0.00     0.116 C 
BRANCH  34  35
ATOM     35  N   UNL A   1      43.445  19.851  25.066  1.00  0.00    -0.352 N 
ATOM     36  C   UNL A   1      44.263  20.945  25.002  1.00  0.00     0.251 C 
ATOM     37  H   UNL A   1      43.761  19.110  24.501  1.00  0.00     0.163 HD
ATOM     38  O   UNL A   1      45.291  20.799  24.334  1.00  0.00    -0.269 OA
BRANCH  36  39
ATOM     39  C   UNL A   1      43.993  22.271  25.632  1.00  0.00     0.039 A 
ATOM     40  C   UNL A   1      43.324  23.337  25.031  1.00  0.00     0.014 A 
ATOM     41  C   UNL A   1      44.502  22.457  26.933  1.00  0.00     0.014 A 
ATOM     42  C   UNL A   1      43.220  24.567  25.679  1.00  0.00     0.010 A 
ATOM     43  C   UNL A   1      44.389  23.682  27.590  1.00  0.00     0.010 A 
ATOM     44  C   UNL A   1      43.778  24.752  26.945  1.00  0.00    -0.014 A 
BRANCH  44  45
ATOM     45  C   UNL A   1      43.670  26.085  27.540  1.00  0.00     0.031 A 
ATOM     46  C   UNL A   1      44.811  27.023  27.312  1.00  0.00     0.074 A 
ATOM     47  C   UNL A   1      42.577  26.527  28.190  1.00  0.00     0.049 A 
ATOM     48  N   UNL A   1      45.605  27.565  28.180  1.00  0.00    -0.248 NA
ATOM     49  C   UNL A   1      45.136  27.347  25.919  1.00  0.00     0.031 C 
ATOM     50  C   UNL A   1      41.241  25.923  28.226  1.00  0.00     0.029 A 
ATOM     51  N   UNL A   1      42.413  27.691  28.882  1.00  0.00    -0.354 N 
ATOM     52  C   UNL A   1      46.439  28.429  27.462  1.00  0.00     0.074 A 
ATOM     53  C   UNL A   1      46.176  28.168  26.068  1.00  0.00     0.031 C 
ATOM     54  C   UNL A   1      40.360  26.830  28.703  1.00  0.00     0.029 A 
ATOM     55  C   UNL A   1      41.093  28.003  29.152  1.00  0.00     0.049 A 
ATOM     56  H   UNL A   1      43.168  28.258  29.163  1.00  0.00     0.167 HD
ATOM     57  C   UNL A   1      47.186  29.404  28.060  1.00  0.00     0.034 A 
ATOM     58  C   UNL A   1      40.620  29.174  29.637  1.00  0.00     0.034 A 
ATOM     59  C   UNL A   1      47.278  29.210  29.479  1.00  0.00     0.049 A 
ATOM     60  C   UNL A   1      41.732  29.915  30.274  1.00  0.00     0.074 A 
ATOM     61  C   UNL A   1      47.847  28.271  30.312  1.00  0.00     0.029 A 
ATOM     62  N   UNL A   1      46.470  29.981  30.276  1.00  0.00    -0.354 N 
ATOM     63  N   UNL A   1      42.314  29.572  31.389  1.00  0.00    -0.248 NA
ATOM     64  C   UNL A   1      42.448  30.895  29.474  1.00  0.00     0.031 C 
ATOM     65  C   UNL A   1      47.021  28.251  31.471  1.00  0.00     0.029 A 
ATOM     66  C   UNL A   1      45.999  29.184  31.282  1.00  0.00     0.049 A 
ATOM     67  H   UNL A   1      46.266  30.936  30.145  1.00  0.00     0.167 HD
ATOM     68  C   UNL A   1      43.637  29.952  31.225  1.00  0.00     0.074 A 
ATOM     69  C   UNL A   1      43.624  30.885  30.105  1.00  0.00     0.031 C 
ATOM     70  C   UNL A   1      44.655  29.266  31.824  1.00  0.00     0.034 A 
BRANCH  57  71
ATOM     71  C   UNL A   1      47.618  30.703  27.409  1.00  0.00     0.023 A 
ATOM     72  C   UNL A   1      46.718  31.737  27.095  1.00  0.00     0.031 A 
ATOM     73  C   UNL A   1      48.988  31.031  27.293  1.00  0.00     0.131 A 
ATOM     74  C   UNL A   1      47.164  33.002  26.684  1.00  0.00     0.055 A 
ATOM     75  C   UNL A   1      49.435  32.313  26.947  1.00  0.00     0.041 A 
ATOM     76  F   UNL A   1      49.944  30.130  27.568  1.00  0.00    -0.206 F 
ATOM     77  C   UNL A   1      48.520  33.309  26.639  1.00  0.00     0.022 A 
BRANCH  74  78
ATOM     78  S   UNL A   1      45.972  34.279  26.198  1.00  0.00     0.124 S 
ATOM     79  O   UNL A   1      44.715  33.538  26.228  1.00  0.00    -0.237 OA
ATOM     80  O   UNL A   1      46.147  35.270  27.258  1.00  0.00    -0.237 OA
ATOM     81  O   UNL A   1      46.439  34.697  24.882  1.00  0.00    -0.744 OA
ENDBRANCH  74  78
ENDBRANCH  57  71
BRANCH  58  82
ATOM     82  C   UNL A   1      39.376  29.848  29.207  1.00  0.00     0.023 A 
ATOM     83  C   UNL A   1      38.544  30.448  30.172  1.00  0.00     0.031 A 
ATOM     84  C   UNL A   1      38.850  29.662  27.920  1.00  0.00     0.131 A 
ATOM     85  C   UNL A   1      37.229  30.805  29.853  1.00  0.00     0.055 A 
ATOM     86  C   UNL A   1      37.538  30.030  27.600  1.00  0.00     0.041 A 
ATOM     87  F   UNL A   1      39.580  29.064  26.966  1.00  0.00    -0.206 F 
ATOM     88  C   UNL A   1      36.717  30.595  28.573  1.00  0.00     0.022 A 
BRANCH  85  89
ATOM     89  S   UNL A   1      36.135  31.496  31.125  1.00  0.00     0.124 S 
ATOM     90  O   UNL A   1      34.955  31.867  30.348  1.00  0.00    -0.237 OA
ATOM     91  O   UNL A   1      35.966  30.359  32.022  1.00  0.00    -0.237 OA
ATOM     92  O   UNL A   1      36.898  32.621  31.658  1.00  0.00    -0.744 OA
ENDBRANCH  85  89
ENDBRANCH  58  82
BRANCH  70  93
ATOM     93  C   UNL A   1      44.336  28.291  32.936  1.00  0.00     0.023 A 
ATOM     94  C   UNL A   1      44.484  28.745  34.260  1.00  0.00     0.031 A 
ATOM     95  C   UNL A   1      44.131  26.913  32.740  1.00  0.00     0.131 A 
ATOM     96  C   UNL A   1      44.464  27.837  35.327  1.00  0.00     0.055 A 
ATOM     97  C   UNL A   1      44.038  26.021  33.813  1.00  0.00     0.041 A 
ATOM     98  F   UNL A   1      44.107  26.374  31.513  1.00  0.00    -0.206 F 
ATOM     99  C   UNL A   1      44.223  26.478  35.113  1.00  0.00     0.022 A 
BRANCH  96 100
ATOM    100  S   UNL A   1      44.921  28.371  36.997  1.00  0.00     0.124 S 
ATOM    101  O   UNL A   1      43.852  29.311  37.324  1.00  0.00    -0.237 OA
ATOM    102  O   UNL A   1      44.896  27.113  37.741  1.00  0.00    -0.237 OA
ATOM    103  O   UNL A   1      46.245  28.963  36.831  1.00  0.00    -0.744 OA
ENDBRANCH  96 100
ENDBRANCH  70  93
ENDBRANCH  44  45
ENDBRANCH  36  39
ENDBRANCH  34  35
ENDBRANCH  33  34
ENDBRANCH  32  33
ENDBRANCH   1  32
TORSDOF 20
ENDMDL
MODEL 2
REMARK VINA RESULT:     -11.6      3.061      8.507
REMARK SMILES O=C(Cn1cc(/C=C2\SC(=S)N(C[C@H]3CCCO3)C2=O)c2ccccc21)NCCCCCCNC(=O)c1ccc(-c2c3nc(c(-c4cc(S(=O)(=O)[O-])ccc4F)c4ccc([nH]4)c(-c4cc(S(=O)(=O)[O-])ccc4F)c4nc(c(-c5cc(S(=O)(=O)[O-])ccc5F)c5ccc2[nH]5)C=C4)C=C3)cc1
REMARK SMILES IDX 30 1 29 2 28 3 27 4 1 5 2 6 3 8 4 9 5 10 26 11 6 12 21 13
REMARK SMILES IDX 25 14 22 15 24 16 23 17 7 18 8 19 9 20 19 21 10 22 12 23
REMARK SMILES IDX 20 24 11 25 13 26 14 27 15 28 18 29 16 30 17 31 31 32 32 33
REMARK SMILES IDX 33 34 34 35 35 36 36 38 37 39 38 40 99 41 39 42 98 43 40 44
REMARK SMILES IDX 41 45 42 46 92 47 43 48 97 49 91 50 93 51 44 52 96 53 90 54
REMARK SMILES IDX 89 55 45 57 77 58 57 59 76 60 58 61 61 62 75 63 94 64 59 65
REMARK SMILES IDX 60 66 74 68 95 69 62 70 46 71 47 72 55 73 48 74 54 75 56 76
REMARK SMILES IDX 53 77 49 78 50 79 51 80 52 81 78 82 79 83 87 84 80 85 86 86
REMARK SMILES IDX 88 87 85 88 81 89 82 90 83 91 84 92 63 93 64 94 72 95 65 96
REMARK SMILES IDX 71 97 73 98 70 99 66 100 67 101 68 102 69 103
REMARK H PARENT 27 7 34 37 93 56 61 67
REMARK Flexibility Score: inf
ROOT
ATOM      1  C   UNL A   1      33.997  27.856  24.765  1.00  0.00     0.002 C 
ENDROOT
BRANCH   1   2
ATOM      2  C   UNL A   1      33.082  28.935  24.166  1.00  0.00     0.021 C 
BRANCH   2   3
ATOM      3  C   UNL A   1      32.896  28.855  22.650  1.00  0.00     0.116 C 
BRANCH   3   4
ATOM      4  N   UNL A   1      32.920  27.482  22.191  1.00  0.00    -0.355 N 
ATOM      5  O   UNL A   1      30.653  27.189  22.040  1.00  0.00    -0.273 OA
ATOM      6  C   UNL A   1      31.791  26.728  21.965  1.00  0.00     0.239 C 
ATOM      7  H   UNL A   1      33.797  27.062  22.032  1.00  0.00     0.163 HD
BRANCH   6   8
ATOM      8  C   UNL A   1      32.021  25.239  21.768  1.00  0.00     0.222 C 
BRANCH   8   9
ATOM      9  N   UNL A   1      32.696  24.589  22.880  1.00  0.00    -0.337 N 
ATOM     10  C   UNL A   1      33.922  23.983  22.776  1.00  0.00     0.095 A 
ATOM     11  C   UNL A   1      32.196  24.435  24.159  1.00  0.00     0.049 A 
ATOM     12  C   UNL A   1      34.250  23.486  24.016  1.00  0.00     0.001 A 
ATOM     13  C   UNL A   1      33.193  23.805  24.914  1.00  0.00     0.007 A 
ATOM     14  C   UNL A   1      30.966  24.816  24.726  1.00  0.00     0.027 A 
ATOM     15  C   UNL A   1      32.975  23.609  26.295  1.00  0.00     0.011 A 
ATOM     16  C   UNL A   1      30.785  24.628  26.098  1.00  0.00     0.002 A 
ATOM     17  C   UNL A   1      31.778  24.045  26.875  1.00  0.00     0.001 A 
BRANCH  12  18
ATOM     18  C   UNL A   1      35.411  22.705  24.264  1.00  0.00     0.031 C 
ATOM     19  C   UNL A   1      36.491  23.057  24.975  1.00  0.00     0.081 C 
ATOM     20  S   UNL A   1      36.744  24.460  25.922  1.00  0.00    -0.054 SA
ATOM     21  C   UNL A   1      37.695  22.201  25.005  1.00  0.00     0.266 C 
ATOM     22  C   UNL A   1      38.320  23.904  26.484  1.00  0.00     0.148 C 
ATOM     23  N   UNL A   1      38.622  22.684  25.903  1.00  0.00    -0.290 N 
ATOM     24  O   UNL A   1      37.850  21.239  24.252  1.00  0.00    -0.268 OA
ATOM     25  S   UNL A   1      39.246  24.807  27.535  1.00  0.00    -0.052 S 
BRANCH  23  26
ATOM     26  C   UNL A   1      39.894  21.972  26.065  1.00  0.00     0.159 C 
BRANCH  26  27
ATOM     27  C   UNL A   1      39.776  20.565  26.696  1.00  0.00     0.138 C 
ATOM     28  C   UNL A   1      40.283  19.404  25.849  1.00  0.00     0.036 C 
ATOM     29  O   UNL A   1      40.636  20.547  27.863  1.00  0.00    -0.376 OA
ATOM     30  C   UNL A   1      41.771  19.455  26.086  1.00  0.00     0.031 C 
ATOM     31  C   UNL A   1      41.826  19.799  27.558  1.00  0.00     0.160 C 
ENDBRANCH  26  27
ENDBRANCH  23  26
ENDBRANCH  12  18
ENDBRANCH   8   9
ENDBRANCH   6   8
ENDBRANCH   3   4
ENDBRANCH   2   3
ENDBRANCH   1   2
BRANCH   1  32
ATOM     32  C   UNL A   1      33.667  27.425  26.197  1.00  0.00     0.002 C 
BRANCH  32  33
ATOM     33  C   UNL A   1      33.705  28.539  27.251  1.00  0.00     0.021 C 
BRANCH  33  34
ATOM     34  C   UNL A   1      35.056  29.244  27.394  1.00  0.00     0.116 C 
BRANCH  34  35
ATOM     35  N   UNL A   1      35.152  30.071  28.580  1.00  0.00    -0.352 N 
ATOM     36  C   UNL A   1      36.145  30.365  29.474  1.00  0.00     0.251 C 
ATOM     37  H   UNL A   1      34.306  30.526  28.793  1.00  0.00     0.163 HD
ATOM     38  O   UNL A   1      35.854  31.205  30.331  1.00  0.00    -0.269 OA
BRANCH  36  39
ATOM     39  C   UNL A   1      37.499  29.737  29.509  1.00  0.00     0.039 A 
ATOM     40  C   UNL A   1      37.834  28.561  30.179  1.00  0.00     0.014 A 
ATOM     41  C   UNL A   1      38.524  30.430  28.833  1.00  0.00     0.014 A 
ATOM     42  C   UNL A   1      39.156  28.122  30.227  1.00  0.00     0.010 A 
ATOM     43  C   UNL A   1      39.846  29.988  28.868  1.00  0.00     0.010 A 
ATOM     44  C   UNL A   1      40.169  28.850  29.599  1.00  0.00    -0.014 A 
BRANCH  44  45
ATOM     45  C   UNL A   1      41.539  28.352  29.735  1.00  0.00     0.031 A 
ATOM     46  C   UNL A   1      42.037  27.440  28.662  1.00  0.00     0.074 A 
ATOM     47  C   UNL A   1      42.382  28.741  30.710  1.00  0.00     0.049 A 
ATOM     48  N   UNL A   1      42.422  26.207  28.755  1.00  0.00    -0.248 NA
ATOM     49  C   UNL A   1      42.050  27.969  27.293  1.00  0.00     0.031 C 
ATOM     50  C   UNL A   1      42.232  29.864  31.640  1.00  0.00     0.029 A 
ATOM     51  N   UNL A   1      43.623  28.257  31.002  1.00  0.00    -0.354 N 
ATOM     52  C   UNL A   1      42.878  25.841  27.484  1.00  0.00     0.074 A 
ATOM     53  C   UNL A   1      42.521  26.929  26.606  1.00  0.00     0.031 C 
ATOM     54  C   UNL A   1      43.424  30.113  32.228  1.00  0.00     0.029 A 
ATOM     55  C   UNL A   1      44.362  29.073  31.839  1.00  0.00     0.049 A 
ATOM     56  H   UNL A   1      43.962  27.403  30.648  1.00  0.00     0.167 HD
ATOM     57  C   UNL A   1      43.647  24.734  27.263  1.00  0.00     0.034 A 
ATOM     58  C   UNL A   1      45.677  28.953  32.133  1.00  0.00     0.034 A 
ATOM     59  C   UNL A   1      43.632  23.842  28.387  1.00  0.00     0.049 A 
ATOM     60  C   UNL A   1      46.118  27.577  31.814  1.00  0.00     0.074 A 
ATOM     61  C   UNL A   1      42.687  23.055  29.010  1.00  0.00     0.029 A 
ATOM     62  N   UNL A   1      44.716  23.864  29.226  1.00  0.00    -0.354 N 
ATOM     63  N   UNL A   1      45.769  26.510  32.477  1.00  0.00    -0.248 NA
ATOM     64  C   UNL A   1      46.709  27.334  30.509  1.00  0.00     0.031 C 
ATOM     65  C   UNL A   1      43.083  23.006  30.376  1.00  0.00     0.029 A 
ATOM     66  C   UNL A   1      44.251  23.761  30.508  1.00  0.00     0.049 A 
ATOM     67  H   UNL A   1      45.660  23.941  28.954  1.00  0.00     0.167 HD
ATOM     68  C   UNL A   1      45.696  25.511  31.519  1.00  0.00     0.074 A 
ATOM     69  C   UNL A   1      46.423  26.038  30.370  1.00  0.00     0.031 C 
ATOM     70  C   UNL A   1      44.818  24.471  31.640  1.00  0.00     0.034 A 
BRANCH  57  71
ATOM     71  C   UNL A   1      44.646  24.569  26.135  1.00  0.00     0.023 A 
ATOM     72  C   UNL A   1      45.709  25.465  25.918  1.00  0.00     0.031 A 
ATOM     73  C   UNL A   1      44.691  23.375  25.380  1.00  0.00     0.131 A 
ATOM     74  C   UNL A   1      46.733  25.183  25.001  1.00  0.00     0.055 A 
ATOM     75  C   UNL A   1      45.748  23.064  24.515  1.00  0.00     0.041 A 
ATOM     76  F   UNL A   1      43.736  22.440  25.501  1.00  0.00    -0.206 F 
ATOM     77  C   UNL A   1      46.779  23.972  24.320  1.00  0.00     0.022 A 
BRANCH  74  78
ATOM     78  S   UNL A   1      48.035  26.404  24.682  1.00  0.00     0.124 S 
ATOM     79  O   UNL A   1      49.211  25.734  25.226  1.00  0.00    -0.237 OA
ATOM     80  O   UNL A   1      47.988  26.519  23.226  1.00  0.00    -0.237 OA
ATOM     81  O   UNL A   1      47.577  27.585  25.407  1.00  0.00    -0.744 OA
ENDBRANCH  74  78
ENDBRANCH  57  71
BRANCH  58  82
ATOM     82  C   UNL A   1      46.637  30.070  32.272  1.00  0.00     0.023 A 
ATOM     83  C   UNL A   1      46.926  30.878  31.156  1.00  0.00     0.031 A 
ATOM     84  C   UNL A   1      47.482  30.174  33.387  1.00  0.00     0.131 A 
ATOM     85  C   UNL A   1      48.043  31.722  31.160  1.00  0.00     0.055 A 
ATOM     86  C   UNL A   1      48.591  31.027  33.393  1.00  0.00     0.041 A 
ATOM     87  F   UNL A   1      47.280  29.405  34.468  1.00  0.00    -0.206 F 
ATOM     88  C   UNL A   1      48.883  31.798  32.271  1.00  0.00     0.022 A 
BRANCH  85  89
ATOM     89  S   UNL A   1      48.459  32.694  29.686  1.00  0.00     0.124 S 
ATOM     90  O   UNL A   1      49.579  33.506  30.158  1.00  0.00    -0.237 OA
ATOM     91  O   UNL A   1      48.801  31.649  28.727  1.00  0.00    -0.237 OA
ATOM     92  O   UNL A   1      47.234  33.437  29.409  1.00  0.00    -0.744 OA
ENDBRANCH  85  89
ENDBRANCH  58  82
BRANCH  70  93
ATOM     93  C   UNL A   1      44.153  24.216  32.974  1.00  0.00     0.023 A 
ATOM     94  C   UNL A   1      43.336  25.236  33.497  1.00  0.00     0.031 A 
ATOM     95  C   UNL A   1      44.477  23.142  33.823  1.00  0.00     0.131 A 
ATOM     96  C   UNL A   1      42.905  25.186  34.829  1.00  0.00     0.055 A 
ATOM     97  C   UNL A   1      43.984  23.060  35.129  1.00  0.00     0.041 A 
ATOM     98  F   UNL A   1      45.350  22.195  33.454  1.00  0.00    -0.206 F 
ATOM     99  C   UNL A   1      43.208  24.092  35.644  1.00  0.00     0.022 A 
BRANCH  96 100
ATOM    100  S   UNL A   1      42.086  26.614  35.586  1.00  0.00     0.124 S 
ATOM    101  O   UNL A   1      41.677  27.390  34.418  1.00  0.00    -0.237 OA
ATOM    102  O   UNL A   1      40.998  25.987  36.332  1.00  0.00    -0.237 OA
ATOM    103  O   UNL A   1      43.126  27.224  36.409  1.00  0.00    -0.744 OA
ENDBRANCH  96 100
ENDBRANCH  70  93
ENDBRANCH  44  45
ENDBRANCH  36  39
ENDBRANCH  34  35
ENDBRANCH  33  34
ENDBRANCH  32  33
ENDBRANCH   1  32
TORSDOF 20
ENDMDL
MODEL 3
REMARK VINA RESULT:     -11.5      3.126      8.752
REMARK SMILES O=C(Cn1cc(/C=C2\SC(=S)N(C[C@H]3CCCO3)C2=O)c2ccccc21)NCCCCCCNC(=O)c1ccc(-c2c3nc(c(-c4cc(S(=O)(=O)[O-])ccc4F)c4ccc([nH]4)c(-c4cc(S(=O)(=O)[O-])ccc4F)c4nc(c(-c5cc(S(=O)(=O)[O-])ccc5F)c5ccc2[nH]5)C=C4)C=C3)cc1
REMARK SMILES IDX 30 1 29 2 28 3 27 4 1 5 2 6 3 8 4 9 5 10 26 11 6 12 21 13
REMARK SMILES IDX 25 14 22 15 24 16 23 17 7 18 8 19 9 20 19 21 10 22 12 23
REMARK SMILES IDX 20 24 11 25 13 26 14 27 15 28 18 29 16 30 17 31 31 32 32 33
REMARK SMILES IDX 33 34 34 35 35 36 36 38 37 39 38 40 99 41 39 42 98 43 40 44
REMARK SMILES IDX 41 45 42 46 92 47 43 48 97 49 91 50 93 51 44 52 96 53 90 54
REMARK SMILES IDX 89 55 45 57 77 58 57 59 76 60 58 61 61 62 75 63 94 64 59 65
REMARK SMILES IDX 60 66 74 68 95 69 62 70 46 71 47 72 55 73 48 74 54 75 56 76
REMARK SMILES IDX 53 77 49 78 50 79 51 80 52 81 78 82 79 83 87 84 80 85 86 86
REMARK SMILES IDX 88 87 85 88 81 89 82 90 83 91 84 92 63 93 64 94 72 95 65 96
REMARK SMILES IDX 71 97 73 98 70 99 66 100 67 101 68 102 69 103
REMARK H PARENT 27 7 34 37 93 56 61 67
REMARK Flexibility Score: inf
ROOT
ATOM      1  C   UNL A   1      36.017  33.845  29.478  1.00  0.00     0.002 C 
ENDROOT
BRANCH   1   2
ATOM      2  C   UNL A   1      34.857  33.642  28.492  1.00  0.00     0.021 C 
BRANCH   2   3
ATOM      3  C   UNL A   1      34.907  32.336  27.696  1.00  0.00     0.116 C 
BRANCH   3   4
ATOM      4  N   UNL A   1      33.645  31.630  27.771  1.00  0.00    -0.355 N 
ATOM      5  O   UNL A   1      34.050  30.138  26.080  1.00  0.00    -0.273 OA
ATOM      6  C   UNL A   1      33.286  30.608  26.921  1.00  0.00     0.239 C 
ATOM      7  H   UNL A   1      33.007  31.896  28.471  1.00  0.00     0.163 HD
BRANCH   6   8
ATOM      8  C   UNL A   1      31.826  30.191  26.972  1.00  0.00     0.222 C 
BRANCH   8   9
ATOM      9  N   UNL A   1      31.556  28.892  26.376  1.00  0.00    -0.337 N 
ATOM     10  C   UNL A   1      31.694  27.704  27.047  1.00  0.00     0.095 A 
ATOM     11  C   UNL A   1      31.188  28.658  25.064  1.00  0.00     0.049 A 
ATOM     12  C   UNL A   1      31.349  26.692  26.182  1.00  0.00     0.001 A 
ATOM     13  C   UNL A   1      30.979  27.279  24.939  1.00  0.00     0.007 A 
ATOM     14  C   UNL A   1      30.995  29.539  23.985  1.00  0.00     0.027 A 
ATOM     15  C   UNL A   1      30.501  26.775  23.710  1.00  0.00     0.011 A 
ATOM     16  C   UNL A   1      30.502  29.017  22.787  1.00  0.00     0.002 A 
ATOM     17  C   UNL A   1      30.246  27.657  22.653  1.00  0.00     0.001 A 
BRANCH  12  18
ATOM     18  C   UNL A   1      31.466  25.312  26.504  1.00  0.00     0.031 C 
ATOM     19  C   UNL A   1      32.347  24.434  26.009  1.00  0.00     0.081 C 
ATOM     20  S   UNL A   1      33.683  24.717  24.976  1.00  0.00    -0.054 SA
ATOM     21  C   UNL A   1      32.239  22.992  26.313  1.00  0.00     0.266 C 
ATOM     22  C   UNL A   1      34.204  23.033  25.043  1.00  0.00     0.148 C 
ATOM     23  N   UNL A   1      33.323  22.300  25.818  1.00  0.00    -0.290 N 
ATOM     24  O   UNL A   1      31.256  22.498  26.865  1.00  0.00    -0.268 OA
ATOM     25  S   UNL A   1      35.556  22.500  24.227  1.00  0.00    -0.052 S 
BRANCH  23  26
ATOM     26  C   UNL A   1      33.388  20.847  26.012  1.00  0.00     0.159 C 
BRANCH  26  27
ATOM     27  C   UNL A   1      32.553  20.019  25.006  1.00  0.00     0.138 C 
ATOM     28  C   UNL A   1      33.299  19.493  23.786  1.00  0.00     0.036 C 
ATOM     29  O   UNL A   1      32.122  18.819  25.696  1.00  0.00    -0.376 OA
ATOM     30  C   UNL A   1      33.982  18.263  24.329  1.00  0.00     0.031 C 
ATOM     31  C   UNL A   1      32.911  17.707  25.241  1.00  0.00     0.160 C 
ENDBRANCH  26  27
ENDBRANCH  23  26
ENDBRANCH  12  18
ENDBRANCH   8   9
ENDBRANCH   6   8
ENDBRANCH   3   4
ENDBRANCH   2   3
ENDBRANCH   1   2
BRANCH   1  32
ATOM     32  C   UNL A   1      35.776  33.332  30.901  1.00  0.00     0.002 C 
BRANCH  32  33
ATOM     33  C   UNL A   1      36.835  32.367  31.447  1.00  0.00     0.021 C 
BRANCH  33  34
ATOM     34  C   UNL A   1      36.358  30.924  31.632  1.00  0.00     0.116 C 
BRANCH  34  35
ATOM     35  N   UNL A   1      35.772  30.353  30.436  1.00  0.00    -0.352 N 
ATOM     36  C   UNL A   1      36.218  29.522  29.446  1.00  0.00     0.251 C 
ATOM     37  H   UNL A   1      34.837  30.628  30.306  1.00  0.00     0.163 HD
ATOM     38  O   UNL A   1      35.367  29.184  28.616  1.00  0.00    -0.269 OA
BRANCH  36  39
ATOM     39  C   UNL A   1      37.621  29.038  29.281  1.00  0.00     0.039 A 
ATOM     40  C   UNL A   1      38.275  28.136  30.119  1.00  0.00     0.014 A 
ATOM     41  C   UNL A   1      38.343  29.584  28.201  1.00  0.00     0.014 A 
ATOM     42  C   UNL A   1      39.622  27.835  29.925  1.00  0.00     0.010 A 
ATOM     43  C   UNL A   1      39.688  29.276  27.996  1.00  0.00     0.010 A 
ATOM     44  C   UNL A   1      40.340  28.427  28.884  1.00  0.00    -0.014 A 
BRANCH  44  45
ATOM     45  C   UNL A   1      41.762  28.098  28.775  1.00  0.00     0.031 A 
ATOM     46  C   UNL A   1      42.109  26.809  28.102  1.00  0.00     0.074 A 
ATOM     47  C   UNL A   1      42.752  28.926  29.159  1.00  0.00     0.049 A 
ATOM     48  N   UNL A   1      42.718  25.775  28.589  1.00  0.00    -0.248 NA
ATOM     49  C   UNL A   1      41.660  26.641  26.716  1.00  0.00     0.031 C 
ATOM     50  C   UNL A   1      42.658  30.346  29.508  1.00  0.00     0.029 A 
ATOM     51  N   UNL A   1      44.092  28.677  29.217  1.00  0.00    -0.354 N 
ATOM     52  C   UNL A   1      42.875  24.877  27.529  1.00  0.00     0.074 A 
ATOM     53  C   UNL A   1      42.108  25.418  26.433  1.00  0.00     0.031 C 
ATOM     54  C   UNL A   1      43.899  30.882  29.515  1.00  0.00     0.029 A 
ATOM     55  C   UNL A   1      44.869  29.814  29.335  1.00  0.00     0.049 A 
ATOM     56  H   UNL A   1      44.470  27.769  29.178  1.00  0.00     0.167 HD
ATOM     57  C   UNL A   1      43.742  23.822  27.573  1.00  0.00     0.034 A 
ATOM     58  C   UNL A   1      46.214  29.892  29.213  1.00  0.00     0.034 A 
ATOM     59  C   UNL A   1      44.188  23.556  28.911  1.00  0.00     0.049 A 
ATOM     60  C   UNL A   1      46.793  28.542  29.396  1.00  0.00     0.074 A 
ATOM     61  C   UNL A   1      43.601  23.116  30.078  1.00  0.00     0.029 A 
ATOM     62  N   UNL A   1      45.436  24.004  29.262  1.00  0.00    -0.354 N 
ATOM     63  N   UNL A   1      46.831  27.894  30.527  1.00  0.00    -0.248 NA
ATOM     64  C   UNL A   1      47.046  27.740  28.210  1.00  0.00     0.031 C 
ATOM     65  C   UNL A   1      44.351  23.723  31.125  1.00  0.00     0.029 A 
ATOM     66  C   UNL A   1      45.358  24.493  30.537  1.00  0.00     0.049 A 
ATOM     67  H   UNL A   1      46.243  23.978  28.697  1.00  0.00     0.167 HD
ATOM     68  C   UNL A   1      46.683  26.562  30.173  1.00  0.00     0.074 A 
ATOM     69  C   UNL A   1      46.970  26.519  28.744  1.00  0.00     0.031 C 
ATOM     70  C   UNL A   1      46.070  25.667  31.004  1.00  0.00     0.034 A 
BRANCH  57  71
ATOM     71  C   UNL A   1      44.414  23.187  26.373  1.00  0.00     0.023 A 
ATOM     72  C   UNL A   1      44.297  21.820  26.065  1.00  0.00     0.031 A 
ATOM     73  C   UNL A   1      45.010  23.988  25.372  1.00  0.00     0.131 A 
ATOM     74  C   UNL A   1      44.756  21.297  24.846  1.00  0.00     0.055 A 
ATOM     75  C   UNL A   1      45.407  23.479  24.128  1.00  0.00     0.041 A 
ATOM     76  F   UNL A   1      45.174  25.309  25.546  1.00  0.00    -0.206 F 
ATOM     77  C   UNL A   1      45.281  22.124  23.859  1.00  0.00     0.022 A 
BRANCH  74  78
ATOM     78  S   UNL A   1      44.671  19.515  24.526  1.00  0.00     0.124 S 
ATOM     79  O   UNL A   1      43.525  19.121  25.340  1.00  0.00    -0.237 OA
ATOM     80  O   UNL A   1      44.462  19.480  23.080  1.00  0.00    -0.237 OA
ATOM     81  O   UNL A   1      45.971  19.028  24.972  1.00  0.00    -0.744 OA
ENDBRANCH  74  78
ENDBRANCH  57  71
BRANCH  58  82
ATOM     82  C   UNL A   1      46.960  30.978  28.542  1.00  0.00     0.023 A 
ATOM     83  C   UNL A   1      47.703  31.891  29.317  1.00  0.00     0.031 A 
ATOM     84  C   UNL A   1      46.724  31.307  27.199  1.00  0.00     0.131 A 
ATOM     85  C   UNL A   1      48.149  33.095  28.762  1.00  0.00     0.055 A 
ATOM     86  C   UNL A   1      47.181  32.507  26.643  1.00  0.00     0.041 A 
ATOM     87  F   UNL A   1      45.994  30.495  26.419  1.00  0.00    -0.206 F 
ATOM     88  C   UNL A   1      47.888  33.414  27.429  1.00  0.00     0.022 A 
BRANCH  85  89
ATOM     89  S   UNL A   1      49.028  34.305  29.789  1.00  0.00     0.124 S 
ATOM     90  O   UNL A   1      50.387  33.769  29.803  1.00  0.00    -0.237 OA
ATOM     91  O   UNL A   1      48.845  35.533  29.023  1.00  0.00    -0.237 OA
ATOM     92  O   UNL A   1      48.328  34.241  31.068  1.00  0.00    -0.744 OA
ENDBRANCH  85  89
ENDBRANCH  58  82
BRANCH  70  93
ATOM     93  C   UNL A   1      45.844  26.039  32.452  1.00  0.00     0.023 A 
ATOM     94  C   UNL A   1      46.690  25.455  33.413  1.00  0.00     0.031 A 
ATOM     95  C   UNL A   1      44.713  26.736  32.919  1.00  0.00     0.131 A 
ATOM     96  C   UNL A   1      46.379  25.540  34.776  1.00  0.00     0.055 A 
ATOM     97  C   UNL A   1      44.448  26.882  34.284  1.00  0.00     0.041 A 
ATOM     98  F   UNL A   1      43.786  27.213  32.076  1.00  0.00    -0.206 F 
ATOM     99  C   UNL A   1      45.273  26.268  35.220  1.00  0.00     0.022 A 
BRANCH  96 100
ATOM    100  S   UNL A   1      47.307  24.569  35.993  1.00  0.00     0.124 S 
ATOM    101  O   UNL A   1      48.588  24.373  35.320  1.00  0.00    -0.237 OA
ATOM    102  O   UNL A   1      47.337  25.467  37.146  1.00  0.00    -0.237 OA
ATOM    103  O   UNL A   1      46.504  23.364  36.172  1.00  0.00    -0.744 OA
ENDBRANCH  96 100
ENDBRANCH  70  93
ENDBRANCH  44  45
ENDBRANCH  36  39
ENDBRANCH  34  35
ENDBRANCH  33  34
ENDBRANCH  32  33
ENDBRANCH   1  32
TORSDOF 20
ENDMDL
