MODEL 1
REMARK VINA RESULT:     -12.0      0.000      0.000
REMARK SMILES CC(C)CCc1cc2c(cc1Cl)C=C(C(=O)NCCCCCCNC(=O)c1ccc(-c3c4nc(c(-c5cc(S(=O)(=O)[O-])ccc5F)c5ccc([nH]5)c(-c5cc(S(=O)(=O)[O-])ccc5F)c5nc(c(-c6cc(S(=O)(=O)[O-])ccc6F)c6ccc3[nH]6)C=C5)C=C4)cc1)[C@@H](C(F)(F)F)O2
REMARK SMILES IDX 20 1 19 2 18 3 17 4 15 5 16 6 14 8 6 9 7 10 11 11 8 12 10 13
REMARK SMILES IDX 12 14 9 15 95 16 13 17 90 18 5 19 4 20 2 21 1 22 3 23 91 24
REMARK SMILES IDX 92 25 93 26 94 27 21 28 22 29 23 30 24 31 25 32 26 34 27 35
REMARK SMILES IDX 28 36 89 37 29 38 88 39 30 40 31 41 32 42 82 43 33 44 87 45
REMARK SMILES IDX 81 46 83 47 34 48 86 49 80 50 79 51 35 53 67 54 47 55 66 56
REMARK SMILES IDX 48 57 51 58 65 59 84 60 49 61 50 62 64 64 85 65 52 66 36 67
REMARK SMILES IDX 37 68 45 69 38 70 44 71 46 72 43 73 39 74 40 75 41 76 42 77
REMARK SMILES IDX 68 78 69 79 77 80 70 81 76 82 78 83 75 84 71 85 72 86 73 87
REMARK SMILES IDX 74 88 53 89 54 90 62 91 55 92 61 93 63 94 60 95 56 96 57 97
REMARK SMILES IDX 58 98 59 99
REMARK H PARENT 17 7 24 33 83 52 51 63
REMARK Flexibility Score: inf
ROOT
ATOM      1  C   UNL A   1      34.185  19.647  24.602  1.00  0.00     0.002 C 
ENDROOT
BRANCH   1   2
ATOM      2  C   UNL A   1      32.680  19.926  24.677  1.00  0.00     0.021 C 
BRANCH   2   3
ATOM      3  C   UNL A   1      32.328  21.411  24.742  1.00  0.00     0.116 C 
BRANCH   3   4
ATOM      4  N   UNL A   1      32.207  21.879  26.114  1.00  0.00    -0.352 N 
ATOM      5  C   UNL A   1      32.002  23.055  26.751  1.00  0.00     0.251 C 
ATOM      6  O   UNL A   1      31.943  22.982  27.983  1.00  0.00    -0.270 OA
ATOM      7  H   UNL A   1      32.301  21.137  26.754  1.00  0.00     0.163 HD
BRANCH   5   8
ATOM      8  C   UNL A   1      31.854  24.384  26.088  1.00  0.00     0.067 C 
ATOM      9  C   UNL A   1      30.066  28.531  23.803  1.00  0.00    -0.026 A 
ATOM     10  C   UNL A   1      31.242  28.202  24.494  1.00  0.00     0.052 A 
ATOM     11  C   UNL A   1      29.029  27.578  23.800  1.00  0.00     0.045 A 
ATOM     12  C   UNL A   1      31.411  26.944  25.065  1.00  0.00     0.128 A 
ATOM     13  C   UNL A   1      29.190  26.324  24.412  1.00  0.00     0.032 A 
ATOM     14  Cl  UNL A   1      27.497  27.904  23.064  1.00  0.00    -0.084 Cl
ATOM     15  C   UNL A   1      30.394  25.997  25.035  1.00  0.00     0.019 A 
ATOM     16  O   UNL A   1      32.611  26.719  25.672  1.00  0.00    -0.475 OA
ATOM     17  C   UNL A   1      30.605  24.715  25.699  1.00  0.00     0.025 C 
ATOM     18  C   UNL A   1      32.994  25.325  25.814  1.00  0.00     0.314 C 
BRANCH   9  19
ATOM     19  C   UNL A   1      29.914  29.883  23.133  1.00  0.00     0.037 C 
BRANCH  19  20
ATOM     20  C   UNL A   1      28.865  30.852  23.716  1.00  0.00     0.008 C 
BRANCH  20  21
ATOM     21  C   UNL A   1      28.229  31.826  22.700  1.00  0.00    -0.017 C 
ATOM     22  C   UNL A   1      28.908  33.195  22.708  1.00  0.00     0.007 C 
ATOM     23  C   UNL A   1      28.282  31.221  21.295  1.00  0.00     0.007 C 
ENDBRANCH  20  21
ENDBRANCH  19  20
ENDBRANCH   9  19
BRANCH  18  24
ATOM     24  C   UNL A   1      33.832  24.889  24.596  1.00  0.00     0.429 C 
ATOM     25  F   UNL A   1      34.760  23.971  24.956  1.00  0.00    -0.167 F 
ATOM     26  F   UNL A   1      33.074  24.311  23.632  1.00  0.00    -0.167 F 
ATOM     27  F   UNL A   1      34.481  25.922  24.014  1.00  0.00    -0.167 F 
ENDBRANCH  18  24
ENDBRANCH   5   8
ENDBRANCH   3   4
ENDBRANCH   2   3
ENDBRANCH   1   2
BRANCH   1  28
ATOM     28  C   UNL A   1      35.095  20.795  25.062  1.00  0.00     0.002 C 
BRANCH  28  29
ATOM     29  C   UNL A   1      36.537  20.744  24.554  1.00  0.00     0.021 C 
BRANCH  29  30
ATOM     30  C   UNL A   1      37.575  21.341  25.499  1.00  0.00     0.116 C 
BRANCH  30  31
ATOM     31  N   UNL A   1      38.624  20.393  25.840  1.00  0.00    -0.352 N 
ATOM     32  C   UNL A   1      39.867  20.630  26.375  1.00  0.00     0.251 C 
ATOM     33  H   UNL A   1      38.414  19.447  25.661  1.00  0.00     0.163 HD
ATOM     34  O   UNL A   1      40.689  19.721  26.447  1.00  0.00    -0.269 OA
BRANCH  32  35
ATOM     35  C   UNL A   1      40.216  21.994  26.825  1.00  0.00     0.039 A 
ATOM     36  C   UNL A   1      39.714  23.114  26.155  1.00  0.00     0.014 A 
ATOM     37  C   UNL A   1      41.089  22.150  27.904  1.00  0.00     0.014 A 
ATOM     38  C   UNL A   1      40.206  24.379  26.465  1.00  0.00     0.010 A 
ATOM     39  C   UNL A   1      41.527  23.427  28.258  1.00  0.00     0.010 A 
ATOM     40  C   UNL A   1      41.129  24.547  27.509  1.00  0.00    -0.014 A 
BRANCH  40  41
ATOM     41  C   UNL A   1      41.697  25.890  27.796  1.00  0.00     0.031 A 
ATOM     42  C   UNL A   1      40.911  26.885  28.607  1.00  0.00     0.074 A 
ATOM     43  C   UNL A   1      42.929  26.201  27.351  1.00  0.00     0.049 A 
ATOM     44  N   UNL A   1      41.214  28.119  28.914  1.00  0.00    -0.248 NA
ATOM     45  C   UNL A   1      39.616  26.435  29.144  1.00  0.00     0.031 C 
ATOM     46  C   UNL A   1      43.793  25.299  26.589  1.00  0.00     0.029 A 
ATOM     47  N   UNL A   1      43.673  27.346  27.480  1.00  0.00    -0.354 N 
ATOM     48  C   UNL A   1      40.145  28.600  29.662  1.00  0.00     0.074 A 
ATOM     49  C   UNL A   1      39.171  27.534  29.739  1.00  0.00     0.031 C 
ATOM     50  C   UNL A   1      44.962  25.912  26.349  1.00  0.00     0.029 A 
ATOM     51  C   UNL A   1      44.906  27.274  26.872  1.00  0.00     0.049 A 
ATOM     52  H   UNL A   1      43.355  28.145  27.961  1.00  0.00     0.167 HD
ATOM     53  C   UNL A   1      39.998  29.815  30.241  1.00  0.00     0.034 A 
ATOM     54  C   UNL A   1      45.873  28.205  26.731  1.00  0.00     0.034 A 
ATOM     55  C   UNL A   1      40.988  30.858  30.171  1.00  0.00     0.049 A 
ATOM     56  C   UNL A   1      45.659  29.571  27.332  1.00  0.00     0.074 A 
ATOM     57  C   UNL A   1      40.936  32.123  30.729  1.00  0.00     0.029 A 
ATOM     58  N   UNL A   1      42.208  30.760  29.516  1.00  0.00    -0.354 N 
ATOM     59  N   UNL A   1      44.648  30.005  28.046  1.00  0.00    -0.248 NA
ATOM     60  C   UNL A   1      46.708  30.576  27.108  1.00  0.00     0.031 C 
ATOM     61  C   UNL A   1      42.097  32.806  30.368  1.00  0.00     0.029 A 
ATOM     62  C   UNL A   1      42.907  31.948  29.640  1.00  0.00     0.049 A 
ATOM     63  H   UNL A   1      42.528  29.963  29.034  1.00  0.00     0.167 HD
ATOM     64  C   UNL A   1      44.949  31.323  28.377  1.00  0.00     0.074 A 
ATOM     65  C   UNL A   1      46.246  31.610  27.801  1.00  0.00     0.031 C 
ATOM     66  C   UNL A   1      44.214  32.214  29.089  1.00  0.00     0.034 A 
BRANCH  53  67
ATOM     67  C   UNL A   1      38.738  30.103  31.017  1.00  0.00     0.023 A 
ATOM     68  C   UNL A   1      37.710  30.867  30.432  1.00  0.00     0.031 A 
ATOM     69  C   UNL A   1      38.612  29.744  32.370  1.00  0.00     0.131 A 
ATOM     70  C   UNL A   1      36.618  31.276  31.208  1.00  0.00     0.055 A 
ATOM     71  C   UNL A   1      37.505  30.123  33.130  1.00  0.00     0.041 A 
ATOM     72  F   UNL A   1      39.565  29.013  32.971  1.00  0.00    -0.206 F 
ATOM     73  C   UNL A   1      36.507  30.904  32.552  1.00  0.00     0.022 A 
BRANCH  70  74
ATOM     74  S   UNL A   1      35.331  32.356  30.524  1.00  0.00     0.124 S 
ATOM     75  O   UNL A   1      36.049  33.620  30.376  1.00  0.00    -0.237 OA
ATOM     76  O   UNL A   1      34.995  31.679  29.275  1.00  0.00    -0.237 OA
ATOM     77  O   UNL A   1      34.290  32.352  31.546  1.00  0.00    -0.744 OA
ENDBRANCH  70  74
ENDBRANCH  53  67
BRANCH  54  78
ATOM     78  C   UNL A   1      47.133  27.844  26.019  1.00  0.00     0.023 A 
ATOM     79  C   UNL A   1      47.283  28.084  24.640  1.00  0.00     0.031 A 
ATOM     80  C   UNL A   1      48.162  27.156  26.684  1.00  0.00     0.131 A 
ATOM     81  C   UNL A   1      48.397  27.574  23.959  1.00  0.00     0.055 A 
ATOM     82  C   UNL A   1      49.305  26.713  26.014  1.00  0.00     0.041 A 
ATOM     83  F   UNL A   1      48.062  26.894  27.996  1.00  0.00    -0.206 F 
ATOM     84  C   UNL A   1      49.416  26.904  24.640  1.00  0.00     0.022 A 
BRANCH  81  85
ATOM     85  S   UNL A   1      48.486  27.637  22.147  1.00  0.00     0.124 S 
ATOM     86  O   UNL A   1      47.208  28.251  21.802  1.00  0.00    -0.237 OA
ATOM     87  O   UNL A   1      49.666  28.473  21.936  1.00  0.00    -0.237 OA
ATOM     88  O   UNL A   1      48.642  26.238  21.762  1.00  0.00    -0.744 OA
ENDBRANCH  81  85
ENDBRANCH  54  78
BRANCH  66  89
ATOM     89  C   UNL A   1      44.773  33.595  29.325  1.00  0.00     0.023 A 
ATOM     90  C   UNL A   1      44.558  34.607  28.369  1.00  0.00     0.031 A 
ATOM     91  C   UNL A   1      45.663  33.850  30.380  1.00  0.00     0.131 A 
ATOM     92  C   UNL A   1      45.268  35.810  28.459  1.00  0.00     0.055 A 
ATOM     93  C   UNL A   1      46.332  35.070  30.491  1.00  0.00     0.041 A 
ATOM     94  F   UNL A   1      45.907  32.911  31.308  1.00  0.00    -0.206 F 
ATOM     95  C   UNL A   1      46.149  36.049  29.519  1.00  0.00     0.022 A 
BRANCH  92  96
ATOM     96  S   UNL A   1      45.145  37.067  27.156  1.00  0.00     0.124 S 
ATOM     97  O   UNL A   1      43.824  36.791  26.594  1.00  0.00    -0.237 OA
ATOM     98  O   UNL A   1      45.251  38.308  27.918  1.00  0.00    -0.237 OA
ATOM     99  O   UNL A   1      46.268  36.772  26.273  1.00  0.00    -0.744 OA
ENDBRANCH  92  96
ENDBRANCH  66  89
ENDBRANCH  40  41
ENDBRANCH  32  35
ENDBRANCH  30  31
ENDBRANCH  29  30
ENDBRANCH  28  29
ENDBRANCH   1  28
TORSDOF 20
ENDMDL
MODEL 2
REMARK VINA RESULT:     -11.8      4.822      9.701
REMARK SMILES CC(C)CCc1cc2c(cc1Cl)C=C(C(=O)NCCCCCCNC(=O)c1ccc(-c3c4nc(c(-c5cc(S(=O)(=O)[O-])ccc5F)c5ccc([nH]5)c(-c5cc(S(=O)(=O)[O-])ccc5F)c5nc(c(-c6cc(S(=O)(=O)[O-])ccc6F)c6ccc3[nH]6)C=C5)C=C4)cc1)[C@@H](C(F)(F)F)O2
REMARK SMILES IDX 20 1 19 2 18 3 17 4 15 5 16 6 14 8 6 9 7 10 11 11 8 12 10 13
REMARK SMILES IDX 12 14 9 15 95 16 13 17 90 18 5 19 4 20 2 21 1 22 3 23 91 24
REMARK SMILES IDX 92 25 93 26 94 27 21 28 22 29 23 30 24 31 25 32 26 34 27 35
REMARK SMILES IDX 28 36 89 37 29 38 88 39 30 40 31 41 32 42 82 43 33 44 87 45
REMARK SMILES IDX 81 46 83 47 34 48 86 49 80 50 79 51 35 53 67 54 47 55 66 56
REMARK SMILES IDX 48 57 51 58 65 59 84 60 49 61 50 62 64 64 85 65 52 66 36 67
REMARK SMILES IDX 37 68 45 69 38 70 44 71 46 72 43 73 39 74 40 75 41 76 42 77
REMARK SMILES IDX 68 78 69 79 77 80 70 81 76 82 78 83 75 84 71 85 72 86 73 87
REMARK SMILES IDX 74 88 53 89 54 90 62 91 55 92 61 93 63 94 60 95 56 96 57 97
REMARK SMILES IDX 58 98 59 99
REMARK H PARENT 17 7 24 33 83 52 51 63
REMARK Flexibility Score: inf
ROOT
ATOM      1  C   UNL A   1      31.381  29.574  25.651  1.00  0.00     0.002 C 
ENDROOT
BRANCH   1   2
ATOM      2  C   UNL A   1      31.846  28.805  24.410  1.00  0.00     0.021 C 
BRANCH   2   3
ATOM      3  C   UNL A   1      30.855  28.845  23.249  1.00  0.00     0.116 C 
BRANCH   3   4
ATOM      4  N   UNL A   1      29.663  28.060  23.528  1.00  0.00    -0.352 N 
ATOM      5  C   UNL A   1      29.363  26.771  23.811  1.00  0.00     0.251 C 
ATOM      6  O   UNL A   1      28.165  26.542  24.009  1.00  0.00    -0.270 OA
ATOM      7  H   UNL A   1      28.853  28.619  23.503  1.00  0.00     0.163 HD
BRANCH   5   8
ATOM      8  C   UNL A   1      30.346  25.650  23.890  1.00  0.00     0.067 C 
ATOM      9  C   UNL A   1      33.612  22.120  25.466  1.00  0.00    -0.026 A 
ATOM     10  C   UNL A   1      32.868  22.339  24.297  1.00  0.00     0.052 A 
ATOM     11  C   UNL A   1      33.362  22.970  26.562  1.00  0.00     0.045 A 
ATOM     12  C   UNL A   1      31.992  23.416  24.194  1.00  0.00     0.128 A 
ATOM     13  C   UNL A   1      32.448  24.032  26.466  1.00  0.00     0.032 A 
ATOM     14  Cl  UNL A   1      34.146  22.742  28.087  1.00  0.00    -0.084 Cl
ATOM     15  C   UNL A   1      31.769  24.268  25.270  1.00  0.00     0.019 A 
ATOM     16  O   UNL A   1      31.356  23.558  22.997  1.00  0.00    -0.475 OA
ATOM     17  C   UNL A   1      30.798  25.348  25.124  1.00  0.00     0.025 C 
ATOM     18  C   UNL A   1      30.862  24.891  22.700  1.00  0.00     0.314 C 
BRANCH   9  19
ATOM     19  C   UNL A   1      34.608  20.980  25.548  1.00  0.00     0.037 C 
BRANCH  19  20
ATOM     20  C   UNL A   1      36.103  21.327  25.391  1.00  0.00     0.008 C 
BRANCH  20  21
ATOM     21  C   UNL A   1      36.401  22.762  24.905  1.00  0.00    -0.017 C 
ATOM     22  C   UNL A   1      37.551  23.407  25.675  1.00  0.00     0.007 C 
ATOM     23  C   UNL A   1      36.713  22.749  23.406  1.00  0.00     0.007 C 
ENDBRANCH  20  21
ENDBRANCH  19  20
ENDBRANCH   9  19
BRANCH  18  24
ATOM     24  C   UNL A   1      31.931  25.682  21.921  1.00  0.00     0.429 C 
ATOM     25  F   UNL A   1      31.356  26.626  21.140  1.00  0.00    -0.167 F 
ATOM     26  F   UNL A   1      32.788  26.333  22.744  1.00  0.00    -0.167 F 
ATOM     27  F   UNL A   1      32.684  24.892  21.122  1.00  0.00    -0.167 F 
ENDBRANCH  18  24
ENDBRANCH   5   8
ENDBRANCH   3   4
ENDBRANCH   2   3
ENDBRANCH   1   2
BRANCH   1  28
ATOM     28  C   UNL A   1      31.760  28.944  26.999  1.00  0.00     0.002 C 
BRANCH  28  29
ATOM     29  C   UNL A   1      33.253  28.937  27.333  1.00  0.00     0.021 C 
BRANCH  29  30
ATOM     30  C   UNL A   1      34.039  30.127  26.793  1.00  0.00     0.116 C 
BRANCH  30  31
ATOM     31  N   UNL A   1      33.932  31.297  27.650  1.00  0.00    -0.352 N 
ATOM     32  C   UNL A   1      34.733  31.680  28.698  1.00  0.00     0.251 C 
ATOM     33  H   UNL A   1      33.179  31.900  27.451  1.00  0.00     0.163 HD
ATOM     34  O   UNL A   1      34.398  32.618  29.418  1.00  0.00    -0.269 OA
BRANCH  32  35
ATOM     35  C   UNL A   1      35.977  30.931  28.975  1.00  0.00     0.039 A 
ATOM     36  C   UNL A   1      35.954  29.789  29.780  1.00  0.00     0.014 A 
ATOM     37  C   UNL A   1      37.184  31.403  28.454  1.00  0.00     0.014 A 
ATOM     38  C   UNL A   1      37.152  29.212  30.191  1.00  0.00     0.010 A 
ATOM     39  C   UNL A   1      38.380  30.780  28.812  1.00  0.00     0.010 A 
ATOM     40  C   UNL A   1      38.379  29.711  29.724  1.00  0.00    -0.014 A 
BRANCH  40  41
ATOM     41  C   UNL A   1      39.656  29.131  30.213  1.00  0.00     0.031 A 
ATOM     42  C   UNL A   1      40.295  27.984  29.477  1.00  0.00     0.074 A 
ATOM     43  C   UNL A   1      40.253  29.656  31.299  1.00  0.00     0.049 A 
ATOM     44  N   UNL A   1      41.376  27.313  29.779  1.00  0.00    -0.248 NA
ATOM     45  C   UNL A   1      39.636  27.532  28.241  1.00  0.00     0.031 C 
ATOM     46  C   UNL A   1      39.742  30.793  32.065  1.00  0.00     0.029 A 
ATOM     47  N   UNL A   1      41.418  29.318  31.942  1.00  0.00    -0.354 N 
ATOM     48  C   UNL A   1      41.518  26.350  28.785  1.00  0.00     0.074 A 
ATOM     49  C   UNL A   1      40.396  26.504  27.886  1.00  0.00     0.031 C 
ATOM     50  C   UNL A   1      40.605  31.080  33.051  1.00  0.00     0.029 A 
ATOM     51  C   UNL A   1      41.692  30.105  33.037  1.00  0.00     0.049 A 
ATOM     52  H   UNL A   1      42.002  28.581  31.648  1.00  0.00     0.167 HD
ATOM     53  C   UNL A   1      42.501  25.431  28.634  1.00  0.00     0.034 A 
ATOM     54  C   UNL A   1      42.691  30.037  33.941  1.00  0.00     0.034 A 
ATOM     55  C   UNL A   1      43.621  25.305  29.529  1.00  0.00     0.049 A 
ATOM     56  C   UNL A   1      43.740  28.966  33.785  1.00  0.00     0.074 A 
ATOM     57  C   UNL A   1      44.673  24.409  29.458  1.00  0.00     0.029 A 
ATOM     58  N   UNL A   1      43.845  26.096  30.647  1.00  0.00    -0.354 N 
ATOM     59  N   UNL A   1      43.866  28.071  32.833  1.00  0.00    -0.248 NA
ATOM     60  C   UNL A   1      44.779  28.886  34.821  1.00  0.00     0.031 C 
ATOM     61  C   UNL A   1      45.502  24.623  30.559  1.00  0.00     0.029 A 
ATOM     62  C   UNL A   1      45.006  25.696  31.283  1.00  0.00     0.049 A 
ATOM     63  H   UNL A   1      43.262  26.833  30.943  1.00  0.00     0.167 HD
ATOM     64  C   UNL A   1      45.009  27.340  33.142  1.00  0.00     0.074 A 
ATOM     65  C   UNL A   1      45.549  27.908  34.359  1.00  0.00     0.031 C 
ATOM     66  C   UNL A   1      45.555  26.290  32.479  1.00  0.00     0.034 A 
BRANCH  53  67
ATOM     67  C   UNL A   1      42.439  24.488  27.459  1.00  0.00     0.023 A 
ATOM     68  C   UNL A   1      41.688  23.300  27.548  1.00  0.00     0.031 A 
ATOM     69  C   UNL A   1      43.226  24.694  26.312  1.00  0.00     0.131 A 
ATOM     70  C   UNL A   1      41.768  22.348  26.524  1.00  0.00     0.055 A 
ATOM     71  C   UNL A   1      43.274  23.758  25.278  1.00  0.00     0.041 A 
ATOM     72  F   UNL A   1      43.957  25.813  26.180  1.00  0.00    -0.206 F 
ATOM     73  C   UNL A   1      42.553  22.573  25.388  1.00  0.00     0.022 A 
BRANCH  70  74
ATOM     74  S   UNL A   1      40.909  20.756  26.652  1.00  0.00     0.124 S 
ATOM     75  O   UNL A   1      40.867  20.555  28.099  1.00  0.00    -0.237 OA
ATOM     76  O   UNL A   1      39.623  21.050  26.026  1.00  0.00    -0.237 OA
ATOM     77  O   UNL A   1      41.771  19.832  25.923  1.00  0.00    -0.744 OA
ENDBRANCH  70  74
ENDBRANCH  53  67
BRANCH  54  78
ATOM     78  C   UNL A   1      42.747  31.043  35.043  1.00  0.00     0.023 A 
ATOM     79  C   UNL A   1      43.410  32.272  34.870  1.00  0.00     0.031 A 
ATOM     80  C   UNL A   1      42.233  30.743  36.315  1.00  0.00     0.131 A 
ATOM     81  C   UNL A   1      43.608  33.120  35.969  1.00  0.00     0.055 A 
ATOM     82  C   UNL A   1      42.368  31.624  37.390  1.00  0.00     0.041 A 
ATOM     83  F   UNL A   1      41.601  29.580  36.532  1.00  0.00    -0.206 F 
ATOM     84  C   UNL A   1      43.076  32.811  37.225  1.00  0.00     0.022 A 
BRANCH  81  85
ATOM     85  S   UNL A   1      44.682  34.576  35.838  1.00  0.00     0.124 S 
ATOM     86  O   UNL A   1      43.991  35.540  36.687  1.00  0.00    -0.237 OA
ATOM     87  O   UNL A   1      45.946  34.063  36.363  1.00  0.00    -0.237 OA
ATOM     88  O   UNL A   1      44.682  34.875  34.409  1.00  0.00    -0.744 OA
ENDBRANCH  81  85
ENDBRANCH  54  78
BRANCH  66  89
ATOM     89  C   UNL A   1      46.820  25.670  33.016  1.00  0.00     0.023 A 
ATOM     90  C   UNL A   1      48.055  25.964  32.405  1.00  0.00     0.031 A 
ATOM     91  C   UNL A   1      46.781  24.658  33.989  1.00  0.00     0.131 A 
ATOM     92  C   UNL A   1      49.190  25.216  32.736  1.00  0.00     0.055 A 
ATOM     93  C   UNL A   1      47.926  23.947  34.349  1.00  0.00     0.041 A 
ATOM     94  F   UNL A   1      45.624  24.336  34.590  1.00  0.00    -0.206 F 
ATOM     95  C   UNL A   1      49.134  24.213  33.710  1.00  0.00     0.022 A 
BRANCH  92  96
ATOM     96  S   UNL A   1      50.757  25.452  31.851  1.00  0.00     0.124 S 
ATOM     97  O   UNL A   1      51.728  25.423  32.942  1.00  0.00    -0.237 OA
ATOM     98  O   UNL A   1      50.783  24.294  30.961  1.00  0.00    -0.237 OA
ATOM     99  O   UNL A   1      50.600  26.746  31.195  1.00  0.00    -0.744 OA
ENDBRANCH  92  96
ENDBRANCH  66  89
ENDBRANCH  40  41
ENDBRANCH  32  35
ENDBRANCH  30  31
ENDBRANCH  29  30
ENDBRANCH  28  29
ENDBRANCH   1  28
TORSDOF 20
ENDMDL
MODEL 3
REMARK VINA RESULT:     -11.7      4.731      9.813
REMARK SMILES CC(C)CCc1cc2c(cc1Cl)C=C(C(=O)NCCCCCCNC(=O)c1ccc(-c3c4nc(c(-c5cc(S(=O)(=O)[O-])ccc5F)c5ccc([nH]5)c(-c5cc(S(=O)(=O)[O-])ccc5F)c5nc(c(-c6cc(S(=O)(=O)[O-])ccc6F)c6ccc3[nH]6)C=C5)C=C4)cc1)[C@@H](C(F)(F)F)O2
REMARK SMILES IDX 20 1 19 2 18 3 17 4 15 5 16 6 14 8 6 9 7 10 11 11 8 12 10 13
REMARK SMILES IDX 12 14 9 15 95 16 13 17 90 18 5 19 4 20 2 21 1 22 3 23 91 24
REMARK SMILES IDX 92 25 93 26 94 27 21 28 22 29 23 30 24 31 25 32 26 34 27 35
REMARK SMILES IDX 28 36 89 37 29 38 88 39 30 40 31 41 32 42 82 43 33 44 87 45
REMARK SMILES IDX 81 46 83 47 34 48 86 49 80 50 79 51 35 53 67 54 47 55 66 56
REMARK SMILES IDX 48 57 51 58 65 59 84 60 49 61 50 62 64 64 85 65 52 66 36 67
REMARK SMILES IDX 37 68 45 69 38 70 44 71 46 72 43 73 39 74 40 75 41 76 42 77
REMARK SMILES IDX 68 78 69 79 77 80 70 81 76 82 78 83 75 84 71 85 72 86 73 87
REMARK SMILES IDX 74 88 53 89 54 90 62 91 55 92 61 93 63 94 60 95 56 96 57 97
REMARK SMILES IDX 58 98 59 99
REMARK H PARENT 17 7 24 33 83 52 51 63
REMARK Flexibility Score: inf
ROOT
ATOM      1  C   UNL A   1      31.635  29.719  25.568  1.00  0.00     0.002 C 
ENDROOT
BRANCH   1   2
ATOM      2  C   UNL A   1      32.431  29.024  24.458  1.00  0.00     0.021 C 
BRANCH   2   3
ATOM      3  C   UNL A   1      31.661  28.868  23.148  1.00  0.00     0.116 C 
BRANCH   3   4
ATOM      4  N   UNL A   1      30.313  28.368  23.369  1.00  0.00    -0.352 N 
ATOM      5  C   UNL A   1      29.725  27.188  23.671  1.00  0.00     0.251 C 
ATOM      6  O   UNL A   1      28.496  27.229  23.794  1.00  0.00    -0.270 OA
ATOM      7  H   UNL A   1      29.646  29.086  23.271  1.00  0.00     0.163 HD
BRANCH   5   8
ATOM      8  C   UNL A   1      30.436  25.888  23.853  1.00  0.00     0.067 C 
ATOM      9  C   UNL A   1      32.801  21.839  25.756  1.00  0.00    -0.026 A 
ATOM     10  C   UNL A   1      32.159  22.141  24.546  1.00  0.00     0.052 A 
ATOM     11  C   UNL A   1      32.710  22.789  26.792  1.00  0.00     0.045 A 
ATOM     12  C   UNL A   1      31.544  23.373  24.348  1.00  0.00     0.128 A 
ATOM     13  C   UNL A   1      32.054  24.015  26.600  1.00  0.00     0.032 A 
ATOM     14  Cl  UNL A   1      33.379  22.491  28.360  1.00  0.00    -0.084 Cl
ATOM     15  C   UNL A   1      31.480  24.318  25.365  1.00  0.00     0.019 A 
ATOM     16  O   UNL A   1      30.990  23.575  23.118  1.00  0.00    -0.475 OA
ATOM     17  C   UNL A   1      30.774  25.572  25.120  1.00  0.00     0.025 C 
ATOM     18  C   UNL A   1      30.809  24.963  22.729  1.00  0.00     0.314 C 
BRANCH   9  19
ATOM     19  C   UNL A   1      33.520  20.517  25.942  1.00  0.00     0.037 C 
BRANCH  19  20
ATOM     20  C   UNL A   1      34.074  19.824  24.680  1.00  0.00     0.008 C 
BRANCH  20  21
ATOM     21  C   UNL A   1      33.591  18.375  24.455  1.00  0.00    -0.017 C 
ATOM     22  C   UNL A   1      34.752  17.387  24.353  1.00  0.00     0.007 C 
ATOM     23  C   UNL A   1      32.646  17.960  25.586  1.00  0.00     0.007 C 
ENDBRANCH  20  21
ENDBRANCH  19  20
ENDBRANCH   9  19
BRANCH  18  24
ATOM     24  C   UNL A   1      32.049  25.452  21.955  1.00  0.00     0.429 C 
ATOM     25  F   UNL A   1      32.668  24.418  21.337  1.00  0.00    -0.167 F 
ATOM     26  F   UNL A   1      31.729  26.344  20.986  1.00  0.00    -0.167 F 
ATOM     27  F   UNL A   1      32.958  26.054  22.755  1.00  0.00    -0.167 F 
ENDBRANCH  18  24
ENDBRANCH   5   8
ENDBRANCH   3   4
ENDBRANCH   2   3
ENDBRANCH   1   2
BRANCH   1  28
ATOM     28  C   UNL A   1      31.885  29.194  26.989  1.00  0.00     0.002 C 
BRANCH  28  29
ATOM     29  C   UNL A   1      33.343  29.202  27.453  1.00  0.00     0.021 C 
BRANCH  29  30
ATOM     30  C   UNL A   1      34.110  30.483  27.140  1.00  0.00     0.116 C 
BRANCH  30  31
ATOM     31  N   UNL A   1      33.936  31.498  28.167  1.00  0.00    -0.352 N 
ATOM     32  C   UNL A   1      34.729  31.780  29.252  1.00  0.00     0.251 C 
ATOM     33  H   UNL A   1      33.135  32.064  28.070  1.00  0.00     0.163 HD
ATOM     34  O   UNL A   1      34.342  32.570  30.109  1.00  0.00    -0.269 OA
BRANCH  32  35
ATOM     35  C   UNL A   1      36.032  31.096  29.397  1.00  0.00     0.039 A 
ATOM     36  C   UNL A   1      36.131  29.903  30.118  1.00  0.00     0.014 A 
ATOM     37  C   UNL A   1      37.171  31.681  28.838  1.00  0.00     0.014 A 
ATOM     38  C   UNL A   1      37.387  29.380  30.413  1.00  0.00     0.010 A 
ATOM     39  C   UNL A   1      38.424  31.113  29.077  1.00  0.00     0.010 A 
ATOM     40  C   UNL A   1      38.548  29.988  29.908  1.00  0.00    -0.014 A 
BRANCH  40  41
ATOM     41  C   UNL A   1      39.887  29.461  30.275  1.00  0.00     0.031 A 
ATOM     42  C   UNL A   1      40.482  28.310  29.508  1.00  0.00     0.074 A 
ATOM     43  C   UNL A   1      40.578  30.036  31.277  1.00  0.00     0.049 A 
ATOM     44  N   UNL A   1      41.609  27.680  29.711  1.00  0.00    -0.248 NA
ATOM     45  C   UNL A   1      39.712  27.801  28.361  1.00  0.00     0.031 C 
ATOM     46  C   UNL A   1      40.113  31.180  32.061  1.00  0.00     0.029 A 
ATOM     47  N   UNL A   1      41.813  29.752  31.802  1.00  0.00    -0.354 N 
ATOM     48  C   UNL A   1      41.677  26.692  28.736  1.00  0.00     0.074 A 
ATOM     49  C   UNL A   1      40.463  26.786  27.956  1.00  0.00     0.031 C 
ATOM     50  C   UNL A   1      41.065  31.523  32.942  1.00  0.00     0.029 A 
ATOM     51  C   UNL A   1      42.176  30.580  32.839  1.00  0.00     0.049 A 
ATOM     52  H   UNL A   1      42.387  29.023  31.469  1.00  0.00     0.167 HD
ATOM     53  C   UNL A   1      42.668  25.798  28.507  1.00  0.00     0.034 A 
ATOM     54  C   UNL A   1      43.266  30.569  33.635  1.00  0.00     0.034 A 
ATOM     55  C   UNL A   1      43.879  25.732  29.281  1.00  0.00     0.049 A 
ATOM     56  C   UNL A   1      44.326  29.524  33.398  1.00  0.00     0.074 A 
ATOM     57  C   UNL A   1      44.946  24.864  29.124  1.00  0.00     0.029 A 
ATOM     58  N   UNL A   1      44.193  26.563  30.347  1.00  0.00    -0.354 N 
ATOM     59  N   UNL A   1      44.380  28.604  32.464  1.00  0.00    -0.248 NA
ATOM     60  C   UNL A   1      45.470  29.507  34.320  1.00  0.00     0.031 C 
ATOM     61  C   UNL A   1      45.879  25.137  30.125  1.00  0.00     0.029 A 
ATOM     62  C   UNL A   1      45.428  26.216  30.868  1.00  0.00     0.049 A 
ATOM     63  H   UNL A   1      43.622  27.292  30.683  1.00  0.00     0.167 HD
ATOM     64  C   UNL A   1      45.572  27.916  32.669  1.00  0.00     0.074 A 
ATOM     65  C   UNL A   1      46.219  28.538  33.806  1.00  0.00     0.031 C 
ATOM     66  C   UNL A   1      46.079  26.863  31.982  1.00  0.00     0.034 A 
BRANCH  53  67
ATOM     67  C   UNL A   1      42.514  24.817  27.371  1.00  0.00     0.023 A 
ATOM     68  C   UNL A   1      41.729  23.661  27.541  1.00  0.00     0.031 A 
ATOM     69  C   UNL A   1      43.246  24.955  26.180  1.00  0.00     0.131 A 
ATOM     70  C   UNL A   1      41.723  22.671  26.549  1.00  0.00     0.055 A 
ATOM     71  C   UNL A   1      43.209  23.983  25.179  1.00  0.00     0.041 A 
ATOM     72  F   UNL A   1      44.007  26.042  25.970  1.00  0.00    -0.206 F 
ATOM     73  C   UNL A   1      42.455  22.829  25.368  1.00  0.00     0.022 A 
BRANCH  70  74
ATOM     74  S   UNL A   1      40.818  21.116  26.779  1.00  0.00     0.124 S 
ATOM     75  O   UNL A   1      41.693  20.159  26.106  1.00  0.00    -0.237 OA
ATOM     76  O   UNL A   1      40.770  21.002  28.233  1.00  0.00    -0.237 OA
ATOM     77  O   UNL A   1      39.538  21.354  26.121  1.00  0.00    -0.744 OA
ENDBRANCH  70  74
ENDBRANCH  53  67
BRANCH  54  78
ATOM     78  C   UNL A   1      43.405  31.609  34.696  1.00  0.00     0.023 A 
ATOM     79  C   UNL A   1      42.701  31.506  35.910  1.00  0.00     0.031 A 
ATOM     80  C   UNL A   1      44.156  32.773  34.466  1.00  0.00     0.131 A 
ATOM     81  C   UNL A   1      42.703  32.578  36.813  1.00  0.00     0.055 A 
ATOM     82  C   UNL A   1      44.215  33.809  35.401  1.00  0.00     0.041 A 
ATOM     83  F   UNL A   1      44.837  32.923  33.319  1.00  0.00    -0.206 F 
ATOM     84  C   UNL A   1      43.469  33.723  36.573  1.00  0.00     0.022 A 
BRANCH  81  85
ATOM     85  S   UNL A   1      41.601  32.582  38.254  1.00  0.00     0.124 S 
ATOM     86  O   UNL A   1      42.289  31.673  39.165  1.00  0.00    -0.237 OA
ATOM     87  O   UNL A   1      41.616  33.992  38.638  1.00  0.00    -0.237 OA
ATOM     88  O   UNL A   1      40.332  32.101  37.717  1.00  0.00    -0.744 OA
ENDBRANCH  81  85
ENDBRANCH  54  78
BRANCH  66  89
ATOM     89  C   UNL A   1      47.413  26.296  32.399  1.00  0.00     0.023 A 
ATOM     90  C   UNL A   1      48.579  26.676  31.706  1.00  0.00     0.031 A 
ATOM     91  C   UNL A   1      47.502  25.255  33.336  1.00  0.00     0.131 A 
ATOM     92  C   UNL A   1      49.775  25.981  31.923  1.00  0.00     0.055 A 
ATOM     93  C   UNL A   1      48.708  24.596  33.583  1.00  0.00     0.041 A 
ATOM     94  F   UNL A   1      46.414  24.851  34.012  1.00  0.00    -0.206 F 
ATOM     95  C   UNL A   1      49.847  24.948  32.863  1.00  0.00     0.022 A 
BRANCH  92  96
ATOM     96  S   UNL A   1      51.253  26.330  30.930  1.00  0.00     0.124 S 
ATOM     97  O   UNL A   1      50.867  25.808  29.621  1.00  0.00    -0.237 OA
ATOM     98  O   UNL A   1      51.345  27.784  31.019  1.00  0.00    -0.237 OA
ATOM     99  O   UNL A   1      52.313  25.589  31.604  1.00  0.00    -0.744 OA
ENDBRANCH  92  96
ENDBRANCH  66  89
ENDBRANCH  40  41
ENDBRANCH  32  35
ENDBRANCH  30  31
ENDBRANCH  29  30
ENDBRANCH  28  29
ENDBRANCH   1  28
TORSDOF 20
ENDMDL
