MODEL 1
REMARK VINA RESULT:     -11.9      0.000      0.000
REMARK SMILES Cc1cc(N2CCCC[C@H]2C(=O)NCCCCCCNC(=O)c2ccc(-c3c4nc(c(-c5cc(S(=O)(=O)[O-])ccc5F)c5ccc([nH]5)c(-c5cc(S(=O)(=O)[O-])ccc5F)c5nc(c(-c6cc(S(=O)(=O)[O-])ccc6F)c6ccc3[nH]6)C=C5)C=C4)cc2)ncc1[N+](=O)[O-]
REMARK SMILES IDX 17 1 16 2 15 3 14 4 13 5 11 6 12 7 10 9 5 10 6 11 7 12 9 13
REMARK SMILES IDX 8 14 4 15 1 16 2 17 3 18 88 19 87 20 86 21 89 22 90 23 91 24
REMARK SMILES IDX 18 25 19 26 20 27 21 28 22 30 23 31 24 32 85 33 25 34 84 35
REMARK SMILES IDX 26 36 27 37 28 38 78 39 29 40 83 41 77 42 79 43 30 44 82 45
REMARK SMILES IDX 76 46 75 47 31 49 63 50 43 51 62 52 44 53 47 54 61 55 80 56
REMARK SMILES IDX 45 57 46 58 60 60 81 61 48 62 32 63 33 64 41 65 34 66 40 67
REMARK SMILES IDX 42 68 39 69 35 70 36 71 37 72 38 73 64 74 65 75 73 76 66 77
REMARK SMILES IDX 72 78 74 79 71 80 67 81 68 82 69 83 70 84 49 85 50 86 58 87
REMARK SMILES IDX 51 88 57 89 59 90 56 91 52 92 53 93 54 94 55 95
REMARK H PARENT 13 8 20 29 79 48 47 59
REMARK Flexibility Score: inf
ROOT
ATOM      1  C   UNL A   1      31.280  31.034  25.767  1.00  0.00     0.002 C 
ENDROOT
BRANCH   1   2
ATOM      2  C   UNL A   1      31.855  29.846  26.544  1.00  0.00     0.002 C 
BRANCH   2   3
ATOM      3  C   UNL A   1      33.164  29.273  25.987  1.00  0.00     0.021 C 
BRANCH   3   4
ATOM      4  C   UNL A   1      33.585  27.945  26.611  1.00  0.00     0.116 C 
BRANCH   4   5
ATOM      5  N   UNL A   1      33.974  26.995  25.591  1.00  0.00    -0.354 N 
ATOM      6  C   UNL A   1      33.219  26.100  24.900  1.00  0.00     0.242 C 
ATOM      7  O   UNL A   1      33.821  25.379  24.098  1.00  0.00    -0.273 OA
ATOM      8  H   UNL A   1      34.932  26.996  25.364  1.00  0.00     0.163 HD
BRANCH   6   9
ATOM      9  C   UNL A   1      31.687  26.018  25.112  1.00  0.00     0.173 C 
ATOM     10  N   UNL A   1      30.940  26.092  23.849  1.00  0.00    -0.345 N 
ATOM     11  C   UNL A   1      31.180  25.045  22.868  1.00  0.00     0.119 C 
ATOM     12  C   UNL A   1      30.754  23.713  23.476  1.00  0.00     0.022 C 
ATOM     13  C   UNL A   1      31.298  24.677  25.777  1.00  0.00     0.035 C 
ATOM     14  C   UNL A   1      31.398  23.463  24.840  1.00  0.00     0.004 C 
BRANCH  10  15
ATOM     15  C   UNL A   1      30.373  27.263  23.410  1.00  0.00     0.129 A 
ATOM     16  C   UNL A   1      26.860  28.662  23.304  1.00  0.00     0.052 C 
ATOM     17  C   UNL A   1      28.339  28.581  23.060  1.00  0.00     0.032 A 
ATOM     18  C   UNL A   1      28.994  27.436  23.549  1.00  0.00     0.057 A 
ATOM     19  C   UNL A   1      29.129  29.513  22.379  1.00  0.00     0.290 A 
ATOM     20  C   UNL A   1      30.501  29.291  22.303  1.00  0.00     0.199 A 
ATOM     21  N   UNL A   1      31.128  28.201  22.819  1.00  0.00    -0.232 NA
BRANCH  19  22
ATOM     22  N   UNL A   1      28.605  30.694  21.699  1.00  0.00     0.064 N 
ATOM     23  O   UNL A   1      28.103  30.527  20.579  1.00  0.00    -0.258 OA
ATOM     24  O   UNL A   1      28.647  31.780  22.292  1.00  0.00    -0.258 OA
ENDBRANCH  19  22
ENDBRANCH  10  15
ENDBRANCH   6   9
ENDBRANCH   4   5
ENDBRANCH   3   4
ENDBRANCH   2   3
ENDBRANCH   1   2
BRANCH   1  25
ATOM     25  C   UNL A   1      31.252  32.358  26.532  1.00  0.00     0.021 C 
BRANCH  25  26
ATOM     26  C   UNL A   1      32.587  32.772  27.144  1.00  0.00     0.116 C 
BRANCH  26  27
ATOM     27  N   UNL A   1      32.556  34.132  27.655  1.00  0.00    -0.352 N 
ATOM     28  C   UNL A   1      33.287  34.695  28.669  1.00  0.00     0.251 C 
ATOM     29  H   UNL A   1      31.919  34.736  27.209  1.00  0.00     0.163 HD
ATOM     30  O   UNL A   1      32.980  35.811  29.090  1.00  0.00    -0.269 OA
BRANCH  28  31
ATOM     31  C   UNL A   1      34.417  33.955  29.272  1.00  0.00     0.039 A 
ATOM     32  C   UNL A   1      35.717  34.408  29.039  1.00  0.00     0.014 A 
ATOM     33  C   UNL A   1      34.203  32.817  30.055  1.00  0.00     0.014 A 
ATOM     34  C   UNL A   1      36.796  33.755  29.637  1.00  0.00     0.010 A 
ATOM     35  C   UNL A   1      35.275  32.211  30.711  1.00  0.00     0.010 A 
ATOM     36  C   UNL A   1      36.584  32.672  30.506  1.00  0.00    -0.014 A 
BRANCH  36  37
ATOM     37  C   UNL A   1      37.724  32.028  31.212  1.00  0.00     0.031 A 
ATOM     38  C   UNL A   1      38.487  30.904  30.563  1.00  0.00     0.074 A 
ATOM     39  C   UNL A   1      38.045  32.435  32.457  1.00  0.00     0.049 A 
ATOM     40  N   UNL A   1      39.498  30.215  31.027  1.00  0.00    -0.248 NA
ATOM     41  C   UNL A   1      38.043  30.484  29.225  1.00  0.00     0.031 C 
ATOM     42  C   UNL A   1      37.352  33.488  33.206  1.00  0.00     0.029 A 
ATOM     43  N   UNL A   1      39.034  32.020  33.314  1.00  0.00    -0.354 N 
ATOM     44  C   UNL A   1      39.801  29.272  30.051  1.00  0.00     0.074 A 
ATOM     45  C   UNL A   1      38.833  29.446  28.988  1.00  0.00     0.031 C 
ATOM     46  C   UNL A   1      37.961  33.660  34.390  1.00  0.00     0.029 A 
ATOM     47  C   UNL A   1      39.053  32.701  34.511  1.00  0.00     0.049 A 
ATOM     48  H   UNL A   1      39.670  31.302  33.095  1.00  0.00     0.167 HD
ATOM     49  C   UNL A   1      40.803  28.359  30.036  1.00  0.00     0.034 A 
ATOM     50  C   UNL A   1      39.854  32.562  35.587  1.00  0.00     0.034 A 
ATOM     51  C   UNL A   1      41.771  28.213  31.096  1.00  0.00     0.049 A 
ATOM     52  C   UNL A   1      40.945  31.520  35.548  1.00  0.00     0.074 A 
ATOM     53  C   UNL A   1      42.873  27.376  31.143  1.00  0.00     0.029 A 
ATOM     54  N   UNL A   1      41.749  28.906  32.299  1.00  0.00    -0.354 N 
ATOM     55  N   UNL A   1      41.266  30.692  34.581  1.00  0.00    -0.248 NA
ATOM     56  C   UNL A   1      41.789  31.403  36.745  1.00  0.00     0.031 C 
ATOM     57  C   UNL A   1      43.465  27.501  32.403  1.00  0.00     0.029 A 
ATOM     58  C   UNL A   1      42.791  28.482  33.112  1.00  0.00     0.049 A 
ATOM     59  H   UNL A   1      41.091  29.597  32.541  1.00  0.00     0.167 HD
ATOM     60  C   UNL A   1      42.374  29.984  35.040  1.00  0.00     0.074 A 
ATOM     61  C   UNL A   1      42.677  30.500  36.358  1.00  0.00     0.031 C 
ATOM     62  C   UNL A   1      43.078  28.998  34.429  1.00  0.00     0.034 A 
BRANCH  49  63
ATOM     63  C   UNL A   1      40.886  27.422  28.854  1.00  0.00     0.023 A 
ATOM     64  C   UNL A   1      41.849  27.580  27.842  1.00  0.00     0.031 A 
ATOM     65  C   UNL A   1      39.995  26.337  28.750  1.00  0.00     0.131 A 
ATOM     66  C   UNL A   1      41.863  26.705  26.744  1.00  0.00     0.055 A 
ATOM     67  C   UNL A   1      40.063  25.426  27.695  1.00  0.00     0.041 A 
ATOM     68  F   UNL A   1      39.041  26.147  29.674  1.00  0.00    -0.206 F 
ATOM     69  C   UNL A   1      40.994  25.613  26.678  1.00  0.00     0.022 A 
BRANCH  66  70
ATOM     70  S   UNL A   1      42.953  27.081  25.345  1.00  0.00     0.124 S 
ATOM     71  O   UNL A   1      42.950  25.813  24.620  1.00  0.00    -0.237 OA
ATOM     72  O   UNL A   1      42.264  28.190  24.697  1.00  0.00    -0.237 OA
ATOM     73  O   UNL A   1      44.223  27.421  25.983  1.00  0.00    -0.744 OA
ENDBRANCH  66  70
ENDBRANCH  49  63
BRANCH  50  74
ATOM     74  C   UNL A   1      39.666  33.413  36.800  1.00  0.00     0.023 A 
ATOM     75  C   UNL A   1      39.031  32.905  37.945  1.00  0.00     0.031 A 
ATOM     76  C   UNL A   1      40.039  34.769  36.803  1.00  0.00     0.131 A 
ATOM     77  C   UNL A   1      38.724  33.760  39.014  1.00  0.00     0.055 A 
ATOM     78  C   UNL A   1      39.795  35.599  37.899  1.00  0.00     0.041 A 
ATOM     79  F   UNL A   1      40.649  35.310  35.737  1.00  0.00    -0.206 F 
ATOM     80  C   UNL A   1      39.115  35.100  39.007  1.00  0.00     0.022 A 
BRANCH  77  81
ATOM     81  S   UNL A   1      37.688  33.124  40.362  1.00  0.00     0.124 S 
ATOM     82  O   UNL A   1      38.444  31.953  40.788  1.00  0.00    -0.237 OA
ATOM     83  O   UNL A   1      37.673  34.251  41.289  1.00  0.00    -0.237 OA
ATOM     84  O   UNL A   1      36.413  32.841  39.705  1.00  0.00    -0.744 OA
ENDBRANCH  77  81
ENDBRANCH  50  74
BRANCH  62  85
ATOM     85  C   UNL A   1      44.276  28.452  35.170  1.00  0.00     0.023 A 
ATOM     86  C   UNL A   1      44.152  27.441  36.140  1.00  0.00     0.031 A 
ATOM     87  C   UNL A   1      45.559  28.972  34.923  1.00  0.00     0.131 A 
ATOM     88  C   UNL A   1      45.275  27.034  36.875  1.00  0.00     0.055 A 
ATOM     89  C   UNL A   1      46.685  28.512  35.606  1.00  0.00     0.041 A 
ATOM     90  F   UNL A   1      45.740  29.941  34.010  1.00  0.00    -0.206 F 
ATOM     91  C   UNL A   1      46.544  27.550  36.602  1.00  0.00     0.022 A 
BRANCH  88  92
ATOM     92  S   UNL A   1      45.036  25.906  38.275  1.00  0.00     0.124 S 
ATOM     93  O   UNL A   1      44.282  24.818  37.663  1.00  0.00    -0.237 OA
ATOM     94  O   UNL A   1      46.408  25.593  38.662  1.00  0.00    -0.237 OA
ATOM     95  O   UNL A   1      44.290  26.711  39.241  1.00  0.00    -0.744 OA
ENDBRANCH  88  92
ENDBRANCH  62  85
ENDBRANCH  36  37
ENDBRANCH  28  31
ENDBRANCH  26  27
ENDBRANCH  25  26
ENDBRANCH   1  25
TORSDOF 18
ENDMDL
MODEL 2
REMARK VINA RESULT:     -11.7      1.422      7.629
REMARK SMILES Cc1cc(N2CCCC[C@H]2C(=O)NCCCCCCNC(=O)c2ccc(-c3c4nc(c(-c5cc(S(=O)(=O)[O-])ccc5F)c5ccc([nH]5)c(-c5cc(S(=O)(=O)[O-])ccc5F)c5nc(c(-c6cc(S(=O)(=O)[O-])ccc6F)c6ccc3[nH]6)C=C5)C=C4)cc2)ncc1[N+](=O)[O-]
REMARK SMILES IDX 17 1 16 2 15 3 14 4 13 5 11 6 12 7 10 9 5 10 6 11 7 12 9 13
REMARK SMILES IDX 8 14 4 15 1 16 2 17 3 18 88 19 87 20 86 21 89 22 90 23 91 24
REMARK SMILES IDX 18 25 19 26 20 27 21 28 22 30 23 31 24 32 85 33 25 34 84 35
REMARK SMILES IDX 26 36 27 37 28 38 78 39 29 40 83 41 77 42 79 43 30 44 82 45
REMARK SMILES IDX 76 46 75 47 31 49 63 50 43 51 62 52 44 53 47 54 61 55 80 56
REMARK SMILES IDX 45 57 46 58 60 60 81 61 48 62 32 63 33 64 41 65 34 66 40 67
REMARK SMILES IDX 42 68 39 69 35 70 36 71 37 72 38 73 64 74 65 75 73 76 66 77
REMARK SMILES IDX 72 78 74 79 71 80 67 81 68 82 69 83 70 84 49 85 50 86 58 87
REMARK SMILES IDX 51 88 57 89 59 90 56 91 52 92 53 93 54 94 55 95
REMARK H PARENT 13 8 20 29 79 48 47 59
REMARK Flexibility Score: inf
ROOT
ATOM      1  C   UNL A   1      31.951  30.200  26.941  1.00  0.00     0.002 C 
ENDROOT
BRANCH   1   2
ATOM      2  C   UNL A   1      33.416  29.953  27.311  1.00  0.00     0.002 C 
BRANCH   2   3
ATOM      3  C   UNL A   1      34.099  28.811  26.548  1.00  0.00     0.021 C 
BRANCH   3   4
ATOM      4  C   UNL A   1      33.601  28.626  25.116  1.00  0.00     0.116 C 
BRANCH   4   5
ATOM      5  N   UNL A   1      34.040  27.357  24.577  1.00  0.00    -0.354 N 
ATOM      6  C   UNL A   1      33.363  26.185  24.448  1.00  0.00     0.242 C 
ATOM      7  O   UNL A   1      33.996  25.235  23.975  1.00  0.00    -0.273 OA
ATOM      8  H   UNL A   1      34.970  27.340  24.254  1.00  0.00     0.163 HD
BRANCH   6   9
ATOM      9  C   UNL A   1      31.875  26.073  24.863  1.00  0.00     0.173 C 
ATOM     10  N   UNL A   1      30.967  26.088  23.708  1.00  0.00    -0.345 N 
ATOM     11  C   UNL A   1      31.105  25.015  22.735  1.00  0.00     0.119 C 
ATOM     12  C   UNL A   1      30.800  23.694  23.433  1.00  0.00     0.022 C 
ATOM     13  C   UNL A   1      31.615  24.746  25.612  1.00  0.00     0.035 C 
ATOM     14  C   UNL A   1      31.625  23.505  24.706  1.00  0.00     0.004 C 
BRANCH  10  15
ATOM     15  C   UNL A   1      30.314  27.231  23.313  1.00  0.00     0.129 A 
ATOM     16  C   UNL A   1      26.732  28.440  23.417  1.00  0.00     0.052 C 
ATOM     17  C   UNL A   1      28.197  28.439  23.091  1.00  0.00     0.032 A 
ATOM     18  C   UNL A   1      28.938  27.327  23.531  1.00  0.00     0.057 A 
ATOM     19  C   UNL A   1      28.897  29.418  22.377  1.00  0.00     0.290 A 
ATOM     20  C   UNL A   1      30.272  29.270  22.222  1.00  0.00     0.199 A 
ATOM     21  N   UNL A   1      30.984  28.211  22.691  1.00  0.00    -0.232 NA
BRANCH  19  22
ATOM     22  N   UNL A   1      28.273  30.574  21.739  1.00  0.00     0.064 N 
ATOM     23  O   UNL A   1      27.912  30.446  20.562  1.00  0.00    -0.258 OA
ATOM     24  O   UNL A   1      28.097  31.594  22.418  1.00  0.00    -0.258 OA
ENDBRANCH  19  22
ENDBRANCH  10  15
ENDBRANCH   6   9
ENDBRANCH   4   5
ENDBRANCH   3   4
ENDBRANCH   2   3
ENDBRANCH   1   2
BRANCH   1  25
ATOM     25  C   UNL A   1      31.537  31.672  26.881  1.00  0.00     0.021 C 
BRANCH  25  26
ATOM     26  C   UNL A   1      32.675  32.646  26.594  1.00  0.00     0.116 C 
BRANCH  26  27
ATOM     27  N   UNL A   1      32.540  33.882  27.346  1.00  0.00    -0.352 N 
ATOM     28  C   UNL A   1      33.203  34.288  28.475  1.00  0.00     0.251 C 
ATOM     29  H   UNL A   1      31.877  34.520  26.995  1.00  0.00     0.163 HD
ATOM     30  O   UNL A   1      32.812  35.285  29.083  1.00  0.00    -0.269 OA
BRANCH  28  31
ATOM     31  C   UNL A   1      34.363  33.517  28.975  1.00  0.00     0.039 A 
ATOM     32  C   UNL A   1      35.649  33.975  28.684  1.00  0.00     0.014 A 
ATOM     33  C   UNL A   1      34.188  32.345  29.718  1.00  0.00     0.014 A 
ATOM     34  C   UNL A   1      36.758  33.291  29.186  1.00  0.00     0.010 A 
ATOM     35  C   UNL A   1      35.293  31.707  30.280  1.00  0.00     0.010 A 
ATOM     36  C   UNL A   1      36.590  32.170  30.018  1.00  0.00    -0.014 A 
BRANCH  36  37
ATOM     37  C   UNL A   1      37.767  31.491  30.625  1.00  0.00     0.031 A 
ATOM     38  C   UNL A   1      38.195  31.817  32.031  1.00  0.00     0.074 A 
ATOM     39  C   UNL A   1      38.470  30.606  29.890  1.00  0.00     0.049 A 
ATOM     40  N   UNL A   1      39.198  31.339  32.721  1.00  0.00    -0.248 NA
ATOM     41  C   UNL A   1      37.406  32.831  32.748  1.00  0.00     0.031 C 
ATOM     42  C   UNL A   1      38.176  30.238  28.501  1.00  0.00     0.029 A 
ATOM     43  N   UNL A   1      39.574  29.851  30.201  1.00  0.00    -0.354 N 
ATOM     44  C   UNL A   1      39.173  32.001  33.944  1.00  0.00     0.074 A 
ATOM     45  C   UNL A   1      38.082  32.951  33.882  1.00  0.00     0.031 C 
ATOM     46  C   UNL A   1      39.051  29.303  28.098  1.00  0.00     0.029 A 
ATOM     47  C   UNL A   1      40.000  29.039  29.174  1.00  0.00     0.049 A 
ATOM     48  H   UNL A   1      40.021  29.887  31.077  1.00  0.00     0.167 HD
ATOM     49  C   UNL A   1      39.973  31.819  35.023  1.00  0.00     0.034 A 
ATOM     50  C   UNL A   1      41.040  28.184  29.104  1.00  0.00     0.034 A 
ATOM     51  C   UNL A   1      41.043  30.852  35.075  1.00  0.00     0.049 A 
ATOM     52  C   UNL A   1      41.927  28.023  30.315  1.00  0.00     0.074 A 
ATOM     53  C   UNL A   1      41.860  30.531  36.146  1.00  0.00     0.029 A 
ATOM     54  N   UNL A   1      41.456  30.060  34.012  1.00  0.00    -0.354 N 
ATOM     55  N   UNL A   1      41.837  28.599  31.491  1.00  0.00    -0.248 NA
ATOM     56  C   UNL A   1      43.051  27.084  30.190  1.00  0.00     0.031 C 
ATOM     57  C   UNL A   1      42.817  29.612  35.707  1.00  0.00     0.029 A 
ATOM     58  C   UNL A   1      42.545  29.287  34.389  1.00  0.00     0.049 A 
ATOM     59  H   UNL A   1      41.038  30.048  33.120  1.00  0.00     0.167 HD
ATOM     60  C   UNL A   1      42.869  28.063  32.256  1.00  0.00     0.074 A 
ATOM     61  C   UNL A   1      43.551  27.102  31.415  1.00  0.00     0.031 C 
ATOM     62  C   UNL A   1      43.222  28.338  33.538  1.00  0.00     0.034 A 
BRANCH  49  63
ATOM     63  C   UNL A   1      39.749  32.704  36.226  1.00  0.00     0.023 A 
ATOM     64  C   UNL A   1      38.935  32.310  37.302  1.00  0.00     0.031 A 
ATOM     65  C   UNL A   1      40.377  33.961  36.303  1.00  0.00     0.131 A 
ATOM     66  C   UNL A   1      38.727  33.184  38.381  1.00  0.00     0.055 A 
ATOM     67  C   UNL A   1      40.228  34.793  37.414  1.00  0.00     0.041 A 
ATOM     68  F   UNL A   1      41.148  34.402  35.298  1.00  0.00    -0.206 F 
ATOM     69  C   UNL A   1      39.390  34.411  38.457  1.00  0.00     0.022 A 
BRANCH  66  70
ATOM     70  S   UNL A   1      37.487  32.746  39.629  1.00  0.00     0.124 S 
ATOM     71  O   UNL A   1      37.634  33.839  40.588  1.00  0.00    -0.237 OA
ATOM     72  O   UNL A   1      36.251  32.736  38.857  1.00  0.00    -0.237 OA
ATOM     73  O   UNL A   1      37.933  31.441  40.113  1.00  0.00    -0.744 OA
ENDBRANCH  66  70
ENDBRANCH  49  63
BRANCH  50  74
ATOM     74  C   UNL A   1      41.321  27.416  27.854  1.00  0.00     0.023 A 
ATOM     75  C   UNL A   1      41.095  26.031  27.794  1.00  0.00     0.031 A 
ATOM     76  C   UNL A   1      41.899  28.037  26.733  1.00  0.00     0.131 A 
ATOM     77  C   UNL A   1      41.510  25.302  26.669  1.00  0.00     0.055 A 
ATOM     78  C   UNL A   1      42.245  27.317  25.587  1.00  0.00     0.041 A 
ATOM     79  F   UNL A   1      42.139  29.357  26.734  1.00  0.00    -0.206 F 
ATOM     80  C   UNL A   1      42.069  25.937  25.559  1.00  0.00     0.022 A 
BRANCH  77  81
ATOM     81  S   UNL A   1      41.427  23.490  26.733  1.00  0.00     0.124 S 
ATOM     82  O   UNL A   1      40.003  23.252  26.530  1.00  0.00    -0.237 OA
ATOM     83  O   UNL A   1      42.304  23.108  25.632  1.00  0.00    -0.237 OA
ATOM     84  O   UNL A   1      41.929  23.174  28.069  1.00  0.00    -0.744 OA
ENDBRANCH  77  81
ENDBRANCH  50  74
BRANCH  62  85
ATOM     85  C   UNL A   1      44.372  27.546  34.116  1.00  0.00     0.023 A 
ATOM     86  C   UNL A   1      44.178  26.294  34.726  1.00  0.00     0.031 A 
ATOM     87  C   UNL A   1      45.678  28.066  34.081  1.00  0.00     0.131 A 
ATOM     88  C   UNL A   1      45.257  25.639  35.339  1.00  0.00     0.055 A 
ATOM     89  C   UNL A   1      46.760  27.376  34.628  1.00  0.00     0.041 A 
ATOM     90  F   UNL A   1      45.925  29.258  33.515  1.00  0.00    -0.206 F 
ATOM     91  C   UNL A   1      46.550  26.163  35.277  1.00  0.00     0.022 A 
BRANCH  88  92
ATOM     92  S   UNL A   1      44.927  24.149  36.319  1.00  0.00     0.124 S 
ATOM     93  O   UNL A   1      43.845  23.524  35.566  1.00  0.00    -0.237 OA
ATOM     94  O   UNL A   1      46.213  23.458  36.280  1.00  0.00    -0.237 OA
ATOM     95  O   UNL A   1      44.548  24.677  37.628  1.00  0.00    -0.744 OA
ENDBRANCH  88  92
ENDBRANCH  62  85
ENDBRANCH  36  37
ENDBRANCH  28  31
ENDBRANCH  26  27
ENDBRANCH  25  26
ENDBRANCH   1  25
TORSDOF 18
ENDMDL
MODEL 3
REMARK VINA RESULT:     -11.3      6.305     11.683
REMARK SMILES Cc1cc(N2CCCC[C@H]2C(=O)NCCCCCCNC(=O)c2ccc(-c3c4nc(c(-c5cc(S(=O)(=O)[O-])ccc5F)c5ccc([nH]5)c(-c5cc(S(=O)(=O)[O-])ccc5F)c5nc(c(-c6cc(S(=O)(=O)[O-])ccc6F)c6ccc3[nH]6)C=C5)C=C4)cc2)ncc1[N+](=O)[O-]
REMARK SMILES IDX 17 1 16 2 15 3 14 4 13 5 11 6 12 7 10 9 5 10 6 11 7 12 9 13
REMARK SMILES IDX 8 14 4 15 1 16 2 17 3 18 88 19 87 20 86 21 89 22 90 23 91 24
REMARK SMILES IDX 18 25 19 26 20 27 21 28 22 30 23 31 24 32 85 33 25 34 84 35
REMARK SMILES IDX 26 36 27 37 28 38 78 39 29 40 83 41 77 42 79 43 30 44 82 45
REMARK SMILES IDX 76 46 75 47 31 49 63 50 43 51 62 52 44 53 47 54 61 55 80 56
REMARK SMILES IDX 45 57 46 58 60 60 81 61 48 62 32 63 33 64 41 65 34 66 40 67
REMARK SMILES IDX 42 68 39 69 35 70 36 71 37 72 38 73 64 74 65 75 73 76 66 77
REMARK SMILES IDX 72 78 74 79 71 80 67 81 68 82 69 83 70 84 49 85 50 86 58 87
REMARK SMILES IDX 51 88 57 89 59 90 56 91 52 92 53 93 54 94 55 95
REMARK H PARENT 13 8 20 29 79 48 47 59
REMARK Flexibility Score: inf
ROOT
ATOM      1  C   UNL A   1      36.751  19.995  24.885  1.00  0.00     0.002 C 
ENDROOT
BRANCH   1   2
ATOM      2  C   UNL A   1      36.732  21.474  25.283  1.00  0.00     0.002 C 
BRANCH   2   3
ATOM      3  C   UNL A   1      36.823  22.466  24.118  1.00  0.00     0.021 C 
BRANCH   3   4
ATOM      4  C   UNL A   1      35.485  22.782  23.455  1.00  0.00     0.116 C 
BRANCH   4   5
ATOM      5  N   UNL A   1      35.048  24.122  23.785  1.00  0.00    -0.354 N 
ATOM      6  C   UNL A   1      33.796  24.651  23.799  1.00  0.00     0.242 C 
ATOM      7  O   UNL A   1      33.710  25.848  24.093  1.00  0.00    -0.273 OA
ATOM      8  H   UNL A   1      35.768  24.745  24.037  1.00  0.00     0.163 HD
BRANCH   6   9
ATOM      9  C   UNL A   1      32.557  23.778  23.476  1.00  0.00     0.173 C 
ATOM     10  N   UNL A   1      32.152  22.937  24.609  1.00  0.00    -0.345 N 
ATOM     11  C   UNL A   1      31.751  23.612  25.834  1.00  0.00     0.119 C 
ATOM     12  C   UNL A   1      30.516  24.455  25.534  1.00  0.00     0.022 C 
ATOM     13  C   UNL A   1      31.340  24.666  23.127  1.00  0.00     0.035 C 
ATOM     14  C   UNL A   1      30.723  25.383  24.337  1.00  0.00     0.004 C 
BRANCH  10  15
ATOM     15  C   UNL A   1      32.512  21.614  24.696  1.00  0.00     0.129 A 
ATOM     16  C   UNL A   1      32.212  18.603  22.427  1.00  0.00     0.052 C 
ATOM     17  C   UNL A   1      32.520  19.394  23.665  1.00  0.00     0.032 A 
ATOM     18  C   UNL A   1      32.239  20.771  23.616  1.00  0.00     0.057 A 
ATOM     19  C   UNL A   1      33.035  18.900  24.869  1.00  0.00     0.290 A 
ATOM     20  C   UNL A   1      33.308  19.801  25.893  1.00  0.00     0.199 A 
ATOM     21  N   UNL A   1      33.073  21.138  25.816  1.00  0.00    -0.232 NA
BRANCH  19  22
ATOM     22  N   UNL A   1      33.268  17.484  25.144  1.00  0.00     0.064 N 
ATOM     23  O   UNL A   1      34.398  17.039  24.903  1.00  0.00    -0.258 OA
ATOM     24  O   UNL A   1      32.347  16.824  25.641  1.00  0.00    -0.258 OA
ENDBRANCH  19  22
ENDBRANCH  10  15
ENDBRANCH   6   9
ENDBRANCH   4   5
ENDBRANCH   3   4
ENDBRANCH   2   3
ENDBRANCH   1   2
BRANCH   1  25
ATOM     25  C   UNL A   1      38.116  19.312  24.989  1.00  0.00     0.021 C 
BRANCH  25  26
ATOM     26  C   UNL A   1      39.122  20.026  25.886  1.00  0.00     0.116 C 
BRANCH  26  27
ATOM     27  N   UNL A   1      40.308  19.221  26.127  1.00  0.00    -0.352 N 
ATOM     28  C   UNL A   1      41.596  19.623  26.366  1.00  0.00     0.251 C 
ATOM     29  H   UNL A   1      40.165  18.246  26.117  1.00  0.00     0.163 HD
ATOM     30  O   UNL A   1      42.504  18.790  26.350  1.00  0.00    -0.269 OA
BRANCH  28  31
ATOM     31  C   UNL A   1      41.898  21.050  26.613  1.00  0.00     0.039 A 
ATOM     32  C   UNL A   1      42.184  21.460  27.916  1.00  0.00     0.014 A 
ATOM     33  C   UNL A   1      41.890  21.983  25.571  1.00  0.00     0.014 A 
ATOM     34  C   UNL A   1      42.518  22.793  28.165  1.00  0.00     0.010 A 
ATOM     35  C   UNL A   1      42.296  23.296  25.810  1.00  0.00     0.010 A 
ATOM     36  C   UNL A   1      42.611  23.716  27.110  1.00  0.00    -0.014 A 
BRANCH  36  37
ATOM     37  C   UNL A   1      43.051  25.116  27.360  1.00  0.00     0.031 A 
ATOM     38  C   UNL A   1      42.123  26.100  28.021  1.00  0.00     0.074 A 
ATOM     39  C   UNL A   1      44.277  25.505  26.954  1.00  0.00     0.049 A 
ATOM     40  N   UNL A   1      42.325  27.360  28.308  1.00  0.00    -0.248 NA
ATOM     41  C   UNL A   1      40.785  25.611  28.387  1.00  0.00     0.031 C 
ATOM     42  C   UNL A   1      45.249  24.651  26.266  1.00  0.00     0.029 A 
ATOM     43  N   UNL A   1      44.919  26.713  27.060  1.00  0.00    -0.354 N 
ATOM     44  C   UNL A   1      41.140  27.820  28.872  1.00  0.00     0.074 A 
ATOM     45  C   UNL A   1      40.207  26.713  28.842  1.00  0.00     0.031 C 
ATOM     46  C   UNL A   1      46.374  25.351  26.048  1.00  0.00     0.029 A 
ATOM     47  C   UNL A   1      46.191  26.715  26.532  1.00  0.00     0.049 A 
ATOM     48  H   UNL A   1      44.510  27.506  27.475  1.00  0.00     0.167 HD
ATOM     49  C   UNL A   1      40.863  29.044  29.384  1.00  0.00     0.034 A 
ATOM     50  C   UNL A   1      47.102  27.704  26.440  1.00  0.00     0.034 A 
ATOM     51  C   UNL A   1      41.813  30.130  29.425  1.00  0.00     0.049 A 
ATOM     52  C   UNL A   1      46.755  29.063  26.998  1.00  0.00     0.074 A 
ATOM     53  C   UNL A   1      41.661  31.383  29.994  1.00  0.00     0.029 A 
ATOM     54  N   UNL A   1      43.084  30.101  28.866  1.00  0.00    -0.354 N 
ATOM     55  N   UNL A   1      45.656  29.455  27.601  1.00  0.00    -0.248 NA
ATOM     56  C   UNL A   1      47.777  30.110  26.871  1.00  0.00     0.031 C 
ATOM     57  C   UNL A   1      42.803  32.137  29.705  1.00  0.00     0.029 A 
ATOM     58  C   UNL A   1      43.707  31.329  29.036  1.00  0.00     0.049 A 
ATOM     59  H   UNL A   1      43.485  29.323  28.414  1.00  0.00     0.167 HD
ATOM     60  C   UNL A   1      45.874  30.783  27.959  1.00  0.00     0.074 A 
ATOM     61  C   UNL A   1      47.214  31.114  27.525  1.00  0.00     0.031 C 
ATOM     62  C   UNL A   1      45.042  31.651  28.591  1.00  0.00     0.034 A 
BRANCH  49  63
ATOM     63  C   UNL A   1      39.470  29.291  29.911  1.00  0.00     0.023 A 
ATOM     64  C   UNL A   1      38.515  30.022  29.182  1.00  0.00     0.031 A 
ATOM     65  C   UNL A   1      39.085  28.770  31.160  1.00  0.00     0.131 A 
ATOM     66  C   UNL A   1      37.244  30.257  29.731  1.00  0.00     0.055 A 
ATOM     67  C   UNL A   1      37.795  28.942  31.665  1.00  0.00     0.041 A 
ATOM     68  F   UNL A   1      39.958  28.082  31.911  1.00  0.00    -0.206 F 
ATOM     69  C   UNL A   1      36.869  29.699  30.955  1.00  0.00     0.022 A 
BRANCH  66  70
ATOM     70  S   UNL A   1      36.126  31.401  28.877  1.00  0.00     0.124 S 
ATOM     71  O   UNL A   1      37.043  32.465  28.474  1.00  0.00    -0.237 OA
ATOM     72  O   UNL A   1      35.592  30.576  27.800  1.00  0.00    -0.237 OA
ATOM     73  O   UNL A   1      35.164  31.777  29.911  1.00  0.00    -0.744 OA
ENDBRANCH  66  70
ENDBRANCH  49  63
BRANCH  50  74
ATOM     74  C   UNL A   1      48.428  27.470  25.793  1.00  0.00     0.023 A 
ATOM     75  C   UNL A   1      48.601  27.672  24.414  1.00  0.00     0.031 A 
ATOM     76  C   UNL A   1      49.516  26.962  26.525  1.00  0.00     0.131 A 
ATOM     77  C   UNL A   1      49.806  27.300  23.798  1.00  0.00     0.055 A 
ATOM     78  C   UNL A   1      50.737  26.660  25.918  1.00  0.00     0.041 A 
ATOM     79  F   UNL A   1      49.408  26.749  27.845  1.00  0.00    -0.206 F 
ATOM     80  C   UNL A   1      50.881  26.810  24.542  1.00  0.00     0.022 A 
BRANCH  77  81
ATOM     81  S   UNL A   1      49.901  27.344  21.985  1.00  0.00     0.124 S 
ATOM     82  O   UNL A   1      48.714  26.586  21.610  1.00  0.00    -0.237 OA
ATOM     83  O   UNL A   1      49.860  28.777  21.716  1.00  0.00    -0.237 OA
ATOM     84  O   UNL A   1      51.177  26.692  21.696  1.00  0.00    -0.744 OA
ENDBRANCH  77  81
ENDBRANCH  50  74
BRANCH  62  85
ATOM     85  C   UNL A   1      45.588  33.028  28.889  1.00  0.00     0.023 A 
ATOM     86  C   UNL A   1      45.558  34.060  27.935  1.00  0.00     0.031 A 
ATOM     87  C   UNL A   1      46.174  33.301  30.138  1.00  0.00     0.131 A 
ATOM     88  C   UNL A   1      46.166  35.292  28.218  1.00  0.00     0.055 A 
ATOM     89  C   UNL A   1      46.712  34.553  30.440  1.00  0.00     0.041 A 
ATOM     90  F   UNL A   1      46.235  32.354  31.088  1.00  0.00    -0.206 F 
ATOM     91  C   UNL A   1      46.726  35.552  29.471  1.00  0.00     0.022 A 
BRANCH  88  92
ATOM     92  S   UNL A   1      46.318  36.514  26.886  1.00  0.00     0.124 S 
ATOM     93  O   UNL A   1      45.295  37.487  27.248  1.00  0.00    -0.237 OA
ATOM     94  O   UNL A   1      47.701  36.960  27.028  1.00  0.00    -0.237 OA
ATOM     95  O   UNL A   1      46.040  35.740  25.678  1.00  0.00    -0.744 OA
ENDBRANCH  88  92
ENDBRANCH  62  85
ENDBRANCH  36  37
ENDBRANCH  28  31
ENDBRANCH  26  27
ENDBRANCH  25  26
ENDBRANCH   1  25
TORSDOF 18
ENDMDL
