MODEL 1
REMARK VINA RESULT:     -12.9      0.000      0.000
REMARK SMILES Cc1ccc(NC(=O)c2cnn3c2NC2=C(C(=O)CCC2)[C@H]3c2ccc(C(=O)NCCCCCCNC(=O)c3ccc(-c4c5nc(c(-c6cc(S(=O)(=O)[O-])ccc6F)c6ccc([nH]6)c(-c6cc(S(=O)(=O)[O-])ccc6F)c6nc(c(-c7cc(S(=O)(=O)[O-])ccc7F)c7ccc4[nH]7)C=C6)C=C5)cc3)cc2)cc1
REMARK SMILES IDX 32 1 31 2 30 3 29 4 27 5 28 6 26 8 23 9 24 10 103 11 25 12
REMARK SMILES IDX 102 13 22 14 9 15 10 16 13 17 11 18 12 19 14 20 15 21 16 23
REMARK SMILES IDX 21 24 17 25 20 26 18 27 19 28 7 29 6 30 8 32 5 33 1 34 2 35
REMARK SMILES IDX 3 36 105 37 4 38 104 39 33 40 34 41 35 42 36 43 37 44 38 46
REMARK SMILES IDX 39 47 40 48 101 49 41 50 100 51 42 52 43 53 44 54 94 55
REMARK SMILES IDX 45 56 99 57 93 58 95 59 46 60 98 61 92 62 91 63 47 65 79 66
REMARK SMILES IDX 59 67 78 68 60 69 63 70 77 71 96 72 61 73 62 74 76 76 97 77
REMARK SMILES IDX 64 78 48 79 49 80 57 81 50 82 56 83 58 84 55 85 51 86 52 87
REMARK SMILES IDX 53 88 54 89 80 90 81 91 89 92 82 93 88 94 90 95 87 96 83 97
REMARK SMILES IDX 84 98 85 99 86 100 65 101 66 102 74 103 67 104 73 105 75 106
REMARK SMILES IDX 72 107 68 108 69 109 70 110 71 111
REMARK H PARENT 29 7 14 22 6 31 36 45 95 64 63 75
REMARK Flexibility Score: inf
ROOT
ATOM      1  C   UNL A   1      36.439  19.492  24.643  1.00  0.00     0.002 C 
ENDROOT
BRANCH   1   2
ATOM      2  C   UNL A   1      35.079  20.206  24.758  1.00  0.00     0.021 C 
BRANCH   2   3
ATOM      3  C   UNL A   1      34.489  20.292  26.169  1.00  0.00     0.116 C 
BRANCH   3   4
ATOM      4  N   UNL A   1      33.044  20.444  26.146  1.00  0.00    -0.352 N 
ATOM      5  C   UNL A   1      32.189  21.417  25.692  1.00  0.00     0.251 C 
ATOM      6  O   UNL A   1      30.985  21.142  25.691  1.00  0.00    -0.269 OA
ATOM      7  H   UNL A   1      32.574  19.677  26.547  1.00  0.00     0.163 HD
BRANCH   5   8
ATOM      8  C   UNL A   1      32.609  22.742  25.139  1.00  0.00     0.039 A 
ATOM      9  C   UNL A   1      33.241  25.425  24.401  1.00  0.00    -0.019 A 
ATOM     10  C   UNL A   1      33.688  24.893  25.619  1.00  0.00     0.007 A 
ATOM     11  C   UNL A   1      32.681  24.515  23.481  1.00  0.00     0.007 A 
ATOM     12  C   UNL A   1      33.356  23.579  25.985  1.00  0.00     0.014 A 
ATOM     13  C   UNL A   1      32.354  23.195  23.848  1.00  0.00     0.014 A 
BRANCH   9  14
ATOM     14  C   UNL A   1      33.199  26.975  24.180  1.00  0.00     0.175 C 
ATOM     15  C   UNL A   1      29.743  27.420  23.386  1.00  0.00     0.102 A 
ATOM     16  C   UNL A   1      30.431  27.938  22.246  1.00  0.00     0.151 A 
ATOM     17  C   UNL A   1      30.744  27.304  24.326  1.00  0.00     0.142 A 
ATOM     18  N   UNL A   1      31.761  27.888  22.362  1.00  0.00    -0.178 NA
ATOM     19  N   UNL A   1      31.913  27.352  23.583  1.00  0.00    -0.237 N 
ATOM     20  N   UNL A   1      30.861  27.145  25.683  1.00  0.00    -0.343 N 
ATOM     21  C   UNL A   1      32.063  27.528  26.304  1.00  0.00     0.026 C 
ATOM     22  H   UNL A   1      30.118  26.772  26.211  1.00  0.00     0.168 HD
ATOM     23  C   UNL A   1      33.155  27.696  25.516  1.00  0.00     0.044 C 
ATOM     24  C   UNL A   1      32.063  28.078  27.704  1.00  0.00     0.055 C 
ATOM     25  C   UNL A   1      33.728  29.066  25.618  1.00  0.00     0.163 C 
ATOM     26  C   UNL A   1      32.532  29.535  27.753  1.00  0.00     0.014 C 
ATOM     27  O   UNL A   1      34.738  29.378  24.996  1.00  0.00    -0.294 OA
ATOM     28  C   UNL A   1      32.883  30.084  26.374  1.00  0.00     0.081 C 
BRANCH  15  29
ATOM     29  C   UNL A   1      28.332  27.163  23.551  1.00  0.00     0.261 C 
ATOM     30  N   UNL A   1      27.435  28.208  23.419  1.00  0.00    -0.322 N 
ATOM     31  H   UNL A   1      26.550  28.031  23.813  1.00  0.00     0.170 HD
ATOM     32  O   UNL A   1      27.912  26.044  23.850  1.00  0.00    -0.269 OA
BRANCH  30  33
ATOM     33  C   UNL A   1      27.556  29.483  22.819  1.00  0.00     0.041 A 
ATOM     34  C   UNL A   1      28.166  33.447  21.187  1.00  0.00     0.044 C 
ATOM     35  C   UNL A   1      27.905  32.084  21.761  1.00  0.00    -0.051 A 
ATOM     36  C   UNL A   1      27.889  30.972  20.920  1.00  0.00     0.005 A 
ATOM     37  C   UNL A   1      27.706  31.891  23.131  1.00  0.00     0.005 A 
ATOM     38  C   UNL A   1      27.679  29.693  21.445  1.00  0.00     0.026 A 
ATOM     39  C   UNL A   1      27.524  30.603  23.654  1.00  0.00     0.026 A 
ENDBRANCH  30  33
ENDBRANCH  15  29
ENDBRANCH   9  14
ENDBRANCH   5   8
ENDBRANCH   3   4
ENDBRANCH   2   3
ENDBRANCH   1   2
BRANCH   1  40
ATOM     40  C   UNL A   1      37.698  20.297  25.013  1.00  0.00     0.002 C 
BRANCH  40  41
ATOM     41  C   UNL A   1      37.630  21.808  24.789  1.00  0.00     0.021 C 
BRANCH  41  42
ATOM     42  C   UNL A   1      38.063  22.643  25.988  1.00  0.00     0.116 C 
BRANCH  42  43
ATOM     43  N   UNL A   1      39.460  22.466  26.375  1.00  0.00    -0.352 N 
ATOM     44  C   UNL A   1      40.400  23.410  26.762  1.00  0.00     0.251 C 
ATOM     45  H   UNL A   1      39.784  21.536  26.359  1.00  0.00     0.163 HD
ATOM     46  O   UNL A   1      41.563  23.090  26.939  1.00  0.00    -0.269 OA
BRANCH  44  47
ATOM     47  C   UNL A   1      39.961  24.797  27.057  1.00  0.00     0.039 A 
ATOM     48  C   UNL A   1      40.399  25.829  26.213  1.00  0.00     0.014 A 
ATOM     49  C   UNL A   1      39.296  25.096  28.238  1.00  0.00     0.014 A 
ATOM     50  C   UNL A   1      40.375  27.148  26.668  1.00  0.00     0.010 A 
ATOM     51  C   UNL A   1      39.382  26.375  28.739  1.00  0.00     0.010 A 
ATOM     52  C   UNL A   1      39.963  27.394  27.974  1.00  0.00    -0.014 A 
BRANCH  52  53
ATOM     53  C   UNL A   1      40.171  28.641  28.697  1.00  0.00     0.031 A 
ATOM     54  C   UNL A   1      39.119  29.681  28.703  1.00  0.00     0.074 A 
ATOM     55  C   UNL A   1      41.216  28.725  29.548  1.00  0.00     0.049 A 
ATOM     56  N   UNL A   1      39.265  30.866  29.184  1.00  0.00    -0.248 NA
ATOM     57  C   UNL A   1      37.800  29.468  28.118  1.00  0.00     0.031 C 
ATOM     58  C   UNL A   1      41.363  29.631  30.684  1.00  0.00     0.029 A 
ATOM     59  N   UNL A   1      42.474  28.143  29.402  1.00  0.00    -0.354 N 
ATOM     60  C   UNL A   1      38.025  31.459  29.248  1.00  0.00     0.074 A 
ATOM     61  C   UNL A   1      37.159  30.575  28.507  1.00  0.00     0.031 C 
ATOM     62  C   UNL A   1      42.665  29.745  30.984  1.00  0.00     0.029 A 
ATOM     63  C   UNL A   1      43.403  29.053  29.945  1.00  0.00     0.049 A 
ATOM     64  H   UNL A   1      42.674  27.267  29.000  1.00  0.00     0.167 HD
ATOM     65  C   UNL A   1      37.869  32.564  30.031  1.00  0.00     0.034 A 
ATOM     66  C   UNL A   1      44.358  29.632  29.158  1.00  0.00     0.034 A 
ATOM     67  C   UNL A   1      39.159  33.022  30.550  1.00  0.00     0.049 A 
ATOM     68  C   UNL A   1      44.268  31.140  29.098  1.00  0.00     0.074 A 
ATOM     69  C   UNL A   1      39.793  32.900  31.777  1.00  0.00     0.029 A 
ATOM     70  N   UNL A   1      40.119  33.486  29.658  1.00  0.00    -0.354 N 
ATOM     71  N   UNL A   1      43.213  31.830  29.439  1.00  0.00    -0.248 NA
ATOM     72  C   UNL A   1      45.364  31.992  28.653  1.00  0.00     0.031 C 
ATOM     73  C   UNL A   1      41.159  33.248  31.600  1.00  0.00     0.029 A 
ATOM     74  C   UNL A   1      41.346  33.612  30.277  1.00  0.00     0.049 A 
ATOM     75  H   UNL A   1      39.947  33.695  28.711  1.00  0.00     0.167 HD
ATOM     76  C   UNL A   1      43.456  33.172  29.268  1.00  0.00     0.074 A 
ATOM     77  C   UNL A   1      44.826  33.218  28.789  1.00  0.00     0.031 C 
ATOM     78  C   UNL A   1      42.496  34.113  29.534  1.00  0.00     0.034 A 
BRANCH  65  79
ATOM     79  C   UNL A   1      36.548  33.101  30.548  1.00  0.00     0.023 A 
ATOM     80  C   UNL A   1      35.689  33.767  29.643  1.00  0.00     0.031 A 
ATOM     81  C   UNL A   1      36.089  33.059  31.877  1.00  0.00     0.131 A 
ATOM     82  C   UNL A   1      34.514  34.413  30.073  1.00  0.00     0.055 A 
ATOM     83  C   UNL A   1      34.938  33.732  32.315  1.00  0.00     0.041 A 
ATOM     84  F   UNL A   1      36.690  32.323  32.817  1.00  0.00    -0.206 F 
ATOM     85  C   UNL A   1      34.149  34.425  31.413  1.00  0.00     0.022 A 
BRANCH  82  86
ATOM     86  S   UNL A   1      33.474  35.258  28.850  1.00  0.00     0.124 S 
ATOM     87  O   UNL A   1      32.858  34.138  28.148  1.00  0.00    -0.237 OA
ATOM     88  O   UNL A   1      32.594  36.060  29.692  1.00  0.00    -0.237 OA
ATOM     89  O   UNL A   1      34.438  36.024  28.061  1.00  0.00    -0.744 OA
ENDBRANCH  82  86
ENDBRANCH  65  79
BRANCH  66  90
ATOM     90  C   UNL A   1      44.822  28.733  28.064  1.00  0.00     0.023 A 
ATOM     91  C   UNL A   1      45.683  27.677  28.430  1.00  0.00     0.031 A 
ATOM     92  C   UNL A   1      44.118  28.620  26.857  1.00  0.00     0.131 A 
ATOM     93  C   UNL A   1      45.694  26.487  27.690  1.00  0.00     0.055 A 
ATOM     94  C   UNL A   1      44.179  27.449  26.089  1.00  0.00     0.041 A 
ATOM     95  F   UNL A   1      43.256  29.576  26.476  1.00  0.00    -0.206 F 
ATOM     96  C   UNL A   1      44.933  26.359  26.527  1.00  0.00     0.022 A 
BRANCH  93  97
ATOM     97  S   UNL A   1      46.508  25.034  28.420  1.00  0.00     0.124 S 
ATOM     98  O   UNL A   1      47.734  24.947  27.633  1.00  0.00    -0.237 OA
ATOM     99  O   UNL A   1      46.672  25.436  29.815  1.00  0.00    -0.237 OA
ATOM    100  O   UNL A   1      45.547  23.956  28.205  1.00  0.00    -0.744 OA
ENDBRANCH  93  97
ENDBRANCH  66  90
BRANCH  78 101
ATOM    101  C   UNL A   1      42.542  35.597  29.194  1.00  0.00     0.023 A 
ATOM    102  C   UNL A   1      43.350  36.529  29.858  1.00  0.00     0.031 A 
ATOM    103  C   UNL A   1      41.796  36.120  28.104  1.00  0.00     0.131 A 
ATOM    104  C   UNL A   1      43.355  37.891  29.493  1.00  0.00     0.055 A 
ATOM    105  C   UNL A   1      41.855  37.458  27.697  1.00  0.00     0.041 A 
ATOM    106  F   UNL A   1      40.979  35.354  27.367  1.00  0.00    -0.206 F 
ATOM    107  C   UNL A   1      42.629  38.358  28.403  1.00  0.00     0.022 A 
BRANCH 104 108
ATOM    108  S   UNL A   1      44.295  39.051  30.521  1.00  0.00     0.124 S 
ATOM    109  O   UNL A   1      43.808  38.730  31.860  1.00  0.00    -0.237 OA
ATOM    110  O   UNL A   1      45.675  38.666  30.240  1.00  0.00    -0.237 OA
ATOM    111  O   UNL A   1      43.900  40.362  30.014  1.00  0.00    -0.744 OA
ENDBRANCH 104 108
ENDBRANCH  78 101
ENDBRANCH  52  53
ENDBRANCH  44  47
ENDBRANCH  42  43
ENDBRANCH  41  42
ENDBRANCH  40  41
ENDBRANCH   1  40
TORSDOF 19
ENDMDL
MODEL 2
REMARK VINA RESULT:     -12.5      2.610      4.418
REMARK SMILES Cc1ccc(NC(=O)c2cnn3c2NC2=C(C(=O)CCC2)[C@H]3c2ccc(C(=O)NCCCCCCNC(=O)c3ccc(-c4c5nc(c(-c6cc(S(=O)(=O)[O-])ccc6F)c6ccc([nH]6)c(-c6cc(S(=O)(=O)[O-])ccc6F)c6nc(c(-c7cc(S(=O)(=O)[O-])ccc7F)c7ccc4[nH]7)C=C6)C=C5)cc3)cc2)cc1
REMARK SMILES IDX 32 1 31 2 30 3 29 4 27 5 28 6 26 8 23 9 24 10 103 11 25 12
REMARK SMILES IDX 102 13 22 14 9 15 10 16 13 17 11 18 12 19 14 20 15 21 16 23
REMARK SMILES IDX 21 24 17 25 20 26 18 27 19 28 7 29 6 30 8 32 5 33 1 34 2 35
REMARK SMILES IDX 3 36 105 37 4 38 104 39 33 40 34 41 35 42 36 43 37 44 38 46
REMARK SMILES IDX 39 47 40 48 101 49 41 50 100 51 42 52 43 53 44 54 94 55
REMARK SMILES IDX 45 56 99 57 93 58 95 59 46 60 98 61 92 62 91 63 47 65 79 66
REMARK SMILES IDX 59 67 78 68 60 69 63 70 77 71 96 72 61 73 62 74 76 76 97 77
REMARK SMILES IDX 64 78 48 79 49 80 57 81 50 82 56 83 58 84 55 85 51 86 52 87
REMARK SMILES IDX 53 88 54 89 80 90 81 91 89 92 82 93 88 94 90 95 87 96 83 97
REMARK SMILES IDX 84 98 85 99 86 100 65 101 66 102 74 103 67 104 73 105 75 106
REMARK SMILES IDX 72 107 68 108 69 109 70 110 71 111
REMARK H PARENT 29 7 14 22 6 31 36 45 95 64 63 75
REMARK Flexibility Score: inf
ROOT
ATOM      1  C   UNL A   1      41.883  21.421  27.940  1.00  0.00     0.002 C 
ENDROOT
BRANCH   1   2
ATOM      2  C   UNL A   1      40.550  22.187  27.848  1.00  0.00     0.021 C 
BRANCH   2   3
ATOM      3  C   UNL A   1      39.886  22.206  26.468  1.00  0.00     0.116 C 
BRANCH   3   4
ATOM      4  N   UNL A   1      39.451  20.883  26.055  1.00  0.00    -0.352 N 
ATOM      5  C   UNL A   1      38.395  20.407  25.319  1.00  0.00     0.251 C 
ATOM      6  O   UNL A   1      38.419  19.208  25.024  1.00  0.00    -0.269 OA
ATOM      7  H   UNL A   1      40.047  20.168  26.376  1.00  0.00     0.163 HD
BRANCH   5   8
ATOM      8  C   UNL A   1      37.267  21.237  24.795  1.00  0.00     0.039 A 
ATOM      9  C   UNL A   1      34.948  22.483  23.690  1.00  0.00    -0.019 A 
ATOM     10  C   UNL A   1      34.832  21.542  24.723  1.00  0.00     0.007 A 
ATOM     11  C   UNL A   1      36.249  22.942  23.398  1.00  0.00     0.007 A 
ATOM     12  C   UNL A   1      35.974  20.918  25.249  1.00  0.00     0.014 A 
ATOM     13  C   UNL A   1      37.394  22.319  23.929  1.00  0.00     0.014 A 
BRANCH   9  14
ATOM     14  C   UNL A   1      33.712  22.837  22.798  1.00  0.00     0.175 C 
ATOM     15  C   UNL A   1      31.235  23.386  25.316  1.00  0.00     0.102 A 
ATOM     16  C   UNL A   1      30.687  22.340  24.512  1.00  0.00     0.151 A 
ATOM     17  C   UNL A   1      32.274  23.858  24.545  1.00  0.00     0.142 A 
ATOM     18  N   UNL A   1      31.465  22.003  23.479  1.00  0.00    -0.178 NA
ATOM     19  N   UNL A   1      32.497  22.848  23.622  1.00  0.00    -0.237 N 
ATOM     20  N   UNL A   1      33.082  24.965  24.482  1.00  0.00    -0.343 N 
ATOM     21  C   UNL A   1      33.719  25.264  23.264  1.00  0.00     0.026 C 
ATOM     22  H   UNL A   1      33.213  25.537  25.272  1.00  0.00     0.168 HD
ATOM     23  C   UNL A   1      33.795  24.280  22.333  1.00  0.00     0.044 C 
ATOM     24  C   UNL A   1      33.977  26.690  22.864  1.00  0.00     0.055 C 
ATOM     25  C   UNL A   1      33.155  24.662  21.044  1.00  0.00     0.163 C 
ATOM     26  C   UNL A   1      33.197  27.089  21.607  1.00  0.00     0.014 C 
ATOM     27  O   UNL A   1      33.163  23.901  20.082  1.00  0.00    -0.294 OA
ATOM     28  C   UNL A   1      32.340  25.951  21.064  1.00  0.00     0.081 C 
BRANCH  15  29
ATOM     29  C   UNL A   1      30.767  23.890  26.585  1.00  0.00     0.261 C 
ATOM     30  N   UNL A   1      30.575  25.251  26.742  1.00  0.00    -0.322 N 
ATOM     31  H   UNL A   1      30.535  25.546  27.681  1.00  0.00     0.170 HD
ATOM     32  O   UNL A   1      30.576  23.141  27.545  1.00  0.00    -0.269 OA
BRANCH  30  33
ATOM     33  C   UNL A   1      30.425  26.296  25.801  1.00  0.00     0.041 A 
ATOM     34  C   UNL A   1      30.281  29.478  22.868  1.00  0.00     0.044 C 
ATOM     35  C   UNL A   1      30.308  28.405  23.919  1.00  0.00    -0.051 A 
ATOM     36  C   UNL A   1      29.462  27.303  23.804  1.00  0.00     0.005 A 
ATOM     37  C   UNL A   1      31.187  28.465  25.005  1.00  0.00     0.005 A 
ATOM     38  C   UNL A   1      29.499  26.282  24.758  1.00  0.00     0.026 A 
ATOM     39  C   UNL A   1      31.239  27.423  25.943  1.00  0.00     0.026 A 
ENDBRANCH  30  33
ENDBRANCH  15  29
ENDBRANCH   9  14
ENDBRANCH   5   8
ENDBRANCH   3   4
ENDBRANCH   2   3
ENDBRANCH   1   2
BRANCH   1  40
ATOM     40  C   UNL A   1      41.870  19.924  27.578  1.00  0.00     0.002 C 
BRANCH  40  41
ATOM     41  C   UNL A   1      42.757  19.501  26.406  1.00  0.00     0.021 C 
BRANCH  41  42
ATOM     42  C   UNL A   1      43.216  20.651  25.516  1.00  0.00     0.116 C 
BRANCH  42  43
ATOM     43  N   UNL A   1      44.640  20.961  25.615  1.00  0.00    -0.352 N 
ATOM     44  C   UNL A   1      45.268  22.167  25.889  1.00  0.00     0.251 C 
ATOM     45  H   UNL A   1      45.245  20.199  25.467  1.00  0.00     0.163 HD
ATOM     46  O   UNL A   1      46.481  22.265  25.817  1.00  0.00    -0.269 OA
BRANCH  44  47
ATOM     47  C   UNL A   1      44.460  23.317  26.368  1.00  0.00     0.039 A 
ATOM     48  C   UNL A   1      44.201  24.368  25.475  1.00  0.00     0.014 A 
ATOM     49  C   UNL A   1      44.132  23.445  27.711  1.00  0.00     0.014 A 
ATOM     50  C   UNL A   1      43.832  25.619  25.971  1.00  0.00     0.010 A 
ATOM     51  C   UNL A   1      43.889  24.702  28.214  1.00  0.00     0.010 A 
ATOM     52  C   UNL A   1      43.783  25.800  27.350  1.00  0.00    -0.014 A 
BRANCH  52  53
ATOM     53  C   UNL A   1      43.727  27.090  28.024  1.00  0.00     0.031 A 
ATOM     54  C   UNL A   1      42.438  27.805  28.153  1.00  0.00     0.074 A 
ATOM     55  C   UNL A   1      44.803  27.493  28.733  1.00  0.00     0.049 A 
ATOM     56  N   UNL A   1      42.311  29.007  28.595  1.00  0.00    -0.248 NA
ATOM     57  C   UNL A   1      41.168  27.216  27.745  1.00  0.00     0.031 C 
ATOM     58  C   UNL A   1      44.832  28.458  29.828  1.00  0.00     0.029 A 
ATOM     59  N   UNL A   1      46.146  27.267  28.433  1.00  0.00    -0.354 N 
ATOM     60  C   UNL A   1      40.973  29.244  28.812  1.00  0.00     0.074 A 
ATOM     61  C   UNL A   1      40.300  28.125  28.200  1.00  0.00     0.031 C 
ATOM     62  C   UNL A   1      46.079  28.934  29.956  1.00  0.00     0.029 A 
ATOM     63  C   UNL A   1      46.848  28.419  28.839  1.00  0.00     0.049 A 
ATOM     64  H   UNL A   1      46.528  26.460  28.019  1.00  0.00     0.167 HD
ATOM     65  C   UNL A   1      40.615  30.303  29.594  1.00  0.00     0.034 A 
ATOM     66  C   UNL A   1      47.505  29.196  27.929  1.00  0.00     0.034 A 
ATOM     67  C   UNL A   1      41.783  31.117  29.936  1.00  0.00     0.049 A 
ATOM     68  C   UNL A   1      46.998  30.620  27.862  1.00  0.00     0.074 A 
ATOM     69  C   UNL A   1      42.569  31.229  31.072  1.00  0.00     0.029 A 
ATOM     70  N   UNL A   1      42.464  31.779  28.922  1.00  0.00    -0.354 N 
ATOM     71  N   UNL A   1      45.844  31.013  28.327  1.00  0.00    -0.248 NA
ATOM     72  C   UNL A   1      47.757  31.714  27.267  1.00  0.00     0.031 C 
ATOM     73  C   UNL A   1      43.756  31.925  30.716  1.00  0.00     0.029 A 
ATOM     74  C   UNL A   1      43.675  32.262  29.376  1.00  0.00     0.049 A 
ATOM     75  H   UNL A   1      42.128  31.889  28.003  1.00  0.00     0.167 HD
ATOM     76  C   UNL A   1      45.687  32.361  28.109  1.00  0.00     0.074 A 
ATOM     77  C   UNL A   1      46.923  32.753  27.456  1.00  0.00     0.031 C 
ATOM     78  C   UNL A   1      44.545  33.019  28.484  1.00  0.00     0.034 A 
BRANCH  65  79
ATOM     79  C   UNL A   1      39.270  30.486  30.270  1.00  0.00     0.023 A 
ATOM     80  C   UNL A   1      38.207  31.040  29.520  1.00  0.00     0.031 A 
ATOM     81  C   UNL A   1      38.964  30.209  31.616  1.00  0.00     0.131 A 
ATOM     82  C   UNL A   1      36.973  31.370  30.112  1.00  0.00     0.055 A 
ATOM     83  C   UNL A   1      37.748  30.570  32.217  1.00  0.00     0.041 A 
ATOM     84  F   UNL A   1      39.794  29.528  32.412  1.00  0.00    -0.206 F 
ATOM     85  C   UNL A   1      36.748  31.165  31.468  1.00  0.00     0.022 A 
BRANCH  82  86
ATOM     86  S   UNL A   1      35.665  32.092  29.083  1.00  0.00     0.124 S 
ATOM     87  O   UNL A   1      35.102  30.913  28.435  1.00  0.00    -0.237 OA
ATOM     88  O   UNL A   1      34.823  32.755  30.071  1.00  0.00    -0.237 OA
ATOM     89  O   UNL A   1      36.397  32.993  28.193  1.00  0.00    -0.744 OA
ENDBRANCH  82  86
ENDBRANCH  65  79
BRANCH  66  90
ATOM     90  C   UNL A   1      48.062  28.406  26.795  1.00  0.00     0.023 A 
ATOM     91  C   UNL A   1      49.262  27.703  27.038  1.00  0.00     0.031 A 
ATOM     92  C   UNL A   1      47.259  27.985  25.727  1.00  0.00     0.131 A 
ATOM     93  C   UNL A   1      49.542  26.522  26.337  1.00  0.00     0.055 A 
ATOM     94  C   UNL A   1      47.576  26.836  24.990  1.00  0.00     0.041 A 
ATOM     95  F   UNL A   1      46.089  28.591  25.472  1.00  0.00    -0.206 F 
ATOM     96  C   UNL A   1      48.697  26.074  25.322  1.00  0.00     0.022 A 
BRANCH  93  97
ATOM     97  S   UNL A   1      50.880  25.458  26.957  1.00  0.00     0.124 S 
ATOM     98  O   UNL A   1      51.583  26.356  27.867  1.00  0.00    -0.237 OA
ATOM     99  O   UNL A   1      50.144  24.363  27.583  1.00  0.00    -0.237 OA
ATOM    100  O   UNL A   1      51.613  25.089  25.749  1.00  0.00    -0.744 OA
ENDBRANCH  93  97
ENDBRANCH  66  90
BRANCH  78 101
ATOM    101  C   UNL A   1      44.141  34.443  28.123  1.00  0.00     0.023 A 
ATOM    102  C   UNL A   1      44.331  35.550  28.960  1.00  0.00     0.031 A 
ATOM    103  C   UNL A   1      43.595  34.745  26.846  1.00  0.00     0.131 A 
ATOM    104  C   UNL A   1      43.942  36.846  28.567  1.00  0.00     0.055 A 
ATOM    105  C   UNL A   1      43.275  36.042  26.429  1.00  0.00     0.041 A 
ATOM    106  F   UNL A   1      43.356  33.795  25.930  1.00  0.00    -0.206 F 
ATOM    107  C   UNL A   1      43.435  37.104  27.297  1.00  0.00     0.022 A 
BRANCH 104 108
ATOM    108  S   UNL A   1      44.066  38.185  29.783  1.00  0.00     0.124 S 
ATOM    109  O   UNL A   1      45.416  38.686  29.543  1.00  0.00    -0.237 OA
ATOM    110  O   UNL A   1      42.980  39.073  29.379  1.00  0.00    -0.237 OA
ATOM    111  O   UNL A   1      43.872  37.508  31.063  1.00  0.00    -0.744 OA
ENDBRANCH 104 108
ENDBRANCH  78 101
ENDBRANCH  52  53
ENDBRANCH  44  47
ENDBRANCH  42  43
ENDBRANCH  41  42
ENDBRANCH  40  41
ENDBRANCH   1  40
TORSDOF 19
ENDMDL
MODEL 3
REMARK VINA RESULT:     -12.0      5.931     10.736
REMARK SMILES Cc1ccc(NC(=O)c2cnn3c2NC2=C(C(=O)CCC2)[C@H]3c2ccc(C(=O)NCCCCCCNC(=O)c3ccc(-c4c5nc(c(-c6cc(S(=O)(=O)[O-])ccc6F)c6ccc([nH]6)c(-c6cc(S(=O)(=O)[O-])ccc6F)c6nc(c(-c7cc(S(=O)(=O)[O-])ccc7F)c7ccc4[nH]7)C=C6)C=C5)cc3)cc2)cc1
REMARK SMILES IDX 32 1 31 2 30 3 29 4 27 5 28 6 26 8 23 9 24 10 103 11 25 12
REMARK SMILES IDX 102 13 22 14 9 15 10 16 13 17 11 18 12 19 14 20 15 21 16 23
REMARK SMILES IDX 21 24 17 25 20 26 18 27 19 28 7 29 6 30 8 32 5 33 1 34 2 35
REMARK SMILES IDX 3 36 105 37 4 38 104 39 33 40 34 41 35 42 36 43 37 44 38 46
REMARK SMILES IDX 39 47 40 48 101 49 41 50 100 51 42 52 43 53 44 54 94 55
REMARK SMILES IDX 45 56 99 57 93 58 95 59 46 60 98 61 92 62 91 63 47 65 79 66
REMARK SMILES IDX 59 67 78 68 60 69 63 70 77 71 96 72 61 73 62 74 76 76 97 77
REMARK SMILES IDX 64 78 48 79 49 80 57 81 50 82 56 83 58 84 55 85 51 86 52 87
REMARK SMILES IDX 53 88 54 89 80 90 81 91 89 92 82 93 88 94 90 95 87 96 83 97
REMARK SMILES IDX 84 98 85 99 86 100 65 101 66 102 74 103 67 104 73 105 75 106
REMARK SMILES IDX 72 107 68 108 69 109 70 110 71 111
REMARK H PARENT 29 7 14 22 6 31 36 45 95 64 63 75
REMARK Flexibility Score: inf
ROOT
ATOM      1  C   UNL A   1      37.202  30.755  32.773  1.00  0.00     0.002 C 
ENDROOT
BRANCH   1   2
ATOM      2  C   UNL A   1      38.329  30.672  33.819  1.00  0.00     0.021 C 
BRANCH   2   3
ATOM      3  C   UNL A   1      39.721  30.333  33.274  1.00  0.00     0.116 C 
BRANCH   3   4
ATOM      4  N   UNL A   1      40.423  29.388  34.126  1.00  0.00    -0.352 N 
ATOM      5  C   UNL A   1      41.614  28.712  34.032  1.00  0.00     0.251 C 
ATOM      6  O   UNL A   1      41.983  28.095  35.035  1.00  0.00    -0.269 OA
ATOM      7  H   UNL A   1      39.933  29.187  34.957  1.00  0.00     0.163 HD
BRANCH   5   8
ATOM      8  C   UNL A   1      42.519  28.727  32.842  1.00  0.00     0.039 A 
ATOM      9  C   UNL A   1      44.256  28.365  30.605  1.00  0.00    -0.019 A 
ATOM     10  C   UNL A   1      42.994  27.755  30.639  1.00  0.00     0.007 A 
ATOM     11  C   UNL A   1      44.517  29.331  31.599  1.00  0.00     0.007 A 
ATOM     12  C   UNL A   1      42.153  27.920  31.750  1.00  0.00     0.014 A 
ATOM     13  C   UNL A   1      43.670  29.500  32.711  1.00  0.00     0.014 A 
BRANCH   9  14
ATOM     14  C   UNL A   1      45.363  27.844  29.629  1.00  0.00     0.175 C 
ATOM     15  C   UNL A   1      43.428  27.342  26.666  1.00  0.00     0.102 A 
ATOM     16  C   UNL A   1      43.986  26.056  26.938  1.00  0.00     0.151 A 
ATOM     17  C   UNL A   1      44.156  28.176  27.486  1.00  0.00     0.142 A 
ATOM     18  N   UNL A   1      44.782  26.040  28.012  1.00  0.00    -0.178 NA
ATOM     19  N   UNL A   1      44.737  27.320  28.409  1.00  0.00    -0.237 N 
ATOM     20  N   UNL A   1      44.408  29.518  27.619  1.00  0.00    -0.343 N 
ATOM     21  C   UNL A   1      45.567  29.920  28.305  1.00  0.00     0.026 C 
ATOM     22  H   UNL A   1      43.790  30.185  27.241  1.00  0.00     0.168 HD
ATOM     23  C   UNL A   1      46.183  29.005  29.095  1.00  0.00     0.044 C 
ATOM     24  C   UNL A   1      46.298  31.173  27.908  1.00  0.00     0.055 C 
ATOM     25  C   UNL A   1      47.599  28.769  28.701  1.00  0.00     0.163 C 
ATOM     26  C   UNL A   1      47.706  30.879  27.380  1.00  0.00     0.014 C 
ATOM     27  O   UNL A   1      48.312  27.995  29.330  1.00  0.00    -0.294 OA
ATOM     28  C   UNL A   1      48.031  29.390  27.377  1.00  0.00     0.081 C 
BRANCH  15  29
ATOM     29  C   UNL A   1      42.412  27.703  25.706  1.00  0.00     0.261 C 
ATOM     30  N   UNL A   1      41.080  27.627  26.070  1.00  0.00    -0.322 N 
ATOM     31  H   UNL A   1      40.455  27.608  25.309  1.00  0.00     0.170 HD
ATOM     32  O   UNL A   1      42.704  28.035  24.555  1.00  0.00    -0.269 OA
BRANCH  30  33
ATOM     33  C   UNL A   1      40.451  27.572  27.336  1.00  0.00     0.041 A 
ATOM     34  C   UNL A   1      38.324  27.628  31.107  1.00  0.00     0.044 C 
ATOM     35  C   UNL A   1      39.105  27.617  29.824  1.00  0.00    -0.051 A 
ATOM     36  C   UNL A   1      39.307  26.415  29.148  1.00  0.00     0.005 A 
ATOM     37  C   UNL A   1      39.615  28.793  29.266  1.00  0.00     0.005 A 
ATOM     38  C   UNL A   1      40.006  26.395  27.938  1.00  0.00     0.026 A 
ATOM     39  C   UNL A   1      40.290  28.769  28.037  1.00  0.00     0.026 A 
ENDBRANCH  30  33
ENDBRANCH  15  29
ENDBRANCH   9  14
ENDBRANCH   5   8
ENDBRANCH   3   4
ENDBRANCH   2   3
ENDBRANCH   1   2
BRANCH   1  40
ATOM     40  C   UNL A   1      36.196  31.913  32.902  1.00  0.00     0.002 C 
BRANCH  40  41
ATOM     41  C   UNL A   1      35.417  32.280  31.638  1.00  0.00     0.021 C 
BRANCH  41  42
ATOM     42  C   UNL A   1      35.591  31.299  30.484  1.00  0.00     0.116 C 
BRANCH  42  43
ATOM     43  N   UNL A   1      35.352  31.873  29.162  1.00  0.00    -0.352 N 
ATOM     44  C   UNL A   1      36.128  32.756  28.426  1.00  0.00     0.251 C 
ATOM     45  H   UNL A   1      34.515  31.591  28.728  1.00  0.00     0.163 HD
ATOM     46  O   UNL A   1      35.712  33.224  27.379  1.00  0.00    -0.269 OA
BRANCH  44  47
ATOM     47  C   UNL A   1      37.513  33.054  28.870  1.00  0.00     0.039 A 
ATOM     48  C   UNL A   1      38.316  31.991  29.309  1.00  0.00     0.014 A 
ATOM     49  C   UNL A   1      37.941  34.365  29.030  1.00  0.00     0.014 A 
ATOM     50  C   UNL A   1      39.429  32.253  30.110  1.00  0.00     0.010 A 
ATOM     51  C   UNL A   1      38.962  34.623  29.916  1.00  0.00     0.010 A 
ATOM     52  C   UNL A   1      39.678  33.567  30.494  1.00  0.00    -0.014 A 
BRANCH  52  53
ATOM     53  C   UNL A   1      40.586  33.971  31.558  1.00  0.00     0.031 A 
ATOM     54  C   UNL A   1      40.051  34.417  32.863  1.00  0.00     0.074 A 
ATOM     55  C   UNL A   1      41.902  33.697  31.420  1.00  0.00     0.049 A 
ATOM     56  N   UNL A   1      40.760  34.930  33.807  1.00  0.00    -0.248 NA
ATOM     57  C   UNL A   1      38.632  34.352  33.194  1.00  0.00     0.031 C 
ATOM     58  C   UNL A   1      42.897  33.569  32.480  1.00  0.00     0.029 A 
ATOM     59  N   UNL A   1      42.648  33.709  30.243  1.00  0.00    -0.354 N 
ATOM     60  C   UNL A   1      39.985  34.986  34.943  1.00  0.00     0.074 A 
ATOM     61  C   UNL A   1      38.651  34.682  34.490  1.00  0.00     0.031 C 
ATOM     62  C   UNL A   1      44.117  33.759  31.958  1.00  0.00     0.029 A 
ATOM     63  C   UNL A   1      43.930  34.184  30.584  1.00  0.00     0.049 A 
ATOM     64  H   UNL A   1      42.340  33.438  29.347  1.00  0.00     0.167 HD
ATOM     65  C   UNL A   1      40.603  35.163  36.146  1.00  0.00     0.034 A 
ATOM     66  C   UNL A   1      44.405  35.354  30.065  1.00  0.00     0.034 A 
ATOM     67  C   UNL A   1      42.030  35.434  35.966  1.00  0.00     0.049 A 
ATOM     68  C   UNL A   1      44.719  36.402  31.109  1.00  0.00     0.074 A 
ATOM     69  C   UNL A   1      43.173  34.661  36.097  1.00  0.00     0.029 A 
ATOM     70  N   UNL A   1      42.419  36.600  35.316  1.00  0.00    -0.354 N 
ATOM     71  N   UNL A   1      44.269  36.379  32.335  1.00  0.00    -0.248 NA
ATOM     72  C   UNL A   1      45.569  37.559  30.854  1.00  0.00     0.031 C 
ATOM     73  C   UNL A   1      44.245  35.355  35.473  1.00  0.00     0.029 A 
ATOM     74  C   UNL A   1      43.760  36.560  34.995  1.00  0.00     0.049 A 
ATOM     75  H   UNL A   1      41.818  37.353  35.113  1.00  0.00     0.167 HD
ATOM     76  C   UNL A   1      44.737  37.472  33.025  1.00  0.00     0.074 A 
ATOM     77  C   UNL A   1      45.561  38.170  32.053  1.00  0.00     0.031 C 
ATOM     78  C   UNL A   1      44.391  37.696  34.332  1.00  0.00     0.034 A 
BRANCH  65  79
ATOM     79  C   UNL A   1      40.000  34.849  37.502  1.00  0.00     0.023 A 
ATOM     80  C   UNL A   1      39.936  35.880  38.468  1.00  0.00     0.031 A 
ATOM     81  C   UNL A   1      39.530  33.597  37.941  1.00  0.00     0.131 A 
ATOM     82  C   UNL A   1      39.521  35.634  39.791  1.00  0.00     0.055 A 
ATOM     83  C   UNL A   1      39.150  33.341  39.267  1.00  0.00     0.041 A 
ATOM     84  F   UNL A   1      39.359  32.566  37.108  1.00  0.00    -0.206 F 
ATOM     85  C   UNL A   1      39.155  34.359  40.204  1.00  0.00     0.022 A 
BRANCH  82  86
ATOM     86  S   UNL A   1      39.483  37.009  40.974  1.00  0.00     0.124 S 
ATOM     87  O   UNL A   1      40.890  37.385  41.050  1.00  0.00    -0.237 OA
ATOM     88  O   UNL A   1      38.591  37.957  40.318  1.00  0.00    -0.237 OA
ATOM     89  O   UNL A   1      38.944  36.393  42.186  1.00  0.00    -0.744 OA
ENDBRANCH  82  86
ENDBRANCH  65  79
BRANCH  66  90
ATOM     90  C   UNL A   1      43.915  35.609  28.682  1.00  0.00     0.023 A 
ATOM     91  C   UNL A   1      44.569  34.920  27.638  1.00  0.00     0.031 A 
ATOM     92  C   UNL A   1      42.626  36.104  28.437  1.00  0.00     0.131 A 
ATOM     93  C   UNL A   1      43.876  34.599  26.462  1.00  0.00     0.055 A 
ATOM     94  C   UNL A   1      41.961  35.830  27.234  1.00  0.00     0.041 A 
ATOM     95  F   UNL A   1      41.941  36.734  29.404  1.00  0.00    -0.206 F 
ATOM     96  C   UNL A   1      42.567  35.037  26.259  1.00  0.00     0.022 A 
BRANCH  93  97
ATOM     97  S   UNL A   1      44.625  33.385  25.335  1.00  0.00     0.124 S 
ATOM     98  O   UNL A   1      46.038  33.476  25.687  1.00  0.00    -0.237 OA
ATOM     99  O   UNL A   1      43.950  32.146  25.716  1.00  0.00    -0.237 OA
ATOM    100  O   UNL A   1      44.275  33.886  24.008  1.00  0.00    -0.744 OA
ENDBRANCH  93  97
ENDBRANCH  66  90
BRANCH  78 101
ATOM    101  C   UNL A   1      44.650  38.954  35.152  1.00  0.00     0.023 A 
ATOM    102  C   UNL A   1      44.285  40.244  34.746  1.00  0.00     0.031 A 
ATOM    103  C   UNL A   1      45.233  38.874  36.445  1.00  0.00     0.131 A 
ATOM    104  C   UNL A   1      44.547  41.370  35.553  1.00  0.00     0.055 A 
ATOM    105  C   UNL A   1      45.427  39.984  37.275  1.00  0.00     0.041 A 
ATOM    106  F   UNL A   1      45.633  37.709  36.977  1.00  0.00    -0.206 F 
ATOM    107  C   UNL A   1      45.095  41.247  36.825  1.00  0.00     0.022 A 
BRANCH 104 108
ATOM    108  S   UNL A   1      44.199  43.013  34.870  1.00  0.00     0.124 S 
ATOM    109  O   UNL A   1      44.338  42.778  33.436  1.00  0.00    -0.237 OA
ATOM    110  O   UNL A   1      42.841  43.264  35.341  1.00  0.00    -0.237 OA
ATOM    111  O   UNL A   1      45.230  43.860  35.464  1.00  0.00    -0.744 OA
ENDBRANCH 104 108
ENDBRANCH  78 101
ENDBRANCH  52  53
ENDBRANCH  44  47
ENDBRANCH  42  43
ENDBRANCH  41  42
ENDBRANCH  40  41
ENDBRANCH   1  40
TORSDOF 19
ENDMDL
