MODEL 1
REMARK VINA RESULT:     -11.4      0.000      0.000
REMARK SMILES O=C(COc1ccc(Br)cc1/C=C1\C(=O)Nc2ccc(Br)cc21)NCCCCCCNC(=O)c1ccc(-c2c3nc(c(-c4cc(S(=O)(=O)[O-])ccc4F)c4ccc([nH]4)c(-c4cc(S(=O)(=O)[O-])ccc4F)c4nc(c(-c5cc(S(=O)(=O)[O-])ccc5F)c5ccc2[nH]5)C=C4)C=C3)cc1
REMARK SMILES IDX 27 1 26 2 25 3 24 4 1 5 2 6 3 8 4 9 5 10 6 11 11 12 7 13
REMARK SMILES IDX 10 14 8 15 9 16 12 17 13 18 14 19 23 20 15 21 16 22 17 23
REMARK SMILES IDX 22 24 18 26 20 27 19 28 21 29 28 30 29 31 30 32 31 33 32 34
REMARK SMILES IDX 33 36 34 37 35 38 96 39 36 40 95 41 37 42 38 43 39 44 89 45
REMARK SMILES IDX 40 46 94 47 88 48 90 49 41 50 93 51 87 52 86 53 42 55 74 56
REMARK SMILES IDX 54 57 73 58 55 59 58 60 72 61 91 62 56 63 57 64 71 66 92 67
REMARK SMILES IDX 59 68 43 69 44 70 52 71 45 72 51 73 53 74 50 75 46 76 47 77
REMARK SMILES IDX 48 78 49 79 75 80 76 81 84 82 77 83 83 84 85 85 82 86 78 87
REMARK SMILES IDX 79 88 80 89 81 90 60 91 61 92 69 93 62 94 68 95 70 96 67 97
REMARK SMILES IDX 63 98 64 99 65 100 66 101
REMARK H PARENT 24 7 16 25 31 35 90 54 58 65
REMARK Flexibility Score: inf
ROOT
ATOM      1  C   UNL A   1      36.252  32.471  28.178  1.00  0.00     0.002 C 
ENDROOT
BRANCH   1   2
ATOM      2  C   UNL A   1      36.736  31.018  28.142  1.00  0.00     0.021 C 
BRANCH   2   3
ATOM      3  C   UNL A   1      35.724  29.986  28.633  1.00  0.00     0.116 C 
BRANCH   3   4
ATOM      4  N   UNL A   1      35.143  29.163  27.577  1.00  0.00    -0.353 N 
ATOM      5  O   UNL A   1      33.138  30.278  27.469  1.00  0.00    -0.271 OA
ATOM      6  C   UNL A   1      33.935  29.479  26.981  1.00  0.00     0.257 C 
ATOM      7  H   UNL A   1      35.625  28.358  27.280  1.00  0.00     0.163 HD
BRANCH   6   8
ATOM      8  C   UNL A   1      33.660  28.785  25.617  1.00  0.00     0.329 C 
BRANCH   8   9
ATOM      9  O   UNL A   1      32.661  27.767  25.447  1.00  0.00    -0.483 OA
BRANCH   9  10
ATOM     10  C   UNL A   1      31.570  28.139  24.686  1.00  0.00     0.127 A 
ATOM     11  C   UNL A   1      31.248  29.511  24.609  1.00  0.00     0.048 A 
ATOM     12  C   UNL A   1      30.837  27.199  23.914  1.00  0.00     0.018 A 
ATOM     13  C   UNL A   1      30.148  29.984  23.907  1.00  0.00     0.019 A 
ATOM     14  C   UNL A   1      29.748  27.734  23.195  1.00  0.00     0.027 A 
ATOM     15  C   UNL A   1      29.385  29.081  23.214  1.00  0.00     0.018 A 
ATOM     16  Br  UNL A   1      27.859  29.661  22.263  1.00  0.00    -0.051 Br
BRANCH  12  17
ATOM     17  C   UNL A   1      31.137  25.715  23.864  1.00  0.00     0.026 C 
ATOM     18  C   UNL A   1      30.933  24.751  24.803  1.00  0.00     0.050 C 
ATOM     19  C   UNL A   1      30.422  24.961  26.204  1.00  0.00     0.256 C 
ATOM     20  C   UNL A   1      31.709  23.497  24.924  1.00  0.00     0.012 A 
ATOM     21  O   UNL A   1      29.317  25.300  26.575  1.00  0.00    -0.269 OA
ATOM     22  N   UNL A   1      31.412  24.423  27.004  1.00  0.00    -0.321 N 
ATOM     23  C   UNL A   1      32.141  23.495  26.265  1.00  0.00     0.049 A 
ATOM     24  C   UNL A   1      31.867  22.346  24.175  1.00  0.00     0.026 A 
ATOM     25  H   UNL A   1      31.576  24.658  27.946  1.00  0.00     0.170 HD
ATOM     26  C   UNL A   1      32.936  22.519  26.821  1.00  0.00     0.028 A 
ATOM     27  C   UNL A   1      32.568  21.279  24.769  1.00  0.00     0.018 A 
ATOM     28  C   UNL A   1      33.158  21.388  26.046  1.00  0.00     0.018 A 
ATOM     29  Br  UNL A   1      32.615  19.589  23.911  1.00  0.00    -0.051 Br
ENDBRANCH  12  17
ENDBRANCH   9  10
ENDBRANCH   8   9
ENDBRANCH   6   8
ENDBRANCH   3   4
ENDBRANCH   2   3
ENDBRANCH   1   2
BRANCH   1  30
ATOM     30  C   UNL A   1      35.457  32.882  29.422  1.00  0.00     0.002 C 
BRANCH  30  31
ATOM     31  C   UNL A   1      34.104  33.545  29.157  1.00  0.00     0.021 C 
BRANCH  31  32
ATOM     32  C   UNL A   1      34.044  35.045  29.427  1.00  0.00     0.116 C 
BRANCH  32  33
ATOM     33  N   UNL A   1      32.957  35.430  30.319  1.00  0.00    -0.352 N 
ATOM     34  C   UNL A   1      32.862  35.301  31.688  1.00  0.00     0.251 C 
ATOM     35  H   UNL A   1      32.178  35.840  29.880  1.00  0.00     0.163 HD
ATOM     36  O   UNL A   1      31.812  35.572  32.261  1.00  0.00    -0.269 OA
BRANCH  34  37
ATOM     37  C   UNL A   1      34.021  34.784  32.451  1.00  0.00     0.039 A 
ATOM     38  C   UNL A   1      35.261  35.419  32.365  1.00  0.00     0.014 A 
ATOM     39  C   UNL A   1      33.882  33.615  33.202  1.00  0.00     0.014 A 
ATOM     40  C   UNL A   1      36.395  34.775  32.849  1.00  0.00     0.010 A 
ATOM     41  C   UNL A   1      35.012  33.020  33.771  1.00  0.00     0.010 A 
ATOM     42  C   UNL A   1      36.289  33.558  33.542  1.00  0.00    -0.014 A 
BRANCH  42  43
ATOM     43  C   UNL A   1      37.521  32.857  33.995  1.00  0.00     0.031 A 
ATOM     44  C   UNL A   1      38.131  31.756  33.166  1.00  0.00     0.074 A 
ATOM     45  C   UNL A   1      38.124  33.252  35.134  1.00  0.00     0.049 A 
ATOM     46  N   UNL A   1      39.208  31.049  33.402  1.00  0.00    -0.248 NA
ATOM     47  C   UNL A   1      37.446  31.395  31.915  1.00  0.00     0.031 C 
ATOM     48  C   UNL A   1      37.634  34.317  36.009  1.00  0.00     0.029 A 
ATOM     49  N   UNL A   1      39.279  32.826  35.742  1.00  0.00    -0.354 N 
ATOM     50  C   UNL A   1      39.319  30.153  32.344  1.00  0.00     0.074 A 
ATOM     51  C   UNL A   1      38.180  30.378  31.483  1.00  0.00     0.031 C 
ATOM     52  C   UNL A   1      38.503  34.495  37.012  1.00  0.00     0.029 A 
ATOM     53  C   UNL A   1      39.572  33.505  36.902  1.00  0.00     0.049 A 
ATOM     54  H   UNL A   1      39.842  32.104  35.383  1.00  0.00     0.167 HD
ATOM     55  C   UNL A   1      40.292  29.240  32.105  1.00  0.00     0.034 A 
ATOM     56  C   UNL A   1      40.573  33.343  37.793  1.00  0.00     0.034 A 
ATOM     57  C   UNL A   1      41.436  29.047  32.962  1.00  0.00     0.049 A 
ATOM     58  C   UNL A   1      41.619  32.292  37.527  1.00  0.00     0.074 A 
ATOM     59  C   UNL A   1      42.494  28.173  32.784  1.00  0.00     0.029 A 
ATOM     60  N   UNL A   1      41.677  29.728  34.146  1.00  0.00    -0.354 N 
ATOM     61  N   UNL A   1      41.734  31.487  36.497  1.00  0.00    -0.248 NA
ATOM     62  C   UNL A   1      42.672  32.123  38.538  1.00  0.00     0.031 C 
ATOM     63  C   UNL A   1      43.331  28.269  33.893  1.00  0.00     0.029 A 
ATOM     64  C   UNL A   1      42.849  29.267  34.725  1.00  0.00     0.049 A 
ATOM     65  H   UNL A   1      41.102  30.434  34.520  1.00  0.00     0.167 HD
ATOM     66  C   UNL A   1      42.883  30.733  36.724  1.00  0.00     0.074 A 
ATOM     67  C   UNL A   1      43.440  31.197  37.977  1.00  0.00     0.031 C 
ATOM     68  C   UNL A   1      43.417  29.743  35.966  1.00  0.00     0.034 A 
BRANCH  55  69
ATOM     69  C   UNL A   1      40.199  28.374  30.870  1.00  0.00     0.023 A 
ATOM     70  C   UNL A   1      40.966  28.690  29.732  1.00  0.00     0.031 A 
ATOM     71  C   UNL A   1      39.248  27.343  30.763  1.00  0.00     0.131 A 
ATOM     72  C   UNL A   1      40.738  28.016  28.526  1.00  0.00     0.055 A 
ATOM     73  C   UNL A   1      39.059  26.641  29.571  1.00  0.00     0.041 A 
ATOM     74  F   UNL A   1      38.488  27.004  31.816  1.00  0.00    -0.206 F 
ATOM     75  C   UNL A   1      39.794  26.987  28.441  1.00  0.00     0.022 A 
BRANCH  72  76
ATOM     76  S   UNL A   1      41.595  28.501  27.002  1.00  0.00     0.124 S 
ATOM     77  O   UNL A   1      42.129  27.221  26.540  1.00  0.00    -0.237 OA
ATOM     78  O   UNL A   1      40.504  29.047  26.200  1.00  0.00    -0.237 OA
ATOM     79  O   UNL A   1      42.593  29.463  27.451  1.00  0.00    -0.744 OA
ENDBRANCH  72  76
ENDBRANCH  55  69
BRANCH  56  80
ATOM     80  C   UNL A   1      40.629  34.236  38.989  1.00  0.00     0.023 A 
ATOM     81  C   UNL A   1      39.799  34.003  40.101  1.00  0.00     0.031 A 
ATOM     82  C   UNL A   1      41.419  35.397  38.987  1.00  0.00     0.131 A 
ATOM     83  C   UNL A   1      39.710  34.960  41.120  1.00  0.00     0.055 A 
ATOM     84  C   UNL A   1      41.391  36.308  40.046  1.00  0.00     0.041 A 
ATOM     85  F   UNL A   1      42.218  35.671  37.946  1.00  0.00    -0.206 F 
ATOM     86  C   UNL A   1      40.516  36.101  41.109  1.00  0.00     0.022 A 
BRANCH  83  87
ATOM     87  S   UNL A   1      38.439  34.829  42.407  1.00  0.00     0.124 S 
ATOM     88  O   UNL A   1      38.683  33.495  42.944  1.00  0.00    -0.237 OA
ATOM     89  O   UNL A   1      38.793  35.940  43.288  1.00  0.00    -0.237 OA
ATOM     90  O   UNL A   1      37.188  34.996  41.675  1.00  0.00    -0.744 OA
ENDBRANCH  83  87
ENDBRANCH  56  80
BRANCH  68  91
ATOM     91  C   UNL A   1      44.684  29.068  36.437  1.00  0.00     0.023 A 
ATOM     92  C   UNL A   1      44.612  28.008  37.362  1.00  0.00     0.031 A 
ATOM     93  C   UNL A   1      45.951  29.580  36.111  1.00  0.00     0.131 A 
ATOM     94  C   UNL A   1      45.779  27.533  37.972  1.00  0.00     0.055 A 
ATOM     95  C   UNL A   1      47.117  29.064  36.678  1.00  0.00     0.041 A 
ATOM     96  F   UNL A   1      46.074  30.597  35.244  1.00  0.00    -0.206 F 
ATOM     97  C   UNL A   1      47.033  28.048  37.627  1.00  0.00     0.022 A 
BRANCH  94  98
ATOM     98  S   UNL A   1      45.706  26.306  39.306  1.00  0.00     0.124 S 
ATOM     99  O   UNL A   1      46.776  26.760  40.194  1.00  0.00    -0.237 OA
ATOM    100  O   UNL A   1      44.352  26.490  39.819  1.00  0.00    -0.237 OA
ATOM    101  O   UNL A   1      45.957  25.036  38.632  1.00  0.00    -0.744 OA
ENDBRANCH  94  98
ENDBRANCH  68  91
ENDBRANCH  42  43
ENDBRANCH  34  37
ENDBRANCH  32  33
ENDBRANCH  31  32
ENDBRANCH  30  31
ENDBRANCH   1  30
TORSDOF 19
ENDMDL
MODEL 2
REMARK VINA RESULT:     -11.3      6.761     10.301
REMARK SMILES O=C(COc1ccc(Br)cc1/C=C1\C(=O)Nc2ccc(Br)cc21)NCCCCCCNC(=O)c1ccc(-c2c3nc(c(-c4cc(S(=O)(=O)[O-])ccc4F)c4ccc([nH]4)c(-c4cc(S(=O)(=O)[O-])ccc4F)c4nc(c(-c5cc(S(=O)(=O)[O-])ccc5F)c5ccc2[nH]5)C=C4)C=C3)cc1
REMARK SMILES IDX 27 1 26 2 25 3 24 4 1 5 2 6 3 8 4 9 5 10 6 11 11 12 7 13
REMARK SMILES IDX 10 14 8 15 9 16 12 17 13 18 14 19 23 20 15 21 16 22 17 23
REMARK SMILES IDX 22 24 18 26 20 27 19 28 21 29 28 30 29 31 30 32 31 33 32 34
REMARK SMILES IDX 33 36 34 37 35 38 96 39 36 40 95 41 37 42 38 43 39 44 89 45
REMARK SMILES IDX 40 46 94 47 88 48 90 49 41 50 93 51 87 52 86 53 42 55 74 56
REMARK SMILES IDX 54 57 73 58 55 59 58 60 72 61 91 62 56 63 57 64 71 66 92 67
REMARK SMILES IDX 59 68 43 69 44 70 52 71 45 72 51 73 53 74 50 75 46 76 47 77
REMARK SMILES IDX 48 78 49 79 75 80 76 81 84 82 77 83 83 84 85 85 82 86 78 87
REMARK SMILES IDX 79 88 80 89 81 90 60 91 61 92 69 93 62 94 68 95 70 96 67 97
REMARK SMILES IDX 63 98 64 99 65 100 66 101
REMARK H PARENT 24 7 16 25 31 35 90 54 58 65
REMARK Flexibility Score: inf
ROOT
ATOM      1  C   UNL A   1      38.025  23.897  26.369  1.00  0.00     0.002 C 
ENDROOT
BRANCH   1   2
ATOM      2  C   UNL A   1      36.972  23.714  25.271  1.00  0.00     0.021 C 
BRANCH   2   3
ATOM      3  C   UNL A   1      35.549  24.104  25.665  1.00  0.00     0.116 C 
BRANCH   3   4
ATOM      4  N   UNL A   1      34.852  24.916  24.674  1.00  0.00    -0.353 N 
ATOM      5  O   UNL A   1      33.687  26.199  26.182  1.00  0.00    -0.271 OA
ATOM      6  C   UNL A   1      34.077  26.005  25.032  1.00  0.00     0.257 C 
ATOM      7  H   UNL A   1      34.933  24.681  23.722  1.00  0.00     0.163 HD
BRANCH   6   8
ATOM      8  C   UNL A   1      33.760  27.006  23.885  1.00  0.00     0.329 C 
BRANCH   8   9
ATOM      9  O   UNL A   1      32.912  26.676  22.773  1.00  0.00    -0.483 OA
BRANCH   9  10
ATOM     10  C   UNL A   1      31.573  26.966  22.953  1.00  0.00     0.127 A 
ATOM     11  C   UNL A   1      31.118  28.256  22.606  1.00  0.00     0.048 A 
ATOM     12  C   UNL A   1      30.643  25.981  23.381  1.00  0.00     0.018 A 
ATOM     13  C   UNL A   1      29.802  28.660  22.789  1.00  0.00     0.019 A 
ATOM     14  C   UNL A   1      29.315  26.434  23.522  1.00  0.00     0.027 A 
ATOM     15  C   UNL A   1      28.904  27.744  23.270  1.00  0.00     0.018 A 
ATOM     16  Br  UNL A   1      27.107  28.244  23.567  1.00  0.00    -0.051 Br
BRANCH  12  17
ATOM     17  C   UNL A   1      31.006  24.549  23.711  1.00  0.00     0.026 C 
ATOM     18  C   UNL A   1      30.920  23.877  24.892  1.00  0.00     0.050 C 
ATOM     19  C   UNL A   1      30.510  24.454  26.222  1.00  0.00     0.256 C 
ATOM     20  C   UNL A   1      31.760  22.723  25.283  1.00  0.00     0.012 A 
ATOM     21  O   UNL A   1      29.423  24.857  26.581  1.00  0.00    -0.269 OA
ATOM     22  N   UNL A   1      31.583  24.180  27.049  1.00  0.00    -0.321 N 
ATOM     23  C   UNL A   1      32.294  23.101  26.531  1.00  0.00     0.049 A 
ATOM     24  C   UNL A   1      31.911  21.414  24.866  1.00  0.00     0.026 A 
ATOM     25  H   UNL A   1      31.809  24.669  27.873  1.00  0.00     0.170 HD
ATOM     26  C   UNL A   1      33.174  22.334  27.261  1.00  0.00     0.028 A 
ATOM     27  C   UNL A   1      32.704  20.568  25.666  1.00  0.00     0.018 A 
ATOM     28  C   UNL A   1      33.387  21.039  26.808  1.00  0.00     0.018 A 
ATOM     29  Br  UNL A   1      32.761  18.709  25.301  1.00  0.00    -0.051 Br
ENDBRANCH  12  17
ENDBRANCH   9  10
ENDBRANCH   8   9
ENDBRANCH   6   8
ENDBRANCH   3   4
ENDBRANCH   2   3
ENDBRANCH   1   2
BRANCH   1  30
ATOM     30  C   UNL A   1      39.328  23.113  26.184  1.00  0.00     0.002 C 
BRANCH  30  31
ATOM     31  C   UNL A   1      39.184  21.709  25.597  1.00  0.00     0.021 C 
BRANCH  31  32
ATOM     32  C   UNL A   1      39.417  20.562  26.573  1.00  0.00     0.116 C 
BRANCH  32  33
ATOM     33  N   UNL A   1      40.428  19.613  26.120  1.00  0.00    -0.352 N 
ATOM     34  C   UNL A   1      41.788  19.786  25.976  1.00  0.00     0.251 C 
ATOM     35  H   UNL A   1      40.090  18.720  25.882  1.00  0.00     0.163 HD
ATOM     36  O   UNL A   1      42.470  18.906  25.462  1.00  0.00    -0.269 OA
BRANCH  34  37
ATOM     37  C   UNL A   1      42.406  21.063  26.400  1.00  0.00     0.039 A 
ATOM     38  C   UNL A   1      42.527  21.371  27.756  1.00  0.00     0.014 A 
ATOM     39  C   UNL A   1      42.804  21.987  25.432  1.00  0.00     0.014 A 
ATOM     40  C   UNL A   1      42.842  22.671  28.137  1.00  0.00     0.010 A 
ATOM     41  C   UNL A   1      43.214  23.266  25.823  1.00  0.00     0.010 A 
ATOM     42  C   UNL A   1      43.171  23.641  27.176  1.00  0.00    -0.014 A 
BRANCH  42  43
ATOM     43  C   UNL A   1      43.442  25.041  27.604  1.00  0.00     0.031 A 
ATOM     44  C   UNL A   1      44.805  25.656  27.412  1.00  0.00     0.074 A 
ATOM     45  C   UNL A   1      42.440  25.779  28.121  1.00  0.00     0.049 A 
ATOM     46  N   UNL A   1      45.212  26.864  27.713  1.00  0.00    -0.248 NA
ATOM     47  C   UNL A   1      45.848  24.811  26.809  1.00  0.00     0.031 C 
ATOM     48  C   UNL A   1      41.077  25.294  28.339  1.00  0.00     0.029 A 
ATOM     49  N   UNL A   1      42.399  27.086  28.537  1.00  0.00    -0.354 N 
ATOM     50  C   UNL A   1      46.555  26.917  27.355  1.00  0.00     0.074 A 
ATOM     51  C   UNL A   1      46.907  25.609  26.849  1.00  0.00     0.031 C 
ATOM     52  C   UNL A   1      40.323  26.300  28.801  1.00  0.00     0.029 A 
ATOM     53  C   UNL A   1      41.162  27.481  28.992  1.00  0.00     0.049 A 
ATOM     54  H   UNL A   1      43.181  27.684  28.513  1.00  0.00     0.167 HD
ATOM     55  C   UNL A   1      47.410  27.966  27.426  1.00  0.00     0.034 A 
ATOM     56  C   UNL A   1      40.746  28.650  29.521  1.00  0.00     0.034 A 
ATOM     57  C   UNL A   1      47.036  29.272  27.910  1.00  0.00     0.049 A 
ATOM     58  C   UNL A   1      41.727  29.789  29.630  1.00  0.00     0.074 A 
ATOM     59  C   UNL A   1      47.821  30.409  27.984  1.00  0.00     0.029 A 
ATOM     60  N   UNL A   1      45.784  29.621  28.396  1.00  0.00    -0.354 N 
ATOM     61  N   UNL A   1      42.980  29.836  29.241  1.00  0.00    -0.248 NA
ATOM     62  C   UNL A   1      41.245  31.033  30.245  1.00  0.00     0.031 C 
ATOM     63  C   UNL A   1      47.072  31.419  28.584  1.00  0.00     0.029 A 
ATOM     64  C   UNL A   1      45.789  30.946  28.804  1.00  0.00     0.049 A 
ATOM     65  H   UNL A   1      45.007  29.018  28.443  1.00  0.00     0.167 HD
ATOM     66  C   UNL A   1      43.428  31.119  29.543  1.00  0.00     0.074 A 
ATOM     67  C   UNL A   1      42.304  31.824  30.123  1.00  0.00     0.031 C 
ATOM     68  C   UNL A   1      44.661  31.656  29.364  1.00  0.00     0.034 A 
BRANCH  55  69
ATOM     69  C   UNL A   1      48.838  27.782  26.966  1.00  0.00     0.023 A 
ATOM     70  C   UNL A   1      49.195  28.104  25.641  1.00  0.00     0.031 A 
ATOM     71  C   UNL A   1      49.798  27.150  27.775  1.00  0.00     0.131 A 
ATOM     72  C   UNL A   1      50.459  27.751  25.153  1.00  0.00     0.055 A 
ATOM     73  C   UNL A   1      51.074  26.845  27.298  1.00  0.00     0.041 A 
ATOM     74  F   UNL A   1      49.508  26.818  29.044  1.00  0.00    -0.206 F 
ATOM     75  C   UNL A   1      51.404  27.131  25.977  1.00  0.00     0.022 A 
BRANCH  72  76
ATOM     76  S   UNL A   1      50.899  28.008  23.412  1.00  0.00     0.124 S 
ATOM     77  O   UNL A   1      51.496  29.342  23.448  1.00  0.00    -0.237 OA
ATOM     78  O   UNL A   1      51.833  26.913  23.169  1.00  0.00    -0.237 OA
ATOM     79  O   UNL A   1      49.624  27.918  22.711  1.00  0.00    -0.744 OA
ENDBRANCH  72  76
ENDBRANCH  55  69
BRANCH  56  80
ATOM     80  C   UNL A   1      39.321  28.786  29.946  1.00  0.00     0.023 A 
ATOM     81  C   UNL A   1      38.342  29.248  29.045  1.00  0.00     0.031 A 
ATOM     82  C   UNL A   1      38.941  28.576  31.281  1.00  0.00     0.131 A 
ATOM     83  C   UNL A   1      37.061  29.569  29.511  1.00  0.00     0.055 A 
ATOM     84  C   UNL A   1      37.638  28.817  31.723  1.00  0.00     0.041 A 
ATOM     85  F   UNL A   1      39.839  28.147  32.181  1.00  0.00    -0.206 F 
ATOM     86  C   UNL A   1      36.696  29.337  30.839  1.00  0.00     0.022 A 
BRANCH  83  87
ATOM     87  S   UNL A   1      35.878  30.439  28.445  1.00  0.00     0.124 S 
ATOM     88  O   UNL A   1      36.741  30.954  27.387  1.00  0.00    -0.237 OA
ATOM     89  O   UNL A   1      34.977  29.356  28.055  1.00  0.00    -0.237 OA
ATOM     90  O   UNL A   1      35.292  31.442  29.327  1.00  0.00    -0.744 OA
ENDBRANCH  83  87
ENDBRANCH  56  80
BRANCH  68  91
ATOM     91  C   UNL A   1      44.900  33.087  29.782  1.00  0.00     0.023 A 
ATOM     92  C   UNL A   1      44.643  34.135  28.875  1.00  0.00     0.031 A 
ATOM     93  C   UNL A   1      45.539  33.401  30.993  1.00  0.00     0.131 A 
ATOM     94  C   UNL A   1      45.072  35.434  29.170  1.00  0.00     0.055 A 
ATOM     95  C   UNL A   1      45.914  34.709  31.307  1.00  0.00     0.041 A 
ATOM     96  F   UNL A   1      45.818  32.438  31.887  1.00  0.00    -0.206 F 
ATOM     97  C   UNL A   1      45.698  35.729  30.385  1.00  0.00     0.022 A 
BRANCH  94  98
ATOM     98  S   UNL A   1      44.930  36.767  27.946  1.00  0.00     0.124 S 
ATOM     99  O   UNL A   1      43.877  36.260  27.068  1.00  0.00    -0.237 OA
ATOM    100  O   UNL A   1      44.553  37.907  28.776  1.00  0.00    -0.237 OA
ATOM    101  O   UNL A   1      46.258  36.838  27.345  1.00  0.00    -0.744 OA
ENDBRANCH  94  98
ENDBRANCH  68  91
ENDBRANCH  42  43
ENDBRANCH  34  37
ENDBRANCH  32  33
ENDBRANCH  31  32
ENDBRANCH  30  31
ENDBRANCH   1  30
TORSDOF 19
ENDMDL
MODEL 3
REMARK VINA RESULT:     -11.3      2.207      2.983
REMARK SMILES O=C(COc1ccc(Br)cc1/C=C1\C(=O)Nc2ccc(Br)cc21)NCCCCCCNC(=O)c1ccc(-c2c3nc(c(-c4cc(S(=O)(=O)[O-])ccc4F)c4ccc([nH]4)c(-c4cc(S(=O)(=O)[O-])ccc4F)c4nc(c(-c5cc(S(=O)(=O)[O-])ccc5F)c5ccc2[nH]5)C=C4)C=C3)cc1
REMARK SMILES IDX 27 1 26 2 25 3 24 4 1 5 2 6 3 8 4 9 5 10 6 11 11 12 7 13
REMARK SMILES IDX 10 14 8 15 9 16 12 17 13 18 14 19 23 20 15 21 16 22 17 23
REMARK SMILES IDX 22 24 18 26 20 27 19 28 21 29 28 30 29 31 30 32 31 33 32 34
REMARK SMILES IDX 33 36 34 37 35 38 96 39 36 40 95 41 37 42 38 43 39 44 89 45
REMARK SMILES IDX 40 46 94 47 88 48 90 49 41 50 93 51 87 52 86 53 42 55 74 56
REMARK SMILES IDX 54 57 73 58 55 59 58 60 72 61 91 62 56 63 57 64 71 66 92 67
REMARK SMILES IDX 59 68 43 69 44 70 52 71 45 72 51 73 53 74 50 75 46 76 47 77
REMARK SMILES IDX 48 78 49 79 75 80 76 81 84 82 77 83 83 84 85 85 82 86 78 87
REMARK SMILES IDX 79 88 80 89 81 90 60 91 61 92 69 93 62 94 68 95 70 96 67 97
REMARK SMILES IDX 63 98 64 99 65 100 66 101
REMARK H PARENT 24 7 16 25 31 35 90 54 58 65
REMARK Flexibility Score: inf
ROOT
ATOM      1  C   UNL A   1      33.280  30.080  26.550  1.00  0.00     0.002 C 
ENDROOT
BRANCH   1   2
ATOM      2  C   UNL A   1      33.377  28.792  27.375  1.00  0.00     0.021 C 
BRANCH   2   3
ATOM      3  C   UNL A   1      33.239  27.499  26.576  1.00  0.00     0.116 C 
BRANCH   3   4
ATOM      4  N   UNL A   1      33.499  27.644  25.147  1.00  0.00    -0.353 N 
ATOM      5  O   UNL A   1      34.232  25.493  24.810  1.00  0.00    -0.271 OA
ATOM      6  C   UNL A   1      33.843  26.565  24.351  1.00  0.00     0.257 C 
ATOM      7  H   UNL A   1      33.428  28.536  24.737  1.00  0.00     0.163 HD
BRANCH   6   8
ATOM      8  C   UNL A   1      33.667  26.780  22.821  1.00  0.00     0.329 C 
BRANCH   8   9
ATOM      9  O   UNL A   1      32.583  26.207  22.072  1.00  0.00    -0.483 OA
BRANCH   9  10
ATOM     10  C   UNL A   1      31.321  26.571  22.500  1.00  0.00     0.127 A 
ATOM     11  C   UNL A   1      30.837  27.846  22.139  1.00  0.00     0.048 A 
ATOM     12  C   UNL A   1      30.476  25.668  23.199  1.00  0.00     0.018 A 
ATOM     13  C   UNL A   1      29.601  28.323  22.554  1.00  0.00     0.019 A 
ATOM     14  C   UNL A   1      29.220  26.190  23.572  1.00  0.00     0.027 A 
ATOM     15  C   UNL A   1      28.801  27.492  23.293  1.00  0.00     0.018 A 
ATOM     16  Br  UNL A   1      27.121  28.094  23.911  1.00  0.00    -0.051 Br
BRANCH  12  17
ATOM     17  C   UNL A   1      30.863  24.253  23.575  1.00  0.00     0.026 C 
ATOM     18  C   UNL A   1      31.005  23.685  24.804  1.00  0.00     0.050 C 
ATOM     19  C   UNL A   1      30.894  24.386  26.133  1.00  0.00     0.256 C 
ATOM     20  C   UNL A   1      31.878  22.531  25.117  1.00  0.00     0.012 A 
ATOM     21  O   UNL A   1      29.916  24.864  26.668  1.00  0.00    -0.269 OA
ATOM     22  N   UNL A   1      32.108  24.135  26.745  1.00  0.00    -0.321 N 
ATOM     23  C   UNL A   1      32.668  22.987  26.191  1.00  0.00     0.049 A 
ATOM     24  C   UNL A   1      31.907  21.187  24.797  1.00  0.00     0.026 A 
ATOM     25  H   UNL A   1      32.511  24.680  27.458  1.00  0.00     0.170 HD
ATOM     26  C   UNL A   1      33.660  22.245  26.792  1.00  0.00     0.028 A 
ATOM     27  C   UNL A   1      32.826  20.376  25.491  1.00  0.00     0.018 A 
ATOM     28  C   UNL A   1      33.741  20.909  26.423  1.00  0.00     0.018 A 
ATOM     29  Br  UNL A   1      32.759  18.492  25.290  1.00  0.00    -0.051 Br
ENDBRANCH  12  17
ENDBRANCH   9  10
ENDBRANCH   8   9
ENDBRANCH   6   8
ENDBRANCH   3   4
ENDBRANCH   2   3
ENDBRANCH   1   2
BRANCH   1  30
ATOM     30  C   UNL A   1      31.862  30.583  26.259  1.00  0.00     0.002 C 
BRANCH  30  31
ATOM     31  C   UNL A   1      31.581  32.039  26.636  1.00  0.00     0.021 C 
BRANCH  31  32
ATOM     32  C   UNL A   1      32.704  32.751  27.382  1.00  0.00     0.116 C 
BRANCH  32  33
ATOM     33  N   UNL A   1      32.411  34.151  27.667  1.00  0.00    -0.352 N 
ATOM     34  C   UNL A   1      33.020  35.008  28.558  1.00  0.00     0.251 C 
ATOM     35  H   UNL A   1      31.670  34.540  27.149  1.00  0.00     0.163 HD
ATOM     36  O   UNL A   1      32.557  36.127  28.752  1.00  0.00    -0.269 OA
BRANCH  34  37
ATOM     37  C   UNL A   1      34.207  34.547  29.314  1.00  0.00     0.039 A 
ATOM     38  C   UNL A   1      35.467  34.539  28.714  1.00  0.00     0.014 A 
ATOM     39  C   UNL A   1      34.044  34.051  30.610  1.00  0.00     0.014 A 
ATOM     40  C   UNL A   1      36.510  33.849  29.321  1.00  0.00     0.010 A 
ATOM     41  C   UNL A   1      35.123  33.443  31.258  1.00  0.00     0.010 A 
ATOM     42  C   UNL A   1      36.348  33.276  30.592  1.00  0.00    -0.014 A 
BRANCH  42  43
ATOM     43  C   UNL A   1      37.459  32.488  31.193  1.00  0.00     0.031 A 
ATOM     44  C   UNL A   1      38.176  31.430  30.394  1.00  0.00     0.074 A 
ATOM     45  C   UNL A   1      37.860  32.766  32.450  1.00  0.00     0.049 A 
ATOM     46  N   UNL A   1      39.172  30.661  30.754  1.00  0.00    -0.248 NA
ATOM     47  C   UNL A   1      37.715  31.199  29.016  1.00  0.00     0.031 C 
ATOM     48  C   UNL A   1      37.252  33.779  33.313  1.00  0.00     0.029 A 
ATOM     49  N   UNL A   1      38.874  32.244  33.214  1.00  0.00    -0.354 N 
ATOM     50  C   UNL A   1      39.445  29.847  29.660  1.00  0.00     0.074 A 
ATOM     51  C   UNL A   1      38.485  30.188  28.634  1.00  0.00     0.031 C 
ATOM     52  C   UNL A   1      37.933  33.840  34.465  1.00  0.00     0.029 A 
ATOM     53  C   UNL A   1      38.975  32.816  34.461  1.00  0.00     0.049 A 
ATOM     54  H   UNL A   1      39.472  31.528  32.899  1.00  0.00     0.167 HD
ATOM     55  C   UNL A   1      40.418  28.915  29.519  1.00  0.00     0.034 A 
ATOM     56  C   UNL A   1      39.796  32.541  35.496  1.00  0.00     0.034 A 
ATOM     57  C   UNL A   1      41.384  28.605  30.544  1.00  0.00     0.049 A 
ATOM     58  C   UNL A   1      40.842  31.470  35.330  1.00  0.00     0.074 A 
ATOM     59  C   UNL A   1      42.432  27.703  30.481  1.00  0.00     0.029 A 
ATOM     60  N   UNL A   1      41.430  29.179  31.806  1.00  0.00    -0.354 N 
ATOM     61  N   UNL A   1      41.116  30.745  34.271  1.00  0.00    -0.248 NA
ATOM     62  C   UNL A   1      41.692  31.176  36.492  1.00  0.00     0.031 C 
ATOM     63  C   UNL A   1      43.060  27.675  31.725  1.00  0.00     0.029 A 
ATOM     64  C   UNL A   1      42.465  28.624  32.540  1.00  0.00     0.049 A 
ATOM     65  H   UNL A   1      40.818  29.878  32.132  1.00  0.00     0.167 HD
ATOM     66  C   UNL A   1      42.183  29.926  34.632  1.00  0.00     0.074 A 
ATOM     67  C   UNL A   1      42.521  30.265  35.998  1.00  0.00     0.031 C 
ATOM     68  C   UNL A   1      42.815  28.976  33.898  1.00  0.00     0.034 A 
BRANCH  55  69
ATOM     69  C   UNL A   1      40.522  28.153  28.218  1.00  0.00     0.023 A 
ATOM     70  C   UNL A   1      39.998  26.849  28.125  1.00  0.00     0.031 A 
ATOM     71  C   UNL A   1      41.268  28.646  27.132  1.00  0.00     0.131 A 
ATOM     72  C   UNL A   1      40.265  26.067  26.993  1.00  0.00     0.055 A 
ATOM     73  C   UNL A   1      41.490  27.880  25.987  1.00  0.00     0.041 A 
ATOM     74  F   UNL A   1      41.794  29.881  27.171  1.00  0.00    -0.206 F 
ATOM     75  C   UNL A   1      41.001  26.578  25.920  1.00  0.00     0.022 A 
BRANCH  72  76
ATOM     76  S   UNL A   1      39.741  24.333  26.905  1.00  0.00     0.124 S 
ATOM     77  O   UNL A   1      38.537  24.427  26.081  1.00  0.00    -0.237 OA
ATOM     78  O   UNL A   1      40.888  23.700  26.262  1.00  0.00    -0.237 OA
ATOM     79  O   UNL A   1      39.512  23.963  28.296  1.00  0.00    -0.744 OA
ENDBRANCH  72  76
ENDBRANCH  55  69
BRANCH  56  80
ATOM     80  C   UNL A   1      39.663  33.334  36.755  1.00  0.00     0.023 A 
ATOM     81  C   UNL A   1      39.019  32.792  37.883  1.00  0.00     0.031 A 
ATOM     82  C   UNL A   1      40.065  34.678  36.808  1.00  0.00     0.131 A 
ATOM     83  C   UNL A   1      38.717  33.612  38.977  1.00  0.00     0.055 A 
ATOM     84  C   UNL A   1      39.837  35.470  37.936  1.00  0.00     0.041 A 
ATOM     85  F   UNL A   1      40.672  35.245  35.756  1.00  0.00    -0.206 F 
ATOM     86  C   UNL A   1      39.140  34.943  39.019  1.00  0.00     0.022 A 
BRANCH  83  87
ATOM     87  S   UNL A   1      37.634  33.022  40.308  1.00  0.00     0.124 S 
ATOM     88  O   UNL A   1      38.322  31.812  40.748  1.00  0.00    -0.237 OA
ATOM     89  O   UNL A   1      37.672  34.146  41.241  1.00  0.00    -0.237 OA
ATOM     90  O   UNL A   1      36.352  32.813  39.643  1.00  0.00    -0.744 OA
ENDBRANCH  83  87
ENDBRANCH  56  80
BRANCH  68  91
ATOM     91  C   UNL A   1      43.958  28.212  34.524  1.00  0.00     0.023 A 
ATOM     92  C   UNL A   1      43.690  27.110  35.361  1.00  0.00     0.031 A 
ATOM     93  C   UNL A   1      45.282  28.673  34.439  1.00  0.00     0.131 A 
ATOM     94  C   UNL A   1      44.721  26.543  36.121  1.00  0.00     0.055 A 
ATOM     95  C   UNL A   1      46.317  28.067  35.154  1.00  0.00     0.041 A 
ATOM     96  F   UNL A   1      45.590  29.726  33.665  1.00  0.00    -0.206 F 
ATOM     97  C   UNL A   1      46.035  27.009  36.014  1.00  0.00     0.022 A 
BRANCH  94  98
ATOM     98  S   UNL A   1      44.377  25.253  37.350  1.00  0.00     0.124 S 
ATOM     99  O   UNL A   1      44.857  25.876  38.583  1.00  0.00    -0.237 OA
ATOM    100  O   UNL A   1      42.928  25.110  37.248  1.00  0.00    -0.237 OA
ATOM    101  O   UNL A   1      45.157  24.110  36.888  1.00  0.00    -0.744 OA
ENDBRANCH  94  98
ENDBRANCH  68  91
ENDBRANCH  42  43
ENDBRANCH  34  37
ENDBRANCH  32  33
ENDBRANCH  31  32
ENDBRANCH  30  31
ENDBRANCH   1  30
TORSDOF 19
ENDMDL
