MODEL 1
REMARK VINA RESULT:     -11.4      0.000      0.000
REMARK SMILES O=C(NCCCCCCNC(=O)[C@H]1C[C@@H]1C(=O)Nc1ccc(Cl)c(Br)c1)c1ccc(-c2c3nc(c(-c4cc(S(=O)(=O)[O-])ccc4F)c4ccc([nH]4)c(-c4cc(S(=O)(=O)[O-])ccc4F)c4nc(c(-c5cc(S(=O)(=O)[O-])ccc5F)c5ccc2[nH]5)C=C4)C=C3)cc1
REMARK SMILES IDX 6 1 5 2 4 3 3 4 1 5 2 6 27 8 28 9 89 10 29 11 88 12 30 13
REMARK SMILES IDX 31 14 32 15 82 16 33 17 87 18 81 19 83 20 34 21 86 22 80 23
REMARK SMILES IDX 79 24 35 26 67 27 47 28 66 29 48 30 51 31 65 32 84 33 49 34
REMARK SMILES IDX 50 35 64 37 85 38 52 39 36 40 37 41 45 42 38 43 44 44 46 45
REMARK SMILES IDX 43 46 39 47 40 48 41 49 42 50 68 51 69 52 77 53 70 54 76 55
REMARK SMILES IDX 78 56 75 57 71 58 72 59 73 60 74 61 53 62 54 63 62 64 55 65
REMARK SMILES IDX 61 66 63 67 60 68 56 69 57 70 58 71 59 72 7 73 8 74 9 75
REMARK SMILES IDX 10 76 11 77 12 79 13 80 14 81 15 82 16 83 17 84 18 85 19 87
REMARK SMILES IDX 20 88 26 89 21 90 24 91 22 92 25 93 23 94
REMARK H PARENT 3 7 83 25 51 36 10 78 18 86
REMARK Flexibility Score: inf
ROOT
ATOM      1  C   UNL A   1      34.670  21.117  25.802  1.00  0.00     0.002 C 
ENDROOT
BRANCH   1   2
ATOM      2  C   UNL A   1      35.659  21.931  24.963  1.00  0.00     0.021 C 
BRANCH   2   3
ATOM      3  C   UNL A   1      36.861  22.462  25.735  1.00  0.00     0.116 C 
BRANCH   3   4
ATOM      4  N   UNL A   1      37.876  21.441  25.918  1.00  0.00    -0.352 N 
ATOM      5  O   UNL A   1      39.962  20.631  26.130  1.00  0.00    -0.269 OA
ATOM      6  C   UNL A   1      39.200  21.586  26.245  1.00  0.00     0.251 C 
ATOM      7  H   UNL A   1      37.572  20.513  25.788  1.00  0.00     0.163 HD
BRANCH   6   8
ATOM      8  C   UNL A   1      39.706  22.885  26.739  1.00  0.00     0.039 A 
ATOM      9  C   UNL A   1      39.315  24.056  26.083  1.00  0.00     0.014 A 
ATOM     10  C   UNL A   1      40.613  22.946  27.803  1.00  0.00     0.014 A 
ATOM     11  C   UNL A   1      39.826  25.287  26.498  1.00  0.00     0.010 A 
ATOM     12  C   UNL A   1      41.067  24.180  28.258  1.00  0.00     0.010 A 
ATOM     13  C   UNL A   1      40.704  25.358  27.590  1.00  0.00    -0.014 A 
BRANCH  13  14
ATOM     14  C   UNL A   1      41.298  26.648  28.020  1.00  0.00     0.031 A 
ATOM     15  C   UNL A   1      40.439  27.677  28.700  1.00  0.00     0.074 A 
ATOM     16  C   UNL A   1      42.588  26.920  27.745  1.00  0.00     0.049 A 
ATOM     17  N   UNL A   1      40.748  28.888  29.081  1.00  0.00    -0.248 NA
ATOM     18  C   UNL A   1      39.039  27.304  28.963  1.00  0.00     0.031 C 
ATOM     19  C   UNL A   1      43.506  26.008  27.068  1.00  0.00     0.029 A 
ATOM     20  N   UNL A   1      43.342  28.041  27.987  1.00  0.00    -0.354 N 
ATOM     21  C   UNL A   1      39.579  29.430  29.604  1.00  0.00     0.074 A 
ATOM     22  C   UNL A   1      38.544  28.435  29.445  1.00  0.00     0.031 C 
ATOM     23  C   UNL A   1      44.705  26.598  26.961  1.00  0.00     0.029 A 
ATOM     24  C   UNL A   1      44.629  27.951  27.512  1.00  0.00     0.049 A 
ATOM     25  H   UNL A   1      42.996  28.834  28.457  1.00  0.00     0.167 HD
ATOM     26  C   UNL A   1      39.397  30.641  30.181  1.00  0.00     0.034 A 
ATOM     27  C   UNL A   1      45.631  28.856  27.502  1.00  0.00     0.034 A 
ATOM     28  C   UNL A   1      40.454  31.602  30.363  1.00  0.00     0.049 A 
ATOM     29  C   UNL A   1      45.408  30.203  28.139  1.00  0.00     0.074 A 
ATOM     30  C   UNL A   1      40.395  32.811  31.031  1.00  0.00     0.029 A 
ATOM     31  N   UNL A   1      41.746  31.477  29.874  1.00  0.00    -0.354 N 
ATOM     32  N   UNL A   1      44.329  30.664  28.728  1.00  0.00    -0.248 NA
ATOM     33  C   UNL A   1      46.529  31.153  28.119  1.00  0.00     0.031 C 
ATOM     34  C   UNL A   1      41.620  33.457  30.867  1.00  0.00     0.029 A 
ATOM     35  C   UNL A   1      42.478  32.613  30.176  1.00  0.00     0.049 A 
ATOM     36  H   UNL A   1      42.092  30.696  29.384  1.00  0.00     0.167 HD
ATOM     37  C   UNL A   1      44.642  31.950  29.158  1.00  0.00     0.074 A 
ATOM     38  C   UNL A   1      46.022  32.186  28.783  1.00  0.00     0.031 C 
ATOM     39  C   UNL A   1      43.855  32.850  29.801  1.00  0.00     0.034 A 
BRANCH  26  40
ATOM     40  C   UNL A   1      38.019  31.012  30.673  1.00  0.00     0.023 A 
ATOM     41  C   UNL A   1      37.130  31.683  29.812  1.00  0.00     0.031 A 
ATOM     42  C   UNL A   1      37.628  30.819  32.010  1.00  0.00     0.131 A 
ATOM     43  C   UNL A   1      35.909  32.162  30.304  1.00  0.00     0.055 A 
ATOM     44  C   UNL A   1      36.389  31.254  32.483  1.00  0.00     0.041 A 
ATOM     45  F   UNL A   1      38.442  30.194  32.876  1.00  0.00    -0.206 F 
ATOM     46  C   UNL A   1      35.529  31.942  31.632  1.00  0.00     0.022 A 
BRANCH  43  47
ATOM     47  S   UNL A   1      34.805  33.156  29.265  1.00  0.00     0.124 S 
ATOM     48  O   UNL A   1      33.978  33.827  30.266  1.00  0.00    -0.237 OA
ATOM     49  O   UNL A   1      35.747  34.018  28.556  1.00  0.00    -0.237 OA
ATOM     50  O   UNL A   1      34.111  32.171  28.444  1.00  0.00    -0.744 OA
ENDBRANCH  43  47
ENDBRANCH  26  40
BRANCH  27  51
ATOM     51  C   UNL A   1      46.940  28.455  26.907  1.00  0.00     0.023 A 
ATOM     52  C   UNL A   1      47.113  28.425  25.511  1.00  0.00     0.031 A 
ATOM     53  C   UNL A   1      47.961  27.929  27.713  1.00  0.00     0.131 A 
ATOM     54  C   UNL A   1      48.231  27.784  24.963  1.00  0.00     0.055 A 
ATOM     55  C   UNL A   1      49.113  27.362  27.164  1.00  0.00     0.041 A 
ATOM     56  F   UNL A   1      47.835  27.926  29.049  1.00  0.00    -0.206 F 
ATOM     57  C   UNL A   1      49.240  27.265  25.780  1.00  0.00     0.022 A 
BRANCH  54  58
ATOM     58  S   UNL A   1      48.329  27.454  23.181  1.00  0.00     0.124 S 
ATOM     59  O   UNL A   1      48.220  25.999  23.130  1.00  0.00    -0.237 OA
ATOM     60  O   UNL A   1      47.170  28.191  22.681  1.00  0.00    -0.237 OA
ATOM     61  O   UNL A   1      49.625  28.003  22.798  1.00  0.00    -0.744 OA
ENDBRANCH  54  58
ENDBRANCH  27  51
BRANCH  39  62
ATOM     62  C   UNL A   1      44.421  34.207  30.147  1.00  0.00     0.023 A 
ATOM     63  C   UNL A   1      44.354  35.257  29.209  1.00  0.00     0.031 A 
ATOM     64  C   UNL A   1      45.198  34.398  31.302  1.00  0.00     0.131 A 
ATOM     65  C   UNL A   1      45.108  36.420  29.409  1.00  0.00     0.055 A 
ATOM     66  C   UNL A   1      45.902  35.583  31.524  1.00  0.00     0.041 A 
ATOM     67  F   UNL A   1      45.302  33.425  32.222  1.00  0.00    -0.206 F 
ATOM     68  C   UNL A   1      45.875  36.592  30.565  1.00  0.00     0.022 A 
BRANCH  65  69
ATOM     69  S   UNL A   1      45.208  37.701  28.128  1.00  0.00     0.124 S 
ATOM     70  O   UNL A   1      46.524  38.283  28.382  1.00  0.00    -0.237 OA
ATOM     71  O   UNL A   1      45.100  36.917  26.901  1.00  0.00    -0.237 OA
ATOM     72  O   UNL A   1      44.077  38.577  28.416  1.00  0.00    -0.744 OA
ENDBRANCH  65  69
ENDBRANCH  39  62
ENDBRANCH  13  14
ENDBRANCH   6   8
ENDBRANCH   3   4
ENDBRANCH   2   3
ENDBRANCH   1   2
BRANCH   1  73
ATOM     73  C   UNL A   1      34.292  21.738  27.151  1.00  0.00     0.002 C 
BRANCH  73  74
ATOM     74  C   UNL A   1      33.309  22.912  27.081  1.00  0.00     0.021 C 
BRANCH  74  75
ATOM     75  C   UNL A   1      32.016  22.615  26.326  1.00  0.00     0.116 C 
BRANCH  75  76
ATOM     76  N   UNL A   1      31.228  23.814  26.155  1.00  0.00    -0.356 N 
ATOM     77  C   UNL A   1      31.352  24.790  25.217  1.00  0.00     0.223 C 
ATOM     78  H   UNL A   1      30.501  23.941  26.806  1.00  0.00     0.163 HD
ATOM     79  O   UNL A   1      30.703  25.826  25.331  1.00  0.00    -0.275 OA
BRANCH  77  80
ATOM     80  C   UNL A   1      32.274  24.602  24.073  1.00  0.00     0.091 C 
ATOM     81  C   UNL A   1      31.988  23.642  22.944  1.00  0.00     0.028 C 
ATOM     82  C   UNL A   1      31.811  25.117  22.718  1.00  0.00     0.092 C 
BRANCH  82  83
ATOM     83  C   UNL A   1      32.736  25.871  21.824  1.00  0.00     0.228 C 
ATOM     84  O   UNL A   1      33.278  25.318  20.873  1.00  0.00    -0.274 OA
ATOM     85  N   UNL A   1      32.851  27.234  22.002  1.00  0.00    -0.326 N 
ATOM     86  H   UNL A   1      33.223  27.742  21.246  1.00  0.00     0.169 HD
BRANCH  85  87
ATOM     87  C   UNL A   1      32.498  27.980  23.137  1.00  0.00     0.042 A 
ATOM     88  C   UNL A   1      31.288  28.666  23.208  1.00  0.00     0.028 A 
ATOM     89  C   UNL A   1      33.380  28.037  24.213  1.00  0.00     0.043 A 
ATOM     90  C   UNL A   1      31.008  29.512  24.280  1.00  0.00     0.024 A 
ATOM     91  C   UNL A   1      33.107  28.888  25.294  1.00  0.00     0.038 A 
ATOM     92  C   UNL A   1      31.928  29.646  25.318  1.00  0.00     0.055 A 
ATOM     93  Br  UNL A   1      34.409  28.991  26.675  1.00  0.00    -0.049 Br
ATOM     94  Cl  UNL A   1      31.550  30.759  26.582  1.00  0.00    -0.083 Cl
ENDBRANCH  85  87
ENDBRANCH  82  83
ENDBRANCH  77  80
ENDBRANCH  75  76
ENDBRANCH  74  75
ENDBRANCH  73  74
ENDBRANCH   1  73
TORSDOF 18
ENDMDL
MODEL 2
REMARK VINA RESULT:     -11.3      5.705     10.312
REMARK SMILES O=C(NCCCCCCNC(=O)[C@H]1C[C@@H]1C(=O)Nc1ccc(Cl)c(Br)c1)c1ccc(-c2c3nc(c(-c4cc(S(=O)(=O)[O-])ccc4F)c4ccc([nH]4)c(-c4cc(S(=O)(=O)[O-])ccc4F)c4nc(c(-c5cc(S(=O)(=O)[O-])ccc5F)c5ccc2[nH]5)C=C4)C=C3)cc1
REMARK SMILES IDX 6 1 5 2 4 3 3 4 1 5 2 6 27 8 28 9 89 10 29 11 88 12 30 13
REMARK SMILES IDX 31 14 32 15 82 16 33 17 87 18 81 19 83 20 34 21 86 22 80 23
REMARK SMILES IDX 79 24 35 26 67 27 47 28 66 29 48 30 51 31 65 32 84 33 49 34
REMARK SMILES IDX 50 35 64 37 85 38 52 39 36 40 37 41 45 42 38 43 44 44 46 45
REMARK SMILES IDX 43 46 39 47 40 48 41 49 42 50 68 51 69 52 77 53 70 54 76 55
REMARK SMILES IDX 78 56 75 57 71 58 72 59 73 60 74 61 53 62 54 63 62 64 55 65
REMARK SMILES IDX 61 66 63 67 60 68 56 69 57 70 58 71 59 72 7 73 8 74 9 75
REMARK SMILES IDX 10 76 11 77 12 79 13 80 14 81 15 82 16 83 17 84 18 85 19 87
REMARK SMILES IDX 20 88 26 89 21 90 24 91 22 92 25 93 23 94
REMARK H PARENT 3 7 83 25 51 36 10 78 18 86
REMARK Flexibility Score: inf
ROOT
ATOM      1  C   UNL A   1      31.444  30.793  25.986  1.00  0.00     0.002 C 
ENDROOT
BRANCH   1   2
ATOM      2  C   UNL A   1      31.371  32.200  26.584  1.00  0.00     0.021 C 
BRANCH   2   3
ATOM      3  C   UNL A   1      32.686  32.717  27.156  1.00  0.00     0.116 C 
BRANCH   3   4
ATOM      4  N   UNL A   1      32.550  34.064  27.681  1.00  0.00    -0.352 N 
ATOM      5  O   UNL A   1      32.777  35.713  29.191  1.00  0.00    -0.269 OA
ATOM      6  C   UNL A   1      33.184  34.642  28.750  1.00  0.00     0.251 C 
ATOM      7  H   UNL A   1      31.913  34.642  27.203  1.00  0.00     0.163 HD
BRANCH   6   8
ATOM      8  C   UNL A   1      34.356  33.984  29.366  1.00  0.00     0.039 A 
ATOM      9  C   UNL A   1      34.149  33.061  30.396  1.00  0.00     0.014 A 
ATOM     10  C   UNL A   1      35.658  34.319  28.977  1.00  0.00     0.014 A 
ATOM     11  C   UNL A   1      35.243  32.470  31.030  1.00  0.00     0.010 A 
ATOM     12  C   UNL A   1      36.745  33.677  29.563  1.00  0.00     0.010 A 
ATOM     13  C   UNL A   1      36.550  32.773  30.616  1.00  0.00    -0.014 A 
BRANCH  13  14
ATOM     14  C   UNL A   1      37.731  32.195  31.304  1.00  0.00     0.031 A 
ATOM     15  C   UNL A   1      38.495  31.071  30.661  1.00  0.00     0.074 A 
ATOM     16  C   UNL A   1      38.077  32.634  32.528  1.00  0.00     0.049 A 
ATOM     17  N   UNL A   1      39.503  30.385  31.132  1.00  0.00    -0.248 NA
ATOM     18  C   UNL A   1      38.052  30.648  29.323  1.00  0.00     0.031 C 
ATOM     19  C   UNL A   1      37.392  33.699  33.258  1.00  0.00     0.029 A 
ATOM     20  N   UNL A   1      39.078  32.233  33.379  1.00  0.00    -0.354 N 
ATOM     21  C   UNL A   1      39.797  29.433  30.162  1.00  0.00     0.074 A 
ATOM     22  C   UNL A   1      38.831  29.598  29.100  1.00  0.00     0.031 C 
ATOM     23  C   UNL A   1      38.000  33.878  34.439  1.00  0.00     0.029 A 
ATOM     24  C   UNL A   1      39.084  32.906  34.577  1.00  0.00     0.049 A 
ATOM     25  H   UNL A   1      39.730  31.530  33.152  1.00  0.00     0.167 HD
ATOM     26  C   UNL A   1      40.796  28.520  30.154  1.00  0.00     0.034 A 
ATOM     27  C   UNL A   1      39.859  32.751  35.672  1.00  0.00     0.034 A 
ATOM     28  C   UNL A   1      41.771  28.400  31.207  1.00  0.00     0.049 A 
ATOM     29  C   UNL A   1      40.960  31.722  35.651  1.00  0.00     0.074 A 
ATOM     30  C   UNL A   1      42.884  27.579  31.242  1.00  0.00     0.029 A 
ATOM     31  N   UNL A   1      41.750  29.099  32.404  1.00  0.00    -0.354 N 
ATOM     32  N   UNL A   1      41.297  30.901  34.684  1.00  0.00    -0.248 NA
ATOM     33  C   UNL A   1      41.789  31.595  36.857  1.00  0.00     0.031 C 
ATOM     34  C   UNL A   1      43.482  27.715  32.494  1.00  0.00     0.029 A 
ATOM     35  C   UNL A   1      42.799  28.688  33.210  1.00  0.00     0.049 A 
ATOM     36  H   UNL A   1      41.088  29.787  32.646  1.00  0.00     0.167 HD
ATOM     37  C   UNL A   1      42.382  30.170  35.157  1.00  0.00     0.074 A 
ATOM     38  C   UNL A   1      42.661  30.662  36.491  1.00  0.00     0.031 C 
ATOM     39  C   UNL A   1      43.078  29.180  34.542  1.00  0.00     0.034 A 
BRANCH  26  40
ATOM     40  C   UNL A   1      40.911  27.578  28.980  1.00  0.00     0.023 A 
ATOM     41  C   UNL A   1      41.895  27.805  27.999  1.00  0.00     0.031 A 
ATOM     42  C   UNL A   1      39.986  26.541  28.763  1.00  0.00     0.131 A 
ATOM     43  C   UNL A   1      41.914  27.026  26.835  1.00  0.00     0.055 A 
ATOM     44  C   UNL A   1      40.040  25.734  27.625  1.00  0.00     0.041 A 
ATOM     45  F   UNL A   1      39.021  26.287  29.662  1.00  0.00    -0.206 F 
ATOM     46  C   UNL A   1      40.998  25.985  26.648  1.00  0.00     0.022 A 
BRANCH  43  47
ATOM     47  S   UNL A   1      43.071  27.383  25.487  1.00  0.00     0.124 S 
ATOM     48  O   UNL A   1      44.177  28.016  26.202  1.00  0.00    -0.237 OA
ATOM     49  O   UNL A   1      43.350  26.049  24.962  1.00  0.00    -0.237 OA
ATOM     50  O   UNL A   1      42.319  28.264  24.601  1.00  0.00    -0.744 OA
ENDBRANCH  43  47
ENDBRANCH  26  40
BRANCH  27  51
ATOM     51  C   UNL A   1      39.623  33.651  36.838  1.00  0.00     0.023 A 
ATOM     52  C   UNL A   1      40.460  34.760  37.068  1.00  0.00     0.031 A 
ATOM     53  C   UNL A   1      38.685  33.313  37.826  1.00  0.00     0.131 A 
ATOM     54  C   UNL A   1      40.413  35.423  38.300  1.00  0.00     0.055 A 
ATOM     55  C   UNL A   1      38.587  34.028  39.021  1.00  0.00     0.041 A 
ATOM     56  F   UNL A   1      37.874  32.258  37.655  1.00  0.00    -0.206 F 
ATOM     57  C   UNL A   1      39.471  35.073  39.274  1.00  0.00     0.022 A 
BRANCH  54  58
ATOM     58  S   UNL A   1      41.680  36.643  38.745  1.00  0.00     0.124 S 
ATOM     59  O   UNL A   1      42.338  36.005  39.881  1.00  0.00    -0.237 OA
ATOM     60  O   UNL A   1      42.468  36.711  37.517  1.00  0.00    -0.237 OA
ATOM     61  O   UNL A   1      40.910  37.843  39.056  1.00  0.00    -0.744 OA
ENDBRANCH  54  58
ENDBRANCH  27  51
BRANCH  39  62
ATOM     62  C   UNL A   1      44.215  28.512  35.280  1.00  0.00     0.023 A 
ATOM     63  C   UNL A   1      43.950  27.452  36.169  1.00  0.00     0.031 A 
ATOM     64  C   UNL A   1      45.511  29.053  35.259  1.00  0.00     0.131 A 
ATOM     65  C   UNL A   1      44.947  27.017  37.052  1.00  0.00     0.055 A 
ATOM     66  C   UNL A   1      46.518  28.576  36.100  1.00  0.00     0.041 A 
ATOM     67  F   UNL A   1      45.813  30.069  34.435  1.00  0.00    -0.206 F 
ATOM     68  C   UNL A   1      46.231  27.566  37.016  1.00  0.00     0.022 A 
BRANCH  65  69
ATOM     69  S   UNL A   1      44.582  25.801  38.348  1.00  0.00     0.124 S 
ATOM     70  O   UNL A   1      43.819  24.794  37.615  1.00  0.00    -0.237 OA
ATOM     71  O   UNL A   1      45.919  25.387  38.766  1.00  0.00    -0.237 OA
ATOM     72  O   UNL A   1      43.821  26.557  39.336  1.00  0.00    -0.744 OA
ENDBRANCH  65  69
ENDBRANCH  39  62
ENDBRANCH  13  14
ENDBRANCH   6   8
ENDBRANCH   3   4
ENDBRANCH   2   3
ENDBRANCH   1   2
BRANCH   1  73
ATOM     73  C   UNL A   1      32.254  29.778  26.800  1.00  0.00     0.002 C 
BRANCH  73  74
ATOM     74  C   UNL A   1      33.576  29.330  26.164  1.00  0.00     0.021 C 
BRANCH  74  75
ATOM     75  C   UNL A   1      33.635  27.850  25.795  1.00  0.00     0.116 C 
BRANCH  75  76
ATOM     76  N   UNL A   1      34.002  27.676  24.408  1.00  0.00    -0.356 N 
ATOM     77  C   UNL A   1      33.197  27.478  23.331  1.00  0.00     0.223 C 
ATOM     78  H   UNL A   1      34.967  27.706  24.217  1.00  0.00     0.163 HD
ATOM     79  O   UNL A   1      33.695  27.176  22.250  1.00  0.00    -0.275 OA
BRANCH  77  80
ATOM     80  C   UNL A   1      31.728  27.619  23.470  1.00  0.00     0.091 C 
ATOM     81  C   UNL A   1      30.782  27.492  22.301  1.00  0.00     0.028 C 
ATOM     82  C   UNL A   1      30.892  26.362  23.286  1.00  0.00     0.092 C 
BRANCH  82  83
ATOM     83  C   UNL A   1      29.768  26.043  24.213  1.00  0.00     0.228 C 
ATOM     84  O   UNL A   1      28.728  26.693  24.185  1.00  0.00    -0.274 OA
ATOM     85  N   UNL A   1      29.868  24.912  24.997  1.00  0.00    -0.326 N 
ATOM     86  H   UNL A   1      29.026  24.566  25.371  1.00  0.00     0.169 HD
BRANCH  85  87
ATOM     87  C   UNL A   1      31.031  24.197  25.321  1.00  0.00     0.042 A 
ATOM     88  C   UNL A   1      31.986  24.719  26.191  1.00  0.00     0.028 A 
ATOM     89  C   UNL A   1      31.234  22.940  24.758  1.00  0.00     0.043 A 
ATOM     90  C   UNL A   1      33.198  24.061  26.398  1.00  0.00     0.024 A 
ATOM     91  C   UNL A   1      32.452  22.274  24.960  1.00  0.00     0.038 A 
ATOM     92  C   UNL A   1      33.447  22.846  25.764  1.00  0.00     0.055 A 
ATOM     93  Br  UNL A   1      32.695  20.611  24.072  1.00  0.00    -0.049 Br
ATOM     94  Cl  UNL A   1      34.992  22.117  26.013  1.00  0.00    -0.083 Cl
ENDBRANCH  85  87
ENDBRANCH  82  83
ENDBRANCH  77  80
ENDBRANCH  75  76
ENDBRANCH  74  75
ENDBRANCH  73  74
ENDBRANCH   1  73
TORSDOF 18
ENDMDL
MODEL 3
REMARK VINA RESULT:     -11.1      5.858      8.702
REMARK SMILES O=C(NCCCCCCNC(=O)[C@H]1C[C@@H]1C(=O)Nc1ccc(Cl)c(Br)c1)c1ccc(-c2c3nc(c(-c4cc(S(=O)(=O)[O-])ccc4F)c4ccc([nH]4)c(-c4cc(S(=O)(=O)[O-])ccc4F)c4nc(c(-c5cc(S(=O)(=O)[O-])ccc5F)c5ccc2[nH]5)C=C4)C=C3)cc1
REMARK SMILES IDX 6 1 5 2 4 3 3 4 1 5 2 6 27 8 28 9 89 10 29 11 88 12 30 13
REMARK SMILES IDX 31 14 32 15 82 16 33 17 87 18 81 19 83 20 34 21 86 22 80 23
REMARK SMILES IDX 79 24 35 26 67 27 47 28 66 29 48 30 51 31 65 32 84 33 49 34
REMARK SMILES IDX 50 35 64 37 85 38 52 39 36 40 37 41 45 42 38 43 44 44 46 45
REMARK SMILES IDX 43 46 39 47 40 48 41 49 42 50 68 51 69 52 77 53 70 54 76 55
REMARK SMILES IDX 78 56 75 57 71 58 72 59 73 60 74 61 53 62 54 63 62 64 55 65
REMARK SMILES IDX 61 66 63 67 60 68 56 69 57 70 58 71 59 72 7 73 8 74 9 75
REMARK SMILES IDX 10 76 11 77 12 79 13 80 14 81 15 82 16 83 17 84 18 85 19 87
REMARK SMILES IDX 20 88 26 89 21 90 24 91 22 92 25 93 23 94
REMARK H PARENT 3 7 83 25 51 36 10 78 18 86
REMARK Flexibility Score: inf
ROOT
ATOM      1  C   UNL A   1      31.709  30.837  26.440  1.00  0.00     0.002 C 
ENDROOT
BRANCH   1   2
ATOM      2  C   UNL A   1      31.614  32.304  26.870  1.00  0.00     0.021 C 
BRANCH   2   3
ATOM      3  C   UNL A   1      32.930  32.919  27.328  1.00  0.00     0.116 C 
BRANCH   3   4
ATOM      4  N   UNL A   1      32.749  34.274  27.816  1.00  0.00    -0.352 N 
ATOM      5  O   UNL A   1      32.843  35.951  29.310  1.00  0.00    -0.269 OA
ATOM      6  C   UNL A   1      33.288  34.873  28.925  1.00  0.00     0.251 C 
ATOM      7  H   UNL A   1      32.154  34.843  27.274  1.00  0.00     0.163 HD
BRANCH   6   8
ATOM      8  C   UNL A   1      34.403  34.229  29.652  1.00  0.00     0.039 A 
ATOM      9  C   UNL A   1      35.715  34.494  29.249  1.00  0.00     0.014 A 
ATOM     10  C   UNL A   1      34.158  33.316  30.684  1.00  0.00     0.014 A 
ATOM     11  C   UNL A   1      36.780  33.853  29.884  1.00  0.00     0.010 A 
ATOM     12  C   UNL A   1      35.223  32.731  31.361  1.00  0.00     0.010 A 
ATOM     13  C   UNL A   1      36.541  32.968  30.947  1.00  0.00    -0.014 A 
BRANCH  13  14
ATOM     14  C   UNL A   1      37.652  32.237  31.607  1.00  0.00     0.031 A 
ATOM     15  C   UNL A   1      38.156  32.697  32.947  1.00  0.00     0.074 A 
ATOM     16  C   UNL A   1      38.245  31.206  30.979  1.00  0.00     0.049 A 
ATOM     17  N   UNL A   1      39.160  32.243  33.649  1.00  0.00    -0.248 NA
ATOM     18  C   UNL A   1      37.455  33.833  33.567  1.00  0.00     0.031 C 
ATOM     19  C   UNL A   1      37.856  30.692  29.668  1.00  0.00     0.029 A 
ATOM     20  N   UNL A   1      39.305  30.416  31.350  1.00  0.00    -0.354 N 
ATOM     21  C   UNL A   1      39.228  33.052  34.778  1.00  0.00     0.074 A 
ATOM     22  C   UNL A   1      38.196  34.054  34.643  1.00  0.00     0.031 C 
ATOM     23  C   UNL A   1      38.655  29.664  29.349  1.00  0.00     0.029 A 
ATOM     24  C   UNL A   1      39.650  29.478  30.406  1.00  0.00     0.049 A 
ATOM     25  H   UNL A   1      39.775  30.512  32.210  1.00  0.00     0.167 HD
ATOM     26  C   UNL A   1      40.063  32.950  35.838  1.00  0.00     0.034 A 
ATOM     27  C   UNL A   1      40.659  28.582  30.379  1.00  0.00     0.034 A 
ATOM     28  C   UNL A   1      41.060  31.918  35.969  1.00  0.00     0.049 A 
ATOM     29  C   UNL A   1      41.587  28.489  31.563  1.00  0.00     0.074 A 
ATOM     30  C   UNL A   1      41.882  31.665  37.051  1.00  0.00     0.029 A 
ATOM     31  N   UNL A   1      41.378  30.982  34.996  1.00  0.00    -0.354 N 
ATOM     32  N   UNL A   1      41.573  29.188  32.674  1.00  0.00    -0.248 NA
ATOM     33  C   UNL A   1      42.663  27.491  31.500  1.00  0.00     0.031 C 
ATOM     34  C   UNL A   1      42.758  30.640  36.699  1.00  0.00     0.029 A 
ATOM     35  C   UNL A   1      42.425  30.186  35.431  1.00  0.00     0.049 A 
ATOM     36  H   UNL A   1      40.928  30.896  34.125  1.00  0.00     0.167 HD
ATOM     37  C   UNL A   1      42.626  28.709  33.446  1.00  0.00     0.074 A 
ATOM     38  C   UNL A   1      43.244  27.641  32.686  1.00  0.00     0.031 C 
ATOM     39  C   UNL A   1      43.042  29.121  34.672  1.00  0.00     0.034 A 
BRANCH  26  40
ATOM     40  C   UNL A   1      39.950  33.961  36.954  1.00  0.00     0.023 A 
ATOM     41  C   UNL A   1      39.341  33.591  38.168  1.00  0.00     0.031 A 
ATOM     42  C   UNL A   1      40.325  35.305  36.782  1.00  0.00     0.131 A 
ATOM     43  C   UNL A   1      39.099  34.559  39.151  1.00  0.00     0.055 A 
ATOM     44  C   UNL A   1      40.128  36.256  37.784  1.00  0.00     0.041 A 
ATOM     45  F   UNL A   1      40.901  35.713  35.640  1.00  0.00    -0.206 F 
ATOM     46  C   UNL A   1      39.498  35.888  38.969  1.00  0.00     0.022 A 
BRANCH  43  47
ATOM     47  S   UNL A   1      38.186  34.153  40.663  1.00  0.00     0.124 S 
ATOM     48  O   UNL A   1      37.698  35.466  41.079  1.00  0.00    -0.237 OA
ATOM     49  O   UNL A   1      37.164  33.236  40.166  1.00  0.00    -0.237 OA
ATOM     50  O   UNL A   1      39.194  33.560  41.535  1.00  0.00    -0.744 OA
ENDBRANCH  43  47
ENDBRANCH  26  40
BRANCH  27  51
ATOM     51  C   UNL A   1      40.773  27.680  29.197  1.00  0.00     0.023 A 
ATOM     52  C   UNL A   1      41.723  27.934  28.190  1.00  0.00     0.031 A 
ATOM     53  C   UNL A   1      39.823  26.671  28.972  1.00  0.00     0.131 A 
ATOM     54  C   UNL A   1      41.634  27.263  26.964  1.00  0.00     0.055 A 
ATOM     55  C   UNL A   1      39.788  25.948  27.778  1.00  0.00     0.041 A 
ATOM     56  F   UNL A   1      38.892  26.400  29.899  1.00  0.00    -0.206 F 
ATOM     57  C   UNL A   1      40.682  26.260  26.757  1.00  0.00     0.022 A 
BRANCH  54  58
ATOM     58  S   UNL A   1      42.639  27.786  25.546  1.00  0.00     0.124 S 
ATOM     59  O   UNL A   1      41.887  28.931  25.042  1.00  0.00    -0.237 OA
ATOM     60  O   UNL A   1      43.913  28.102  26.188  1.00  0.00    -0.237 OA
ATOM     61  O   UNL A   1      42.654  26.612  24.681  1.00  0.00    -0.744 OA
ENDBRANCH  54  58
ENDBRANCH  27  51
BRANCH  39  62
ATOM     62  C   UNL A   1      44.241  28.452  35.304  1.00  0.00     0.023 A 
ATOM     63  C   UNL A   1      44.056  27.449  36.276  1.00  0.00     0.031 A 
ATOM     64  C   UNL A   1      45.540  28.946  35.098  1.00  0.00     0.131 A 
ATOM     65  C   UNL A   1      45.140  27.025  37.055  1.00  0.00     0.055 A 
ATOM     66  C   UNL A   1      46.628  28.478  35.838  1.00  0.00     0.041 A 
ATOM     67  F   UNL A   1      45.768  29.908  34.189  1.00  0.00    -0.206 F 
ATOM     68  C   UNL A   1      46.426  27.527  36.836  1.00  0.00     0.022 A 
BRANCH  65  69
ATOM     69  S   UNL A   1      44.901  25.891  38.451  1.00  0.00     0.124 S 
ATOM     70  O   UNL A   1      43.942  26.622  39.276  1.00  0.00    -0.237 OA
ATOM     71  O   UNL A   1      44.374  24.699  37.791  1.00  0.00    -0.237 OA
ATOM     72  O   UNL A   1      46.234  25.752  39.026  1.00  0.00    -0.744 OA
ENDBRANCH  65  69
ENDBRANCH  39  62
ENDBRANCH  13  14
ENDBRANCH   6   8
ENDBRANCH   3   4
ENDBRANCH   2   3
ENDBRANCH   1   2
BRANCH   1  73
ATOM     73  C   UNL A   1      32.911  30.070  27.000  1.00  0.00     0.002 C 
BRANCH  73  74
ATOM     74  C   UNL A   1      32.673  28.579  27.268  1.00  0.00     0.021 C 
BRANCH  74  75
ATOM     75  C   UNL A   1      33.351  27.638  26.276  1.00  0.00     0.116 C 
BRANCH  75  76
ATOM     76  N   UNL A   1      33.559  28.289  25.002  1.00  0.00    -0.356 N 
ATOM     77  C   UNL A   1      32.675  28.482  23.988  1.00  0.00     0.223 C 
ATOM     78  H   UNL A   1      34.465  28.643  24.849  1.00  0.00     0.163 HD
ATOM     79  O   UNL A   1      33.076  28.902  22.907  1.00  0.00    -0.275 OA
BRANCH  77  80
ATOM     80  C   UNL A   1      31.239  28.176  24.191  1.00  0.00     0.091 C 
ATOM     81  C   UNL A   1      30.176  28.542  23.185  1.00  0.00     0.028 C 
ATOM     82  C   UNL A   1      30.625  27.112  23.293  1.00  0.00     0.092 C 
BRANCH  82  83
ATOM     83  C   UNL A   1      29.719  26.066  23.848  1.00  0.00     0.228 C 
ATOM     84  O   UNL A   1      28.542  26.318  24.085  1.00  0.00    -0.274 OA
ATOM     85  N   UNL A   1      30.195  24.775  23.950  1.00  0.00    -0.326 N 
ATOM     86  H   UNL A   1      29.517  24.067  24.036  1.00  0.00     0.169 HD
BRANCH  85  87
ATOM     87  C   UNL A   1      31.533  24.355  23.941  1.00  0.00     0.042 A 
ATOM     88  C   UNL A   1      32.251  24.240  22.753  1.00  0.00     0.028 A 
ATOM     89  C   UNL A   1      32.155  24.046  25.148  1.00  0.00     0.043 A 
ATOM     90  C   UNL A   1      33.534  23.692  22.744  1.00  0.00     0.024 A 
ATOM     91  C   UNL A   1      33.444  23.493  25.147  1.00  0.00     0.038 A 
ATOM     92  C   UNL A   1      34.128  23.294  23.939  1.00  0.00     0.055 A 
ATOM     93  Br  UNL A   1      34.183  22.999  26.826  1.00  0.00    -0.049 Br
ATOM     94  Cl  UNL A   1      35.690  22.565  23.851  1.00  0.00    -0.083 Cl
ENDBRANCH  85  87
ENDBRANCH  82  83
ENDBRANCH  77  80
ENDBRANCH  75  76
ENDBRANCH  74  75
ENDBRANCH  73  74
ENDBRANCH   1  73
TORSDOF 18
ENDMDL
