MODEL 1
REMARK VINA RESULT:     -10.6      0.000      0.000
REMARK SMILES C=Cc1cncc(-c2ccc([C@@H](C)C(=O)NCCCCCCNC(=O)c3ccc(-c4c5nc(c(-c6cc(S(=O)(=O)[O-])ccc6F)c6ccc([nH]6)c(-c6cc(S(=O)(=O)[O-])ccc6F)c6nc(c(-c7cc(S(=O)(=O)[O-])ccc7F)c7ccc4[nH]7)C=C6)C=C5)cc3)cc2)c1
REMARK SMILES IDX 19 1 18 2 17 3 16 4 14 5 15 6 12 8 13 9 11 10 8 11 9 12
REMARK SMILES IDX 90 13 10 14 89 15 7 16 3 17 4 18 91 19 5 20 6 21 2 22 1 23
REMARK SMILES IDX 20 24 21 25 22 26 23 27 24 28 25 30 26 31 27 32 88 33 28 34
REMARK SMILES IDX 87 35 29 36 30 37 31 38 81 39 32 40 86 41 80 42 82 43 33 44
REMARK SMILES IDX 85 45 79 46 78 47 34 49 66 50 46 51 65 52 47 53 50 54 64 55
REMARK SMILES IDX 83 56 48 57 49 58 63 60 84 61 51 62 35 63 36 64 44 65 37 66
REMARK SMILES IDX 43 67 45 68 42 69 38 70 39 71 40 72 41 73 67 74 68 75 76 76
REMARK SMILES IDX 69 77 75 78 77 79 74 80 70 81 71 82 72 83 73 84 52 85 53 86
REMARK SMILES IDX 61 87 54 88 60 89 62 90 59 91 55 92 56 93 57 94 58 95
REMARK H PARENT 16 7 23 29 82 48 50 59
REMARK Flexibility Score: inf
ROOT
ATOM      1  C   UNL A   1      33.500  28.054  22.445  1.00  0.00     0.002 C 
ENDROOT
BRANCH   1   2
ATOM      2  C   UNL A   1      33.561  26.526  22.344  1.00  0.00     0.021 C 
BRANCH   2   3
ATOM      3  C   UNL A   1      32.324  25.897  21.699  1.00  0.00     0.116 C 
BRANCH   3   4
ATOM      4  N   UNL A   1      31.516  25.185  22.669  1.00  0.00    -0.356 N 
ATOM      5  C   UNL A   1      31.528  23.884  23.071  1.00  0.00     0.227 C 
ATOM      6  O   UNL A   1      30.644  23.544  23.867  1.00  0.00    -0.274 OA
ATOM      7  H   UNL A   1      30.838  25.740  23.117  1.00  0.00     0.163 HD
BRANCH   5   8
ATOM      8  C   UNL A   1      32.573  22.859  22.604  1.00  0.00     0.105 C 
ATOM      9  C   UNL A   1      32.015  21.450  22.401  1.00  0.00     0.023 C 
BRANCH   8  10
ATOM     10  C   UNL A   1      33.896  22.958  23.348  1.00  0.00    -0.036 A 
ATOM     11  C   UNL A   1      36.341  23.015  24.834  1.00  0.00    -0.017 A 
ATOM     12  C   UNL A   1      36.330  22.989  23.430  1.00  0.00     0.009 A 
ATOM     13  C   UNL A   1      35.094  23.042  25.477  1.00  0.00     0.009 A 
ATOM     14  C   UNL A   1      35.134  22.990  22.702  1.00  0.00     0.005 A 
ATOM     15  C   UNL A   1      33.895  22.995  24.750  1.00  0.00     0.005 A 
BRANCH  11  16
ATOM     16  C   UNL A   1      37.612  23.010  25.587  1.00  0.00     0.001 A 
ATOM     17  C   UNL A   1      39.334  24.128  26.915  1.00  0.00    -0.007 A 
ATOM     18  C   UNL A   1      39.972  22.896  27.018  1.00  0.00     0.119 A 
ATOM     19  C   UNL A   1      38.142  24.170  26.179  1.00  0.00     0.020 A 
ATOM     20  N   UNL A   1      39.516  21.753  26.465  1.00  0.00    -0.263 NA
ATOM     21  C   UNL A   1      38.356  21.841  25.770  1.00  0.00     0.119 A 
BRANCH  17  22
ATOM     22  C   UNL A   1      39.946  25.318  27.514  1.00  0.00     0.002 C 
ATOM     23  C   UNL A   1      40.048  25.531  28.832  1.00  0.00     0.009 C 
ENDBRANCH  17  22
ENDBRANCH  11  16
ENDBRANCH   8  10
ENDBRANCH   5   8
ENDBRANCH   3   4
ENDBRANCH   2   3
ENDBRANCH   1   2
BRANCH   1  24
ATOM     24  C   UNL A   1      32.558  28.601  23.526  1.00  0.00     0.002 C 
BRANCH  24  25
ATOM     25  C   UNL A   1      32.831  28.117  24.955  1.00  0.00     0.021 C 
BRANCH  25  26
ATOM     26  C   UNL A   1      33.827  28.964  25.747  1.00  0.00     0.116 C 
BRANCH  26  27
ATOM     27  N   UNL A   1      33.256  30.241  26.142  1.00  0.00    -0.352 N 
ATOM     28  C   UNL A   1      33.630  31.106  27.141  1.00  0.00     0.251 C 
ATOM     29  H   UNL A   1      32.480  30.531  25.611  1.00  0.00     0.163 HD
ATOM     30  O   UNL A   1      32.868  32.012  27.464  1.00  0.00    -0.269 OA
BRANCH  28  31
ATOM     31  C   UNL A   1      34.930  30.947  27.833  1.00  0.00     0.039 A 
ATOM     32  C   UNL A   1      35.798  32.042  27.893  1.00  0.00     0.014 A 
ATOM     33  C   UNL A   1      35.320  29.720  28.378  1.00  0.00     0.014 A 
ATOM     34  C   UNL A   1      37.029  31.921  28.543  1.00  0.00     0.010 A 
ATOM     35  C   UNL A   1      36.521  29.617  29.081  1.00  0.00     0.010 A 
ATOM     36  C   UNL A   1      37.389  30.717  29.169  1.00  0.00    -0.014 A 
BRANCH  36  37
ATOM     37  C   UNL A   1      38.667  30.601  29.922  1.00  0.00     0.031 A 
ATOM     38  C   UNL A   1      39.840  29.871  29.328  1.00  0.00     0.074 A 
ATOM     39  C   UNL A   1      38.749  31.117  31.164  1.00  0.00     0.049 A 
ATOM     40  N   UNL A   1      41.020  29.640  29.846  1.00  0.00    -0.248 NA
ATOM     41  C   UNL A   1      39.654  29.305  27.984  1.00  0.00     0.031 C 
ATOM     42  C   UNL A   1      37.663  31.807  31.865  1.00  0.00     0.029 A 
ATOM     43  N   UNL A   1      39.787  31.137  32.062  1.00  0.00    -0.354 N 
ATOM     44  C   UNL A   1      41.714  28.895  28.898  1.00  0.00     0.074 A 
ATOM     45  C   UNL A   1      40.799  28.666  27.799  1.00  0.00     0.031 C 
ATOM     46  C   UNL A   1      38.100  32.203  33.070  1.00  0.00     0.029 A 
ATOM     47  C   UNL A   1      39.479  31.763  33.248  1.00  0.00     0.049 A 
ATOM     48  H   UNL A   1      40.668  30.741  31.875  1.00  0.00     0.167 HD
ATOM     49  C   UNL A   1      42.999  28.461  28.933  1.00  0.00     0.034 A 
ATOM     50  C   UNL A   1      40.222  31.955  34.357  1.00  0.00     0.034 A 
ATOM     51  C   UNL A   1      43.900  28.705  30.035  1.00  0.00     0.049 A 
ATOM     52  C   UNL A   1      41.642  31.453  34.377  1.00  0.00     0.074 A 
ATOM     53  C   UNL A   1      45.237  28.364  30.148  1.00  0.00     0.029 A 
ATOM     54  N   UNL A   1      43.554  29.342  31.220  1.00  0.00    -0.354 N 
ATOM     55  N   UNL A   1      42.302  30.802  33.447  1.00  0.00    -0.248 NA
ATOM     56  C   UNL A   1      42.421  31.724  35.591  1.00  0.00     0.031 C 
ATOM     57  C   UNL A   1      45.680  28.735  31.423  1.00  0.00     0.029 A 
ATOM     58  C   UNL A   1      44.642  29.374  32.081  1.00  0.00     0.049 A 
ATOM     59  H   UNL A   1      42.665  29.716  31.420  1.00  0.00     0.167 HD
ATOM     60  C   UNL A   1      43.583  30.609  33.957  1.00  0.00     0.074 A 
ATOM     61  C   UNL A   1      43.606  31.230  35.265  1.00  0.00     0.031 C 
ATOM     62  C   UNL A   1      44.645  29.978  33.394  1.00  0.00     0.034 A 
BRANCH  49  63
ATOM     63  C   UNL A   1      43.493  27.656  27.753  1.00  0.00     0.023 A 
ATOM     64  C   UNL A   1      43.536  26.250  27.783  1.00  0.00     0.031 A 
ATOM     65  C   UNL A   1      43.950  28.301  26.589  1.00  0.00     0.131 A 
ATOM     66  C   UNL A   1      44.091  25.542  26.707  1.00  0.00     0.055 A 
ATOM     67  C   UNL A   1      44.428  27.585  25.490  1.00  0.00     0.041 A 
ATOM     68  F   UNL A   1      43.952  29.641  26.507  1.00  0.00    -0.206 F 
ATOM     69  C   UNL A   1      44.516  26.198  25.550  1.00  0.00     0.022 A 
BRANCH  66  70
ATOM     70  S   UNL A   1      44.382  23.761  26.899  1.00  0.00     0.124 S 
ATOM     71  O   UNL A   1      44.005  23.257  25.581  1.00  0.00    -0.237 OA
ATOM     72  O   UNL A   1      45.803  23.707  27.223  1.00  0.00    -0.237 OA
ATOM     73  O   UNL A   1      43.479  23.381  27.984  1.00  0.00    -0.744 OA
ENDBRANCH  66  70
ENDBRANCH  49  63
BRANCH  50  74
ATOM     74  C   UNL A   1      39.640  32.647  35.542  1.00  0.00     0.023 A 
ATOM     75  C   UNL A   1      38.901  31.939  36.502  1.00  0.00     0.031 A 
ATOM     76  C   UNL A   1      39.786  34.035  35.713  1.00  0.00     0.131 A 
ATOM     77  C   UNL A   1      38.299  32.625  37.568  1.00  0.00     0.055 A 
ATOM     78  C   UNL A   1      39.227  34.706  36.801  1.00  0.00     0.041 A 
ATOM     79  F   UNL A   1      40.490  34.758  34.827  1.00  0.00    -0.206 F 
ATOM     80  C   UNL A   1      38.466  34.003  37.730  1.00  0.00     0.022 A 
BRANCH  77  81
ATOM     81  S   UNL A   1      37.224  31.703  38.699  1.00  0.00     0.124 S 
ATOM     82  O   UNL A   1      38.014  31.701  39.926  1.00  0.00    -0.237 OA
ATOM     83  O   UNL A   1      36.019  32.526  38.712  1.00  0.00    -0.237 OA
ATOM     84  O   UNL A   1      37.081  30.403  38.047  1.00  0.00    -0.744 OA
ENDBRANCH  77  81
ENDBRANCH  50  74
BRANCH  62  85
ATOM     85  C   UNL A   1      45.928  29.963  34.188  1.00  0.00     0.023 A 
ATOM     86  C   UNL A   1      46.225  28.926  35.090  1.00  0.00     0.031 A 
ATOM     87  C   UNL A   1      46.852  31.015  34.062  1.00  0.00     0.131 A 
ATOM     88  C   UNL A   1      47.386  28.994  35.875  1.00  0.00     0.055 A 
ATOM     89  C   UNL A   1      48.036  31.046  34.800  1.00  0.00     0.041 A 
ATOM     90  F   UNL A   1      46.619  32.032  33.217  1.00  0.00    -0.206 F 
ATOM     91  C   UNL A   1      48.300  30.039  35.725  1.00  0.00     0.022 A 
BRANCH  88  92
ATOM     92  S   UNL A   1      47.636  27.747  37.169  1.00  0.00     0.124 S 
ATOM     93  O   UNL A   1      47.255  28.480  38.374  1.00  0.00    -0.237 OA
ATOM     94  O   UNL A   1      46.728  26.683  36.757  1.00  0.00    -0.237 OA
ATOM     95  O   UNL A   1      49.058  27.425  37.065  1.00  0.00    -0.744 OA
ENDBRANCH  88  92
ENDBRANCH  62  85
ENDBRANCH  36  37
ENDBRANCH  28  31
ENDBRANCH  26  27
ENDBRANCH  25  26
ENDBRANCH  24  25
ENDBRANCH   1  24
TORSDOF 19
ENDMDL
MODEL 2
REMARK VINA RESULT:     -10.1      2.260      7.802
REMARK SMILES C=Cc1cncc(-c2ccc([C@@H](C)C(=O)NCCCCCCNC(=O)c3ccc(-c4c5nc(c(-c6cc(S(=O)(=O)[O-])ccc6F)c6ccc([nH]6)c(-c6cc(S(=O)(=O)[O-])ccc6F)c6nc(c(-c7cc(S(=O)(=O)[O-])ccc7F)c7ccc4[nH]7)C=C6)C=C5)cc3)cc2)c1
REMARK SMILES IDX 19 1 18 2 17 3 16 4 14 5 15 6 12 8 13 9 11 10 8 11 9 12
REMARK SMILES IDX 90 13 10 14 89 15 7 16 3 17 4 18 91 19 5 20 6 21 2 22 1 23
REMARK SMILES IDX 20 24 21 25 22 26 23 27 24 28 25 30 26 31 27 32 88 33 28 34
REMARK SMILES IDX 87 35 29 36 30 37 31 38 81 39 32 40 86 41 80 42 82 43 33 44
REMARK SMILES IDX 85 45 79 46 78 47 34 49 66 50 46 51 65 52 47 53 50 54 64 55
REMARK SMILES IDX 83 56 48 57 49 58 63 60 84 61 51 62 35 63 36 64 44 65 37 66
REMARK SMILES IDX 43 67 45 68 42 69 38 70 39 71 40 72 41 73 67 74 68 75 76 76
REMARK SMILES IDX 69 77 75 78 77 79 74 80 70 81 71 82 72 83 73 84 52 85 53 86
REMARK SMILES IDX 61 87 54 88 60 89 62 90 59 91 55 92 56 93 57 94 58 95
REMARK H PARENT 16 7 23 29 82 48 50 59
REMARK Flexibility Score: inf
ROOT
ATOM      1  C   UNL A   1      33.684  28.189  22.774  1.00  0.00     0.002 C 
ENDROOT
BRANCH   1   2
ATOM      2  C   UNL A   1      33.624  26.665  22.631  1.00  0.00     0.021 C 
BRANCH   2   3
ATOM      3  C   UNL A   1      32.261  26.135  22.181  1.00  0.00     0.116 C 
BRANCH   3   4
ATOM      4  N   UNL A   1      31.616  25.360  23.222  1.00  0.00    -0.356 N 
ATOM      5  C   UNL A   1      31.773  24.063  23.607  1.00  0.00     0.227 C 
ATOM      6  O   UNL A   1      31.006  23.653  24.487  1.00  0.00    -0.274 OA
ATOM      7  H   UNL A   1      30.947  25.858  23.743  1.00  0.00     0.163 HD
BRANCH   5   8
ATOM      8  C   UNL A   1      32.842  23.126  23.025  1.00  0.00     0.105 C 
ATOM      9  C   UNL A   1      32.332  21.717  22.718  1.00  0.00     0.023 C 
BRANCH   8  10
ATOM     10  C   UNL A   1      34.183  23.216  23.737  1.00  0.00    -0.036 A 
ATOM     11  C   UNL A   1      36.637  23.317  25.204  1.00  0.00    -0.017 A 
ATOM     12  C   UNL A   1      36.562  22.732  23.930  1.00  0.00     0.009 A 
ATOM     13  C   UNL A   1      35.456  23.877  25.716  1.00  0.00     0.009 A 
ATOM     14  C   UNL A   1      35.368  22.708  23.200  1.00  0.00     0.005 A 
ATOM     15  C   UNL A   1      34.249  23.812  25.005  1.00  0.00     0.005 A 
BRANCH  11  16
ATOM     16  C   UNL A   1      37.904  23.330  25.964  1.00  0.00     0.001 A 
ATOM     17  C   UNL A   1      39.897  22.225  26.850  1.00  0.00    -0.007 A 
ATOM     18  C   UNL A   1      40.285  23.460  27.360  1.00  0.00     0.119 A 
ATOM     19  C   UNL A   1      38.683  22.175  26.151  1.00  0.00     0.020 A 
ATOM     20  N   UNL A   1      39.574  24.599  27.219  1.00  0.00    -0.263 NA
ATOM     21  C   UNL A   1      38.413  24.503  26.529  1.00  0.00     0.119 A 
BRANCH  17  22
ATOM     22  C   UNL A   1      40.722  21.040  27.106  1.00  0.00     0.002 C 
ATOM     23  C   UNL A   1      41.292  20.297  26.149  1.00  0.00     0.009 C 
ENDBRANCH  17  22
ENDBRANCH  11  16
ENDBRANCH   8  10
ENDBRANCH   5   8
ENDBRANCH   3   4
ENDBRANCH   2   3
ENDBRANCH   1   2
BRANCH   1  24
ATOM     24  C   UNL A   1      32.818  28.775  23.898  1.00  0.00     0.002 C 
BRANCH  24  25
ATOM     25  C   UNL A   1      33.025  28.159  25.286  1.00  0.00     0.021 C 
BRANCH  25  26
ATOM     26  C   UNL A   1      34.086  28.844  26.148  1.00  0.00     0.116 C 
BRANCH  26  27
ATOM     27  N   UNL A   1      33.746  30.230  26.424  1.00  0.00    -0.352 N 
ATOM     28  C   UNL A   1      34.223  31.082  27.389  1.00  0.00     0.251 C 
ATOM     29  H   UNL A   1      33.068  30.618  25.825  1.00  0.00     0.163 HD
ATOM     30  O   UNL A   1      33.630  32.135  27.604  1.00  0.00    -0.269 OA
BRANCH  28  31
ATOM     31  C   UNL A   1      35.431  30.738  28.175  1.00  0.00     0.039 A 
ATOM     32  C   UNL A   1      36.552  31.568  28.083  1.00  0.00     0.014 A 
ATOM     33  C   UNL A   1      35.484  29.581  28.959  1.00  0.00     0.014 A 
ATOM     34  C   UNL A   1      37.703  31.269  28.816  1.00  0.00     0.010 A 
ATOM     35  C   UNL A   1      36.611  29.317  29.738  1.00  0.00     0.010 A 
ATOM     36  C   UNL A   1      37.733  30.158  29.673  1.00  0.00    -0.014 A 
BRANCH  36  37
ATOM     37  C   UNL A   1      38.930  29.871  30.509  1.00  0.00     0.031 A 
ATOM     38  C   UNL A   1      39.078  30.495  31.870  1.00  0.00     0.074 A 
ATOM     39  C   UNL A   1      39.904  29.081  30.017  1.00  0.00     0.049 A 
ATOM     40  N   UNL A   1      40.063  30.388  32.726  1.00  0.00    -0.248 NA
ATOM     41  C   UNL A   1      37.988  31.373  32.316  1.00  0.00     0.031 C 
ATOM     42  C   UNL A   1      39.895  28.456  28.692  1.00  0.00     0.029 A 
ATOM     43  N   UNL A   1      41.095  28.674  30.565  1.00  0.00    -0.354 N 
ATOM     44  C   UNL A   1      39.717  31.192  33.807  1.00  0.00     0.074 A 
ATOM     45  C   UNL A   1      38.457  31.823  33.470  1.00  0.00     0.031 C 
ATOM     46  C   UNL A   1      41.011  27.727  28.541  1.00  0.00     0.029 A 
ATOM     47  C   UNL A   1      41.835  27.862  29.738  1.00  0.00     0.049 A 
ATOM     48  H   UNL A   1      41.391  28.938  31.466  1.00  0.00     0.167 HD
ATOM     49  C   UNL A   1      40.376  31.370  34.980  1.00  0.00     0.034 A 
ATOM     50  C   UNL A   1      43.045  27.295  29.919  1.00  0.00     0.034 A 
ATOM     51  C   UNL A   1      41.628  30.727  35.303  1.00  0.00     0.049 A 
ATOM     52  C   UNL A   1      43.765  27.518  31.223  1.00  0.00     0.074 A 
ATOM     53  C   UNL A   1      42.352  30.789  36.482  1.00  0.00     0.029 A 
ATOM     54  N   UNL A   1      42.350  29.911  34.440  1.00  0.00    -0.354 N 
ATOM     55  N   UNL A   1      43.395  28.233  32.260  1.00  0.00    -0.248 NA
ATOM     56  C   UNL A   1      45.059  26.845  31.387  1.00  0.00     0.031 C 
ATOM     57  C   UNL A   1      43.538  30.067  36.310  1.00  0.00     0.029 A 
ATOM     58  C   UNL A   1      43.524  29.492  35.049  1.00  0.00     0.049 A 
ATOM     59  H   UNL A   1      42.069  29.666  33.529  1.00  0.00     0.167 HD
ATOM     60  C   UNL A   1      44.401  28.075  33.209  1.00  0.00     0.074 A 
ATOM     61  C   UNL A   1      45.381  27.181  32.627  1.00  0.00     0.031 C 
ATOM     62  C   UNL A   1      44.505  28.617  34.449  1.00  0.00     0.034 A 
BRANCH  49  63
ATOM     63  C   UNL A   1      39.765  32.319  35.985  1.00  0.00     0.023 A 
ATOM     64  C   UNL A   1      40.266  33.621  36.172  1.00  0.00     0.031 A 
ATOM     65  C   UNL A   1      38.681  31.913  36.784  1.00  0.00     0.131 A 
ATOM     66  C   UNL A   1      39.735  34.438  37.181  1.00  0.00     0.055 A 
ATOM     67  C   UNL A   1      38.106  32.760  37.732  1.00  0.00     0.041 A 
ATOM     68  F   UNL A   1      38.171  30.676  36.664  1.00  0.00    -0.206 F 
ATOM     69  C   UNL A   1      38.642  34.027  37.946  1.00  0.00     0.022 A 
BRANCH  66  70
ATOM     70  S   UNL A   1      40.585  35.993  37.574  1.00  0.00     0.124 S 
ATOM     71  O   UNL A   1      41.402  35.600  38.719  1.00  0.00    -0.237 OA
ATOM     72  O   UNL A   1      41.308  36.276  36.340  1.00  0.00    -0.237 OA
ATOM     73  O   UNL A   1      39.493  36.912  37.883  1.00  0.00    -0.744 OA
ENDBRANCH  66  70
ENDBRANCH  49  63
BRANCH  50  74
ATOM     74  C   UNL A   1      43.658  26.469  28.841  1.00  0.00     0.023 A 
ATOM     75  C   UNL A   1      44.490  27.048  27.870  1.00  0.00     0.031 A 
ATOM     76  C   UNL A   1      43.392  25.091  28.745  1.00  0.00     0.131 A 
ATOM     77  C   UNL A   1      44.993  26.263  26.820  1.00  0.00     0.055 A 
ATOM     78  C   UNL A   1      43.935  24.305  27.728  1.00  0.00     0.041 A 
ATOM     79  F   UNL A   1      42.609  24.487  29.652  1.00  0.00    -0.206 F 
ATOM     80  C   UNL A   1      44.731  24.893  26.749  1.00  0.00     0.022 A 
BRANCH  77  81
ATOM     81  S   UNL A   1      45.934  27.076  25.501  1.00  0.00     0.124 S 
ATOM     82  O   UNL A   1      44.884  27.787  24.781  1.00  0.00    -0.237 OA
ATOM     83  O   UNL A   1      46.866  27.904  26.260  1.00  0.00    -0.237 OA
ATOM     84  O   UNL A   1      46.541  25.960  24.779  1.00  0.00    -0.744 OA
ENDBRANCH  77  81
ENDBRANCH  50  74
BRANCH  62  85
ATOM     85  C   UNL A   1      45.711  28.222  35.266  1.00  0.00     0.023 A 
ATOM     86  C   UNL A   1      46.905  28.964  35.222  1.00  0.00     0.031 A 
ATOM     87  C   UNL A   1      45.675  27.074  36.076  1.00  0.00     0.131 A 
ATOM     88  C   UNL A   1      48.033  28.514  35.926  1.00  0.00     0.055 A 
ATOM     89  C   UNL A   1      46.780  26.666  36.824  1.00  0.00     0.041 A 
ATOM     90  F   UNL A   1      44.561  26.328  36.153  1.00  0.00    -0.206 F 
ATOM     91  C   UNL A   1      47.973  27.379  36.739  1.00  0.00     0.022 A 
BRANCH  88  92
ATOM     92  S   UNL A   1      49.610  29.379  35.689  1.00  0.00     0.124 S 
ATOM     93  O   UNL A   1      49.762  30.086  36.957  1.00  0.00    -0.237 OA
ATOM     94  O   UNL A   1      50.538  28.278  35.459  1.00  0.00    -0.237 OA
ATOM     95  O   UNL A   1      49.362  30.233  34.529  1.00  0.00    -0.744 OA
ENDBRANCH  88  92
ENDBRANCH  62  85
ENDBRANCH  36  37
ENDBRANCH  28  31
ENDBRANCH  26  27
ENDBRANCH  25  26
ENDBRANCH  24  25
ENDBRANCH   1  24
TORSDOF 19
ENDMDL
MODEL 3
REMARK VINA RESULT:      -9.9      5.249      9.782
REMARK SMILES C=Cc1cncc(-c2ccc([C@@H](C)C(=O)NCCCCCCNC(=O)c3ccc(-c4c5nc(c(-c6cc(S(=O)(=O)[O-])ccc6F)c6ccc([nH]6)c(-c6cc(S(=O)(=O)[O-])ccc6F)c6nc(c(-c7cc(S(=O)(=O)[O-])ccc7F)c7ccc4[nH]7)C=C6)C=C5)cc3)cc2)c1
REMARK SMILES IDX 19 1 18 2 17 3 16 4 14 5 15 6 12 8 13 9 11 10 8 11 9 12
REMARK SMILES IDX 90 13 10 14 89 15 7 16 3 17 4 18 91 19 5 20 6 21 2 22 1 23
REMARK SMILES IDX 20 24 21 25 22 26 23 27 24 28 25 30 26 31 27 32 88 33 28 34
REMARK SMILES IDX 87 35 29 36 30 37 31 38 81 39 32 40 86 41 80 42 82 43 33 44
REMARK SMILES IDX 85 45 79 46 78 47 34 49 66 50 46 51 65 52 47 53 50 54 64 55
REMARK SMILES IDX 83 56 48 57 49 58 63 60 84 61 51 62 35 63 36 64 44 65 37 66
REMARK SMILES IDX 43 67 45 68 42 69 38 70 39 71 40 72 41 73 67 74 68 75 76 76
REMARK SMILES IDX 69 77 75 78 77 79 74 80 70 81 71 82 72 83 73 84 52 85 53 86
REMARK SMILES IDX 61 87 54 88 60 89 62 90 59 91 55 92 56 93 57 94 58 95
REMARK H PARENT 16 7 23 29 82 48 50 59
REMARK Flexibility Score: inf
ROOT
ATOM      1  C   UNL A   1      43.099  23.448  26.461  1.00  0.00     0.002 C 
ENDROOT
BRANCH   1   2
ATOM      2  C   UNL A   1      44.138  23.059  27.518  1.00  0.00     0.021 C 
BRANCH   2   3
ATOM      3  C   UNL A   1      45.503  23.721  27.322  1.00  0.00     0.116 C 
BRANCH   3   4
ATOM      4  N   UNL A   1      46.040  23.466  26.000  1.00  0.00    -0.356 N 
ATOM      5  C   UNL A   1      46.612  24.296  25.085  1.00  0.00     0.227 C 
ATOM      6  O   UNL A   1      46.900  23.796  23.990  1.00  0.00    -0.274 OA
ATOM      7  H   UNL A   1      45.981  22.527  25.713  1.00  0.00     0.163 HD
BRANCH   5   8
ATOM      8  C   UNL A   1      46.921  25.777  25.354  1.00  0.00     0.105 C 
ATOM      9  C   UNL A   1      45.764  26.723  25.032  1.00  0.00     0.023 C 
BRANCH   8  10
ATOM     10  C   UNL A   1      48.298  26.208  24.873  1.00  0.00    -0.036 A 
ATOM     11  C   UNL A   1      50.934  26.863  23.974  1.00  0.00    -0.017 A 
ATOM     12  C   UNL A   1      49.791  27.263  23.263  1.00  0.00     0.009 A 
ATOM     13  C   UNL A   1      50.725  26.150  25.164  1.00  0.00     0.009 A 
ATOM     14  C   UNL A   1      48.500  26.967  23.719  1.00  0.00     0.005 A 
ATOM     15  C   UNL A   1      49.434  25.813  25.596  1.00  0.00     0.005 A 
BRANCH  11  16
ATOM     16  C   UNL A   1      52.290  27.180  23.478  1.00  0.00     0.001 A 
ATOM     17  C   UNL A   1      53.807  28.254  21.889  1.00  0.00    -0.007 A 
ATOM     18  C   UNL A   1      54.861  27.763  22.652  1.00  0.00     0.119 A 
ATOM     19  C   UNL A   1      52.508  27.943  22.317  1.00  0.00     0.020 A 
ATOM     20  N   UNL A   1      54.711  27.019  23.768  1.00  0.00    -0.263 NA
ATOM     21  C   UNL A   1      53.439  26.751  24.148  1.00  0.00     0.119 A 
BRANCH  17  22
ATOM     22  C   UNL A   1      54.085  29.010  20.664  1.00  0.00     0.002 C 
ATOM     23  C   UNL A   1      53.285  29.964  20.169  1.00  0.00     0.009 C 
ENDBRANCH  17  22
ENDBRANCH  11  16
ENDBRANCH   8  10
ENDBRANCH   5   8
ENDBRANCH   3   4
ENDBRANCH   2   3
ENDBRANCH   1   2
BRANCH   1  24
ATOM     24  C   UNL A   1      42.605  22.297  25.574  1.00  0.00     0.002 C 
BRANCH  24  25
ATOM     25  C   UNL A   1      42.044  21.079  26.317  1.00  0.00     0.021 C 
BRANCH  25  26
ATOM     26  C   UNL A   1      40.847  21.366  27.224  1.00  0.00     0.116 C 
BRANCH  26  27
ATOM     27  N   UNL A   1      39.638  21.621  26.458  1.00  0.00    -0.352 N 
ATOM     28  C   UNL A   1      38.881  22.761  26.354  1.00  0.00     0.251 C 
ATOM     29  H   UNL A   1      39.312  20.856  25.931  1.00  0.00     0.163 HD
ATOM     30  O   UNL A   1      37.764  22.694  25.847  1.00  0.00    -0.269 OA
BRANCH  28  31
ATOM     31  C   UNL A   1      39.390  24.058  26.857  1.00  0.00     0.039 A 
ATOM     32  C   UNL A   1      39.977  24.946  25.951  1.00  0.00     0.014 A 
ATOM     33  C   UNL A   1      39.338  24.383  28.216  1.00  0.00     0.014 A 
ATOM     34  C   UNL A   1      40.462  26.178  26.398  1.00  0.00     0.010 A 
ATOM     35  C   UNL A   1      39.766  25.638  28.651  1.00  0.00     0.010 A 
ATOM     36  C   UNL A   1      40.335  26.548  27.746  1.00  0.00    -0.014 A 
BRANCH  36  37
ATOM     37  C   UNL A   1      40.787  27.885  28.217  1.00  0.00     0.031 A 
ATOM     38  C   UNL A   1      42.248  28.238  28.226  1.00  0.00     0.074 A 
ATOM     39  C   UNL A   1      39.875  28.763  28.680  1.00  0.00     0.049 A 
ATOM     40  N   UNL A   1      42.832  29.338  28.630  1.00  0.00    -0.248 NA
ATOM     41  C   UNL A   1      43.179  27.209  27.740  1.00  0.00     0.031 C 
ATOM     42  C   UNL A   1      38.434  28.517  28.765  1.00  0.00     0.029 A 
ATOM     43  N   UNL A   1      40.023  30.034  29.175  1.00  0.00    -0.354 N 
ATOM     44  C   UNL A   1      44.197  29.132  28.457  1.00  0.00     0.074 A 
ATOM     45  C   UNL A   1      44.354  27.779  27.964  1.00  0.00     0.031 C 
ATOM     46  C   UNL A   1      37.829  29.610  29.255  1.00  0.00     0.029 A 
ATOM     47  C   UNL A   1      38.838  30.619  29.559  1.00  0.00     0.049 A 
ATOM     48  H   UNL A   1      40.894  30.486  29.248  1.00  0.00     0.167 HD
ATOM     49  C   UNL A   1      45.220  29.998  28.668  1.00  0.00     0.034 A 
ATOM     50  C   UNL A   1      38.592  31.829  30.101  1.00  0.00     0.034 A 
ATOM     51  C   UNL A   1      45.045  31.346  29.152  1.00  0.00     0.049 A 
ATOM     52  C   UNL A   1      39.746  32.767  30.339  1.00  0.00     0.074 A 
ATOM     53  C   UNL A   1      46.004  32.326  29.345  1.00  0.00     0.029 A 
ATOM     54  N   UNL A   1      43.831  31.904  29.532  1.00  0.00    -0.354 N 
ATOM     55  N   UNL A   1      41.026  32.579  30.113  1.00  0.00    -0.248 NA
ATOM     56  C   UNL A   1      39.421  34.088  30.892  1.00  0.00     0.031 C 
ATOM     57  C   UNL A   1      45.382  33.450  29.900  1.00  0.00     0.029 A 
ATOM     58  C   UNL A   1      44.022  33.201  29.987  1.00  0.00     0.049 A 
ATOM     59  H   UNL A   1      42.960  31.446  29.485  1.00  0.00     0.167 HD
ATOM     60  C   UNL A   1      41.654  33.767  30.474  1.00  0.00     0.074 A 
ATOM     61  C   UNL A   1      40.609  34.671  30.912  1.00  0.00     0.031 C 
ATOM     62  C   UNL A   1      42.973  34.085  30.443  1.00  0.00     0.034 A 
BRANCH  49  63
ATOM     63  C   UNL A   1      46.621  29.496  28.399  1.00  0.00     0.023 A 
ATOM     64  C   UNL A   1      47.397  28.894  29.407  1.00  0.00     0.031 A 
ATOM     65  C   UNL A   1      47.200  29.643  27.126  1.00  0.00     0.131 A 
ATOM     66  C   UNL A   1      48.726  28.531  29.146  1.00  0.00     0.055 A 
ATOM     67  C   UNL A   1      48.497  29.206  26.852  1.00  0.00     0.041 A 
ATOM     68  F   UNL A   1      46.517  30.226  26.128  1.00  0.00    -0.206 F 
ATOM     69  C   UNL A   1      49.275  28.659  27.868  1.00  0.00     0.022 A 
BRANCH  66  70
ATOM     70  S   UNL A   1      49.773  28.017  30.536  1.00  0.00     0.124 S 
ATOM     71  O   UNL A   1      51.110  28.146  29.962  1.00  0.00    -0.237 OA
ATOM     72  O   UNL A   1      49.424  28.988  31.568  1.00  0.00    -0.237 OA
ATOM     73  O   UNL A   1      49.346  26.645  30.800  1.00  0.00    -0.744 OA
ENDBRANCH  66  70
ENDBRANCH  49  63
BRANCH  50  74
ATOM     74  C   UNL A   1      37.202  32.222  30.464  1.00  0.00     0.023 A 
ATOM     75  C   UNL A   1      36.308  32.699  29.493  1.00  0.00     0.031 A 
ATOM     76  C   UNL A   1      36.757  32.161  31.797  1.00  0.00     0.131 A 
ATOM     77  C   UNL A   1      35.029  33.137  29.873  1.00  0.00     0.055 A 
ATOM     78  C   UNL A   1      35.467  32.550  32.163  1.00  0.00     0.041 A 
ATOM     79  F   UNL A   1      37.569  31.705  32.764  1.00  0.00    -0.206 F 
ATOM     80  C   UNL A   1      34.599  33.054  31.199  1.00  0.00     0.022 A 
BRANCH  77  81
ATOM     81  S   UNL A   1      33.960  33.890  28.617  1.00  0.00     0.124 S 
ATOM     82  O   UNL A   1      33.559  32.729  27.832  1.00  0.00    -0.237 OA
ATOM     83  O   UNL A   1      32.919  34.504  29.435  1.00  0.00    -0.237 OA
ATOM     84  O   UNL A   1      34.847  34.829  27.935  1.00  0.00    -0.744 OA
ENDBRANCH  77  81
ENDBRANCH  50  74
BRANCH  62  85
ATOM     85  C   UNL A   1      43.347  35.484  30.867  1.00  0.00     0.023 A 
ATOM     86  C   UNL A   1      43.507  35.825  32.222  1.00  0.00     0.031 A 
ATOM     87  C   UNL A   1      43.518  36.495  29.906  1.00  0.00     0.131 A 
ATOM     88  C   UNL A   1      43.767  37.157  32.581  1.00  0.00     0.055 A 
ATOM     89  C   UNL A   1      43.838  37.806  30.266  1.00  0.00     0.041 A 
ATOM     90  F   UNL A   1      43.375  36.226  28.598  1.00  0.00    -0.206 F 
ATOM     91  C   UNL A   1      43.949  38.145  31.611  1.00  0.00     0.022 A 
BRANCH  88  92
ATOM     92  S   UNL A   1      43.766  37.600  34.341  1.00  0.00     0.124 S 
ATOM     93  O   UNL A   1      42.345  37.812  34.599  1.00  0.00    -0.237 OA
ATOM     94  O   UNL A   1      44.357  36.420  34.960  1.00  0.00    -0.237 OA
ATOM     95  O   UNL A   1      44.591  38.806  34.391  1.00  0.00    -0.744 OA
ENDBRANCH  88  92
ENDBRANCH  62  85
ENDBRANCH  36  37
ENDBRANCH  28  31
ENDBRANCH  26  27
ENDBRANCH  25  26
ENDBRANCH  24  25
ENDBRANCH   1  24
TORSDOF 19
ENDMDL
