MODEL 1
REMARK VINA RESULT:     -11.9      0.000      0.000
REMARK SMILES Cc1ccccc1SCC(=O)N[C@H]1C=C[C@H](C(=O)NCCCCCCNC(=O)c2ccc(-c3c4nc(c(-c5cc(S(=O)(=O)[O-])ccc5F)c5ccc([nH]5)c(-c5cc(S(=O)(=O)[O-])ccc5F)c5nc(c(-c6cc(S(=O)(=O)[O-])ccc6F)c6ccc3[nH]6)C=C5)C=C4)cc2)C1
REMARK SMILES IDX 22 1 21 2 20 3 19 4 17 5 18 6 16 8 13 9 14 10 92 11 15 12
REMARK SMILES IDX 12 13 10 14 11 15 9 17 8 18 7 19 1 20 2 21 3 22 4 23 6 24
REMARK SMILES IDX 5 25 23 26 24 27 25 28 26 29 27 30 28 32 29 33 30 34 91 35
REMARK SMILES IDX 31 36 90 37 32 38 33 39 34 40 84 41 35 42 89 43 83 44 85 45
REMARK SMILES IDX 36 46 88 47 82 48 81 49 37 51 69 52 49 53 68 54 50 55 53 56
REMARK SMILES IDX 67 57 86 58 51 59 52 60 66 62 87 63 54 64 38 65 39 66 47 67
REMARK SMILES IDX 40 68 46 69 48 70 45 71 41 72 42 73 43 74 44 75 70 76 71 77
REMARK SMILES IDX 79 78 72 79 78 80 80 81 77 82 73 83 74 84 75 85 76 86 55 87
REMARK SMILES IDX 56 88 64 89 57 90 63 91 65 92 62 93 58 94 59 95 60 96 61 97
REMARK H PARENT 19 7 12 16 26 31 85 50 53 61
REMARK Flexibility Score: inf
ROOT
ATOM      1  C   UNL A   1      36.534  22.848  24.874  1.00  0.00     0.002 C 
ENDROOT
BRANCH   1   2
ATOM      2  C   UNL A   1      36.347  21.345  24.631  1.00  0.00     0.021 C 
BRANCH   2   3
ATOM      3  C   UNL A   1      35.005  20.780  25.090  1.00  0.00     0.116 C 
BRANCH   3   4
ATOM      4  N   UNL A   1      34.379  21.618  26.093  1.00  0.00    -0.356 N 
ATOM      5  C   UNL A   1      33.168  22.238  26.079  1.00  0.00     0.227 C 
ATOM      6  O   UNL A   1      32.812  22.870  27.076  1.00  0.00    -0.274 OA
ATOM      7  H   UNL A   1      34.911  21.760  26.909  1.00  0.00     0.163 HD
BRANCH   5   8
ATOM      8  C   UNL A   1      32.261  22.074  24.858  1.00  0.00     0.103 C 
ATOM      9  C   UNL A   1      32.348  24.176  23.612  1.00  0.00     0.106 C 
ATOM     10  C   UNL A   1      31.079  24.051  24.406  1.00  0.00    -0.006 C 
ATOM     11  C   UNL A   1      32.867  22.735  23.615  1.00  0.00     0.047 C 
ATOM     12  C   UNL A   1      31.020  22.891  25.071  1.00  0.00    -0.016 C 
BRANCH   9  13
ATOM     13  N   UNL A   1      31.989  24.677  22.305  1.00  0.00    -0.349 N 
ATOM     14  C   UNL A   1      31.872  25.952  21.853  1.00  0.00     0.230 C 
ATOM     15  O   UNL A   1      31.478  26.093  20.690  1.00  0.00    -0.274 OA
ATOM     16  H   UNL A   1      31.801  23.982  21.633  1.00  0.00     0.164 HD
BRANCH  14  17
ATOM     17  C   UNL A   1      32.348  27.144  22.652  1.00  0.00     0.174 C 
BRANCH  17  18
ATOM     18  S   UNL A   1      31.277  27.744  23.982  1.00  0.00    -0.116 SA
BRANCH  18  19
ATOM     19  C   UNL A   1      32.285  28.466  25.272  1.00  0.00     0.011 A 
ATOM     20  C   UNL A   1      33.768  26.463  25.939  1.00  0.00     0.045 C 
ATOM     21  C   UNL A   1      33.282  27.876  26.067  1.00  0.00    -0.038 A 
ATOM     22  C   UNL A   1      33.897  28.648  27.081  1.00  0.00     0.004 A 
ATOM     23  C   UNL A   1      33.493  29.951  27.359  1.00  0.00     0.000 A 
ATOM     24  C   UNL A   1      31.889  29.789  25.579  1.00  0.00     0.015 A 
ATOM     25  C   UNL A   1      32.476  30.521  26.612  1.00  0.00     0.001 A 
ENDBRANCH  18  19
ENDBRANCH  17  18
ENDBRANCH  14  17
ENDBRANCH   9  13
ENDBRANCH   5   8
ENDBRANCH   3   4
ENDBRANCH   2   3
ENDBRANCH   1   2
BRANCH   1  26
ATOM     26  C   UNL A   1      37.745  23.257  25.728  1.00  0.00     0.002 C 
BRANCH  26  27
ATOM     27  C   UNL A   1      38.781  22.165  25.995  1.00  0.00     0.021 C 
BRANCH  27  28
ATOM     28  C   UNL A   1      39.859  22.565  26.997  1.00  0.00     0.116 C 
BRANCH  28  29
ATOM     29  N   UNL A   1      41.112  22.995  26.387  1.00  0.00    -0.352 N 
ATOM     30  C   UNL A   1      41.563  24.290  26.201  1.00  0.00     0.251 C 
ATOM     31  H   UNL A   1      41.707  22.277  26.069  1.00  0.00     0.163 HD
ATOM     32  O   UNL A   1      42.634  24.528  25.660  1.00  0.00    -0.269 OA
BRANCH  30  33
ATOM     33  C   UNL A   1      40.767  25.396  26.782  1.00  0.00     0.039 A 
ATOM     34  C   UNL A   1      40.846  26.643  26.155  1.00  0.00     0.014 A 
ATOM     35  C   UNL A   1      40.164  25.269  28.032  1.00  0.00     0.014 A 
ATOM     36  C   UNL A   1      40.520  27.791  26.875  1.00  0.00     0.010 A 
ATOM     37  C   UNL A   1      39.919  26.411  28.775  1.00  0.00     0.010 A 
ATOM     38  C   UNL A   1      40.158  27.673  28.220  1.00  0.00    -0.014 A 
BRANCH  38  39
ATOM     39  C   UNL A   1      40.185  28.813  29.136  1.00  0.00     0.031 A 
ATOM     40  C   UNL A   1      39.093  29.808  29.170  1.00  0.00     0.074 A 
ATOM     41  C   UNL A   1      41.244  28.994  29.957  1.00  0.00     0.049 A 
ATOM     42  N   UNL A   1      39.253  31.047  29.499  1.00  0.00    -0.248 NA
ATOM     43  C   UNL A   1      37.724  29.480  28.795  1.00  0.00     0.031 C 
ATOM     44  C   UNL A   1      41.371  29.961  31.044  1.00  0.00     0.029 A 
ATOM     45  N   UNL A   1      42.535  28.508  29.771  1.00  0.00    -0.354 N 
ATOM     46  C   UNL A   1      38.008  31.613  29.627  1.00  0.00     0.074 A 
ATOM     47  C   UNL A   1      37.091  30.609  29.131  1.00  0.00     0.031 C 
ATOM     48  C   UNL A   1      42.673  30.209  31.247  1.00  0.00     0.029 A 
ATOM     49  C   UNL A   1      43.421  29.502  30.222  1.00  0.00     0.049 A 
ATOM     50  H   UNL A   1      42.781  27.634  29.393  1.00  0.00     0.167 HD
ATOM     51  C   UNL A   1      37.862  32.819  30.246  1.00  0.00     0.034 A 
ATOM     52  C   UNL A   1      44.341  30.051  29.379  1.00  0.00     0.034 A 
ATOM     53  C   UNL A   1      39.135  33.393  30.677  1.00  0.00     0.049 A 
ATOM     54  C   UNL A   1      44.189  31.545  29.171  1.00  0.00     0.074 A 
ATOM     55  C   UNL A   1      39.793  33.481  31.893  1.00  0.00     0.029 A 
ATOM     56  N   UNL A   1      40.050  33.795  29.719  1.00  0.00    -0.354 N 
ATOM     57  N   UNL A   1      43.249  32.279  29.702  1.00  0.00    -0.248 NA
ATOM     58  C   UNL A   1      45.034  32.303  28.249  1.00  0.00     0.031 C 
ATOM     59  C   UNL A   1      41.125  33.925  31.646  1.00  0.00     0.029 A 
ATOM     60  C   UNL A   1      41.269  34.121  30.286  1.00  0.00     0.049 A 
ATOM     61  H   UNL A   1      39.858  33.844  28.755  1.00  0.00     0.167 HD
ATOM     62  C   UNL A   1      43.295  33.535  29.149  1.00  0.00     0.074 A 
ATOM     63  C   UNL A   1      44.434  33.503  28.250  1.00  0.00     0.031 C 
ATOM     64  C   UNL A   1      42.368  34.501  29.415  1.00  0.00     0.034 A 
BRANCH  51  65
ATOM     65  C   UNL A   1      36.523  33.364  30.681  1.00  0.00     0.023 A 
ATOM     66  C   UNL A   1      35.709  34.037  29.748  1.00  0.00     0.031 A 
ATOM     67  C   UNL A   1      36.006  33.279  31.988  1.00  0.00     0.131 A 
ATOM     68  C   UNL A   1      34.522  34.679  30.141  1.00  0.00     0.055 A 
ATOM     69  C   UNL A   1      34.863  33.978  32.397  1.00  0.00     0.041 A 
ATOM     70  F   UNL A   1      36.566  32.481  32.910  1.00  0.00    -0.206 F 
ATOM     71  C   UNL A   1      34.121  34.699  31.475  1.00  0.00     0.022 A 
BRANCH  68  72
ATOM     72  S   UNL A   1      33.496  35.484  28.879  1.00  0.00     0.124 S 
ATOM     73  O   UNL A   1      34.491  35.954  27.921  1.00  0.00    -0.237 OA
ATOM     74  O   UNL A   1      32.641  34.388  28.439  1.00  0.00    -0.237 OA
ATOM     75  O   UNL A   1      32.812  36.540  29.624  1.00  0.00    -0.744 OA
ENDBRANCH  68  72
ENDBRANCH  51  65
BRANCH  52  76
ATOM     76  C   UNL A   1      44.839  29.090  28.350  1.00  0.00     0.023 A 
ATOM     77  C   UNL A   1      45.787  28.128  28.763  1.00  0.00     0.031 A 
ATOM     78  C   UNL A   1      44.172  28.871  27.138  1.00  0.00     0.131 A 
ATOM     79  C   UNL A   1      45.923  26.924  28.061  1.00  0.00     0.055 A 
ATOM     80  C   UNL A   1      44.371  27.701  26.397  1.00  0.00     0.041 A 
ATOM     81  F   UNL A   1      43.227  29.721  26.710  1.00  0.00    -0.206 F 
ATOM     82  C   UNL A   1      45.214  26.701  26.880  1.00  0.00     0.022 A 
BRANCH  79  83
ATOM     83  S   UNL A   1      46.807  25.544  28.845  1.00  0.00     0.124 S 
ATOM     84  O   UNL A   1      46.699  25.872  30.261  1.00  0.00    -0.237 OA
ATOM     85  O   UNL A   1      46.049  24.375  28.402  1.00  0.00    -0.237 OA
ATOM     86  O   UNL A   1      48.149  25.638  28.273  1.00  0.00    -0.744 OA
ENDBRANCH  79  83
ENDBRANCH  52  76
BRANCH  64  87
ATOM     87  C   UNL A   1      42.437  35.881  28.815  1.00  0.00     0.023 A 
ATOM     88  C   UNL A   1      42.847  36.993  29.568  1.00  0.00     0.031 A 
ATOM     89  C   UNL A   1      42.043  36.136  27.484  1.00  0.00     0.131 A 
ATOM     90  C   UNL A   1      42.949  38.264  28.978  1.00  0.00     0.055 A 
ATOM     91  C   UNL A   1      42.060  37.418  26.927  1.00  0.00     0.041 A 
ATOM     92  F   UNL A   1      41.667  35.149  26.659  1.00  0.00    -0.206 F 
ATOM     93  C   UNL A   1      42.533  38.490  27.668  1.00  0.00     0.022 A 
BRANCH  90  94
ATOM     94  S   UNL A   1      43.725  39.598  29.929  1.00  0.00     0.124 S 
ATOM     95  O   UNL A   1      44.298  38.889  31.067  1.00  0.00    -0.237 OA
ATOM     96  O   UNL A   1      44.683  40.128  28.962  1.00  0.00    -0.237 OA
ATOM     97  O   UNL A   1      42.609  40.488  30.246  1.00  0.00    -0.744 OA
ENDBRANCH  90  94
ENDBRANCH  64  87
ENDBRANCH  38  39
ENDBRANCH  30  33
ENDBRANCH  28  29
ENDBRANCH  27  28
ENDBRANCH  26  27
ENDBRANCH   1  26
TORSDOF 20
ENDMDL
MODEL 2
REMARK VINA RESULT:     -11.1      2.344      3.363
REMARK SMILES Cc1ccccc1SCC(=O)N[C@H]1C=C[C@H](C(=O)NCCCCCCNC(=O)c2ccc(-c3c4nc(c(-c5cc(S(=O)(=O)[O-])ccc5F)c5ccc([nH]5)c(-c5cc(S(=O)(=O)[O-])ccc5F)c5nc(c(-c6cc(S(=O)(=O)[O-])ccc6F)c6ccc3[nH]6)C=C5)C=C4)cc2)C1
REMARK SMILES IDX 22 1 21 2 20 3 19 4 17 5 18 6 16 8 13 9 14 10 92 11 15 12
REMARK SMILES IDX 12 13 10 14 11 15 9 17 8 18 7 19 1 20 2 21 3 22 4 23 6 24
REMARK SMILES IDX 5 25 23 26 24 27 25 28 26 29 27 30 28 32 29 33 30 34 91 35
REMARK SMILES IDX 31 36 90 37 32 38 33 39 34 40 84 41 35 42 89 43 83 44 85 45
REMARK SMILES IDX 36 46 88 47 82 48 81 49 37 51 69 52 49 53 68 54 50 55 53 56
REMARK SMILES IDX 67 57 86 58 51 59 52 60 66 62 87 63 54 64 38 65 39 66 47 67
REMARK SMILES IDX 40 68 46 69 48 70 45 71 41 72 42 73 43 74 44 75 70 76 71 77
REMARK SMILES IDX 79 78 72 79 78 80 80 81 77 82 73 83 74 84 75 85 76 86 55 87
REMARK SMILES IDX 56 88 64 89 57 90 63 91 65 92 62 93 58 94 59 95 60 96 61 97
REMARK H PARENT 19 7 12 16 26 31 85 50 53 61
REMARK Flexibility Score: inf
ROOT
ATOM      1  C   UNL A   1      37.153  22.289  25.026  1.00  0.00     0.002 C 
ENDROOT
BRANCH   1   2
ATOM      2  C   UNL A   1      36.132  21.409  25.757  1.00  0.00     0.021 C 
BRANCH   2   3
ATOM      3  C   UNL A   1      35.032  20.828  24.872  1.00  0.00     0.116 C 
BRANCH   3   4
ATOM      4  N   UNL A   1      33.758  21.481  25.093  1.00  0.00    -0.356 N 
ATOM      5  C   UNL A   1      33.203  22.547  24.456  1.00  0.00     0.227 C 
ATOM      6  O   UNL A   1      32.069  22.909  24.780  1.00  0.00    -0.274 OA
ATOM      7  H   UNL A   1      33.209  21.093  25.813  1.00  0.00     0.163 HD
BRANCH   5   8
ATOM      8  C   UNL A   1      33.971  23.217  23.315  1.00  0.00     0.103 C 
ATOM      9  C   UNL A   1      33.238  25.548  23.227  1.00  0.00     0.106 C 
ATOM     10  C   UNL A   1      32.607  24.724  22.141  1.00  0.00    -0.006 C 
ATOM     11  C   UNL A   1      34.389  24.645  23.682  1.00  0.00     0.047 C 
ATOM     12  C   UNL A   1      33.024  23.452  22.174  1.00  0.00    -0.016 C 
BRANCH   9  13
ATOM     13  N   UNL A   1      33.659  26.795  22.630  1.00  0.00    -0.349 N 
ATOM     14  C   UNL A   1      33.889  28.007  23.196  1.00  0.00     0.230 C 
ATOM     15  O   UNL A   1      34.178  28.931  22.427  1.00  0.00    -0.274 OA
ATOM     16  H   UNL A   1      33.803  26.759  21.656  1.00  0.00     0.164 HD
BRANCH  14  17
ATOM     17  C   UNL A   1      33.958  28.205  24.693  1.00  0.00     0.174 C 
BRANCH  17  18
ATOM     18  S   UNL A   1      32.435  28.682  25.546  1.00  0.00    -0.116 SA
BRANCH  18  19
ATOM     19  C   UNL A   1      31.055  27.795  24.833  1.00  0.00     0.011 A 
ATOM     20  C   UNL A   1      30.372  29.378  22.912  1.00  0.00     0.045 C 
ATOM     21  C   UNL A   1      30.220  28.149  23.758  1.00  0.00    -0.038 A 
ATOM     22  C   UNL A   1      29.140  27.300  23.421  1.00  0.00     0.004 A 
ATOM     23  C   UNL A   1      28.837  26.164  24.168  1.00  0.00     0.000 A 
ATOM     24  C   UNL A   1      30.722  26.640  25.577  1.00  0.00     0.015 A 
ATOM     25  C   UNL A   1      29.625  25.838  25.258  1.00  0.00     0.001 A 
ENDBRANCH  18  19
ENDBRANCH  17  18
ENDBRANCH  14  17
ENDBRANCH   9  13
ENDBRANCH   5   8
ENDBRANCH   3   4
ENDBRANCH   2   3
ENDBRANCH   1   2
BRANCH   1  26
ATOM     26  C   UNL A   1      37.401  23.686  25.618  1.00  0.00     0.002 C 
BRANCH  26  27
ATOM     27  C   UNL A   1      38.833  23.987  26.059  1.00  0.00     0.021 C 
BRANCH  27  28
ATOM     28  C   UNL A   1      39.476  22.874  26.880  1.00  0.00     0.116 C 
BRANCH  28  29
ATOM     29  N   UNL A   1      40.387  22.023  26.124  1.00  0.00    -0.352 N 
ATOM     30  C   UNL A   1      41.761  22.142  26.009  1.00  0.00     0.251 C 
ATOM     31  H   UNL A   1      39.973  21.274  25.636  1.00  0.00     0.163 HD
ATOM     32  O   UNL A   1      42.420  21.368  25.329  1.00  0.00    -0.269 OA
BRANCH  30  33
ATOM     33  C   UNL A   1      42.443  23.170  26.830  1.00  0.00     0.039 A 
ATOM     34  C   UNL A   1      42.476  22.969  28.213  1.00  0.00     0.014 A 
ATOM     35  C   UNL A   1      42.817  24.396  26.283  1.00  0.00     0.014 A 
ATOM     36  C   UNL A   1      42.671  24.061  29.056  1.00  0.00     0.010 A 
ATOM     37  C   UNL A   1      42.928  25.494  27.118  1.00  0.00     0.010 A 
ATOM     38  C   UNL A   1      42.790  25.339  28.503  1.00  0.00    -0.014 A 
BRANCH  38  39
ATOM     39  C   UNL A   1      42.604  26.553  29.296  1.00  0.00     0.031 A 
ATOM     40  C   UNL A   1      41.373  27.365  29.198  1.00  0.00     0.074 A 
ATOM     41  C   UNL A   1      43.587  26.976  30.122  1.00  0.00     0.049 A 
ATOM     42  N   UNL A   1      41.329  28.640  29.400  1.00  0.00    -0.248 NA
ATOM     43  C   UNL A   1      40.087  26.793  28.822  1.00  0.00     0.031 C 
ATOM     44  C   UNL A   1      43.520  28.054  31.106  1.00  0.00     0.029 A 
ATOM     45  N   UNL A   1      44.944  26.681  30.022  1.00  0.00    -0.354 N 
ATOM     46  C   UNL A   1      40.008  29.016  29.435  1.00  0.00     0.074 A 
ATOM     47  C   UNL A   1      39.276  27.837  29.021  1.00  0.00     0.031 C 
ATOM     48  C   UNL A   1      44.759  28.520  31.317  1.00  0.00     0.029 A 
ATOM     49  C   UNL A   1      45.649  27.840  30.392  1.00  0.00     0.049 A 
ATOM     50  H   UNL A   1      45.336  25.823  29.744  1.00  0.00     0.167 HD
ATOM     51  C   UNL A   1      39.654  30.239  29.921  1.00  0.00     0.034 A 
ATOM     52  C   UNL A   1      46.510  28.440  29.521  1.00  0.00     0.034 A 
ATOM     53  C   UNL A   1      40.806  31.043  30.325  1.00  0.00     0.049 A 
ATOM     54  C   UNL A   1      46.141  29.865  29.156  1.00  0.00     0.074 A 
ATOM     55  C   UNL A   1      41.391  31.351  31.543  1.00  0.00     0.029 A 
ATOM     56  N   UNL A   1      41.690  31.486  29.356  1.00  0.00    -0.354 N 
ATOM     57  N   UNL A   1      45.079  30.492  29.582  1.00  0.00    -0.248 NA
ATOM     58  C   UNL A   1      46.900  30.651  28.183  1.00  0.00     0.031 C 
ATOM     59  C   UNL A   1      42.648  31.971  31.287  1.00  0.00     0.029 A 
ATOM     60  C   UNL A   1      42.819  32.052  29.918  1.00  0.00     0.049 A 
ATOM     61  H   UNL A   1      41.533  31.410  28.388  1.00  0.00     0.167 HD
ATOM     62  C   UNL A   1      44.958  31.680  28.904  1.00  0.00     0.074 A 
ATOM     63  C   UNL A   1      46.125  31.737  28.044  1.00  0.00     0.031 C 
ATOM     64  C   UNL A   1      43.884  32.511  29.043  1.00  0.00     0.034 A 
BRANCH  51  65
ATOM     65  C   UNL A   1      38.231  30.609  30.262  1.00  0.00     0.023 A 
ATOM     66  C   UNL A   1      37.431  31.256  29.299  1.00  0.00     0.031 A 
ATOM     67  C   UNL A   1      37.616  30.380  31.508  1.00  0.00     0.131 A 
ATOM     68  C   UNL A   1      36.151  31.741  29.617  1.00  0.00     0.055 A 
ATOM     69  C   UNL A   1      36.372  30.925  31.850  1.00  0.00     0.041 A 
ATOM     70  F   UNL A   1      38.179  29.583  32.429  1.00  0.00    -0.206 F 
ATOM     71  C   UNL A   1      35.637  31.627  30.906  1.00  0.00     0.022 A 
BRANCH  68  72
ATOM     72  S   UNL A   1      35.155  32.519  28.315  1.00  0.00     0.124 S 
ATOM     73  O   UNL A   1      34.170  33.273  29.084  1.00  0.00    -0.237 OA
ATOM     74  O   UNL A   1      36.153  33.304  27.597  1.00  0.00    -0.237 OA
ATOM     75  O   UNL A   1      34.616  31.379  27.576  1.00  0.00    -0.744 OA
ENDBRANCH  68  72
ENDBRANCH  51  65
BRANCH  52  76
ATOM     76  C   UNL A   1      47.192  27.472  28.611  1.00  0.00     0.023 A 
ATOM     77  C   UNL A   1      46.546  27.157  27.395  1.00  0.00     0.031 A 
ATOM     78  C   UNL A   1      48.551  27.153  28.732  1.00  0.00     0.131 A 
ATOM     79  C   UNL A   1      47.289  26.697  26.300  1.00  0.00     0.055 A 
ATOM     80  C   UNL A   1      49.272  26.617  27.659  1.00  0.00     0.041 A 
ATOM     81  F   UNL A   1      49.235  27.467  29.841  1.00  0.00    -0.206 F 
ATOM     82  C   UNL A   1      48.653  26.430  26.423  1.00  0.00     0.022 A 
BRANCH  79  83
ATOM     83  S   UNL A   1      46.529  26.721  24.650  1.00  0.00     0.124 S 
ATOM     84  O   UNL A   1      47.694  26.721  23.774  1.00  0.00    -0.237 OA
ATOM     85  O   UNL A   1      45.725  25.501  24.642  1.00  0.00    -0.237 OA
ATOM     86  O   UNL A   1      45.745  27.955  24.661  1.00  0.00    -0.744 OA
ENDBRANCH  79  83
ENDBRANCH  52  76
BRANCH  64  87
ATOM     87  C   UNL A   1      43.768  33.819  28.305  1.00  0.00     0.023 A 
ATOM     88  C   UNL A   1      43.698  35.046  28.986  1.00  0.00     0.031 A 
ATOM     89  C   UNL A   1      43.670  33.876  26.898  1.00  0.00     0.131 A 
ATOM     90  C   UNL A   1      43.636  36.259  28.279  1.00  0.00     0.055 A 
ATOM     91  C   UNL A   1      43.519  35.079  26.203  1.00  0.00     0.041 A 
ATOM     92  F   UNL A   1      43.760  32.774  26.141  1.00  0.00    -0.206 F 
ATOM     93  C   UNL A   1      43.519  36.283  26.891  1.00  0.00     0.022 A 
BRANCH  90  94
ATOM     94  S   UNL A   1      43.806  37.807  29.204  1.00  0.00     0.124 S 
ATOM     95  O   UNL A   1      45.037  38.371  28.662  1.00  0.00    -0.237 OA
ATOM     96  O   UNL A   1      42.574  38.503  28.840  1.00  0.00    -0.237 OA
ATOM     97  O   UNL A   1      43.881  37.370  30.597  1.00  0.00    -0.744 OA
ENDBRANCH  90  94
ENDBRANCH  64  87
ENDBRANCH  38  39
ENDBRANCH  30  33
ENDBRANCH  28  29
ENDBRANCH  27  28
ENDBRANCH  26  27
ENDBRANCH   1  26
TORSDOF 20
ENDMDL
MODEL 3
REMARK VINA RESULT:     -10.8      2.727      4.046
REMARK SMILES Cc1ccccc1SCC(=O)N[C@H]1C=C[C@H](C(=O)NCCCCCCNC(=O)c2ccc(-c3c4nc(c(-c5cc(S(=O)(=O)[O-])ccc5F)c5ccc([nH]5)c(-c5cc(S(=O)(=O)[O-])ccc5F)c5nc(c(-c6cc(S(=O)(=O)[O-])ccc6F)c6ccc3[nH]6)C=C5)C=C4)cc2)C1
REMARK SMILES IDX 22 1 21 2 20 3 19 4 17 5 18 6 16 8 13 9 14 10 92 11 15 12
REMARK SMILES IDX 12 13 10 14 11 15 9 17 8 18 7 19 1 20 2 21 3 22 4 23 6 24
REMARK SMILES IDX 5 25 23 26 24 27 25 28 26 29 27 30 28 32 29 33 30 34 91 35
REMARK SMILES IDX 31 36 90 37 32 38 33 39 34 40 84 41 35 42 89 43 83 44 85 45
REMARK SMILES IDX 36 46 88 47 82 48 81 49 37 51 69 52 49 53 68 54 50 55 53 56
REMARK SMILES IDX 67 57 86 58 51 59 52 60 66 62 87 63 54 64 38 65 39 66 47 67
REMARK SMILES IDX 40 68 46 69 48 70 45 71 41 72 42 73 43 74 44 75 70 76 71 77
REMARK SMILES IDX 79 78 72 79 78 80 80 81 77 82 73 83 74 84 75 85 76 86 55 87
REMARK SMILES IDX 56 88 64 89 57 90 63 91 65 92 62 93 58 94 59 95 60 96 61 97
REMARK H PARENT 19 7 12 16 26 31 85 50 53 61
REMARK Flexibility Score: inf
ROOT
ATOM      1  C   UNL A   1      39.103  23.862  26.643  1.00  0.00     0.002 C 
ENDROOT
BRANCH   1   2
ATOM      2  C   UNL A   1      38.026  22.962  26.024  1.00  0.00     0.021 C 
BRANCH   2   3
ATOM      3  C   UNL A   1      36.794  23.697  25.501  1.00  0.00     0.116 C 
BRANCH   3   4
ATOM      4  N   UNL A   1      35.581  23.257  26.160  1.00  0.00    -0.356 N 
ATOM      5  C   UNL A   1      34.501  22.603  25.651  1.00  0.00     0.227 C 
ATOM      6  O   UNL A   1      33.589  22.278  26.416  1.00  0.00    -0.274 OA
ATOM      7  H   UNL A   1      35.530  23.461  27.122  1.00  0.00     0.163 HD
BRANCH   5   8
ATOM      8  C   UNL A   1      34.485  22.232  24.168  1.00  0.00     0.103 C 
ATOM      9  C   UNL A   1      33.127  23.913  23.023  1.00  0.00     0.106 C 
ATOM     10  C   UNL A   1      32.375  22.627  23.217  1.00  0.00    -0.006 C 
ATOM     11  C   UNL A   1      34.573  23.476  23.277  1.00  0.00     0.047 C 
ATOM     12  C   UNL A   1      33.125  21.698  23.823  1.00  0.00    -0.016 C 
BRANCH   9  13
ATOM     13  N   UNL A   1      32.868  24.364  21.674  1.00  0.00    -0.349 N 
ATOM     14  C   UNL A   1      32.512  25.588  21.209  1.00  0.00     0.230 C 
ATOM     15  O   UNL A   1      32.286  25.674  19.997  1.00  0.00    -0.274 OA
ATOM     16  H   UNL A   1      32.968  23.671  20.981  1.00  0.00     0.164 HD
BRANCH  14  17
ATOM     17  C   UNL A   1      32.544  26.827  22.075  1.00  0.00     0.174 C 
BRANCH  17  18
ATOM     18  S   UNL A   1      31.008  27.314  22.898  1.00  0.00    -0.116 SA
BRANCH  18  19
ATOM     19  C   UNL A   1      31.348  27.672  24.618  1.00  0.00     0.011 A 
ATOM     20  C   UNL A   1      31.001  25.355  25.698  1.00  0.00     0.045 C 
ATOM     21  C   UNL A   1      31.301  26.823  25.738  1.00  0.00    -0.038 A 
ATOM     22  C   UNL A   1      31.549  27.366  27.020  1.00  0.00     0.004 A 
ATOM     23  C   UNL A   1      31.767  28.728  27.212  1.00  0.00     0.000 A 
ATOM     24  C   UNL A   1      31.566  29.052  24.841  1.00  0.00     0.015 A 
ATOM     25  C   UNL A   1      31.765  29.577  26.119  1.00  0.00     0.001 A 
ENDBRANCH  18  19
ENDBRANCH  17  18
ENDBRANCH  14  17
ENDBRANCH   9  13
ENDBRANCH   5   8
ENDBRANCH   3   4
ENDBRANCH   2   3
ENDBRANCH   1   2
BRANCH   1  26
ATOM     26  C   UNL A   1      40.081  23.186  27.617  1.00  0.00     0.002 C 
BRANCH  26  27
ATOM     27  C   UNL A   1      41.017  22.140  27.014  1.00  0.00     0.021 C 
BRANCH  27  28
ATOM     28  C   UNL A   1      41.725  22.599  25.743  1.00  0.00     0.116 C 
BRANCH  28  29
ATOM     29  N   UNL A   1      42.748  21.678  25.262  1.00  0.00    -0.352 N 
ATOM     30  C   UNL A   1      44.121  21.797  25.385  1.00  0.00     0.251 C 
ATOM     31  H   UNL A   1      42.422  20.877  24.792  1.00  0.00     0.163 HD
ATOM     32  O   UNL A   1      44.885  20.959  24.925  1.00  0.00    -0.269 OA
BRANCH  30  33
ATOM     33  C   UNL A   1      44.655  22.914  26.199  1.00  0.00     0.039 A 
ATOM     34  C   UNL A   1      44.742  22.719  27.581  1.00  0.00     0.014 A 
ATOM     35  C   UNL A   1      44.831  24.183  25.651  1.00  0.00     0.014 A 
ATOM     36  C   UNL A   1      44.784  23.826  28.425  1.00  0.00     0.010 A 
ATOM     37  C   UNL A   1      44.790  25.285  26.489  1.00  0.00     0.010 A 
ATOM     38  C   UNL A   1      44.701  25.108  27.875  1.00  0.00    -0.014 A 
BRANCH  38  39
ATOM     39  C   UNL A   1      44.347  26.279  28.676  1.00  0.00     0.031 A 
ATOM     40  C   UNL A   1      42.987  26.856  28.651  1.00  0.00     0.074 A 
ATOM     41  C   UNL A   1      45.286  26.882  29.440  1.00  0.00     0.049 A 
ATOM     42  N   UNL A   1      42.727  28.105  28.854  1.00  0.00    -0.248 NA
ATOM     43  C   UNL A   1      41.804  26.059  28.355  1.00  0.00     0.031 C 
ATOM     44  C   UNL A   1      45.085  27.942  30.424  1.00  0.00     0.029 A 
ATOM     45  N   UNL A   1      46.665  26.833  29.258  1.00  0.00    -0.354 N 
ATOM     46  C   UNL A   1      41.365  28.239  28.969  1.00  0.00     0.074 A 
ATOM     47  C   UNL A   1      40.833  26.944  28.602  1.00  0.00     0.031 C 
ATOM     48  C   UNL A   1      46.231  28.625  30.559  1.00  0.00     0.029 A 
ATOM     49  C   UNL A   1      47.172  28.104  29.583  1.00  0.00     0.049 A 
ATOM     50  H   UNL A   1      47.187  26.055  28.958  1.00  0.00     0.167 HD
ATOM     51  C   UNL A   1      40.827  29.386  29.473  1.00  0.00     0.034 A 
ATOM     52  C   UNL A   1      47.858  28.837  28.660  1.00  0.00     0.034 A 
ATOM     53  C   UNL A   1      41.837  30.388  29.805  1.00  0.00     0.049 A 
ATOM     54  C   UNL A   1      47.219  30.168  28.316  1.00  0.00     0.074 A 
ATOM     55  C   UNL A   1      42.429  30.811  30.984  1.00  0.00     0.029 A 
ATOM     56  N   UNL A   1      42.568  30.970  28.783  1.00  0.00    -0.354 N 
ATOM     57  N   UNL A   1      46.088  30.601  28.804  1.00  0.00    -0.248 NA
ATOM     58  C   UNL A   1      47.765  31.065  27.297  1.00  0.00     0.031 C 
ATOM     59  C   UNL A   1      43.538  31.642  30.652  1.00  0.00     0.029 A 
ATOM     60  C   UNL A   1      43.609  31.735  29.275  1.00  0.00     0.049 A 
ATOM     61  H   UNL A   1      42.371  30.854  27.826  1.00  0.00     0.167 HD
ATOM     62  C   UNL A   1      45.716  31.739  28.133  1.00  0.00     0.074 A 
ATOM     63  C   UNL A   1      46.801  31.993  27.204  1.00  0.00     0.031 C 
ATOM     64  C   UNL A   1      44.521  32.367  28.336  1.00  0.00     0.034 A 
BRANCH  51  65
ATOM     65  C   UNL A   1      39.383  29.500  29.899  1.00  0.00     0.023 A 
ATOM     66  C   UNL A   1      38.549  30.453  29.282  1.00  0.00     0.031 A 
ATOM     67  C   UNL A   1      38.779  28.728  30.911  1.00  0.00     0.131 A 
ATOM     68  C   UNL A   1      37.241  30.687  29.741  1.00  0.00     0.055 A 
ATOM     69  C   UNL A   1      37.504  29.009  31.417  1.00  0.00     0.041 A 
ATOM     70  F   UNL A   1      39.386  27.645  31.419  1.00  0.00    -0.206 F 
ATOM     71  C   UNL A   1      36.731  30.006  30.843  1.00  0.00     0.022 A 
BRANCH  68  72
ATOM     72  S   UNL A   1      36.205  31.894  28.868  1.00  0.00     0.124 S 
ATOM     73  O   UNL A   1      35.190  32.215  29.867  1.00  0.00    -0.237 OA
ATOM     74  O   UNL A   1      37.162  32.948  28.556  1.00  0.00    -0.237 OA
ATOM     75  O   UNL A   1      35.714  31.144  27.712  1.00  0.00    -0.744 OA
ENDBRANCH  68  72
ENDBRANCH  51  65
BRANCH  52  76
ATOM     76  C   UNL A   1      48.647  27.995  27.712  1.00  0.00     0.023 A 
ATOM     77  C   UNL A   1      48.003  27.570  26.529  1.00  0.00     0.031 A 
ATOM     78  C   UNL A   1      50.044  27.912  27.762  1.00  0.00     0.131 A 
ATOM     79  C   UNL A   1      48.756  27.239  25.396  1.00  0.00     0.055 A 
ATOM     80  C   UNL A   1      50.790  27.503  26.651  1.00  0.00     0.041 A 
ATOM     81  F   UNL A   1      50.721  28.342  28.836  1.00  0.00    -0.206 F 
ATOM     82  C   UNL A   1      50.150  27.208  25.448  1.00  0.00     0.022 A 
BRANCH  79  83
ATOM     83  S   UNL A   1      47.920  27.127  23.786  1.00  0.00     0.124 S 
ATOM     84  O   UNL A   1      48.598  28.159  23.013  1.00  0.00    -0.237 OA
ATOM     85  O   UNL A   1      48.182  25.748  23.377  1.00  0.00    -0.237 OA
ATOM     86  O   UNL A   1      46.522  27.397  24.116  1.00  0.00    -0.744 OA
ENDBRANCH  79  83
ENDBRANCH  52  76
BRANCH  64  87
ATOM     87  C   UNL A   1      44.128  33.624  27.604  1.00  0.00     0.023 A 
ATOM     88  C   UNL A   1      44.063  34.866  28.256  1.00  0.00     0.031 A 
ATOM     89  C   UNL A   1      43.755  33.609  26.243  1.00  0.00     0.131 A 
ATOM     90  C   UNL A   1      43.740  36.035  27.546  1.00  0.00     0.055 A 
ATOM     91  C   UNL A   1      43.347  34.759  25.562  1.00  0.00     0.041 A 
ATOM     92  F   UNL A   1      43.812  32.488  25.509  1.00  0.00    -0.206 F 
ATOM     93  C   UNL A   1      43.355  35.987  26.208  1.00  0.00     0.022 A 
BRANCH  90  94
ATOM     94  S   UNL A   1      43.922  37.632  28.383  1.00  0.00     0.124 S 
ATOM     95  O   UNL A   1      43.309  38.560  27.439  1.00  0.00    -0.237 OA
ATOM     96  O   UNL A   1      43.180  37.401  29.620  1.00  0.00    -0.237 OA
ATOM     97  O   UNL A   1      45.368  37.772  28.545  1.00  0.00    -0.744 OA
ENDBRANCH  90  94
ENDBRANCH  64  87
ENDBRANCH  38  39
ENDBRANCH  30  33
ENDBRANCH  28  29
ENDBRANCH  27  28
ENDBRANCH  26  27
ENDBRANCH   1  26
TORSDOF 20
ENDMDL
