MODEL 1
REMARK VINA RESULT:     -11.5      0.000      0.000
REMARK SMILES O=C(NCCCCCCNC(=O)[C@H]1CC2(CCN(C(=O)c3cc4ccccc4[nH]3)CC2)CN1C(=O)C1CC1)c1ccc(-c2c3nc(c(-c4cc(S(=O)(=O)[O-])ccc4F)c4ccc([nH]4)c(-c4cc(S(=O)(=O)[O-])ccc4F)c4nc(c(-c5cc(S(=O)(=O)[O-])ccc5F)c5ccc2[nH]5)C=C4)C=C3)cc1
REMARK SMILES IDX 6 1 5 2 4 3 3 4 1 5 2 6 39 8 40 9 101 10 41 11 100 12 42 13
REMARK SMILES IDX 43 14 44 15 94 16 45 17 99 18 93 19 95 20 46 21 98 22 92 23
REMARK SMILES IDX 91 24 47 26 79 27 59 28 78 29 60 30 63 31 77 32 96 33 61 34
REMARK SMILES IDX 62 35 76 37 97 38 64 39 48 40 49 41 57 42 50 43 56 44 58 45
REMARK SMILES IDX 55 46 51 47 52 48 53 49 54 50 80 51 81 52 89 53 82 54 88 55
REMARK SMILES IDX 90 56 87 57 83 58 84 59 85 60 86 61 65 62 66 63 74 64 67 65
REMARK SMILES IDX 73 66 75 67 72 68 68 69 69 70 70 71 71 72 7 73 8 74 9 75
REMARK SMILES IDX 10 76 11 77 12 79 13 80 14 81 33 82 15 83 32 84 16 85 31 86
REMARK SMILES IDX 17 87 30 88 18 89 19 90 20 91 34 92 35 93 36 94 37 95 38 96
REMARK SMILES IDX 21 97 22 98 29 99 23 100 28 101 24 103 27 104 25 105 26 106
REMARK H PARENT 3 7 95 25 63 36 10 78 29 102
REMARK Flexibility Score: inf
ROOT
ATOM      1  C   UNL A   1      36.818  30.053  27.899  1.00  0.00     0.002 C 
ENDROOT
BRANCH   1   2
ATOM      2  C   UNL A   1      37.504  29.788  29.240  1.00  0.00     0.021 C 
BRANCH   2   3
ATOM      3  C   UNL A   1      38.083  31.022  29.923  1.00  0.00     0.116 C 
BRANCH   3   4
ATOM      4  N   UNL A   1      37.465  31.287  31.210  1.00  0.00    -0.352 N 
ATOM      5  O   UNL A   1      37.202  31.031  33.442  1.00  0.00    -0.269 OA
ATOM      6  C   UNL A   1      37.895  30.860  32.444  1.00  0.00     0.251 C 
ATOM      7  H   UNL A   1      36.646  31.833  31.199  1.00  0.00     0.163 HD
BRANCH   6   8
ATOM      8  C   UNL A   1      39.198  30.171  32.542  1.00  0.00     0.039 A 
ATOM      9  C   UNL A   1      40.384  30.911  32.600  1.00  0.00     0.014 A 
ATOM     10  C   UNL A   1      39.229  28.774  32.569  1.00  0.00     0.014 A 
ATOM     11  C   UNL A   1      41.610  30.252  32.620  1.00  0.00     0.010 A 
ATOM     12  C   UNL A   1      40.458  28.115  32.632  1.00  0.00     0.010 A 
ATOM     13  C   UNL A   1      41.656  28.848  32.654  1.00  0.00    -0.014 A 
BRANCH  13  14
ATOM     14  C   UNL A   1      42.955  28.155  32.829  1.00  0.00     0.031 A 
ATOM     15  C   UNL A   1      43.504  27.864  34.195  1.00  0.00     0.074 A 
ATOM     16  C   UNL A   1      43.655  27.829  31.725  1.00  0.00     0.049 A 
ATOM     17  N   UNL A   1      44.651  27.328  34.523  1.00  0.00    -0.248 NA
ATOM     18  C   UNL A   1      42.659  28.230  35.342  1.00  0.00     0.031 C 
ATOM     19  C   UNL A   1      43.216  28.081  30.349  1.00  0.00     0.029 A 
ATOM     20  N   UNL A   1      44.881  27.234  31.579  1.00  0.00    -0.354 N 
ATOM     21  C   UNL A   1      44.678  27.304  35.913  1.00  0.00     0.074 A 
ATOM     22  C   UNL A   1      43.435  27.895  36.366  1.00  0.00     0.031 C 
ATOM     23  C   UNL A   1      44.160  27.648  29.500  1.00  0.00     0.029 A 
ATOM     24  C   UNL A   1      45.289  27.139  30.270  1.00  0.00     0.049 A 
ATOM     25  H   UNL A   1      45.417  26.908  32.337  1.00  0.00     0.167 HD
ATOM     26  C   UNL A   1      45.654  26.831  36.728  1.00  0.00     0.034 A 
ATOM     27  C   UNL A   1      46.459  26.729  29.745  1.00  0.00     0.034 A 
ATOM     28  C   UNL A   1      46.881  26.239  36.252  1.00  0.00     0.049 A 
ATOM     29  C   UNL A   1      47.543  26.259  30.676  1.00  0.00     0.074 A 
ATOM     30  C   UNL A   1      47.890  25.638  36.987  1.00  0.00     0.029 A 
ATOM     31  N   UNL A   1      47.280  26.194  34.924  1.00  0.00    -0.354 N 
ATOM     32  N   UNL A   1      47.527  26.186  31.985  1.00  0.00    -0.248 NA
ATOM     33  C   UNL A   1      48.799  25.820  30.057  1.00  0.00     0.031 C 
ATOM     34  C   UNL A   1      48.924  25.288  36.109  1.00  0.00     0.029 A 
ATOM     35  C   UNL A   1      48.539  25.620  34.821  1.00  0.00     0.049 A 
ATOM     36  H   UNL A   1      46.746  26.521  34.164  1.00  0.00     0.167 HD
ATOM     37  C   UNL A   1      48.772  25.686  32.349  1.00  0.00     0.074 A 
ATOM     38  C   UNL A   1      49.505  25.458  31.120  1.00  0.00     0.031 C 
ATOM     39  C   UNL A   1      49.265  25.435  33.588  1.00  0.00     0.034 A 
BRANCH  26  40
ATOM     40  C   UNL A   1      45.458  26.977  38.215  1.00  0.00     0.023 A 
ATOM     41  C   UNL A   1      45.867  28.126  38.910  1.00  0.00     0.031 A 
ATOM     42  C   UNL A   1      44.837  25.947  38.945  1.00  0.00     0.131 A 
ATOM     43  C   UNL A   1      45.692  28.201  40.302  1.00  0.00     0.055 A 
ATOM     44  C   UNL A   1      44.613  26.051  40.319  1.00  0.00     0.041 A 
ATOM     45  F   UNL A   1      44.442  24.820  38.332  1.00  0.00    -0.206 F 
ATOM     46  C   UNL A   1      45.050  27.180  41.007  1.00  0.00     0.022 A 
BRANCH  43  47
ATOM     47  S   UNL A   1      46.400  29.611  41.195  1.00  0.00     0.124 S 
ATOM     48  O   UNL A   1      47.512  28.985  41.906  1.00  0.00    -0.237 OA
ATOM     49  O   UNL A   1      46.766  30.519  40.113  1.00  0.00    -0.237 OA
ATOM     50  O   UNL A   1      45.303  30.067  42.047  1.00  0.00    -0.744 OA
ENDBRANCH  43  47
ENDBRANCH  26  40
BRANCH  27  51
ATOM     51  C   UNL A   1      46.687  26.810  28.276  1.00  0.00     0.023 A 
ATOM     52  C   UNL A   1      46.370  25.737  27.433  1.00  0.00     0.031 A 
ATOM     53  C   UNL A   1      47.243  27.967  27.702  1.00  0.00     0.131 A 
ATOM     54  C   UNL A   1      46.638  25.831  26.058  1.00  0.00     0.055 A 
ATOM     55  C   UNL A   1      47.467  28.073  26.329  1.00  0.00     0.041 A 
ATOM     56  F   UNL A   1      47.557  29.023  28.470  1.00  0.00    -0.206 F 
ATOM     57  C   UNL A   1      47.173  26.995  25.499  1.00  0.00     0.022 A 
BRANCH  54  58
ATOM     58  S   UNL A   1      46.339  24.379  25.014  1.00  0.00     0.124 S 
ATOM     59  O   UNL A   1      46.699  23.286  25.910  1.00  0.00    -0.237 OA
ATOM     60  O   UNL A   1      44.919  24.516  24.708  1.00  0.00    -0.237 OA
ATOM     61  O   UNL A   1      47.242  24.581  23.883  1.00  0.00    -0.744 OA
ENDBRANCH  54  58
ENDBRANCH  27  51
BRANCH  39  62
ATOM     62  C   UNL A   1      50.660  24.876  33.653  1.00  0.00     0.023 A 
ATOM     63  C   UNL A   1      50.903  23.503  33.467  1.00  0.00     0.031 A 
ATOM     64  C   UNL A   1      51.751  25.715  33.933  1.00  0.00     0.131 A 
ATOM     65  C   UNL A   1      52.205  23.002  33.611  1.00  0.00     0.055 A 
ATOM     66  C   UNL A   1      53.050  25.217  34.028  1.00  0.00     0.041 A 
ATOM     67  F   UNL A   1      51.568  27.032  34.122  1.00  0.00    -0.206 F 
ATOM     68  C   UNL A   1      53.282  23.852  33.877  1.00  0.00     0.022 A 
BRANCH  65  69
ATOM     69  S   UNL A   1      52.464  21.211  33.510  1.00  0.00     0.124 S 
ATOM     70  O   UNL A   1      52.224  20.950  32.094  1.00  0.00    -0.237 OA
ATOM     71  O   UNL A   1      53.846  21.066  33.959  1.00  0.00    -0.237 OA
ATOM     72  O   UNL A   1      51.459  20.667  34.422  1.00  0.00    -0.744 OA
ENDBRANCH  65  69
ENDBRANCH  39  62
ENDBRANCH  13  14
ENDBRANCH   6   8
ENDBRANCH   3   4
ENDBRANCH   2   3
ENDBRANCH   1   2
BRANCH   1  73
ATOM     73  C   UNL A   1      35.839  31.230  27.884  1.00  0.00     0.002 C 
BRANCH  73  74
ATOM     74  C   UNL A   1      34.383  30.876  27.545  1.00  0.00     0.021 C 
BRANCH  74  75
ATOM     75  C   UNL A   1      34.166  29.430  27.095  1.00  0.00     0.116 C 
BRANCH  75  76
ATOM     76  N   UNL A   1      32.957  28.839  27.656  1.00  0.00    -0.354 N 
ATOM     77  C   UNL A   1      32.083  27.907  27.164  1.00  0.00     0.242 C 
ATOM     78  H   UNL A   1      32.726  29.173  28.553  1.00  0.00     0.163 HD
ATOM     79  O   UNL A   1      31.115  27.613  27.870  1.00  0.00    -0.273 OA
BRANCH  77  80
ATOM     80  C   UNL A   1      32.360  27.233  25.805  1.00  0.00     0.175 C 
ATOM     81  C   UNL A   1      33.089  25.907  26.155  1.00  0.00     0.044 C 
ATOM     82  N   UNL A   1      31.396  26.723  24.821  1.00  0.00    -0.330 N 
ATOM     83  C   UNL A   1      33.161  25.106  24.833  1.00  0.00    -0.006 C 
ATOM     84  C   UNL A   1      32.147  25.835  23.937  1.00  0.00     0.127 C 
ATOM     85  C   UNL A   1      32.703  23.638  24.990  1.00  0.00     0.030 C 
ATOM     86  C   UNL A   1      34.594  25.136  24.259  1.00  0.00     0.030 C 
ATOM     87  C   UNL A   1      33.698  22.790  25.767  1.00  0.00     0.120 C 
ATOM     88  C   UNL A   1      35.559  24.230  25.039  1.00  0.00     0.120 C 
ATOM     89  N   UNL A   1      35.024  22.877  25.158  1.00  0.00    -0.337 N 
ATOM     90  C   UNL A   1      35.880  21.792  24.967  1.00  0.00     0.270 C 
ATOM     91  O   UNL A   1      37.098  21.941  24.853  1.00  0.00    -0.267 OA
BRANCH  82  92
ATOM     92  C   UNL A   1      30.325  27.373  24.218  1.00  0.00     0.226 C 
ATOM     93  O   UNL A   1      29.196  26.881  24.244  1.00  0.00    -0.275 OA
BRANCH  92  94
ATOM     94  C   UNL A   1      30.404  28.780  23.733  1.00  0.00     0.079 C 
ATOM     95  C   UNL A   1      30.606  29.214  22.309  1.00  0.00     0.014 C 
ATOM     96  C   UNL A   1      29.303  29.487  23.007  1.00  0.00     0.014 C 
ENDBRANCH  92  94
ENDBRANCH  82  92
BRANCH  90  97
ATOM     97  C   UNL A   1      35.283  20.478  24.886  1.00  0.00     0.105 A 
ATOM     98  C   UNL A   1      35.911  19.248  24.786  1.00  0.00     0.042 A 
ATOM     99  N   UNL A   1      33.930  20.234  24.791  1.00  0.00    -0.351 N 
ATOM    100  C   UNL A   1      34.915  18.238  24.725  1.00  0.00     0.000 A 
ATOM    101  C   UNL A   1      33.678  18.883  24.731  1.00  0.00     0.046 A 
ATOM    102  H   UNL A   1      33.238  20.934  24.771  1.00  0.00     0.167 HD
ATOM    103  C   UNL A   1      34.946  16.832  24.661  1.00  0.00     0.010 A 
ATOM    104  C   UNL A   1      32.464  18.189  24.671  1.00  0.00     0.026 A 
ATOM    105  C   UNL A   1      33.742  16.122  24.610  1.00  0.00     0.001 A 
ATOM    106  C   UNL A   1      32.521  16.793  24.615  1.00  0.00     0.002 A 
ENDBRANCH  90  97
ENDBRANCH  77  80
ENDBRANCH  75  76
ENDBRANCH  74  75
ENDBRANCH  73  74
ENDBRANCH   1  73
TORSDOF 19
ENDMDL
MODEL 2
REMARK VINA RESULT:     -11.4      6.351     11.599
REMARK SMILES O=C(NCCCCCCNC(=O)[C@H]1CC2(CCN(C(=O)c3cc4ccccc4[nH]3)CC2)CN1C(=O)C1CC1)c1ccc(-c2c3nc(c(-c4cc(S(=O)(=O)[O-])ccc4F)c4ccc([nH]4)c(-c4cc(S(=O)(=O)[O-])ccc4F)c4nc(c(-c5cc(S(=O)(=O)[O-])ccc5F)c5ccc2[nH]5)C=C4)C=C3)cc1
REMARK SMILES IDX 6 1 5 2 4 3 3 4 1 5 2 6 39 8 40 9 101 10 41 11 100 12 42 13
REMARK SMILES IDX 43 14 44 15 94 16 45 17 99 18 93 19 95 20 46 21 98 22 92 23
REMARK SMILES IDX 91 24 47 26 79 27 59 28 78 29 60 30 63 31 77 32 96 33 61 34
REMARK SMILES IDX 62 35 76 37 97 38 64 39 48 40 49 41 57 42 50 43 56 44 58 45
REMARK SMILES IDX 55 46 51 47 52 48 53 49 54 50 80 51 81 52 89 53 82 54 88 55
REMARK SMILES IDX 90 56 87 57 83 58 84 59 85 60 86 61 65 62 66 63 74 64 67 65
REMARK SMILES IDX 73 66 75 67 72 68 68 69 69 70 70 71 71 72 7 73 8 74 9 75
REMARK SMILES IDX 10 76 11 77 12 79 13 80 14 81 33 82 15 83 32 84 16 85 31 86
REMARK SMILES IDX 17 87 30 88 18 89 19 90 20 91 34 92 35 93 36 94 37 95 38 96
REMARK SMILES IDX 21 97 22 98 29 99 23 100 28 101 24 103 27 104 25 105 26 106
REMARK H PARENT 3 7 95 25 63 36 10 78 29 102
REMARK Flexibility Score: inf
ROOT
ATOM      1  C   UNL A   1      40.949  24.980  26.660  1.00  0.00     0.002 C 
ENDROOT
BRANCH   1   2
ATOM      2  C   UNL A   1      41.765  23.693  26.780  1.00  0.00     0.021 C 
BRANCH   2   3
ATOM      3  C   UNL A   1      42.534  23.298  25.523  1.00  0.00     0.116 C 
BRANCH   3   4
ATOM      4  N   UNL A   1      43.823  22.701  25.824  1.00  0.00    -0.352 N 
ATOM      5  O   UNL A   1      46.010  22.743  26.402  1.00  0.00    -0.269 OA
ATOM      6  C   UNL A   1      44.936  23.332  26.326  1.00  0.00     0.251 C 
ATOM      7  H   UNL A   1      43.910  21.736  25.650  1.00  0.00     0.163 HD
BRANCH   6   8
ATOM      8  C   UNL A   1      44.820  24.742  26.754  1.00  0.00     0.039 A 
ATOM      9  C   UNL A   1      44.872  25.072  28.112  1.00  0.00     0.014 A 
ATOM     10  C   UNL A   1      44.652  25.735  25.785  1.00  0.00     0.014 A 
ATOM     11  C   UNL A   1      44.690  26.395  28.509  1.00  0.00     0.010 A 
ATOM     12  C   UNL A   1      44.512  27.065  26.184  1.00  0.00     0.010 A 
ATOM     13  C   UNL A   1      44.526  27.404  27.547  1.00  0.00    -0.014 A 
BRANCH  13  14
ATOM     14  C   UNL A   1      44.485  28.826  27.966  1.00  0.00     0.031 A 
ATOM     15  C   UNL A   1      45.717  29.683  27.928  1.00  0.00     0.074 A 
ATOM     16  C   UNL A   1      43.319  29.320  28.424  1.00  0.00     0.049 A 
ATOM     17  N   UNL A   1      45.868  30.921  28.321  1.00  0.00    -0.248 NA
ATOM     18  C   UNL A   1      46.938  29.069  27.386  1.00  0.00     0.031 C 
ATOM     19  C   UNL A   1      42.066  28.564  28.515  1.00  0.00     0.029 A 
ATOM     20  N   UNL A   1      42.996  30.559  28.912  1.00  0.00    -0.354 N 
ATOM     21  C   UNL A   1      47.203  31.235  28.091  1.00  0.00     0.074 A 
ATOM     22  C   UNL A   1      47.821  30.048  27.537  1.00  0.00     0.031 C 
ATOM     23  C   UNL A   1      41.113  29.354  29.031  1.00  0.00     0.029 A 
ATOM     24  C   UNL A   1      41.698  30.649  29.356  1.00  0.00     0.049 A 
ATOM     25  H   UNL A   1      43.631  31.310  28.943  1.00  0.00     0.167 HD
ATOM     26  C   UNL A   1      47.844  32.407  28.325  1.00  0.00     0.034 A 
ATOM     27  C   UNL A   1      41.059  31.648  29.994  1.00  0.00     0.034 A 
ATOM     28  C   UNL A   1      47.204  33.579  28.870  1.00  0.00     0.049 A 
ATOM     29  C   UNL A   1      41.810  32.917  30.286  1.00  0.00     0.074 A 
ATOM     30  C   UNL A   1      47.734  34.846  29.052  1.00  0.00     0.029 A 
ATOM     31  N   UNL A   1      45.900  33.625  29.344  1.00  0.00    -0.354 N 
ATOM     32  N   UNL A   1      43.056  33.217  30.006  1.00  0.00    -0.248 NA
ATOM     33  C   UNL A   1      41.071  33.977  30.982  1.00  0.00     0.031 C 
ATOM     34  C   UNL A   1      46.772  35.636  29.694  1.00  0.00     0.029 A 
ATOM     35  C   UNL A   1      45.623  34.882  29.863  1.00  0.00     0.049 A 
ATOM     36  H   UNL A   1      45.263  32.875  29.317  1.00  0.00     0.167 HD
ATOM     37  C   UNL A   1      43.249  34.507  30.487  1.00  0.00     0.074 A 
ATOM     38  C   UNL A   1      41.987  34.932  31.058  1.00  0.00     0.031 C 
ATOM     39  C   UNL A   1      44.369  35.272  30.459  1.00  0.00     0.034 A 
BRANCH  26  40
ATOM     40  C   UNL A   1      49.322  32.467  28.036  1.00  0.00     0.023 A 
ATOM     41  C   UNL A   1      49.819  32.845  26.778  1.00  0.00     0.031 A 
ATOM     42  C   UNL A   1      50.249  32.151  29.046  1.00  0.00     0.131 A 
ATOM     43  C   UNL A   1      51.205  32.855  26.547  1.00  0.00     0.055 A 
ATOM     44  C   UNL A   1      51.626  32.217  28.829  1.00  0.00     0.041 A 
ATOM     45  F   UNL A   1      49.827  31.767  30.262  1.00  0.00    -0.206 F 
ATOM     46  C   UNL A   1      52.111  32.563  27.570  1.00  0.00     0.022 A 
BRANCH  43  47
ATOM     47  S   UNL A   1      51.806  33.162  24.865  1.00  0.00     0.124 S 
ATOM     48  O   UNL A   1      50.934  34.251  24.431  1.00  0.00    -0.237 OA
ATOM     49  O   UNL A   1      53.204  33.517  25.088  1.00  0.00    -0.237 OA
ATOM     50  O   UNL A   1      51.588  31.888  24.182  1.00  0.00    -0.744 OA
ENDBRANCH  43  47
ENDBRANCH  26  40
BRANCH  27  51
ATOM     51  C   UNL A   1      39.656  31.459  30.457  1.00  0.00     0.023 A 
ATOM     52  C   UNL A   1      38.577  31.992  29.738  1.00  0.00     0.031 A 
ATOM     53  C   UNL A   1      39.383  30.751  31.641  1.00  0.00     0.131 A 
ATOM     54  C   UNL A   1      37.271  31.832  30.227  1.00  0.00     0.055 A 
ATOM     55  C   UNL A   1      38.080  30.557  32.099  1.00  0.00     0.041 A 
ATOM     56  F   UNL A   1      40.384  30.217  32.359  1.00  0.00    -0.206 F 
ATOM     57  C   UNL A   1      37.014  31.109  31.395  1.00  0.00     0.022 A 
BRANCH  54  58
ATOM     58  S   UNL A   1      35.910  32.644  29.346  1.00  0.00     0.124 S 
ATOM     59  O   UNL A   1      34.761  32.279  30.167  1.00  0.00    -0.237 OA
ATOM     60  O   UNL A   1      36.313  34.045  29.395  1.00  0.00    -0.237 OA
ATOM     61  O   UNL A   1      35.948  32.031  28.020  1.00  0.00    -0.744 OA
ENDBRANCH  54  58
ENDBRANCH  27  51
BRANCH  39  62
ATOM     62  C   UNL A   1      44.254  36.648  31.056  1.00  0.00     0.023 A 
ATOM     63  C   UNL A   1      43.885  37.754  30.270  1.00  0.00     0.031 A 
ATOM     64  C   UNL A   1      44.546  36.861  32.413  1.00  0.00     0.131 A 
ATOM     65  C   UNL A   1      43.864  39.036  30.839  1.00  0.00     0.055 A 
ATOM     66  C   UNL A   1      44.477  38.132  32.985  1.00  0.00     0.041 A 
ATOM     67  F   UNL A   1      44.907  35.837  33.203  1.00  0.00    -0.206 F 
ATOM     68  C   UNL A   1      44.144  39.230  32.195  1.00  0.00     0.022 A 
BRANCH  65  69
ATOM     69  S   UNL A   1      43.527  40.459  29.768  1.00  0.00     0.124 S 
ATOM     70  O   UNL A   1      44.834  40.700  29.165  1.00  0.00    -0.237 OA
ATOM     71  O   UNL A   1      42.497  39.943  28.872  1.00  0.00    -0.237 OA
ATOM     72  O   UNL A   1      43.073  41.490  30.701  1.00  0.00    -0.744 OA
ENDBRANCH  65  69
ENDBRANCH  39  62
ENDBRANCH  13  14
ENDBRANCH   6   8
ENDBRANCH   3   4
ENDBRANCH   2   3
ENDBRANCH   1   2
BRANCH   1  73
ATOM     73  C   UNL A   1      39.437  24.817  26.831  1.00  0.00     0.002 C 
BRANCH  73  74
ATOM     74  C   UNL A   1      38.883  23.416  26.525  1.00  0.00     0.021 C 
BRANCH  74  75
ATOM     75  C   UNL A   1      37.407  23.387  26.122  1.00  0.00     0.116 C 
BRANCH  75  76
ATOM     76  N   UNL A   1      37.216  23.194  24.690  1.00  0.00    -0.354 N 
ATOM     77  C   UNL A   1      36.086  23.124  23.921  1.00  0.00     0.242 C 
ATOM     78  H   UNL A   1      38.054  23.094  24.183  1.00  0.00     0.163 HD
ATOM     79  O   UNL A   1      36.236  22.925  22.713  1.00  0.00    -0.273 OA
BRANCH  77  80
ATOM     80  C   UNL A   1      34.701  23.344  24.564  1.00  0.00     0.175 C 
ATOM     81  C   UNL A   1      34.414  24.860  24.389  1.00  0.00     0.044 C 
ATOM     82  N   UNL A   1      33.400  22.805  24.147  1.00  0.00    -0.330 N 
ATOM     83  C   UNL A   1      32.937  25.059  24.807  1.00  0.00    -0.006 C 
ATOM     84  C   UNL A   1      32.389  23.623  24.811  1.00  0.00     0.127 C 
ATOM     85  C   UNL A   1      32.125  25.887  23.784  1.00  0.00     0.030 C 
ATOM     86  C   UNL A   1      32.853  25.734  26.193  1.00  0.00     0.030 C 
ATOM     87  C   UNL A   1      32.509  27.358  23.780  1.00  0.00     0.120 C 
ATOM     88  C   UNL A   1      33.199  27.229  26.141  1.00  0.00     0.120 C 
ATOM     89  N   UNL A   1      32.403  27.915  25.127  1.00  0.00    -0.337 N 
ATOM     90  C   UNL A   1      31.854  29.162  25.428  1.00  0.00     0.270 C 
ATOM     91  O   UNL A   1      32.148  29.766  26.461  1.00  0.00    -0.267 OA
BRANCH  82  92
ATOM     92  C   UNL A   1      33.024  21.485  23.924  1.00  0.00     0.226 C 
ATOM     93  O   UNL A   1      32.592  21.133  22.825  1.00  0.00    -0.275 OA
BRANCH  92  94
ATOM     94  C   UNL A   1      33.340  20.383  24.876  1.00  0.00     0.079 C 
ATOM     95  C   UNL A   1      32.736  19.008  24.867  1.00  0.00     0.014 C 
ATOM     96  C   UNL A   1      34.192  19.199  24.545  1.00  0.00     0.014 C 
ENDBRANCH  92  94
ENDBRANCH  82  92
BRANCH  90  97
ATOM     97  C   UNL A   1      30.906  29.717  24.488  1.00  0.00     0.105 A 
ATOM     98  C   UNL A   1      30.446  29.171  23.302  1.00  0.00     0.042 A 
ATOM     99  N   UNL A   1      30.359  30.978  24.576  1.00  0.00    -0.351 N 
ATOM    100  C   UNL A   1      29.530  30.083  22.713  1.00  0.00     0.000 A 
ATOM    101  C   UNL A   1      29.492  31.211  23.533  1.00  0.00     0.046 A 
ATOM    102  H   UNL A   1      30.561  31.625  25.290  1.00  0.00     0.167 HD
ATOM    103  C   UNL A   1      28.732  30.059  21.554  1.00  0.00     0.010 A 
ATOM    104  C   UNL A   1      28.694  32.325  23.248  1.00  0.00     0.026 A 
ATOM    105  C   UNL A   1      27.920  31.161  21.260  1.00  0.00     0.001 A 
ATOM    106  C   UNL A   1      27.904  32.275  22.096  1.00  0.00     0.002 A 
ENDBRANCH  90  97
ENDBRANCH  77  80
ENDBRANCH  75  76
ENDBRANCH  74  75
ENDBRANCH  73  74
ENDBRANCH   1  73
TORSDOF 19
ENDMDL
MODEL 3
REMARK VINA RESULT:     -11.2      5.390     10.449
REMARK SMILES O=C(NCCCCCCNC(=O)[C@H]1CC2(CCN(C(=O)c3cc4ccccc4[nH]3)CC2)CN1C(=O)C1CC1)c1ccc(-c2c3nc(c(-c4cc(S(=O)(=O)[O-])ccc4F)c4ccc([nH]4)c(-c4cc(S(=O)(=O)[O-])ccc4F)c4nc(c(-c5cc(S(=O)(=O)[O-])ccc5F)c5ccc2[nH]5)C=C4)C=C3)cc1
REMARK SMILES IDX 6 1 5 2 4 3 3 4 1 5 2 6 39 8 40 9 101 10 41 11 100 12 42 13
REMARK SMILES IDX 43 14 44 15 94 16 45 17 99 18 93 19 95 20 46 21 98 22 92 23
REMARK SMILES IDX 91 24 47 26 79 27 59 28 78 29 60 30 63 31 77 32 96 33 61 34
REMARK SMILES IDX 62 35 76 37 97 38 64 39 48 40 49 41 57 42 50 43 56 44 58 45
REMARK SMILES IDX 55 46 51 47 52 48 53 49 54 50 80 51 81 52 89 53 82 54 88 55
REMARK SMILES IDX 90 56 87 57 83 58 84 59 85 60 86 61 65 62 66 63 74 64 67 65
REMARK SMILES IDX 73 66 75 67 72 68 68 69 69 70 70 71 71 72 7 73 8 74 9 75
REMARK SMILES IDX 10 76 11 77 12 79 13 80 14 81 33 82 15 83 32 84 16 85 31 86
REMARK SMILES IDX 17 87 30 88 18 89 19 90 20 91 34 92 35 93 36 94 37 95 38 96
REMARK SMILES IDX 21 97 22 98 29 99 23 100 28 101 24 103 27 104 25 105 26 106
REMARK H PARENT 3 7 95 25 63 36 10 78 29 102
REMARK Flexibility Score: inf
ROOT
ATOM      1  C   UNL A   1      34.518  22.518  26.415  1.00  0.00     0.002 C 
ENDROOT
BRANCH   1   2
ATOM      2  C   UNL A   1      35.301  23.696  25.834  1.00  0.00     0.021 C 
BRANCH   2   3
ATOM      3  C   UNL A   1      36.767  23.763  26.251  1.00  0.00     0.116 C 
BRANCH   3   4
ATOM      4  N   UNL A   1      37.456  22.497  26.066  1.00  0.00    -0.352 N 
ATOM      5  O   UNL A   1      39.278  21.168  25.897  1.00  0.00    -0.269 OA
ATOM      6  C   UNL A   1      38.798  22.250  26.223  1.00  0.00     0.251 C 
ATOM      7  H   UNL A   1      36.898  21.731  25.799  1.00  0.00     0.163 HD
BRANCH   6   8
ATOM      8  C   UNL A   1      39.658  23.318  26.772  1.00  0.00     0.039 A 
ATOM      9  C   UNL A   1      40.606  23.022  27.758  1.00  0.00     0.014 A 
ATOM     10  C   UNL A   1      39.505  24.624  26.300  1.00  0.00     0.014 A 
ATOM     11  C   UNL A   1      41.361  24.048  28.320  1.00  0.00     0.010 A 
ATOM     12  C   UNL A   1      40.293  25.645  26.836  1.00  0.00     0.010 A 
ATOM     13  C   UNL A   1      41.223  25.365  27.851  1.00  0.00    -0.014 A 
BRANCH  13  14
ATOM     14  C   UNL A   1      42.134  26.425  28.345  1.00  0.00     0.031 A 
ATOM     15  C   UNL A   1      43.501  26.613  27.755  1.00  0.00     0.074 A 
ATOM     16  C   UNL A   1      41.719  27.193  29.371  1.00  0.00     0.049 A 
ATOM     17  N   UNL A   1      44.445  27.444  28.114  1.00  0.00    -0.248 NA
ATOM     18  C   UNL A   1      43.859  25.749  26.620  1.00  0.00     0.031 C 
ATOM     19  C   UNL A   1      40.412  27.082  30.026  1.00  0.00     0.029 A 
ATOM     20  N   UNL A   1      42.347  28.201  30.053  1.00  0.00    -0.354 N 
ATOM     21  C   UNL A   1      45.516  27.198  27.263  1.00  0.00     0.074 A 
ATOM     22  C   UNL A   1      45.109  26.126  26.378  1.00  0.00     0.031 C 
ATOM     23  C   UNL A   1      40.339  27.983  31.016  1.00  0.00     0.029 A 
ATOM     24  C   UNL A   1      41.608  28.696  31.102  1.00  0.00     0.049 A 
ATOM     25  H   UNL A   1      43.242  28.539  29.816  1.00  0.00     0.167 HD
ATOM     26  C   UNL A   1      46.724  27.814  27.231  1.00  0.00     0.034 A 
ATOM     27  C   UNL A   1      41.929  29.592  32.053  1.00  0.00     0.034 A 
ATOM     28  C   UNL A   1      47.103  28.887  28.118  1.00  0.00     0.049 A 
ATOM     29  C   UNL A   1      43.294  30.221  32.023  1.00  0.00     0.074 A 
ATOM     30  C   UNL A   1      48.260  29.648  28.106  1.00  0.00     0.029 A 
ATOM     31  N   UNL A   1      46.347  29.336  29.191  1.00  0.00    -0.354 N 
ATOM     32  N   UNL A   1      44.273  30.020  31.173  1.00  0.00    -0.248 NA
ATOM     33  C   UNL A   1      43.598  31.192  33.081  1.00  0.00     0.031 C 
ATOM     34  C   UNL A   1      48.230  30.511  29.209  1.00  0.00     0.029 A 
ATOM     35  C   UNL A   1      47.031  30.329  29.878  1.00  0.00     0.049 A 
ATOM     36  H   UNL A   1      45.453  28.999  29.432  1.00  0.00     0.167 HD
ATOM     37  C   UNL A   1      45.310  30.846  31.590  1.00  0.00     0.074 A 
ATOM     38  C   UNL A   1      44.829  31.561  32.756  1.00  0.00     0.031 C 
ATOM     39  C   UNL A   1      46.547  31.002  31.058  1.00  0.00     0.034 A 
BRANCH  26  40
ATOM     40  C   UNL A   1      47.740  27.314  26.236  1.00  0.00     0.023 A 
ATOM     41  C   UNL A   1      47.765  27.769  24.907  1.00  0.00     0.031 A 
ATOM     42  C   UNL A   1      48.708  26.374  26.633  1.00  0.00     0.131 A 
ATOM     43  C   UNL A   1      48.711  27.249  24.009  1.00  0.00     0.055 A 
ATOM     44  C   UNL A   1      49.681  25.903  25.751  1.00  0.00     0.041 A 
ATOM     45  F   UNL A   1      48.717  25.893  27.887  1.00  0.00    -0.206 F 
ATOM     46  C   UNL A   1      49.681  26.334  24.427  1.00  0.00     0.022 A 
BRANCH  43  47
ATOM     47  S   UNL A   1      48.598  27.712  22.259  1.00  0.00     0.124 S 
ATOM     48  O   UNL A   1      47.274  28.325  22.199  1.00  0.00    -0.237 OA
ATOM     49  O   UNL A   1      49.728  28.621  22.099  1.00  0.00    -0.237 OA
ATOM     50  O   UNL A   1      48.720  26.437  21.556  1.00  0.00    -0.744 OA
ENDBRANCH  43  47
ENDBRANCH  26  40
BRANCH  27  51
ATOM     51  C   UNL A   1      40.967  29.893  33.149  1.00  0.00     0.023 A 
ATOM     52  C   UNL A   1      39.845  30.705  32.927  1.00  0.00     0.031 A 
ATOM     53  C   UNL A   1      41.171  29.378  34.442  1.00  0.00     0.131 A 
ATOM     54  C   UNL A   1      38.983  31.003  33.993  1.00  0.00     0.055 A 
ATOM     55  C   UNL A   1      40.286  29.642  35.487  1.00  0.00     0.041 A 
ATOM     56  F   UNL A   1      42.228  28.591  34.700  1.00  0.00    -0.206 F 
ATOM     57  C   UNL A   1      39.189  30.468  35.268  1.00  0.00     0.022 A 
BRANCH  54  58
ATOM     58  S   UNL A   1      37.617  32.161  33.705  1.00  0.00     0.124 S 
ATOM     59  O   UNL A   1      36.756  31.393  32.813  1.00  0.00    -0.237 OA
ATOM     60  O   UNL A   1      37.112  32.372  35.058  1.00  0.00    -0.237 OA
ATOM     61  O   UNL A   1      38.272  33.317  33.098  1.00  0.00    -0.744 OA
ENDBRANCH  54  58
ENDBRANCH  27  51
BRANCH  39  62
ATOM     62  C   UNL A   1      47.448  31.997  31.738  1.00  0.00     0.023 A 
ATOM     63  C   UNL A   1      47.462  33.349  31.353  1.00  0.00     0.031 A 
ATOM     64  C   UNL A   1      48.322  31.584  32.757  1.00  0.00     0.131 A 
ATOM     65  C   UNL A   1      48.369  34.234  31.953  1.00  0.00     0.055 A 
ATOM     66  C   UNL A   1      49.189  32.480  33.384  1.00  0.00     0.041 A 
ATOM     67  F   UNL A   1      48.348  30.303  33.157  1.00  0.00    -0.206 F 
ATOM     68  C   UNL A   1      49.223  33.811  32.976  1.00  0.00     0.022 A 
BRANCH  65  69
ATOM     69  S   UNL A   1      48.465  35.936  31.335  1.00  0.00     0.124 S 
ATOM     70  O   UNL A   1      48.426  36.709  32.572  1.00  0.00    -0.237 OA
ATOM     71  O   UNL A   1      49.737  35.941  30.620  1.00  0.00    -0.237 OA
ATOM     72  O   UNL A   1      47.280  36.059  30.487  1.00  0.00    -0.744 OA
ENDBRANCH  65  69
ENDBRANCH  39  62
ENDBRANCH  13  14
ENDBRANCH   6   8
ENDBRANCH   3   4
ENDBRANCH   2   3
ENDBRANCH   1   2
BRANCH   1  73
ATOM     73  C   UNL A   1      33.291  22.894  27.250  1.00  0.00     0.002 C 
BRANCH  73  74
ATOM     74  C   UNL A   1      31.986  23.087  26.461  1.00  0.00     0.021 C 
BRANCH  74  75
ATOM     75  C   UNL A   1      31.770  24.503  25.922  1.00  0.00     0.116 C 
BRANCH  75  76
ATOM     76  N   UNL A   1      30.370  24.792  25.638  1.00  0.00    -0.354 N 
ATOM     77  C   UNL A   1      29.764  25.849  25.014  1.00  0.00     0.242 C 
ATOM     78  H   UNL A   1      29.745  24.100  25.955  1.00  0.00     0.163 HD
ATOM     79  O   UNL A   1      28.533  25.831  24.941  1.00  0.00    -0.273 OA
BRANCH  77  80
ATOM     80  C   UNL A   1      30.621  26.970  24.392  1.00  0.00     0.175 C 
ATOM     81  C   UNL A   1      31.303  27.671  25.599  1.00  0.00     0.044 C 
ATOM     82  N   UNL A   1      31.783  26.849  23.500  1.00  0.00    -0.330 N 
ATOM     83  C   UNL A   1      32.347  28.636  24.989  1.00  0.00    -0.006 C 
ATOM     84  C   UNL A   1      32.462  28.141  23.539  1.00  0.00     0.127 C 
ATOM     85  C   UNL A   1      33.738  28.519  25.654  1.00  0.00     0.030 C 
ATOM     86  C   UNL A   1      31.856  30.096  25.085  1.00  0.00     0.030 C 
ATOM     87  C   UNL A   1      33.769  29.091  27.063  1.00  0.00     0.120 C 
ATOM     88  C   UNL A   1      31.947  30.655  26.513  1.00  0.00     0.120 C 
ATOM     89  N   UNL A   1      33.288  30.471  27.061  1.00  0.00    -0.337 N 
ATOM     90  C   UNL A   1      33.875  31.515  27.778  1.00  0.00     0.270 C 
ATOM     91  O   UNL A   1      33.239  32.523  28.089  1.00  0.00    -0.267 OA
BRANCH  82  92
ATOM     92  C   UNL A   1      31.900  26.167  22.294  1.00  0.00     0.226 C 
ATOM     93  O   UNL A   1      31.247  26.516  21.310  1.00  0.00    -0.275 OA
BRANCH  92  94
ATOM     94  C   UNL A   1      32.969  25.162  22.036  1.00  0.00     0.079 C 
ATOM     95  C   UNL A   1      34.024  24.722  23.011  1.00  0.00     0.014 C 
ATOM     96  C   UNL A   1      32.958  23.762  22.563  1.00  0.00     0.014 C 
ENDBRANCH  92  94
ENDBRANCH  82  92
BRANCH  90  97
ATOM     97  C   UNL A   1      35.271  31.381  28.126  1.00  0.00     0.105 A 
ATOM     98  C   UNL A   1      36.143  30.350  27.818  1.00  0.00     0.042 A 
ATOM     99  N   UNL A   1      35.964  32.248  28.942  1.00  0.00    -0.351 N 
ATOM    100  C   UNL A   1      37.412  30.652  28.381  1.00  0.00     0.000 A 
ATOM    101  C   UNL A   1      37.274  31.850  29.081  1.00  0.00     0.046 A 
ATOM    102  H   UNL A   1      35.574  33.046  29.367  1.00  0.00     0.167 HD
ATOM    103  C   UNL A   1      38.667  30.016  28.365  1.00  0.00     0.010 A 
ATOM    104  C   UNL A   1      38.334  32.445  29.776  1.00  0.00     0.026 A 
ATOM    105  C   UNL A   1      39.741  30.602  29.046  1.00  0.00     0.001 A 
ATOM    106  C   UNL A   1      39.573  31.798  29.740  1.00  0.00     0.002 A 
ENDBRANCH  90  97
ENDBRANCH  77  80
ENDBRANCH  75  76
ENDBRANCH  74  75
ENDBRANCH  73  74
ENDBRANCH   1  73
TORSDOF 19
ENDMDL
