MODEL 1
REMARK VINA RESULT:     -12.5      0.000      0.000
REMARK SMILES O=C(NCCCCCCNC(=O)[C@@H]1CCn2c(C(=O)c3ccccc3)ccc21)c1ccc(-c2c3nc(c(-c4cc(S(=O)(=O)[O-])ccc4F)c4ccc([nH]4)c(-c4cc(S(=O)(=O)[O-])ccc4F)c4nc(c(-c5cc(S(=O)(=O)[O-])ccc5F)c5ccc2[nH]5)C=C4)C=C3)cc1
REMARK SMILES IDX 6 1 5 2 4 3 3 4 1 5 2 6 29 8 30 9 91 10 31 11 90 12 32 13
REMARK SMILES IDX 33 14 34 15 84 16 35 17 89 18 83 19 85 20 36 21 88 22 82 23
REMARK SMILES IDX 81 24 37 26 69 27 49 28 68 29 50 30 53 31 67 32 86 33 51 34
REMARK SMILES IDX 52 35 66 37 87 38 54 39 38 40 39 41 47 42 40 43 46 44 48 45
REMARK SMILES IDX 45 46 41 47 42 48 43 49 44 50 70 51 71 52 79 53 72 54 78 55
REMARK SMILES IDX 80 56 77 57 73 58 74 59 75 60 76 61 55 62 56 63 64 64 57 65
REMARK SMILES IDX 63 66 65 67 62 68 58 69 59 70 60 71 61 72 7 73 8 74 9 75
REMARK SMILES IDX 10 76 11 77 12 79 13 80 14 81 28 82 15 83 16 84 27 85 17 86
REMARK SMILES IDX 26 87 18 88 19 89 20 90 21 91 25 92 22 93 24 94 23 95
REMARK H PARENT 3 7 85 25 53 36 10 78
REMARK Flexibility Score: inf
ROOT
ATOM      1  C   UNL A   1      31.600  30.489  26.015  1.00  0.00     0.002 C 
ENDROOT
BRANCH   1   2
ATOM      2  C   UNL A   1      31.476  31.906  26.578  1.00  0.00     0.021 C 
BRANCH   2   3
ATOM      3  C   UNL A   1      32.739  32.443  27.239  1.00  0.00     0.116 C 
BRANCH   3   4
ATOM      4  N   UNL A   1      32.602  33.832  27.644  1.00  0.00    -0.352 N 
ATOM      5  O   UNL A   1      32.905  35.638  28.961  1.00  0.00    -0.269 OA
ATOM      6  C   UNL A   1      33.269  34.511  28.635  1.00  0.00     0.251 C 
ATOM      7  H   UNL A   1      31.941  34.358  27.139  1.00  0.00     0.163 HD
BRANCH   6   8
ATOM      8  C   UNL A   1      34.416  33.870  29.316  1.00  0.00     0.039 A 
ATOM      9  C   UNL A   1      34.207  32.862  30.260  1.00  0.00     0.014 A 
ATOM     10  C   UNL A   1      35.715  34.279  28.999  1.00  0.00     0.014 A 
ATOM     11  C   UNL A   1      35.284  32.352  30.975  1.00  0.00     0.010 A 
ATOM     12  C   UNL A   1      36.803  33.705  29.662  1.00  0.00     0.010 A 
ATOM     13  C   UNL A   1      36.595  32.752  30.671  1.00  0.00    -0.014 A 
BRANCH  13  14
ATOM     14  C   UNL A   1      37.734  32.105  31.373  1.00  0.00     0.031 A 
ATOM     15  C   UNL A   1      38.544  31.026  30.711  1.00  0.00     0.074 A 
ATOM     16  C   UNL A   1      38.043  32.522  32.615  1.00  0.00     0.049 A 
ATOM     17  N   UNL A   1      39.569  30.361  31.179  1.00  0.00    -0.248 NA
ATOM     18  C   UNL A   1      38.147  30.635  29.351  1.00  0.00     0.031 C 
ATOM     19  C   UNL A   1      37.315  33.557  33.357  1.00  0.00     0.029 A 
ATOM     20  N   UNL A   1      39.046  32.147  33.471  1.00  0.00    -0.354 N 
ATOM     21  C   UNL A   1      39.933  29.462  30.182  1.00  0.00     0.074 A 
ATOM     22  C   UNL A   1      38.995  29.648  29.094  1.00  0.00     0.031 C 
ATOM     23  C   UNL A   1      37.919  33.761  34.536  1.00  0.00     0.029 A 
ATOM     24  C   UNL A   1      39.032  32.828  34.666  1.00  0.00     0.049 A 
ATOM     25  H   UNL A   1      39.712  31.457  33.251  1.00  0.00     0.167 HD
ATOM     26  C   UNL A   1      40.957  28.571  30.178  1.00  0.00     0.034 A 
ATOM     27  C   UNL A   1      39.809  32.701  35.758  1.00  0.00     0.034 A 
ATOM     28  C   UNL A   1      41.880  28.402  31.277  1.00  0.00     0.049 A 
ATOM     29  C   UNL A   1      40.917  31.685  35.738  1.00  0.00     0.074 A 
ATOM     30  C   UNL A   1      42.971  27.554  31.365  1.00  0.00     0.029 A 
ATOM     31  N   UNL A   1      41.815  29.085  32.487  1.00  0.00    -0.354 N 
ATOM     32  N   UNL A   1      41.260  30.857  34.778  1.00  0.00    -0.248 NA
ATOM     33  C   UNL A   1      41.747  31.590  36.945  1.00  0.00     0.031 C 
ATOM     34  C   UNL A   1      43.523  27.676  32.646  1.00  0.00     0.029 A 
ATOM     35  C   UNL A   1      42.826  28.654  33.335  1.00  0.00     0.049 A 
ATOM     36  H   UNL A   1      41.149  29.775  32.710  1.00  0.00     0.167 HD
ATOM     37  C   UNL A   1      42.357  30.151  35.262  1.00  0.00     0.074 A 
ATOM     38  C   UNL A   1      42.631  30.670  36.587  1.00  0.00     0.031 C 
ATOM     39  C   UNL A   1      43.073  29.165  34.664  1.00  0.00     0.034 A 
BRANCH  26  40
ATOM     40  C   UNL A   1      41.103  27.681  28.967  1.00  0.00     0.023 A 
ATOM     41  C   UNL A   1      42.095  27.902  27.996  1.00  0.00     0.031 A 
ATOM     42  C   UNL A   1      40.227  26.596  28.776  1.00  0.00     0.131 A 
ATOM     43  C   UNL A   1      42.149  27.091  26.851  1.00  0.00     0.055 A 
ATOM     44  C   UNL A   1      40.332  25.749  27.671  1.00  0.00     0.041 A 
ATOM     45  F   UNL A   1      39.247  26.346  29.657  1.00  0.00    -0.206 F 
ATOM     46  C   UNL A   1      41.289  26.002  26.692  1.00  0.00     0.022 A 
BRANCH  43  47
ATOM     47  S   UNL A   1      43.277  27.558  25.508  1.00  0.00     0.124 S 
ATOM     48  O   UNL A   1      44.157  28.514  26.176  1.00  0.00    -0.237 OA
ATOM     49  O   UNL A   1      43.884  26.282  25.146  1.00  0.00    -0.237 OA
ATOM     50  O   UNL A   1      42.392  28.137  24.500  1.00  0.00    -0.744 OA
ENDBRANCH  43  47
ENDBRANCH  26  40
BRANCH  27  51
ATOM     51  C   UNL A   1      39.540  33.528  36.966  1.00  0.00     0.023 A 
ATOM     52  C   UNL A   1      39.009  32.962  38.134  1.00  0.00     0.031 A 
ATOM     53  C   UNL A   1      39.801  34.912  36.961  1.00  0.00     0.131 A 
ATOM     54  C   UNL A   1      38.723  33.780  39.238  1.00  0.00     0.055 A 
ATOM     55  C   UNL A   1      39.566  35.711  38.080  1.00  0.00     0.041 A 
ATOM     56  F   UNL A   1      40.314  35.502  35.870  1.00  0.00    -0.206 F 
ATOM     57  C   UNL A   1      39.012  35.147  39.225  1.00  0.00     0.022 A 
BRANCH  54  58
ATOM     58  S   UNL A   1      37.896  33.043  40.674  1.00  0.00     0.124 S 
ATOM     59  O   UNL A   1      38.076  31.618  40.422  1.00  0.00    -0.237 OA
ATOM     60  O   UNL A   1      38.664  33.600  41.784  1.00  0.00    -0.237 OA
ATOM     61  O   UNL A   1      36.523  33.530  40.563  1.00  0.00    -0.744 OA
ENDBRANCH  54  58
ENDBRANCH  27  51
BRANCH  39  62
ATOM     62  C   UNL A   1      44.241  28.611  35.442  1.00  0.00     0.023 A 
ATOM     63  C   UNL A   1      44.086  27.547  36.349  1.00  0.00     0.031 A 
ATOM     64  C   UNL A   1      45.519  29.177  35.296  1.00  0.00     0.131 A 
ATOM     65  C   UNL A   1      45.178  27.122  37.118  1.00  0.00     0.055 A 
ATOM     66  C   UNL A   1      46.615  28.710  36.021  1.00  0.00     0.041 A 
ATOM     67  F   UNL A   1      45.722  30.197  34.447  1.00  0.00    -0.206 F 
ATOM     68  C   UNL A   1      46.445  27.686  36.949  1.00  0.00     0.022 A 
BRANCH  65  69
ATOM     69  S   UNL A   1      44.900  25.887  38.417  1.00  0.00     0.124 S 
ATOM     70  O   UNL A   1      44.339  26.698  39.492  1.00  0.00    -0.237 OA
ATOM     71  O   UNL A   1      43.978  24.958  37.771  1.00  0.00    -0.237 OA
ATOM     72  O   UNL A   1      46.236  25.353  38.675  1.00  0.00    -0.744 OA
ENDBRANCH  65  69
ENDBRANCH  39  62
ENDBRANCH  13  14
ENDBRANCH   6   8
ENDBRANCH   3   4
ENDBRANCH   2   3
ENDBRANCH   1   2
BRANCH   1  73
ATOM     73  C   UNL A   1      32.678  29.614  26.662  1.00  0.00     0.002 C 
BRANCH  73  74
ATOM     74  C   UNL A   1      32.185  28.289  27.254  1.00  0.00     0.021 C 
BRANCH  74  75
ATOM     75  C   UNL A   1      31.490  27.372  26.251  1.00  0.00     0.116 C 
BRANCH  75  76
ATOM     76  N   UNL A   1      31.031  26.144  26.871  1.00  0.00    -0.356 N 
ATOM     77  C   UNL A   1      31.130  24.848  26.462  1.00  0.00     0.229 C 
ATOM     78  H   UNL A   1      30.571  26.267  27.732  1.00  0.00     0.163 HD
ATOM     79  O   UNL A   1      30.608  23.989  27.183  1.00  0.00    -0.274 OA
BRANCH  77  80
ATOM     80  C   UNL A   1      31.894  24.432  25.208  1.00  0.00     0.127 C 
ATOM     81  C   UNL A   1      31.009  24.326  23.946  1.00  0.00     0.042 C 
ATOM     82  C   UNL A   1      32.510  23.086  25.310  1.00  0.00     0.031 A 
ATOM     83  C   UNL A   1      31.360  22.989  23.267  1.00  0.00     0.124 C 
ATOM     84  N   UNL A   1      32.209  22.304  24.228  1.00  0.00    -0.341 N 
ATOM     85  C   UNL A   1      33.292  22.366  26.169  1.00  0.00     0.025 A 
ATOM     86  C   UNL A   1      32.687  21.036  24.384  1.00  0.00     0.090 A 
ATOM     87  C   UNL A   1      33.395  21.074  25.591  1.00  0.00     0.032 A 
BRANCH  86  88
ATOM     88  C   UNL A   1      32.503  19.840  23.573  1.00  0.00     0.209 C 
ATOM     89  O   UNL A   1      32.045  19.889  22.432  1.00  0.00    -0.287 OA
BRANCH  88  90
ATOM     90  C   UNL A   1      32.887  18.499  24.062  1.00  0.00     0.024 A 
ATOM     91  C   UNL A   1      33.587  17.648  23.196  1.00  0.00     0.012 A 
ATOM     92  C   UNL A   1      32.505  18.050  25.329  1.00  0.00     0.012 A 
ATOM     93  C   UNL A   1      33.952  16.371  23.621  1.00  0.00     0.001 A 
ATOM     94  C   UNL A   1      32.885  16.776  25.755  1.00  0.00     0.001 A 
ATOM     95  C   UNL A   1      33.612  15.942  24.904  1.00  0.00     0.000 A 
ENDBRANCH  88  90
ENDBRANCH  86  88
ENDBRANCH  77  80
ENDBRANCH  75  76
ENDBRANCH  74  75
ENDBRANCH  73  74
ENDBRANCH   1  73
TORSDOF 18
ENDMDL
MODEL 2
REMARK VINA RESULT:     -12.4      3.578      8.265
REMARK SMILES O=C(NCCCCCCNC(=O)[C@@H]1CCn2c(C(=O)c3ccccc3)ccc21)c1ccc(-c2c3nc(c(-c4cc(S(=O)(=O)[O-])ccc4F)c4ccc([nH]4)c(-c4cc(S(=O)(=O)[O-])ccc4F)c4nc(c(-c5cc(S(=O)(=O)[O-])ccc5F)c5ccc2[nH]5)C=C4)C=C3)cc1
REMARK SMILES IDX 6 1 5 2 4 3 3 4 1 5 2 6 29 8 30 9 91 10 31 11 90 12 32 13
REMARK SMILES IDX 33 14 34 15 84 16 35 17 89 18 83 19 85 20 36 21 88 22 82 23
REMARK SMILES IDX 81 24 37 26 69 27 49 28 68 29 50 30 53 31 67 32 86 33 51 34
REMARK SMILES IDX 52 35 66 37 87 38 54 39 38 40 39 41 47 42 40 43 46 44 48 45
REMARK SMILES IDX 45 46 41 47 42 48 43 49 44 50 70 51 71 52 79 53 72 54 78 55
REMARK SMILES IDX 80 56 77 57 73 58 74 59 75 60 76 61 55 62 56 63 64 64 57 65
REMARK SMILES IDX 63 66 65 67 62 68 58 69 59 70 60 71 61 72 7 73 8 74 9 75
REMARK SMILES IDX 10 76 11 77 12 79 13 80 14 81 28 82 15 83 16 84 27 85 17 86
REMARK SMILES IDX 26 87 18 88 19 89 20 90 21 91 25 92 22 93 24 94 23 95
REMARK H PARENT 3 7 85 25 53 36 10 78
REMARK Flexibility Score: inf
ROOT
ATOM      1  C   UNL A   1      31.789  28.324  26.606  1.00  0.00     0.002 C 
ENDROOT
BRANCH   1   2
ATOM      2  C   UNL A   1      33.292  28.055  26.709  1.00  0.00     0.021 C 
BRANCH   2   3
ATOM      3  C   UNL A   1      34.178  29.152  26.132  1.00  0.00     0.116 C 
BRANCH   3   4
ATOM      4  N   UNL A   1      33.873  30.458  26.691  1.00  0.00    -0.352 N 
ATOM      5  O   UNL A   1      34.001  32.147  28.180  1.00  0.00    -0.269 OA
ATOM      6  C   UNL A   1      34.498  31.124  27.717  1.00  0.00     0.251 C 
ATOM      7  H   UNL A   1      33.116  30.931  26.277  1.00  0.00     0.163 HD
BRANCH   6   8
ATOM      8  C   UNL A   1      35.763  30.592  28.271  1.00  0.00     0.039 A 
ATOM      9  C   UNL A   1      36.992  30.977  27.730  1.00  0.00     0.014 A 
ATOM     10  C   UNL A   1      35.717  29.704  29.350  1.00  0.00     0.014 A 
ATOM     11  C   UNL A   1      38.163  30.381  28.183  1.00  0.00     0.010 A 
ATOM     12  C   UNL A   1      36.904  29.169  29.858  1.00  0.00     0.010 A 
ATOM     13  C   UNL A   1      38.136  29.486  29.264  1.00  0.00    -0.014 A 
BRANCH  13  14
ATOM     14  C   UNL A   1      39.415  28.955  29.801  1.00  0.00     0.031 A 
ATOM     15  C   UNL A   1      40.055  29.552  31.022  1.00  0.00     0.074 A 
ATOM     16  C   UNL A   1      39.984  27.904  29.179  1.00  0.00     0.049 A 
ATOM     17  N   UNL A   1      41.166  29.208  31.622  1.00  0.00    -0.248 NA
ATOM     18  C   UNL A   1      39.366  30.690  31.646  1.00  0.00     0.031 C 
ATOM     19  C   UNL A   1      39.453  27.253  27.978  1.00  0.00     0.029 A 
ATOM     20  N   UNL A   1      41.117  27.190  29.468  1.00  0.00    -0.354 N 
ATOM     21  C   UNL A   1      41.319  30.092  32.685  1.00  0.00     0.074 A 
ATOM     22  C   UNL A   1      40.200  31.010  32.625  1.00  0.00     0.031 C 
ATOM     23  C   UNL A   1      40.235  26.213  27.658  1.00  0.00     0.029 A 
ATOM     24  C   UNL A   1      41.360  26.163  28.585  1.00  0.00     0.049 A 
ATOM     25  H   UNL A   1      41.702  27.392  30.233  1.00  0.00     0.167 HD
ATOM     26  C   UNL A   1      42.301  30.128  33.621  1.00  0.00     0.034 A 
ATOM     27  C   UNL A   1      42.384  25.293  28.510  1.00  0.00     0.034 A 
ATOM     28  C   UNL A   1      43.410  29.201  33.659  1.00  0.00     0.049 A 
ATOM     29  C   UNL A   1      43.474  25.374  29.542  1.00  0.00     0.074 A 
ATOM     30  C   UNL A   1      44.440  29.126  34.582  1.00  0.00     0.029 A 
ATOM     31  N   UNL A   1      43.642  28.194  32.728  1.00  0.00    -0.354 N 
ATOM     32  N   UNL A   1      43.593  26.205  30.552  1.00  0.00    -0.248 NA
ATOM     33  C   UNL A   1      44.564  24.398  29.429  1.00  0.00     0.031 C 
ATOM     34  C   UNL A   1      45.326  28.122  34.173  1.00  0.00     0.029 A 
ATOM     35  C   UNL A   1      44.813  27.517  33.037  1.00  0.00     0.049 A 
ATOM     36  H   UNL A   1      43.059  27.991  31.961  1.00  0.00     0.167 HD
ATOM     37  C   UNL A   1      44.767  25.840  31.205  1.00  0.00     0.074 A 
ATOM     38  C   UNL A   1      45.302  24.700  30.487  1.00  0.00     0.031 C 
ATOM     39  C   UNL A   1      45.348  26.397  32.298  1.00  0.00     0.034 A 
BRANCH  26  40
ATOM     40  C   UNL A   1      42.244  31.231  34.651  1.00  0.00     0.023 A 
ATOM     41  C   UNL A   1      42.873  32.472  34.447  1.00  0.00     0.031 A 
ATOM     42  C   UNL A   1      41.555  31.034  35.862  1.00  0.00     0.131 A 
ATOM     43  C   UNL A   1      42.853  33.443  35.461  1.00  0.00     0.055 A 
ATOM     44  C   UNL A   1      41.477  32.032  36.837  1.00  0.00     0.041 A 
ATOM     45  F   UNL A   1      40.952  29.865  36.123  1.00  0.00    -0.206 F 
ATOM     46  C   UNL A   1      42.140  33.240  36.645  1.00  0.00     0.022 A 
BRANCH  43  47
ATOM     47  S   UNL A   1      43.879  34.926  35.264  1.00  0.00     0.124 S 
ATOM     48  O   UNL A   1      43.714  35.579  36.561  1.00  0.00    -0.237 OA
ATOM     49  O   UNL A   1      45.199  34.366  34.999  1.00  0.00    -0.237 OA
ATOM     50  O   UNL A   1      43.261  35.627  34.140  1.00  0.00    -0.744 OA
ENDBRANCH  43  47
ENDBRANCH  26  40
BRANCH  27  51
ATOM     51  C   UNL A   1      42.443  24.303  27.399  1.00  0.00     0.023 A 
ATOM     52  C   UNL A   1      41.699  23.115  27.442  1.00  0.00     0.031 A 
ATOM     53  C   UNL A   1      43.262  24.530  26.277  1.00  0.00     0.131 A 
ATOM     54  C   UNL A   1      41.815  22.182  26.400  1.00  0.00     0.055 A 
ATOM     55  C   UNL A   1      43.332  23.625  25.219  1.00  0.00     0.041 A 
ATOM     56  F   UNL A   1      43.991  25.654  26.185  1.00  0.00    -0.206 F 
ATOM     57  C   UNL A   1      42.614  22.435  25.282  1.00  0.00     0.022 A 
BRANCH  54  58
ATOM     58  S   UNL A   1      40.960  20.591  26.560  1.00  0.00     0.124 S 
ATOM     59  O   UNL A   1      41.876  19.690  25.870  1.00  0.00    -0.237 OA
ATOM     60  O   UNL A   1      40.877  20.436  28.009  1.00  0.00    -0.237 OA
ATOM     61  O   UNL A   1      39.684  20.821  25.885  1.00  0.00    -0.744 OA
ENDBRANCH  54  58
ENDBRANCH  27  51
BRANCH  39  62
ATOM     62  C   UNL A   1      46.617  25.749  32.792  1.00  0.00     0.023 A 
ATOM     63  C   UNL A   1      46.594  24.707  33.737  1.00  0.00     0.031 A 
ATOM     64  C   UNL A   1      47.867  26.200  32.333  1.00  0.00     0.131 A 
ATOM     65  C   UNL A   1      47.799  24.193  34.238  1.00  0.00     0.055 A 
ATOM     66  C   UNL A   1      49.061  25.644  32.791  1.00  0.00     0.041 A 
ATOM     67  F   UNL A   1      47.946  27.194  31.434  1.00  0.00    -0.206 F 
ATOM     68  C   UNL A   1      49.032  24.644  33.760  1.00  0.00     0.022 A 
BRANCH  65  69
ATOM     69  S   UNL A   1      47.736  22.995  35.598  1.00  0.00     0.124 S 
ATOM     70  O   UNL A   1      46.299  22.809  35.772  1.00  0.00    -0.237 OA
ATOM     71  O   UNL A   1      48.463  21.857  35.045  1.00  0.00    -0.237 OA
ATOM     72  O   UNL A   1      48.411  23.685  36.696  1.00  0.00    -0.744 OA
ENDBRANCH  65  69
ENDBRANCH  39  62
ENDBRANCH  13  14
ENDBRANCH   6   8
ENDBRANCH   3   4
ENDBRANCH   2   3
ENDBRANCH   1   2
BRANCH   1  73
ATOM     73  C   UNL A   1      31.038  27.480  25.571  1.00  0.00     0.002 C 
BRANCH  73  74
ATOM     74  C   UNL A   1      31.160  27.955  24.119  1.00  0.00     0.021 C 
BRANCH  74  75
ATOM     75  C   UNL A   1      30.895  26.871  23.077  1.00  0.00     0.116 C 
BRANCH  75  76
ATOM     76  N   UNL A   1      32.113  26.457  22.407  1.00  0.00    -0.356 N 
ATOM     77  C   UNL A   1      33.102  25.608  22.800  1.00  0.00     0.229 C 
ATOM     78  H   UNL A   1      32.247  26.858  21.518  1.00  0.00     0.163 HD
ATOM     79  O   UNL A   1      34.060  25.464  22.030  1.00  0.00    -0.274 OA
BRANCH  77  80
ATOM     80  C   UNL A   1      33.037  24.805  24.097  1.00  0.00     0.127 C 
ATOM     81  C   UNL A   1      34.326  24.887  24.945  1.00  0.00     0.042 C 
ATOM     82  C   UNL A   1      32.857  23.348  23.883  1.00  0.00     0.031 A 
ATOM     83  C   UNL A   1      34.674  23.446  25.364  1.00  0.00     0.124 C 
ATOM     84  N   UNL A   1      33.766  22.612  24.594  1.00  0.00    -0.341 N 
ATOM     85  C   UNL A   1      32.057  22.495  23.176  1.00  0.00     0.025 A 
ATOM     86  C   UNL A   1      33.663  21.283  24.304  1.00  0.00     0.090 A 
ATOM     87  C   UNL A   1      32.571  21.197  23.434  1.00  0.00     0.032 A 
BRANCH  86  88
ATOM     88  C   UNL A   1      34.490  20.152  24.706  1.00  0.00     0.209 C 
ATOM     89  O   UNL A   1      35.648  20.296  25.095  1.00  0.00    -0.287 OA
BRANCH  88  90
ATOM     90  C   UNL A   1      33.972  18.767  24.701  1.00  0.00     0.024 A 
ATOM     91  C   UNL A   1      32.908  18.450  25.555  1.00  0.00     0.012 A 
ATOM     92  C   UNL A   1      34.569  17.771  23.922  1.00  0.00     0.012 A 
ATOM     93  C   UNL A   1      32.406  17.150  25.585  1.00  0.00     0.001 A 
ATOM     94  C   UNL A   1      34.053  16.475  23.946  1.00  0.00     0.001 A 
ATOM     95  C   UNL A   1      32.969  16.167  24.771  1.00  0.00     0.000 A 
ENDBRANCH  88  90
ENDBRANCH  86  88
ENDBRANCH  77  80
ENDBRANCH  75  76
ENDBRANCH  74  75
ENDBRANCH  73  74
ENDBRANCH   1  73
TORSDOF 18
ENDMDL
MODEL 3
REMARK VINA RESULT:     -12.4      5.693     11.381
REMARK SMILES O=C(NCCCCCCNC(=O)[C@@H]1CCn2c(C(=O)c3ccccc3)ccc21)c1ccc(-c2c3nc(c(-c4cc(S(=O)(=O)[O-])ccc4F)c4ccc([nH]4)c(-c4cc(S(=O)(=O)[O-])ccc4F)c4nc(c(-c5cc(S(=O)(=O)[O-])ccc5F)c5ccc2[nH]5)C=C4)C=C3)cc1
REMARK SMILES IDX 6 1 5 2 4 3 3 4 1 5 2 6 29 8 30 9 91 10 31 11 90 12 32 13
REMARK SMILES IDX 33 14 34 15 84 16 35 17 89 18 83 19 85 20 36 21 88 22 82 23
REMARK SMILES IDX 81 24 37 26 69 27 49 28 68 29 50 30 53 31 67 32 86 33 51 34
REMARK SMILES IDX 52 35 66 37 87 38 54 39 38 40 39 41 47 42 40 43 46 44 48 45
REMARK SMILES IDX 45 46 41 47 42 48 43 49 44 50 70 51 71 52 79 53 72 54 78 55
REMARK SMILES IDX 80 56 77 57 73 58 74 59 75 60 76 61 55 62 56 63 64 64 57 65
REMARK SMILES IDX 63 66 65 67 62 68 58 69 59 70 60 71 61 72 7 73 8 74 9 75
REMARK SMILES IDX 10 76 11 77 12 79 13 80 14 81 28 82 15 83 16 84 27 85 17 86
REMARK SMILES IDX 26 87 18 88 19 89 20 90 21 91 25 92 22 93 24 94 23 95
REMARK H PARENT 3 7 85 25 53 36 10 78
REMARK Flexibility Score: inf
ROOT
ATOM      1  C   UNL A   1      36.955  20.364  24.825  1.00  0.00     0.002 C 
ENDROOT
BRANCH   1   2
ATOM      2  C   UNL A   1      38.095  19.404  25.169  1.00  0.00     0.021 C 
BRANCH   2   3
ATOM      3  C   UNL A   1      39.292  20.052  25.853  1.00  0.00     0.116 C 
BRANCH   3   4
ATOM      4  N   UNL A   1      40.380  19.113  26.068  1.00  0.00    -0.352 N 
ATOM      5  O   UNL A   1      42.527  18.454  26.275  1.00  0.00    -0.269 OA
ATOM      6  C   UNL A   1      41.711  19.372  26.288  1.00  0.00     0.251 C 
ATOM      7  H   UNL A   1      40.129  18.162  26.053  1.00  0.00     0.163 HD
BRANCH   6   8
ATOM      8  C   UNL A   1      42.157  20.763  26.525  1.00  0.00     0.039 A 
ATOM      9  C   UNL A   1      42.397  21.623  25.450  1.00  0.00     0.014 A 
ATOM     10  C   UNL A   1      42.326  21.213  27.837  1.00  0.00     0.014 A 
ATOM     11  C   UNL A   1      42.926  22.887  25.683  1.00  0.00     0.010 A 
ATOM     12  C   UNL A   1      42.780  22.515  28.071  1.00  0.00     0.010 A 
ATOM     13  C   UNL A   1      43.105  23.355  26.994  1.00  0.00    -0.014 A 
BRANCH  13  14
ATOM     14  C   UNL A   1      43.562  24.752  27.212  1.00  0.00     0.031 A 
ATOM     15  C   UNL A   1      42.628  25.803  27.742  1.00  0.00     0.074 A 
ATOM     16  C   UNL A   1      44.847  25.055  26.944  1.00  0.00     0.049 A 
ATOM     17  N   UNL A   1      42.866  27.065  27.992  1.00  0.00    -0.248 NA
ATOM     18  C   UNL A   1      41.246  25.388  28.017  1.00  0.00     0.031 C 
ATOM     19  C   UNL A   1      45.838  24.112  26.415  1.00  0.00     0.029 A 
ATOM     20  N   UNL A   1      45.547  26.225  27.086  1.00  0.00    -0.354 N 
ATOM     21  C   UNL A   1      41.663  27.602  28.439  1.00  0.00     0.074 A 
ATOM     22  C   UNL A   1      40.689  26.531  28.395  1.00  0.00     0.031 C 
ATOM     23  C   UNL A   1      47.024  24.729  26.318  1.00  0.00     0.029 A 
ATOM     24  C   UNL A   1      46.866  26.125  26.707  1.00  0.00     0.049 A 
ATOM     25  H   UNL A   1      45.145  27.056  27.426  1.00  0.00     0.167 HD
ATOM     26  C   UNL A   1      41.403  28.869  28.852  1.00  0.00     0.034 A 
ATOM     27  C   UNL A   1      47.836  27.056  26.653  1.00  0.00     0.034 A 
ATOM     28  C   UNL A   1      42.391  29.922  28.886  1.00  0.00     0.049 A 
ATOM     29  C   UNL A   1      47.513  28.459  27.088  1.00  0.00     0.074 A 
ATOM     30  C   UNL A   1      42.244  31.230  29.317  1.00  0.00     0.029 A 
ATOM     31  N   UNL A   1      43.710  29.794  28.462  1.00  0.00    -0.354 N 
ATOM     32  N   UNL A   1      46.374  28.944  27.527  1.00  0.00    -0.248 NA
ATOM     33  C   UNL A   1      48.604  29.438  27.024  1.00  0.00     0.031 C 
ATOM     34  C   UNL A   1      43.449  31.907  29.092  1.00  0.00     0.029 A 
ATOM     35  C   UNL A   1      44.374  31.006  28.592  1.00  0.00     0.049 A 
ATOM     36  H   UNL A   1      44.114  28.964  28.120  1.00  0.00     0.167 HD
ATOM     37  C   UNL A   1      46.618  30.285  27.807  1.00  0.00     0.074 A 
ATOM     38  C   UNL A   1      48.017  30.522  27.509  1.00  0.00     0.031 C 
ATOM     39  C   UNL A   1      45.764  31.233  28.269  1.00  0.00     0.034 A 
BRANCH  26  40
ATOM     40  C   UNL A   1      39.984  29.194  29.254  1.00  0.00     0.023 A 
ATOM     41  C   UNL A   1      39.591  29.267  30.602  1.00  0.00     0.031 A 
ATOM     42  C   UNL A   1      39.004  29.426  28.271  1.00  0.00     0.131 A 
ATOM     43  C   UNL A   1      38.245  29.503  30.928  1.00  0.00     0.055 A 
ATOM     44  C   UNL A   1      37.683  29.733  28.603  1.00  0.00     0.041 A 
ATOM     45  F   UNL A   1      39.314  29.351  26.967  1.00  0.00    -0.206 F 
ATOM     46  C   UNL A   1      37.294  29.759  29.939  1.00  0.00     0.022 A 
BRANCH  43  47
ATOM     47  S   UNL A   1      37.731  29.344  32.661  1.00  0.00     0.124 S 
ATOM     48  O   UNL A   1      38.796  30.065  33.356  1.00  0.00    -0.237 OA
ATOM     49  O   UNL A   1      36.422  29.987  32.665  1.00  0.00    -0.237 OA
ATOM     50  O   UNL A   1      37.718  27.900  32.886  1.00  0.00    -0.744 OA
ENDBRANCH  43  47
ENDBRANCH  26  40
BRANCH  27  51
ATOM     51  C   UNL A   1      49.186  26.699  26.136  1.00  0.00     0.023 A 
ATOM     52  C   UNL A   1      49.636  27.164  24.892  1.00  0.00     0.031 A 
ATOM     53  C   UNL A   1      50.044  25.869  26.882  1.00  0.00     0.131 A 
ATOM     54  C   UNL A   1      50.895  26.769  24.414  1.00  0.00     0.055 A 
ATOM     55  C   UNL A   1      51.316  25.523  26.426  1.00  0.00     0.041 A 
ATOM     56  F   UNL A   1      49.662  25.401  28.080  1.00  0.00    -0.206 F 
ATOM     57  C   UNL A   1      51.744  25.964  25.178  1.00  0.00     0.022 A 
BRANCH  54  58
ATOM     58  S   UNL A   1      51.382  27.263  22.738  1.00  0.00     0.124 S 
ATOM     59  O   UNL A   1      52.698  26.647  22.617  1.00  0.00    -0.237 OA
ATOM     60  O   UNL A   1      50.320  26.672  21.928  1.00  0.00    -0.237 OA
ATOM     61  O   UNL A   1      51.377  28.723  22.799  1.00  0.00    -0.744 OA
ENDBRANCH  54  58
ENDBRANCH  27  51
BRANCH  39  62
ATOM     62  C   UNL A   1      46.342  32.607  28.505  1.00  0.00     0.023 A 
ATOM     63  C   UNL A   1      46.561  33.507  27.447  1.00  0.00     0.031 A 
ATOM     64  C   UNL A   1      46.708  33.006  29.802  1.00  0.00     0.131 A 
ATOM     65  C   UNL A   1      47.183  34.738  27.696  1.00  0.00     0.055 A 
ATOM     66  C   UNL A   1      47.272  34.257  30.052  1.00  0.00     0.041 A 
ATOM     67  F   UNL A   1      46.524  32.184  30.847  1.00  0.00    -0.206 F 
ATOM     68  C   UNL A   1      47.527  35.125  28.994  1.00  0.00     0.022 A 
BRANCH  65  69
ATOM     69  S   UNL A   1      47.631  35.789  26.287  1.00  0.00     0.124 S 
ATOM     70  O   UNL A   1      48.991  36.190  26.628  1.00  0.00    -0.237 OA
ATOM     71  O   UNL A   1      47.500  34.872  25.160  1.00  0.00    -0.237 OA
ATOM     72  O   UNL A   1      46.638  36.862  26.330  1.00  0.00    -0.744 OA
ENDBRANCH  65  69
ENDBRANCH  39  62
ENDBRANCH  13  14
ENDBRANCH   6   8
ENDBRANCH   3   4
ENDBRANCH   2   3
ENDBRANCH   1   2
BRANCH   1  73
ATOM     73  C   UNL A   1      37.277  21.854  24.984  1.00  0.00     0.002 C 
BRANCH  73  74
ATOM     74  C   UNL A   1      36.942  22.734  23.774  1.00  0.00     0.021 C 
BRANCH  74  75
ATOM     75  C   UNL A   1      35.447  22.891  23.506  1.00  0.00     0.116 C 
BRANCH  75  76
ATOM     76  N   UNL A   1      34.888  24.025  24.217  1.00  0.00    -0.356 N 
ATOM     77  C   UNL A   1      33.786  24.124  25.011  1.00  0.00     0.229 C 
ATOM     78  H   UNL A   1      35.391  24.865  24.109  1.00  0.00     0.163 HD
ATOM     79  O   UNL A   1      33.519  25.242  25.468  1.00  0.00    -0.274 OA
BRANCH  77  80
ATOM     80  C   UNL A   1      32.929  22.919  25.390  1.00  0.00     0.127 C 
ATOM     81  C   UNL A   1      33.673  21.868  26.243  1.00  0.00     0.042 C 
ATOM     82  C   UNL A   1      32.453  22.140  24.221  1.00  0.00     0.031 A 
ATOM     83  C   UNL A   1      33.373  20.493  25.616  1.00  0.00     0.124 C 
ATOM     84  N   UNL A   1      32.702  20.802  24.364  1.00  0.00    -0.341 N 
ATOM     85  C   UNL A   1      31.841  22.347  23.017  1.00  0.00     0.025 A 
ATOM     86  C   UNL A   1      32.362  20.111  23.238  1.00  0.00     0.090 A 
ATOM     87  C   UNL A   1      31.793  21.071  22.395  1.00  0.00     0.032 A 
BRANCH  86  88
ATOM     88  C   UNL A   1      32.564  18.713  22.879  1.00  0.00     0.209 C 
ATOM     89  O   UNL A   1      32.349  18.294  21.742  1.00  0.00    -0.287 OA
BRANCH  88  90
ATOM     90  C   UNL A   1      33.072  17.723  23.853  1.00  0.00     0.024 A 
ATOM     91  C   UNL A   1      34.375  17.236  23.691  1.00  0.00     0.012 A 
ATOM     92  C   UNL A   1      32.256  17.222  24.872  1.00  0.00     0.012 A 
ATOM     93  C   UNL A   1      34.879  16.291  24.583  1.00  0.00     0.001 A 
ATOM     94  C   UNL A   1      32.771  16.286  25.771  1.00  0.00     0.001 A 
ATOM     95  C   UNL A   1      34.082  15.827  25.630  1.00  0.00     0.000 A 
ENDBRANCH  88  90
ENDBRANCH  86  88
ENDBRANCH  77  80
ENDBRANCH  75  76
ENDBRANCH  74  75
ENDBRANCH  73  74
ENDBRANCH   1  73
TORSDOF 18
ENDMDL
