MODEL 1
REMARK VINA RESULT:     -11.0      0.000      0.000
REMARK SMILES C[C@@H]1[NH2+]CC[C@H]1C(=O)NCc1cccc(C(=O)NCCCCCCNC(=O)c2ccc(-c3c4nc(c(-c5cc(S(=O)(=O)[O-])ccc5F)c5ccc([nH]5)c(-c5cc(S(=O)(=O)[O-])ccc5F)c5nc(c(-c6cc(S(=O)(=O)[O-])ccc6F)c6ccc3[nH]6)C=C5)C=C4)cc2)c1
REMARK SMILES IDX 21 1 20 2 19 3 18 4 16 5 17 6 15 8 11 9 12 10 91 11 13 12
REMARK SMILES IDX 14 13 10 14 9 15 7 16 8 17 6 19 1 20 2 21 3 22 4 23 5 26
REMARK SMILES IDX 22 27 23 28 24 29 25 30 26 31 27 33 28 34 29 35 90 36 30 37
REMARK SMILES IDX 89 38 31 39 32 40 33 41 83 42 34 43 88 44 82 45 84 46 35 47
REMARK SMILES IDX 87 48 81 49 80 50 36 52 68 53 48 54 67 55 49 56 52 57 66 58
REMARK SMILES IDX 85 59 50 60 51 61 65 63 86 64 53 65 37 66 38 67 46 68 39 69
REMARK SMILES IDX 45 70 47 71 44 72 40 73 41 74 42 75 43 76 69 77 70 78 78 79
REMARK SMILES IDX 71 80 77 81 79 82 76 83 72 84 73 85 74 86 75 87 54 88 55 89
REMARK SMILES IDX 63 90 56 91 62 92 64 93 61 94 57 95 58 96 59 97 60 98
REMARK H PARENT 18 7 9 18 3 24 3 25 25 32 84 51 52 62
REMARK Flexibility Score: inf
ROOT
ATOM      1  C   UNL A   1      31.712  30.089  25.230  1.00  0.00     0.002 C 
ENDROOT
BRANCH   1   2
ATOM      2  C   UNL A   1      30.639  29.859  24.173  1.00  0.00     0.021 C 
BRANCH   2   3
ATOM      3  C   UNL A   1      30.857  28.686  23.227  1.00  0.00     0.116 C 
BRANCH   3   4
ATOM      4  N   UNL A   1      32.084  28.735  22.446  1.00  0.00    -0.352 N 
ATOM      5  C   UNL A   1      33.269  28.033  22.562  1.00  0.00     0.251 C 
ATOM      6  O   UNL A   1      34.168  28.257  21.754  1.00  0.00    -0.269 OA
ATOM      7  H   UNL A   1      32.067  29.384  21.704  1.00  0.00     0.163 HD
BRANCH   5   8
ATOM      8  C   UNL A   1      33.524  27.085  23.687  1.00  0.00     0.040 A 
ATOM      9  C   UNL A   1      33.195  24.894  24.678  1.00  0.00    -0.028 A 
ATOM     10  C   UNL A   1      33.503  25.424  25.937  1.00  0.00     0.005 A 
ATOM     11  C   UNL A   1      33.370  25.708  23.553  1.00  0.00     0.019 A 
ATOM     12  C   UNL A   1      33.875  26.763  26.063  1.00  0.00     0.001 A 
ATOM     13  C   UNL A   1      33.834  27.604  24.949  1.00  0.00     0.014 A 
BRANCH   9  14
ATOM     14  C   UNL A   1      32.506  23.551  24.577  1.00  0.00     0.151 C 
BRANCH  14  15
ATOM     15  N   UNL A   1      32.753  22.683  25.711  1.00  0.00    -0.352 N 
ATOM     16  C   UNL A   1      33.776  21.836  25.987  1.00  0.00     0.229 C 
ATOM     17  O   UNL A   1      33.634  21.089  26.959  1.00  0.00    -0.275 OA
ATOM     18  H   UNL A   1      32.054  22.714  26.404  1.00  0.00     0.163 HD
BRANCH  16  19
ATOM     19  C   UNL A   1      35.044  21.800  25.153  1.00  0.00     0.142 C 
ATOM     20  C   UNL A   1      36.623  23.772  24.952  1.00  0.00     0.076 C 
ATOM     21  C   UNL A   1      36.206  22.565  25.786  1.00  0.00     0.192 C 
ATOM     22  N   UNL A   1      37.345  21.636  25.892  1.00  0.00    -0.343 N 
ATOM     23  C   UNL A   1      37.048  20.464  25.068  1.00  0.00     0.261 C 
ATOM     24  H   UNL A   1      37.473  21.353  26.864  1.00  0.00     0.346 HD
ATOM     25  H   UNL A   1      38.202  22.087  25.573  1.00  0.00     0.346 HD
ATOM     26  C   UNL A   1      35.544  20.388  24.892  1.00  0.00     0.081 C 
ENDBRANCH  16  19
ENDBRANCH  14  15
ENDBRANCH   9  14
ENDBRANCH   5   8
ENDBRANCH   3   4
ENDBRANCH   2   3
ENDBRANCH   1   2
BRANCH   1  27
ATOM     27  C   UNL A   1      31.247  30.750  26.530  1.00  0.00     0.002 C 
BRANCH  27  28
ATOM     28  C   UNL A   1      31.441  32.265  26.629  1.00  0.00     0.021 C 
BRANCH  28  29
ATOM     29  C   UNL A   1      32.841  32.732  27.016  1.00  0.00     0.116 C 
BRANCH  29  30
ATOM     30  N   UNL A   1      32.831  34.001  27.722  1.00  0.00    -0.352 N 
ATOM     31  C   UNL A   1      33.589  34.412  28.794  1.00  0.00     0.251 C 
ATOM     32  H   UNL A   1      32.188  34.665  27.384  1.00  0.00     0.163 HD
ATOM     33  O   UNL A   1      33.308  35.456  29.371  1.00  0.00    -0.269 OA
BRANCH  31  34
ATOM     34  C   UNL A   1      34.721  33.581  29.263  1.00  0.00     0.039 A 
ATOM     35  C   UNL A   1      36.023  33.966  28.932  1.00  0.00     0.014 A 
ATOM     36  C   UNL A   1      34.504  32.426  30.019  1.00  0.00     0.014 A 
ATOM     37  C   UNL A   1      37.107  33.232  29.420  1.00  0.00     0.010 A 
ATOM     38  C   UNL A   1      35.586  31.741  30.565  1.00  0.00     0.010 A 
ATOM     39  C   UNL A   1      36.900  32.137  30.274  1.00  0.00    -0.014 A 
BRANCH  39  40
ATOM     40  C   UNL A   1      38.044  31.401  30.878  1.00  0.00     0.031 A 
ATOM     41  C   UNL A   1      38.505  31.731  32.271  1.00  0.00     0.074 A 
ATOM     42  C   UNL A   1      38.702  30.476  30.150  1.00  0.00     0.049 A 
ATOM     43  N   UNL A   1      39.526  31.258  32.940  1.00  0.00    -0.248 NA
ATOM     44  C   UNL A   1      37.730  32.747  32.998  1.00  0.00     0.031 C 
ATOM     45  C   UNL A   1      38.368  30.091  28.776  1.00  0.00     0.029 A 
ATOM     46  N   UNL A   1      39.792  29.699  30.454  1.00  0.00    -0.354 N 
ATOM     47  C   UNL A   1      39.522  31.924  34.161  1.00  0.00     0.074 A 
ATOM     48  C   UNL A   1      38.436  32.880  34.110  1.00  0.00     0.031 C 
ATOM     49  C   UNL A   1      39.215  29.132  28.370  1.00  0.00     0.029 A 
ATOM     50  C   UNL A   1      40.187  28.873  29.428  1.00  0.00     0.049 A 
ATOM     51  H   UNL A   1      40.248  29.730  31.327  1.00  0.00     0.167 HD
ATOM     52  C   UNL A   1      40.333  31.739  35.232  1.00  0.00     0.034 A 
ATOM     53  C   UNL A   1      41.225  28.017  29.339  1.00  0.00     0.034 A 
ATOM     54  C   UNL A   1      41.412  30.780  35.264  1.00  0.00     0.049 A 
ATOM     55  C   UNL A   1      42.148  27.868  30.522  1.00  0.00     0.074 A 
ATOM     56  C   UNL A   1      42.266  30.478  36.310  1.00  0.00     0.029 A 
ATOM     57  N   UNL A   1      41.797  29.975  34.197  1.00  0.00    -0.354 N 
ATOM     58  N   UNL A   1      42.104  28.473  31.688  1.00  0.00    -0.248 NA
ATOM     59  C   UNL A   1      43.257  26.916  30.381  1.00  0.00     0.031 C 
ATOM     60  C   UNL A   1      43.214  29.556  35.854  1.00  0.00     0.029 A 
ATOM     61  C   UNL A   1      42.898  29.210  34.550  1.00  0.00     0.049 A 
ATOM     62  H   UNL A   1      41.351  29.953  33.320  1.00  0.00     0.167 HD
ATOM     63  C   UNL A   1      43.159  27.948  32.428  1.00  0.00     0.074 A 
ATOM     64  C   UNL A   1      43.812  26.969  31.583  1.00  0.00     0.031 C 
ATOM     65  C   UNL A   1      43.550  28.244  33.694  1.00  0.00     0.034 A 
BRANCH  52  66
ATOM     66  C   UNL A   1      40.100  32.615  36.442  1.00  0.00     0.023 A 
ATOM     67  C   UNL A   1      39.210  32.240  37.465  1.00  0.00     0.031 A 
ATOM     68  C   UNL A   1      40.750  33.855  36.564  1.00  0.00     0.131 A 
ATOM     69  C   UNL A   1      38.932  33.127  38.515  1.00  0.00     0.055 A 
ATOM     70  C   UNL A   1      40.539  34.695  37.658  1.00  0.00     0.041 A 
ATOM     71  F   UNL A   1      41.593  34.281  35.610  1.00  0.00    -0.206 F 
ATOM     72  C   UNL A   1      39.612  34.342  38.634  1.00  0.00     0.022 A 
BRANCH  69  73
ATOM     73  S   UNL A   1      37.553  32.745  39.628  1.00  0.00     0.124 S 
ATOM     74  O   UNL A   1      36.440  32.627  38.689  1.00  0.00    -0.237 OA
ATOM     75  O   UNL A   1      37.991  31.507  40.261  1.00  0.00    -0.237 OA
ATOM     76  O   UNL A   1      37.491  33.910  40.510  1.00  0.00    -0.744 OA
ENDBRANCH  69  73
ENDBRANCH  52  66
BRANCH  53  77
ATOM     77  C   UNL A   1      41.462  27.242  28.086  1.00  0.00     0.023 A 
ATOM     78  C   UNL A   1      41.131  25.880  28.004  1.00  0.00     0.031 A 
ATOM     79  C   UNL A   1      42.063  27.842  26.965  1.00  0.00     0.131 A 
ATOM     80  C   UNL A   1      41.445  25.152  26.847  1.00  0.00     0.055 A 
ATOM     81  C   UNL A   1      42.317  27.127  25.792  1.00  0.00     0.041 A 
ATOM     82  F   UNL A   1      42.401  29.141  26.989  1.00  0.00    -0.206 F 
ATOM     83  C   UNL A   1      42.021  25.770  25.734  1.00  0.00     0.022 A 
BRANCH  80  84
ATOM     84  S   UNL A   1      41.179  23.357  26.850  1.00  0.00     0.124 S 
ATOM     85  O   UNL A   1      42.092  22.921  25.799  1.00  0.00    -0.237 OA
ATOM     86  O   UNL A   1      41.552  22.998  28.214  1.00  0.00    -0.237 OA
ATOM     87  O   UNL A   1      39.758  23.223  26.538  1.00  0.00    -0.744 OA
ENDBRANCH  80  84
ENDBRANCH  53  77
BRANCH  65  88
ATOM     88  C   UNL A   1      44.712  27.461  34.258  1.00  0.00     0.023 A 
ATOM     89  C   UNL A   1      44.527  26.269  34.979  1.00  0.00     0.031 A 
ATOM     90  C   UNL A   1      46.029  27.921  34.071  1.00  0.00     0.131 A 
ATOM     91  C   UNL A   1      45.633  25.608  35.533  1.00  0.00     0.055 A 
ATOM     92  C   UNL A   1      47.131  27.222  34.566  1.00  0.00     0.041 A 
ATOM     93  F   UNL A   1      46.268  29.056  33.394  1.00  0.00    -0.206 F 
ATOM     94  C   UNL A   1      46.935  26.065  35.314  1.00  0.00     0.022 A 
BRANCH  91  95
ATOM     95  S   UNL A   1      45.343  24.189  36.627  1.00  0.00     0.124 S 
ATOM     96  O   UNL A   1      44.541  24.786  37.690  1.00  0.00    -0.237 OA
ATOM     97  O   UNL A   1      44.646  23.256  35.750  1.00  0.00    -0.237 OA
ATOM     98  O   UNL A   1      46.690  23.780  37.022  1.00  0.00    -0.744 OA
ENDBRANCH  91  95
ENDBRANCH  65  88
ENDBRANCH  39  40
ENDBRANCH  31  34
ENDBRANCH  29  30
ENDBRANCH  28  29
ENDBRANCH  27  28
ENDBRANCH   1  27
TORSDOF 19
ENDMDL
MODEL 2
REMARK VINA RESULT:     -10.9      2.803      8.845
REMARK SMILES C[C@@H]1[NH2+]CC[C@H]1C(=O)NCc1cccc(C(=O)NCCCCCCNC(=O)c2ccc(-c3c4nc(c(-c5cc(S(=O)(=O)[O-])ccc5F)c5ccc([nH]5)c(-c5cc(S(=O)(=O)[O-])ccc5F)c5nc(c(-c6cc(S(=O)(=O)[O-])ccc6F)c6ccc3[nH]6)C=C5)C=C4)cc2)c1
REMARK SMILES IDX 21 1 20 2 19 3 18 4 16 5 17 6 15 8 11 9 12 10 91 11 13 12
REMARK SMILES IDX 14 13 10 14 9 15 7 16 8 17 6 19 1 20 2 21 3 22 4 23 5 26
REMARK SMILES IDX 22 27 23 28 24 29 25 30 26 31 27 33 28 34 29 35 90 36 30 37
REMARK SMILES IDX 89 38 31 39 32 40 33 41 83 42 34 43 88 44 82 45 84 46 35 47
REMARK SMILES IDX 87 48 81 49 80 50 36 52 68 53 48 54 67 55 49 56 52 57 66 58
REMARK SMILES IDX 85 59 50 60 51 61 65 63 86 64 53 65 37 66 38 67 46 68 39 69
REMARK SMILES IDX 45 70 47 71 44 72 40 73 41 74 42 75 43 76 69 77 70 78 78 79
REMARK SMILES IDX 71 80 77 81 79 82 76 83 72 84 73 85 74 86 75 87 54 88 55 89
REMARK SMILES IDX 63 90 56 91 62 92 64 93 61 94 57 95 58 96 59 97 60 98
REMARK H PARENT 18 7 9 18 3 24 3 25 25 32 84 51 52 62
REMARK Flexibility Score: inf
ROOT
ATOM      1  C   UNL A   1      34.048  25.863  25.165  1.00  0.00     0.002 C 
ENDROOT
BRANCH   1   2
ATOM      2  C   UNL A   1      34.577  24.479  24.809  1.00  0.00     0.021 C 
BRANCH   2   3
ATOM      3  C   UNL A   1      34.417  24.042  23.360  1.00  0.00     0.116 C 
BRANCH   3   4
ATOM      4  N   UNL A   1      33.671  22.808  23.159  1.00  0.00    -0.352 N 
ATOM      5  C   UNL A   1      32.345  22.495  23.396  1.00  0.00     0.251 C 
ATOM      6  O   UNL A   1      31.951  21.362  23.127  1.00  0.00    -0.269 OA
ATOM      7  H   UNL A   1      34.204  22.067  22.791  1.00  0.00     0.163 HD
BRANCH   5   8
ATOM      8  C   UNL A   1      31.407  23.453  24.051  1.00  0.00     0.040 A 
ATOM      9  C   UNL A   1      30.281  25.603  24.036  1.00  0.00    -0.028 A 
ATOM     10  C   UNL A   1      30.090  25.506  25.420  1.00  0.00     0.005 A 
ATOM     11  C   UNL A   1      30.797  24.494  23.356  1.00  0.00     0.019 A 
ATOM     12  C   UNL A   1      30.504  24.364  26.108  1.00  0.00     0.001 A 
ATOM     13  C   UNL A   1      31.207  23.363  25.434  1.00  0.00     0.014 A 
BRANCH   9  14
ATOM     14  C   UNL A   1      30.119  26.941  23.348  1.00  0.00     0.151 C 
BRANCH  14  15
ATOM     15  N   UNL A   1      30.546  28.066  24.155  1.00  0.00    -0.352 N 
ATOM     16  C   UNL A   1      30.270  29.392  24.066  1.00  0.00     0.229 C 
ATOM     17  O   UNL A   1      30.919  30.147  24.795  1.00  0.00    -0.275 OA
ATOM     18  H   UNL A   1      31.143  27.827  24.901  1.00  0.00     0.163 HD
BRANCH  16  19
ATOM     19  C   UNL A   1      29.213  29.935  23.122  1.00  0.00     0.142 C 
ATOM     20  C   UNL A   1      27.292  31.399  23.891  1.00  0.00     0.076 C 
ATOM     21  C   UNL A   1      28.759  31.352  23.473  1.00  0.00     0.192 C 
ATOM     22  N   UNL A   1      28.945  32.190  22.276  1.00  0.00    -0.343 N 
ATOM     23  C   UNL A   1      29.173  31.301  21.136  1.00  0.00     0.261 C 
ATOM     24  H   UNL A   1      29.751  32.803  22.404  1.00  0.00     0.346 HD
ATOM     25  H   UNL A   1      28.122  32.770  22.117  1.00  0.00     0.346 HD
ATOM     26  C   UNL A   1      29.673  29.974  21.673  1.00  0.00     0.081 C 
ENDBRANCH  16  19
ENDBRANCH  14  15
ENDBRANCH   9  14
ENDBRANCH   5   8
ENDBRANCH   3   4
ENDBRANCH   2   3
ENDBRANCH   1   2
BRANCH   1  27
ATOM     27  C   UNL A   1      33.802  26.813  23.991  1.00  0.00     0.002 C 
BRANCH  27  28
ATOM     28  C   UNL A   1      34.058  28.300  24.254  1.00  0.00     0.021 C 
BRANCH  28  29
ATOM     29  C   UNL A   1      34.180  28.703  25.721  1.00  0.00     0.116 C 
BRANCH  29  30
ATOM     30  N   UNL A   1      33.415  29.897  26.037  1.00  0.00    -0.352 N 
ATOM     31  C   UNL A   1      33.617  30.829  27.029  1.00  0.00     0.251 C 
ATOM     32  H   UNL A   1      32.638  30.064  25.456  1.00  0.00     0.163 HD
ATOM     33  O   UNL A   1      32.756  31.671  27.253  1.00  0.00    -0.269 OA
BRANCH  31  34
ATOM     34  C   UNL A   1      34.858  30.794  27.836  1.00  0.00     0.039 A 
ATOM     35  C   UNL A   1      35.105  29.681  28.645  1.00  0.00     0.014 A 
ATOM     36  C   UNL A   1      35.772  31.851  27.801  1.00  0.00     0.014 A 
ATOM     37  C   UNL A   1      36.301  29.600  29.363  1.00  0.00     0.010 A 
ATOM     38  C   UNL A   1      36.994  31.733  28.457  1.00  0.00     0.010 A 
ATOM     39  C   UNL A   1      37.274  30.606  29.244  1.00  0.00    -0.014 A 
BRANCH  39  40
ATOM     40  C   UNL A   1      38.591  30.491  29.927  1.00  0.00     0.031 A 
ATOM     41  C   UNL A   1      39.712  29.719  29.284  1.00  0.00     0.074 A 
ATOM     42  C   UNL A   1      38.759  31.032  31.149  1.00  0.00     0.049 A 
ATOM     43  N   UNL A   1      40.901  29.441  29.753  1.00  0.00    -0.248 NA
ATOM     44  C   UNL A   1      39.448  29.164  27.949  1.00  0.00     0.031 C 
ATOM     45  C   UNL A   1      37.736  31.778  31.888  1.00  0.00     0.029 A 
ATOM     46  N   UNL A   1      39.842  31.035  31.992  1.00  0.00    -0.354 N 
ATOM     47  C   UNL A   1      41.525  28.672  28.776  1.00  0.00     0.074 A 
ATOM     48  C   UNL A   1      40.554  28.475  27.720  1.00  0.00     0.031 C 
ATOM     49  C   UNL A   1      38.251  32.189  33.058  1.00  0.00     0.029 A 
ATOM     50  C   UNL A   1      39.618  31.691  33.181  1.00  0.00     0.049 A 
ATOM     51  H   UNL A   1      40.700  30.607  31.767  1.00  0.00     0.167 HD
ATOM     52  C   UNL A   1      42.795  28.196  28.752  1.00  0.00     0.034 A 
ATOM     53  C   UNL A   1      40.414  31.858  34.256  1.00  0.00     0.034 A 
ATOM     54  C   UNL A   1      43.749  28.404  29.816  1.00  0.00     0.049 A 
ATOM     55  C   UNL A   1      41.803  31.271  34.231  1.00  0.00     0.074 A 
ATOM     56  C   UNL A   1      45.073  28.006  29.875  1.00  0.00     0.029 A 
ATOM     57  N   UNL A   1      43.479  29.055  31.014  1.00  0.00    -0.354 N 
ATOM     58  N   UNL A   1      42.394  30.584  33.279  1.00  0.00    -0.248 NA
ATOM     59  C   UNL A   1      42.635  31.488  35.421  1.00  0.00     0.031 C 
ATOM     60  C   UNL A   1      45.578  28.342  31.136  1.00  0.00     0.029 A 
ATOM     61  C   UNL A   1      44.599  29.032  31.832  1.00  0.00     0.049 A 
ATOM     62  H   UNL A   1      42.618  29.472  31.247  1.00  0.00     0.167 HD
ATOM     63  C   UNL A   1      43.678  30.318  33.746  1.00  0.00     0.074 A 
ATOM     64  C   UNL A   1      43.779  30.929  35.055  1.00  0.00     0.031 C 
ATOM     65  C   UNL A   1      44.685  29.635  33.143  1.00  0.00     0.034 A 
BRANCH  52  66
ATOM     66  C   UNL A   1      43.210  27.380  27.549  1.00  0.00     0.023 A 
ATOM     67  C   UNL A   1      42.970  25.996  27.477  1.00  0.00     0.031 A 
ATOM     68  C   UNL A   1      43.881  27.984  26.472  1.00  0.00     0.131 A 
ATOM     69  C   UNL A   1      43.469  25.251  26.398  1.00  0.00     0.055 A 
ATOM     70  C   UNL A   1      44.295  27.253  25.357  1.00  0.00     0.041 A 
ATOM     71  F   UNL A   1      44.161  29.296  26.490  1.00  0.00    -0.206 F 
ATOM     72  C   UNL A   1      44.106  25.874  25.322  1.00  0.00     0.022 A 
BRANCH  69  73
ATOM     73  S   UNL A   1      43.420  23.441  26.500  1.00  0.00     0.124 S 
ATOM     74  O   UNL A   1      44.760  23.137  26.994  1.00  0.00    -0.237 OA
ATOM     75  O   UNL A   1      42.325  23.207  27.433  1.00  0.00    -0.237 OA
ATOM     76  O   UNL A   1      43.165  23.027  25.121  1.00  0.00    -0.744 OA
ENDBRANCH  69  73
ENDBRANCH  52  66
BRANCH  53  77
ATOM     77  C   UNL A   1      39.920  32.597  35.455  1.00  0.00     0.023 A 
ATOM     78  C   UNL A   1      39.121  31.960  36.419  1.00  0.00     0.031 A 
ATOM     79  C   UNL A   1      40.205  33.963  35.634  1.00  0.00     0.131 A 
ATOM     80  C   UNL A   1      38.595  32.698  37.490  1.00  0.00     0.055 A 
ATOM     81  C   UNL A   1      39.729  34.678  36.735  1.00  0.00     0.041 A 
ATOM     82  F   UNL A   1      40.962  34.621  34.743  1.00  0.00    -0.206 F 
ATOM     83  C   UNL A   1      38.908  34.049  37.664  1.00  0.00     0.022 A 
BRANCH  80  84
ATOM     84  S   UNL A   1      37.414  31.890  38.604  1.00  0.00     0.124 S 
ATOM     85  O   UNL A   1      38.130  31.932  39.874  1.00  0.00    -0.237 OA
ATOM     86  O   UNL A   1      36.249  32.761  38.495  1.00  0.00    -0.237 OA
ATOM     87  O   UNL A   1      37.252  30.559  38.023  1.00  0.00    -0.744 OA
ENDBRANCH  80  84
ENDBRANCH  53  77
BRANCH  65  88
ATOM     88  C   UNL A   1      46.002  29.557  33.879  1.00  0.00     0.023 A 
ATOM     89  C   UNL A   1      47.004  30.530  33.720  1.00  0.00     0.031 A 
ATOM     90  C   UNL A   1      46.258  28.484  34.754  1.00  0.00     0.131 A 
ATOM     91  C   UNL A   1      48.232  30.384  34.380  1.00  0.00     0.055 A 
ATOM     92  C   UNL A   1      47.456  28.380  35.460  1.00  0.00     0.041 A 
ATOM     93  F   UNL A   1      45.341  27.521  34.942  1.00  0.00    -0.206 F 
ATOM     94  C   UNL A   1      48.458  29.326  35.266  1.00  0.00     0.022 A 
BRANCH  91  95
ATOM     95  S   UNL A   1      49.573  31.545  33.996  1.00  0.00     0.124 S 
ATOM     96  O   UNL A   1      50.328  31.560  35.245  1.00  0.00    -0.237 OA
ATOM     97  O   UNL A   1      50.228  30.902  32.863  1.00  0.00    -0.237 OA
ATOM     98  O   UNL A   1      48.871  32.788  33.682  1.00  0.00    -0.744 OA
ENDBRANCH  91  95
ENDBRANCH  65  88
ENDBRANCH  39  40
ENDBRANCH  31  34
ENDBRANCH  29  30
ENDBRANCH  28  29
ENDBRANCH  27  28
ENDBRANCH   1  27
TORSDOF 19
ENDMDL
MODEL 3
REMARK VINA RESULT:     -10.9      1.466      7.667
REMARK SMILES C[C@@H]1[NH2+]CC[C@H]1C(=O)NCc1cccc(C(=O)NCCCCCCNC(=O)c2ccc(-c3c4nc(c(-c5cc(S(=O)(=O)[O-])ccc5F)c5ccc([nH]5)c(-c5cc(S(=O)(=O)[O-])ccc5F)c5nc(c(-c6cc(S(=O)(=O)[O-])ccc6F)c6ccc3[nH]6)C=C5)C=C4)cc2)c1
REMARK SMILES IDX 21 1 20 2 19 3 18 4 16 5 17 6 15 8 11 9 12 10 91 11 13 12
REMARK SMILES IDX 14 13 10 14 9 15 7 16 8 17 6 19 1 20 2 21 3 22 4 23 5 26
REMARK SMILES IDX 22 27 23 28 24 29 25 30 26 31 27 33 28 34 29 35 90 36 30 37
REMARK SMILES IDX 89 38 31 39 32 40 33 41 83 42 34 43 88 44 82 45 84 46 35 47
REMARK SMILES IDX 87 48 81 49 80 50 36 52 68 53 48 54 67 55 49 56 52 57 66 58
REMARK SMILES IDX 85 59 50 60 51 61 65 63 86 64 53 65 37 66 38 67 46 68 39 69
REMARK SMILES IDX 45 70 47 71 44 72 40 73 41 74 42 75 43 76 69 77 70 78 78 79
REMARK SMILES IDX 71 80 77 81 79 82 76 83 72 84 73 85 74 86 75 87 54 88 55 89
REMARK SMILES IDX 63 90 56 91 62 92 64 93 61 94 57 95 58 96 59 97 60 98
REMARK H PARENT 18 7 9 18 3 24 3 25 25 32 84 51 52 62
REMARK Flexibility Score: inf
ROOT
ATOM      1  C   UNL A   1      31.746  29.425  25.874  1.00  0.00     0.002 C 
ENDROOT
BRANCH   1   2
ATOM      2  C   UNL A   1      33.180  29.159  25.433  1.00  0.00     0.021 C 
BRANCH   2   3
ATOM      3  C   UNL A   1      33.379  28.081  24.378  1.00  0.00     0.116 C 
BRANCH   3   4
ATOM      4  N   UNL A   1      32.192  27.736  23.608  1.00  0.00    -0.352 N 
ATOM      5  C   UNL A   1      31.368  26.626  23.650  1.00  0.00     0.251 C 
ATOM      6  O   UNL A   1      30.405  26.579  22.887  1.00  0.00    -0.269 OA
ATOM      7  H   UNL A   1      31.930  28.411  22.941  1.00  0.00     0.163 HD
BRANCH   5   8
ATOM      8  C   UNL A   1      31.663  25.449  24.520  1.00  0.00     0.040 A 
ATOM      9  C   UNL A   1      32.349  23.130  24.720  1.00  0.00    -0.028 A 
ATOM     10  C   UNL A   1      31.744  23.066  25.982  1.00  0.00     0.005 A 
ATOM     11  C   UNL A   1      32.433  24.374  24.085  1.00  0.00     0.019 A 
ATOM     12  C   UNL A   1      31.152  24.203  26.534  1.00  0.00     0.001 A 
ATOM     13  C   UNL A   1      31.066  25.377  25.783  1.00  0.00     0.014 A 
BRANCH   9  14
ATOM     14  C   UNL A   1      32.714  21.851  23.997  1.00  0.00     0.151 C 
BRANCH  14  15
ATOM     15  N   UNL A   1      34.045  21.369  24.303  1.00  0.00    -0.352 N 
ATOM     16  C   UNL A   1      34.503  20.128  24.606  1.00  0.00     0.229 C 
ATOM     17  O   UNL A   1      35.672  20.044  24.993  1.00  0.00    -0.275 OA
ATOM     18  H   UNL A   1      34.742  22.065  24.287  1.00  0.00     0.163 HD
BRANCH  16  19
ATOM     19  C   UNL A   1      33.632  18.892  24.478  1.00  0.00     0.142 C 
ATOM     20  C   UNL A   1      34.241  16.917  23.010  1.00  0.00     0.076 C 
ATOM     21  C   UNL A   1      34.435  17.596  24.362  1.00  0.00     0.192 C 
ATOM     22  N   UNL A   1      33.972  16.688  25.427  1.00  0.00    -0.343 N 
ATOM     23  C   UNL A   1      32.723  17.227  25.965  1.00  0.00     0.261 C 
ATOM     24  H   UNL A   1      34.673  16.634  26.166  1.00  0.00     0.346 HD
ATOM     25  H   UNL A   1      33.824  15.751  25.054  1.00  0.00     0.346 HD
ATOM     26  C   UNL A   1      32.681  18.709  25.651  1.00  0.00     0.081 C 
ENDBRANCH  16  19
ENDBRANCH  14  15
ENDBRANCH   9  14
ENDBRANCH   5   8
ENDBRANCH   3   4
ENDBRANCH   2   3
ENDBRANCH   1   2
BRANCH   1  27
ATOM     27  C   UNL A   1      31.132  30.748  25.410  1.00  0.00     0.002 C 
BRANCH  27  28
ATOM     28  C   UNL A   1      31.111  31.884  26.436  1.00  0.00     0.021 C 
BRANCH  28  29
ATOM     29  C   UNL A   1      32.476  32.391  26.893  1.00  0.00     0.116 C 
BRANCH  29  30
ATOM     30  N   UNL A   1      32.421  33.746  27.415  1.00  0.00    -0.352 N 
ATOM     31  C   UNL A   1      33.191  34.341  28.388  1.00  0.00     0.251 C 
ATOM     32  H   UNL A   1      31.732  34.323  27.015  1.00  0.00     0.163 HD
ATOM     33  O   UNL A   1      32.873  35.441  28.824  1.00  0.00    -0.269 OA
BRANCH  31  34
ATOM     34  C   UNL A   1      34.382  33.640  28.921  1.00  0.00     0.039 A 
ATOM     35  C   UNL A   1      35.642  34.217  28.739  1.00  0.00     0.014 A 
ATOM     36  C   UNL A   1      34.261  32.420  29.592  1.00  0.00     0.014 A 
ATOM     37  C   UNL A   1      36.770  33.605  29.291  1.00  0.00     0.010 A 
ATOM     38  C   UNL A   1      35.375  31.852  30.204  1.00  0.00     0.010 A 
ATOM     39  C   UNL A   1      36.642  32.439  30.063  1.00  0.00    -0.014 A 
BRANCH  39  40
ATOM     40  C   UNL A   1      37.818  31.825  30.737  1.00  0.00     0.031 A 
ATOM     41  C   UNL A   1      38.637  30.781  30.027  1.00  0.00     0.074 A 
ATOM     42  C   UNL A   1      38.114  32.167  32.007  1.00  0.00     0.049 A 
ATOM     43  N   UNL A   1      39.646  30.076  30.472  1.00  0.00    -0.248 NA
ATOM     44  C   UNL A   1      38.250  30.469  28.643  1.00  0.00     0.031 C 
ATOM     45  C   UNL A   1      37.375  33.144  32.810  1.00  0.00     0.029 A 
ATOM     46  N   UNL A   1      39.104  31.727  32.850  1.00  0.00    -0.354 N 
ATOM     47  C   UNL A   1      40.010  29.233  29.427  1.00  0.00     0.074 A 
ATOM     48  C   UNL A   1      39.069  29.470  28.353  1.00  0.00     0.031 C 
ATOM     49  C   UNL A   1      37.955  33.251  34.016  1.00  0.00     0.029 A 
ATOM     50  C   UNL A   1      39.070  32.312  34.095  1.00  0.00     0.049 A 
ATOM     51  H   UNL A   1      39.775  31.057  32.588  1.00  0.00     0.167 HD
ATOM     52  C   UNL A   1      41.047  28.360  29.362  1.00  0.00     0.034 A 
ATOM     53  C   UNL A   1      39.836  32.103  35.185  1.00  0.00     0.034 A 
ATOM     54  C   UNL A   1      41.976  28.138  30.445  1.00  0.00     0.049 A 
ATOM     55  C   UNL A   1      40.948  31.086  35.109  1.00  0.00     0.074 A 
ATOM     56  C   UNL A   1      43.086  27.312  30.471  1.00  0.00     0.029 A 
ATOM     57  N   UNL A   1      41.897  28.732  31.699  1.00  0.00    -0.354 N 
ATOM     58  N   UNL A   1      41.307  30.328  34.098  1.00  0.00    -0.248 NA
ATOM     59  C   UNL A   1      41.760  30.902  36.318  1.00  0.00     0.031 C 
ATOM     60  C   UNL A   1      43.629  27.343  31.760  1.00  0.00     0.029 A 
ATOM     61  C   UNL A   1      42.914  28.259  32.516  1.00  0.00     0.049 A 
ATOM     62  H   UNL A   1      41.218  29.392  31.968  1.00  0.00     0.167 HD
ATOM     63  C   UNL A   1      42.410  29.603  34.541  1.00  0.00     0.074 A 
ATOM     64  C   UNL A   1      42.663  30.025  35.903  1.00  0.00     0.031 C 
ATOM     65  C   UNL A   1      43.150  28.677  33.879  1.00  0.00     0.034 A 
BRANCH  52  66
ATOM     66  C   UNL A   1      41.206  27.563  28.088  1.00  0.00     0.023 A 
ATOM     67  C   UNL A   1      40.855  26.203  28.019  1.00  0.00     0.031 A 
ATOM     68  C   UNL A   1      41.744  28.159  26.934  1.00  0.00     0.131 A 
ATOM     69  C   UNL A   1      41.123  25.467  26.855  1.00  0.00     0.055 A 
ATOM     70  C   UNL A   1      41.923  27.444  25.749  1.00  0.00     0.041 A 
ATOM     71  F   UNL A   1      42.121  29.447  26.942  1.00  0.00    -0.206 F 
ATOM     72  C   UNL A   1      41.629  26.084  25.709  1.00  0.00     0.022 A 
BRANCH  69  73
ATOM     73  S   UNL A   1      40.956  23.662  26.916  1.00  0.00     0.124 S 
ATOM     74  O   UNL A   1      41.301  23.380  28.307  1.00  0.00    -0.237 OA
ATOM     75  O   UNL A   1      39.559  23.461  26.550  1.00  0.00    -0.237 OA
ATOM     76  O   UNL A   1      41.933  23.194  25.934  1.00  0.00    -0.744 OA
ENDBRANCH  69  73
ENDBRANCH  52  66
BRANCH  53  77
ATOM     77  C   UNL A   1      39.577  32.855  36.448  1.00  0.00     0.023 A 
ATOM     78  C   UNL A   1      38.692  32.355  37.418  1.00  0.00     0.031 A 
ATOM     79  C   UNL A   1      40.175  34.105  36.685  1.00  0.00     0.131 A 
ATOM     80  C   UNL A   1      38.395  33.122  38.555  1.00  0.00     0.055 A 
ATOM     81  C   UNL A   1      39.924  34.836  37.848  1.00  0.00     0.041 A 
ATOM     82  F   UNL A   1      41.027  34.630  35.790  1.00  0.00    -0.206 F 
ATOM     83  C   UNL A   1      39.018  34.351  38.785  1.00  0.00     0.022 A 
BRANCH  80  84
ATOM     84  S   UNL A   1      37.106  32.533  39.687  1.00  0.00     0.124 S 
ATOM     85  O   UNL A   1      37.231  33.476  40.793  1.00  0.00    -0.237 OA
ATOM     86  O   UNL A   1      35.905  32.658  38.870  1.00  0.00    -0.237 OA
ATOM     87  O   UNL A   1      37.516  31.163  39.986  1.00  0.00    -0.744 OA
ENDBRANCH  80  84
ENDBRANCH  53  77
BRANCH  65  88
ATOM     88  C   UNL A   1      44.337  28.093  34.609  1.00  0.00     0.023 A 
ATOM     89  C   UNL A   1      44.236  26.916  35.372  1.00  0.00     0.031 A 
ATOM     90  C   UNL A   1      45.590  28.729  34.541  1.00  0.00     0.131 A 
ATOM     91  C   UNL A   1      45.351  26.443  36.079  1.00  0.00     0.055 A 
ATOM     92  C   UNL A   1      46.713  28.216  35.191  1.00  0.00     0.041 A 
ATOM     93  F   UNL A   1      45.746  29.859  33.832  1.00  0.00    -0.206 F 
ATOM     94  C   UNL A   1      46.594  27.074  35.977  1.00  0.00     0.022 A 
BRANCH  91  95
ATOM     95  S   UNL A   1      45.136  25.043  37.212  1.00  0.00     0.124 S 
ATOM     96  O   UNL A   1      44.820  23.954  36.292  1.00  0.00    -0.237 OA
ATOM     97  O   UNL A   1      46.437  24.967  37.866  1.00  0.00    -0.237 OA
ATOM     98  O   UNL A   1      44.033  25.465  38.074  1.00  0.00    -0.744 OA
ENDBRANCH  91  95
ENDBRANCH  65  88
ENDBRANCH  39  40
ENDBRANCH  31  34
ENDBRANCH  29  30
ENDBRANCH  28  29
ENDBRANCH  27  28
ENDBRANCH   1  27
TORSDOF 19
ENDMDL
