MODEL 1
REMARK VINA RESULT:     -11.1      0.000      0.000
REMARK SMILES CCc1ccc(S(=O)(=O)CC(=O)NCCCCCCNC(=O)c2ccc(-c3c4nc(c(-c5cc(S(=O)(=O)[O-])ccc5F)c5ccc([nH]5)c(-c5cc(S(=O)(=O)[O-])ccc5F)c5nc(c(-c6cc(S(=O)(=O)[O-])ccc6F)c6ccc3[nH]6)C=C5)C=C4)cc2)cc1
REMARK SMILES IDX 16 1 15 2 14 3 13 4 11 5 12 6 10 8 7 9 8 10 9 11 6 12 3 13
REMARK SMILES IDX 4 14 87 15 5 16 86 17 2 18 1 19 17 20 18 21 19 22 20 23
REMARK SMILES IDX 21 24 22 26 23 27 24 28 85 29 25 30 84 31 26 32 27 33 28 34
REMARK SMILES IDX 78 35 29 36 83 37 77 38 79 39 30 40 82 41 76 42 75 43 31 45
REMARK SMILES IDX 63 46 43 47 62 48 44 49 47 50 61 51 80 52 45 53 46 54 60 56
REMARK SMILES IDX 81 57 48 58 32 59 33 60 41 61 34 62 40 63 42 64 39 65 35 66
REMARK SMILES IDX 36 67 37 68 38 69 64 70 65 71 73 72 66 73 72 74 74 75 71 76
REMARK SMILES IDX 67 77 68 78 69 79 70 80 49 81 50 82 58 83 51 84 57 85 59 86
REMARK SMILES IDX 56 87 52 88 53 89 54 90 55 91
REMARK H PARENT 13 7 20 25 79 44 47 55
REMARK Flexibility Score: inf
ROOT
ATOM      1  C   UNL A   1      32.444  29.544  27.026  1.00  0.00     0.002 C 
ENDROOT
BRANCH   1   2
ATOM      2  C   UNL A   1      31.730  28.254  27.458  1.00  0.00     0.021 C 
BRANCH   2   3
ATOM      3  C   UNL A   1      31.571  27.226  26.337  1.00  0.00     0.116 C 
BRANCH   3   4
ATOM      4  N   UNL A   1      31.190  25.938  26.888  1.00  0.00    -0.355 N 
ATOM      5  C   UNL A   1      31.768  24.722  26.726  1.00  0.00     0.235 C 
ATOM      6  O   UNL A   1      31.176  23.745  27.196  1.00  0.00    -0.274 OA
ATOM      7  H   UNL A   1      30.392  25.950  27.464  1.00  0.00     0.163 HD
BRANCH   5   8
ATOM      8  C   UNL A   1      33.128  24.570  26.132  1.00  0.00     0.241 C 
BRANCH   8   9
ATOM      9  S   UNL A   1      33.178  24.001  24.475  1.00  0.00     0.187 S 
ATOM     10  O   UNL A   1      34.400  24.527  23.891  1.00  0.00    -0.223 OA
ATOM     11  O   UNL A   1      31.901  24.324  23.861  1.00  0.00    -0.223 OA
BRANCH   9  12
ATOM     12  C   UNL A   1      33.341  22.240  24.388  1.00  0.00     0.067 A 
ATOM     13  C   UNL A   1      33.656  19.446  24.425  1.00  0.00    -0.048 A 
ATOM     14  C   UNL A   1      34.645  20.286  24.961  1.00  0.00     0.005 A 
ATOM     15  C   UNL A   1      32.510  20.035  23.870  1.00  0.00     0.005 A 
ATOM     16  C   UNL A   1      34.496  21.672  24.934  1.00  0.00     0.020 A 
ATOM     17  C   UNL A   1      32.342  21.425  23.864  1.00  0.00     0.020 A 
BRANCH  13  18
ATOM     18  C   UNL A   1      33.850  17.951  24.548  1.00  0.00     0.032 C 
ATOM     19  C   UNL A   1      32.709  17.163  25.178  1.00  0.00     0.009 C 
ENDBRANCH  13  18
ENDBRANCH   9  12
ENDBRANCH   8   9
ENDBRANCH   5   8
ENDBRANCH   3   4
ENDBRANCH   2   3
ENDBRANCH   1   2
BRANCH   1  20
ATOM     20  C   UNL A   1      31.629  30.464  26.109  1.00  0.00     0.002 C 
BRANCH  20  21
ATOM     21  C   UNL A   1      31.508  31.912  26.589  1.00  0.00     0.021 C 
BRANCH  21  22
ATOM     22  C   UNL A   1      32.763  32.465  27.255  1.00  0.00     0.116 C 
BRANCH  22  23
ATOM     23  N   UNL A   1      32.584  33.841  27.691  1.00  0.00    -0.352 N 
ATOM     24  C   UNL A   1      33.245  34.519  28.687  1.00  0.00     0.251 C 
ATOM     25  H   UNL A   1      31.897  34.356  27.209  1.00  0.00     0.163 HD
ATOM     26  O   UNL A   1      32.832  35.610  29.067  1.00  0.00    -0.269 OA
BRANCH  24  27
ATOM     27  C   UNL A   1      34.441  33.910  29.310  1.00  0.00     0.039 A 
ATOM     28  C   UNL A   1      35.709  34.363  28.941  1.00  0.00     0.014 A 
ATOM     29  C   UNL A   1      34.304  32.898  30.265  1.00  0.00     0.014 A 
ATOM     30  C   UNL A   1      36.842  33.841  29.573  1.00  0.00     0.010 A 
ATOM     31  C   UNL A   1      35.427  32.428  30.940  1.00  0.00     0.010 A 
ATOM     32  C   UNL A   1      36.709  32.890  30.598  1.00  0.00    -0.014 A 
BRANCH  32  33
ATOM     33  C   UNL A   1      37.888  32.332  31.309  1.00  0.00     0.031 A 
ATOM     34  C   UNL A   1      38.658  31.199  30.685  1.00  0.00     0.074 A 
ATOM     35  C   UNL A   1      38.217  32.780  32.537  1.00  0.00     0.049 A 
ATOM     36  N   UNL A   1      39.606  30.457  31.196  1.00  0.00    -0.248 NA
ATOM     37  C   UNL A   1      38.284  30.834  29.309  1.00  0.00     0.031 C 
ATOM     38  C   UNL A   1      37.538  33.862  33.253  1.00  0.00     0.029 A 
ATOM     39  N   UNL A   1      39.194  32.369  33.410  1.00  0.00    -0.354 N 
ATOM     40  C   UNL A   1      39.929  29.526  30.214  1.00  0.00     0.074 A 
ATOM     41  C   UNL A   1      39.036  29.764  29.100  1.00  0.00     0.031 C 
ATOM     42  C   UNL A   1      38.120  34.029  34.451  1.00  0.00     0.029 A 
ATOM     43  C   UNL A   1      39.179  33.037  34.613  1.00  0.00     0.049 A 
ATOM     44  H   UNL A   1      39.845  31.662  33.196  1.00  0.00     0.167 HD
ATOM     45  C   UNL A   1      40.896  28.576  30.233  1.00  0.00     0.034 A 
ATOM     46  C   UNL A   1      39.916  32.854  35.728  1.00  0.00     0.034 A 
ATOM     47  C   UNL A   1      41.789  28.363  31.345  1.00  0.00     0.049 A 
ATOM     48  C   UNL A   1      40.968  31.770  35.736  1.00  0.00     0.074 A 
ATOM     49  C   UNL A   1      42.819  27.445  31.461  1.00  0.00     0.029 A 
ATOM     50  N   UNL A   1      41.761  29.080  32.534  1.00  0.00    -0.354 N 
ATOM     51  N   UNL A   1      41.272  30.908  34.792  1.00  0.00    -0.248 NA
ATOM     52  C   UNL A   1      41.783  31.640  36.952  1.00  0.00     0.031 C 
ATOM     53  C   UNL A   1      43.375  27.570  32.738  1.00  0.00     0.029 A 
ATOM     54  C   UNL A   1      42.745  28.616  33.392  1.00  0.00     0.049 A 
ATOM     55  H   UNL A   1      41.134  29.812  32.737  1.00  0.00     0.167 HD
ATOM     56  C   UNL A   1      42.344  30.168  35.286  1.00  0.00     0.074 A 
ATOM     57  C   UNL A   1      42.634  30.685  36.607  1.00  0.00     0.031 C 
ATOM     58  C   UNL A   1      43.032  29.157  34.699  1.00  0.00     0.034 A 
BRANCH  45  59
ATOM     59  C   UNL A   1      41.020  27.686  29.019  1.00  0.00     0.023 A 
ATOM     60  C   UNL A   1      42.008  27.903  28.044  1.00  0.00     0.031 A 
ATOM     61  C   UNL A   1      40.129  26.616  28.825  1.00  0.00     0.131 A 
ATOM     62  C   UNL A   1      42.039  27.111  26.888  1.00  0.00     0.055 A 
ATOM     63  C   UNL A   1      40.215  25.779  27.710  1.00  0.00     0.041 A 
ATOM     64  F   UNL A   1      39.150  26.372  29.711  1.00  0.00    -0.206 F 
ATOM     65  C   UNL A   1      41.166  26.032  26.727  1.00  0.00     0.022 A 
BRANCH  62  66
ATOM     66  S   UNL A   1      43.151  27.591  25.539  1.00  0.00     0.124 S 
ATOM     67  O   UNL A   1      43.675  26.295  25.116  1.00  0.00    -0.237 OA
ATOM     68  O   UNL A   1      42.248  28.251  24.604  1.00  0.00    -0.237 OA
ATOM     69  O   UNL A   1      44.123  28.466  26.190  1.00  0.00    -0.744 OA
ENDBRANCH  62  66
ENDBRANCH  45  59
BRANCH  46  70
ATOM     70  C   UNL A   1      39.682  33.689  36.943  1.00  0.00     0.023 A 
ATOM     71  C   UNL A   1      40.491  34.802  37.223  1.00  0.00     0.031 A 
ATOM     72  C   UNL A   1      38.687  33.349  37.877  1.00  0.00     0.131 A 
ATOM     73  C   UNL A   1      40.335  35.494  38.433  1.00  0.00     0.055 A 
ATOM     74  C   UNL A   1      38.496  34.079  39.051  1.00  0.00     0.041 A 
ATOM     75  F   UNL A   1      37.881  32.297  37.659  1.00  0.00    -0.206 F 
ATOM     76  C   UNL A   1      39.335  35.149  39.344  1.00  0.00     0.022 A 
BRANCH  73  77
ATOM     77  S   UNL A   1      41.539  36.786  38.855  1.00  0.00     0.124 S 
ATOM     78  O   UNL A   1      42.264  36.935  37.598  1.00  0.00    -0.237 OA
ATOM     79  O   UNL A   1      40.670  37.896  39.232  1.00  0.00    -0.237 OA
ATOM     80  O   UNL A   1      42.302  36.193  39.950  1.00  0.00    -0.744 OA
ENDBRANCH  73  77
ENDBRANCH  46  70
BRANCH  58  81
ATOM     81  C   UNL A   1      44.220  28.601  35.445  1.00  0.00     0.023 A 
ATOM     82  C   UNL A   1      44.093  27.575  36.394  1.00  0.00     0.031 A 
ATOM     83  C   UNL A   1      45.506  29.107  35.180  1.00  0.00     0.131 A 
ATOM     84  C   UNL A   1      45.229  27.113  37.078  1.00  0.00     0.055 A 
ATOM     85  C   UNL A   1      46.639  28.608  35.824  1.00  0.00     0.041 A 
ATOM     86  F   UNL A   1      45.682  30.090  34.282  1.00  0.00    -0.206 F 
ATOM     87  C   UNL A   1      46.502  27.612  36.785  1.00  0.00     0.022 A 
BRANCH  84  88
ATOM     88  S   UNL A   1      45.016  25.897  38.405  1.00  0.00     0.124 S 
ATOM     89  O   UNL A   1      43.757  26.321  39.007  1.00  0.00    -0.237 OA
ATOM     90  O   UNL A   1      44.979  24.636  37.672  1.00  0.00    -0.237 OA
ATOM     91  O   UNL A   1      46.199  26.090  39.241  1.00  0.00    -0.744 OA
ENDBRANCH  84  88
ENDBRANCH  58  81
ENDBRANCH  32  33
ENDBRANCH  24  27
ENDBRANCH  22  23
ENDBRANCH  21  22
ENDBRANCH  20  21
ENDBRANCH   1  20
TORSDOF 19
ENDMDL
MODEL 2
REMARK VINA RESULT:     -11.0      2.650      3.766
REMARK SMILES CCc1ccc(S(=O)(=O)CC(=O)NCCCCCCNC(=O)c2ccc(-c3c4nc(c(-c5cc(S(=O)(=O)[O-])ccc5F)c5ccc([nH]5)c(-c5cc(S(=O)(=O)[O-])ccc5F)c5nc(c(-c6cc(S(=O)(=O)[O-])ccc6F)c6ccc3[nH]6)C=C5)C=C4)cc2)cc1
REMARK SMILES IDX 16 1 15 2 14 3 13 4 11 5 12 6 10 8 7 9 8 10 9 11 6 12 3 13
REMARK SMILES IDX 4 14 87 15 5 16 86 17 2 18 1 19 17 20 18 21 19 22 20 23
REMARK SMILES IDX 21 24 22 26 23 27 24 28 85 29 25 30 84 31 26 32 27 33 28 34
REMARK SMILES IDX 78 35 29 36 83 37 77 38 79 39 30 40 82 41 76 42 75 43 31 45
REMARK SMILES IDX 63 46 43 47 62 48 44 49 47 50 61 51 80 52 45 53 46 54 60 56
REMARK SMILES IDX 81 57 48 58 32 59 33 60 41 61 34 62 40 63 42 64 39 65 35 66
REMARK SMILES IDX 36 67 37 68 38 69 64 70 65 71 73 72 66 73 72 74 74 75 71 76
REMARK SMILES IDX 67 77 68 78 69 79 70 80 49 81 50 82 58 83 51 84 57 85 59 86
REMARK SMILES IDX 56 87 52 88 53 89 54 90 55 91
REMARK H PARENT 13 7 20 25 79 44 47 55
REMARK Flexibility Score: inf
ROOT
ATOM      1  C   UNL A   1      31.626  28.919  26.371  1.00  0.00     0.002 C 
ENDROOT
BRANCH   1   2
ATOM      2  C   UNL A   1      32.964  28.339  26.853  1.00  0.00     0.021 C 
BRANCH   2   3
ATOM      3  C   UNL A   1      33.683  27.484  25.809  1.00  0.00     0.116 C 
BRANCH   3   4
ATOM      4  N   UNL A   1      33.500  26.074  26.103  1.00  0.00    -0.355 N 
ATOM      5  C   UNL A   1      33.524  25.005  25.268  1.00  0.00     0.235 C 
ATOM      6  O   UNL A   1      33.208  23.909  25.740  1.00  0.00    -0.274 OA
ATOM      7  H   UNL A   1      33.332  25.863  27.050  1.00  0.00     0.163 HD
BRANCH   5   8
ATOM      8  C   UNL A   1      34.044  25.108  23.873  1.00  0.00     0.241 C 
BRANCH   8   9
ATOM      9  S   UNL A   1      32.833  25.097  22.605  1.00  0.00     0.187 S 
ATOM     10  O   UNL A   1      32.119  23.837  22.722  1.00  0.00    -0.223 OA
ATOM     11  O   UNL A   1      33.502  25.422  21.357  1.00  0.00    -0.223 OA
BRANCH   9  12
ATOM     12  C   UNL A   1      31.608  26.351  22.854  1.00  0.00     0.067 A 
ATOM     13  C   UNL A   1      29.693  28.398  23.075  1.00  0.00    -0.048 A 
ATOM     14  C   UNL A   1      30.941  28.647  22.484  1.00  0.00     0.005 A 
ATOM     15  C   UNL A   1      29.425  27.106  23.552  1.00  0.00     0.005 A 
ATOM     16  C   UNL A   1      31.897  27.636  22.383  1.00  0.00     0.020 A 
ATOM     17  C   UNL A   1      30.371  26.081  23.430  1.00  0.00     0.020 A 
BRANCH  13  18
ATOM     18  C   UNL A   1      28.678  29.520  23.091  1.00  0.00     0.032 C 
ATOM     19  C   UNL A   1      28.503  30.303  21.797  1.00  0.00     0.009 C 
ENDBRANCH  13  18
ENDBRANCH   9  12
ENDBRANCH   8   9
ENDBRANCH   5   8
ENDBRANCH   3   4
ENDBRANCH   2   3
ENDBRANCH   1   2
BRANCH   1  20
ATOM     20  C   UNL A   1      31.722  30.261  25.638  1.00  0.00     0.002 C 
BRANCH  20  21
ATOM     21  C   UNL A   1      31.459  31.493  26.507  1.00  0.00     0.021 C 
BRANCH  21  22
ATOM     22  C   UNL A   1      32.718  32.189  27.016  1.00  0.00     0.116 C 
BRANCH  22  23
ATOM     23  N   UNL A   1      32.463  33.575  27.376  1.00  0.00    -0.352 N 
ATOM     24  C   UNL A   1      33.042  34.323  28.372  1.00  0.00     0.251 C 
ATOM     25  H   UNL A   1      31.786  34.040  26.833  1.00  0.00     0.163 HD
ATOM     26  O   UNL A   1      32.568  35.413  28.677  1.00  0.00    -0.269 OA
BRANCH  24  27
ATOM     27  C   UNL A   1      34.223  33.791  29.088  1.00  0.00     0.039 A 
ATOM     28  C   UNL A   1      34.042  32.833  30.088  1.00  0.00     0.014 A 
ATOM     29  C   UNL A   1      35.508  34.234  28.760  1.00  0.00     0.014 A 
ATOM     30  C   UNL A   1      35.155  32.276  30.723  1.00  0.00     0.010 A 
ATOM     31  C   UNL A   1      36.617  33.629  29.346  1.00  0.00     0.010 A 
ATOM     32  C   UNL A   1      36.453  32.648  30.337  1.00  0.00    -0.014 A 
BRANCH  32  33
ATOM     33  C   UNL A   1      37.661  32.058  30.972  1.00  0.00     0.031 A 
ATOM     34  C   UNL A   1      38.449  31.013  30.230  1.00  0.00     0.074 A 
ATOM     35  C   UNL A   1      38.001  32.398  32.232  1.00  0.00     0.049 A 
ATOM     36  N   UNL A   1      39.426  30.253  30.653  1.00  0.00    -0.248 NA
ATOM     37  C   UNL A   1      38.059  30.769  28.832  1.00  0.00     0.031 C 
ATOM     38  C   UNL A   1      37.306  33.387  33.058  1.00  0.00     0.029 A 
ATOM     39  N   UNL A   1      39.005  31.934  33.045  1.00  0.00    -0.354 N 
ATOM     40  C   UNL A   1      39.756  29.429  29.581  1.00  0.00     0.074 A 
ATOM     41  C   UNL A   1      38.835  29.745  28.510  1.00  0.00     0.031 C 
ATOM     42  C   UNL A   1      37.906  33.456  34.258  1.00  0.00     0.029 A 
ATOM     43  C   UNL A   1      38.994  32.484  34.307  1.00  0.00     0.049 A 
ATOM     44  H   UNL A   1      39.670  31.269  32.754  1.00  0.00     0.167 HD
ATOM     45  C   UNL A   1      40.748  28.509  29.494  1.00  0.00     0.034 A 
ATOM     46  C   UNL A   1      39.757  32.217  35.387  1.00  0.00     0.034 A 
ATOM     47  C   UNL A   1      41.667  28.217  30.566  1.00  0.00     0.049 A 
ATOM     48  C   UNL A   1      40.838  31.168  35.275  1.00  0.00     0.074 A 
ATOM     49  C   UNL A   1      42.723  27.323  30.577  1.00  0.00     0.029 A 
ATOM     50  N   UNL A   1      41.642  28.818  31.819  1.00  0.00    -0.354 N 
ATOM     51  N   UNL A   1      41.147  30.408  34.248  1.00  0.00    -0.248 NA
ATOM     52  C   UNL A   1      41.679  30.947  36.459  1.00  0.00     0.031 C 
ATOM     53  C   UNL A   1      43.300  27.341  31.851  1.00  0.00     0.029 A 
ATOM     54  C   UNL A   1      42.654  28.302  32.612  1.00  0.00     0.049 A 
ATOM     55  H   UNL A   1      40.999  29.508  32.100  1.00  0.00     0.167 HD
ATOM     56  C   UNL A   1      42.248  29.656  34.652  1.00  0.00     0.074 A 
ATOM     57  C   UNL A   1      42.549  30.053  36.011  1.00  0.00     0.031 C 
ATOM     58  C   UNL A   1      42.951  28.725  33.959  1.00  0.00     0.034 A 
BRANCH  45  59
ATOM     59  C   UNL A   1      40.873  27.742  28.199  1.00  0.00     0.023 A 
ATOM     60  C   UNL A   1      40.371  26.437  28.065  1.00  0.00     0.031 A 
ATOM     61  C   UNL A   1      41.517  28.316  27.089  1.00  0.00     0.131 A 
ATOM     62  C   UNL A   1      40.581  25.723  26.877  1.00  0.00     0.055 A 
ATOM     63  C   UNL A   1      41.652  27.630  25.880  1.00  0.00     0.041 A 
ATOM     64  F   UNL A   1      42.037  29.552  27.163  1.00  0.00    -0.206 F 
ATOM     65  C   UNL A   1      41.195  26.320  25.773  1.00  0.00     0.022 A 
BRANCH  62  66
ATOM     66  S   UNL A   1      40.158  23.960  26.839  1.00  0.00     0.124 S 
ATOM     67  O   UNL A   1      41.280  23.406  26.085  1.00  0.00    -0.237 OA
ATOM     68  O   UNL A   1      40.108  23.616  28.255  1.00  0.00    -0.237 OA
ATOM     69  O   UNL A   1      38.874  23.930  26.143  1.00  0.00    -0.744 OA
ENDBRANCH  62  66
ENDBRANCH  45  59
BRANCH  46  70
ATOM     70  C   UNL A   1      39.523  32.926  36.680  1.00  0.00     0.023 A 
ATOM     71  C   UNL A   1      38.691  32.375  37.668  1.00  0.00     0.031 A 
ATOM     72  C   UNL A   1      40.075  34.197  36.920  1.00  0.00     0.131 A 
ATOM     73  C   UNL A   1      38.384  33.117  38.818  1.00  0.00     0.055 A 
ATOM     74  C   UNL A   1      39.816  34.905  38.094  1.00  0.00     0.041 A 
ATOM     75  F   UNL A   1      40.881  34.771  36.012  1.00  0.00    -0.206 F 
ATOM     76  C   UNL A   1      38.951  34.373  39.045  1.00  0.00     0.022 A 
BRANCH  73  77
ATOM     77  S   UNL A   1      37.137  32.464  39.964  1.00  0.00     0.124 S 
ATOM     78  O   UNL A   1      35.993  32.277  39.080  1.00  0.00    -0.237 OA
ATOM     79  O   UNL A   1      37.782  31.247  40.448  1.00  0.00    -0.237 OA
ATOM     80  O   UNL A   1      36.996  33.528  40.954  1.00  0.00    -0.744 OA
ENDBRANCH  73  77
ENDBRANCH  46  70
BRANCH  58  81
ATOM     81  C   UNL A   1      44.168  28.136  34.630  1.00  0.00     0.023 A 
ATOM     82  C   UNL A   1      44.103  26.962  35.399  1.00  0.00     0.031 A 
ATOM     83  C   UNL A   1      45.418  28.761  34.476  1.00  0.00     0.131 A 
ATOM     84  C   UNL A   1      45.262  26.472  36.021  1.00  0.00     0.055 A 
ATOM     85  C   UNL A   1      46.577  28.240  35.053  1.00  0.00     0.041 A 
ATOM     86  F   UNL A   1      45.535  29.886  33.751  1.00  0.00    -0.206 F 
ATOM     87  C   UNL A   1      46.500  27.095  35.839  1.00  0.00     0.022 A 
BRANCH  84  88
ATOM     88  S   UNL A   1      45.120  25.045  37.131  1.00  0.00     0.124 S 
ATOM     89  O   UNL A   1      43.753  25.176  37.623  1.00  0.00    -0.237 OA
ATOM     90  O   UNL A   1      45.369  23.923  36.231  1.00  0.00    -0.237 OA
ATOM     91  O   UNL A   1      46.163  25.280  38.127  1.00  0.00    -0.744 OA
ENDBRANCH  84  88
ENDBRANCH  58  81
ENDBRANCH  32  33
ENDBRANCH  24  27
ENDBRANCH  22  23
ENDBRANCH  21  22
ENDBRANCH  20  21
ENDBRANCH   1  20
TORSDOF 19
ENDMDL
MODEL 3
REMARK VINA RESULT:     -10.8      2.719      3.856
REMARK SMILES CCc1ccc(S(=O)(=O)CC(=O)NCCCCCCNC(=O)c2ccc(-c3c4nc(c(-c5cc(S(=O)(=O)[O-])ccc5F)c5ccc([nH]5)c(-c5cc(S(=O)(=O)[O-])ccc5F)c5nc(c(-c6cc(S(=O)(=O)[O-])ccc6F)c6ccc3[nH]6)C=C5)C=C4)cc2)cc1
REMARK SMILES IDX 16 1 15 2 14 3 13 4 11 5 12 6 10 8 7 9 8 10 9 11 6 12 3 13
REMARK SMILES IDX 4 14 87 15 5 16 86 17 2 18 1 19 17 20 18 21 19 22 20 23
REMARK SMILES IDX 21 24 22 26 23 27 24 28 85 29 25 30 84 31 26 32 27 33 28 34
REMARK SMILES IDX 78 35 29 36 83 37 77 38 79 39 30 40 82 41 76 42 75 43 31 45
REMARK SMILES IDX 63 46 43 47 62 48 44 49 47 50 61 51 80 52 45 53 46 54 60 56
REMARK SMILES IDX 81 57 48 58 32 59 33 60 41 61 34 62 40 63 42 64 39 65 35 66
REMARK SMILES IDX 36 67 37 68 38 69 64 70 65 71 73 72 66 73 72 74 74 75 71 76
REMARK SMILES IDX 67 77 68 78 69 79 70 80 49 81 50 82 58 83 51 84 57 85 59 86
REMARK SMILES IDX 56 87 52 88 53 89 54 90 55 91
REMARK H PARENT 13 7 20 25 79 44 47 55
REMARK Flexibility Score: inf
ROOT
ATOM      1  C   UNL A   1      31.430  29.629  25.691  1.00  0.00     0.002 C 
ENDROOT
BRANCH   1   2
ATOM      2  C   UNL A   1      32.166  28.853  26.795  1.00  0.00     0.021 C 
BRANCH   2   3
ATOM      3  C   UNL A   1      33.464  28.193  26.330  1.00  0.00     0.116 C 
BRANCH   3   4
ATOM      4  N   UNL A   1      33.843  28.698  25.023  1.00  0.00    -0.355 N 
ATOM      5  C   UNL A   1      34.062  28.025  23.865  1.00  0.00     0.235 C 
ATOM      6  O   UNL A   1      34.507  28.669  22.909  1.00  0.00    -0.274 OA
ATOM      7  H   UNL A   1      33.959  29.674  24.969  1.00  0.00     0.163 HD
BRANCH   5   8
ATOM      8  C   UNL A   1      33.657  26.599  23.695  1.00  0.00     0.241 C 
BRANCH   8   9
ATOM      9  S   UNL A   1      32.423  26.296  22.487  1.00  0.00     0.187 S 
ATOM     10  O   UNL A   1      31.819  25.018  22.822  1.00  0.00    -0.223 OA
ATOM     11  O   UNL A   1      33.034  26.473  21.181  1.00  0.00    -0.223 OA
BRANCH   9  12
ATOM     12  C   UNL A   1      31.104  27.474  22.583  1.00  0.00     0.067 A 
ATOM     13  C   UNL A   1      28.990  29.298  22.913  1.00  0.00    -0.048 A 
ATOM     14  C   UNL A   1      28.899  27.997  23.430  1.00  0.00     0.005 A 
ATOM     15  C   UNL A   1      30.158  29.665  22.228  1.00  0.00     0.005 A 
ATOM     16  C   UNL A   1      29.942  27.087  23.259  1.00  0.00     0.020 A 
ATOM     17  C   UNL A   1      31.219  28.764  22.075  1.00  0.00     0.020 A 
BRANCH  13  18
ATOM     18  C   UNL A   1      27.853  30.255  23.193  1.00  0.00     0.032 C 
ATOM     19  C   UNL A   1      27.898  31.600  22.480  1.00  0.00     0.009 C 
ENDBRANCH  13  18
ENDBRANCH   9  12
ENDBRANCH   8   9
ENDBRANCH   5   8
ENDBRANCH   3   4
ENDBRANCH   2   3
ENDBRANCH   1   2
BRANCH   1  20
ATOM     20  C   UNL A   1      31.425  31.153  25.858  1.00  0.00     0.002 C 
BRANCH  20  21
ATOM     21  C   UNL A   1      31.804  31.653  27.253  1.00  0.00     0.021 C 
BRANCH  21  22
ATOM     22  C   UNL A   1      33.036  32.552  27.289  1.00  0.00     0.116 C 
BRANCH  22  23
ATOM     23  N   UNL A   1      32.697  33.922  27.641  1.00  0.00    -0.352 N 
ATOM     24  C   UNL A   1      33.186  34.690  28.670  1.00  0.00     0.251 C 
ATOM     25  H   UNL A   1      32.027  34.357  27.066  1.00  0.00     0.163 HD
ATOM     26  O   UNL A   1      32.645  35.755  28.953  1.00  0.00    -0.269 OA
BRANCH  24  27
ATOM     27  C   UNL A   1      34.353  34.211  29.444  1.00  0.00     0.039 A 
ATOM     28  C   UNL A   1      34.142  33.440  30.589  1.00  0.00     0.014 A 
ATOM     29  C   UNL A   1      35.652  34.518  29.029  1.00  0.00     0.014 A 
ATOM     30  C   UNL A   1      35.238  32.926  31.288  1.00  0.00     0.010 A 
ATOM     31  C   UNL A   1      36.739  33.950  29.687  1.00  0.00     0.010 A 
ATOM     32  C   UNL A   1      36.545  33.153  30.827  1.00  0.00    -0.014 A 
BRANCH  32  33
ATOM     33  C   UNL A   1      37.733  32.602  31.530  1.00  0.00     0.031 A 
ATOM     34  C   UNL A   1      38.517  31.487  30.893  1.00  0.00     0.074 A 
ATOM     35  C   UNL A   1      38.057  33.041  32.763  1.00  0.00     0.049 A 
ATOM     36  N   UNL A   1      39.475  30.752  31.395  1.00  0.00    -0.248 NA
ATOM     37  C   UNL A   1      38.146  31.132  29.513  1.00  0.00     0.031 C 
ATOM     38  C   UNL A   1      37.364  34.106  33.491  1.00  0.00     0.029 A 
ATOM     39  N   UNL A   1      39.040  32.634  33.631  1.00  0.00    -0.354 N 
ATOM     40  C   UNL A   1      39.810  29.836  30.402  1.00  0.00     0.074 A 
ATOM     41  C   UNL A   1      38.913  30.074  29.292  1.00  0.00     0.031 C 
ATOM     42  C   UNL A   1      37.945  34.268  34.691  1.00  0.00     0.029 A 
ATOM     43  C   UNL A   1      39.017  33.288  34.841  1.00  0.00     0.049 A 
ATOM     44  H   UNL A   1      39.700  31.937  33.408  1.00  0.00     0.167 HD
ATOM     45  C   UNL A   1      40.789  28.899  30.410  1.00  0.00     0.034 A 
ATOM     46  C   UNL A   1      39.757  33.102  35.954  1.00  0.00     0.034 A 
ATOM     47  C   UNL A   1      41.686  28.685  31.519  1.00  0.00     0.049 A 
ATOM     48  C   UNL A   1      40.824  32.032  35.948  1.00  0.00     0.074 A 
ATOM     49  C   UNL A   1      42.728  27.780  31.624  1.00  0.00     0.029 A 
ATOM     50  N   UNL A   1      41.649  29.389  32.716  1.00  0.00    -0.354 N 
ATOM     51  N   UNL A   1      41.139  31.185  34.995  1.00  0.00    -0.248 NA
ATOM     52  C   UNL A   1      41.642  31.900  37.162  1.00  0.00     0.031 C 
ATOM     53  C   UNL A   1      43.284  27.898  32.902  1.00  0.00     0.029 A 
ATOM     54  C   UNL A   1      42.640  28.928  33.568  1.00  0.00     0.049 A 
ATOM     55  H   UNL A   1      41.013  30.110  32.928  1.00  0.00     0.167 HD
ATOM     56  C   UNL A   1      42.221  30.454  35.479  1.00  0.00     0.074 A 
ATOM     57  C   UNL A   1      42.505  30.960  36.805  1.00  0.00     0.031 C 
ATOM     58  C   UNL A   1      42.921  29.458  34.880  1.00  0.00     0.034 A 
BRANCH  45  59
ATOM     59  C   UNL A   1      40.924  28.024  29.186  1.00  0.00     0.023 A 
ATOM     60  C   UNL A   1      41.943  28.232  28.241  1.00  0.00     0.031 A 
ATOM     61  C   UNL A   1      40.012  26.980  28.952  1.00  0.00     0.131 A 
ATOM     62  C   UNL A   1      41.985  27.456  27.074  1.00  0.00     0.055 A 
ATOM     63  C   UNL A   1      40.108  26.157  27.828  1.00  0.00     0.041 A 
ATOM     64  F   UNL A   1      39.005  26.746  29.808  1.00  0.00    -0.206 F 
ATOM     65  C   UNL A   1      41.091  26.401  26.873  1.00  0.00     0.022 A 
BRANCH  62  66
ATOM     66  S   UNL A   1      43.143  27.929  25.762  1.00  0.00     0.124 S 
ATOM     67  O   UNL A   1      43.486  29.295  26.151  1.00  0.00    -0.237 OA
ATOM     68  O   UNL A   1      44.203  26.939  25.902  1.00  0.00    -0.237 OA
ATOM     69  O   UNL A   1      42.344  27.819  24.543  1.00  0.00    -0.744 OA
ENDBRANCH  62  66
ENDBRANCH  45  59
BRANCH  46  70
ATOM     70  C   UNL A   1      39.513  33.920  37.177  1.00  0.00     0.023 A 
ATOM     71  C   UNL A   1      38.865  33.373  38.297  1.00  0.00     0.031 A 
ATOM     72  C   UNL A   1      39.865  35.281  37.222  1.00  0.00     0.131 A 
ATOM     73  C   UNL A   1      38.532  34.195  39.384  1.00  0.00     0.055 A 
ATOM     74  C   UNL A   1      39.587  36.080  38.332  1.00  0.00     0.041 A 
ATOM     75  F   UNL A   1      40.490  35.857  36.182  1.00  0.00    -0.206 F 
ATOM     76  C   UNL A   1      38.900  35.542  39.416  1.00  0.00     0.022 A 
BRANCH  73  77
ATOM     77  S   UNL A   1      37.506  33.503  40.712  1.00  0.00     0.124 S 
ATOM     78  O   UNL A   1      38.411  32.525  41.305  1.00  0.00    -0.237 OA
ATOM     79  O   UNL A   1      37.219  34.685  41.518  1.00  0.00    -0.237 OA
ATOM     80  O   UNL A   1      36.361  32.943  39.998  1.00  0.00    -0.744 OA
ENDBRANCH  73  77
ENDBRANCH  46  70
BRANCH  58  81
ATOM     81  C   UNL A   1      44.118  28.911  35.619  1.00  0.00     0.023 A 
ATOM     82  C   UNL A   1      44.021  27.813  36.490  1.00  0.00     0.031 A 
ATOM     83  C   UNL A   1      45.382  29.497  35.427  1.00  0.00     0.131 A 
ATOM     84  C   UNL A   1      45.161  27.361  37.171  1.00  0.00     0.055 A 
ATOM     85  C   UNL A   1      46.522  29.010  36.067  1.00  0.00     0.041 A 
ATOM     86  F   UNL A   1      45.530  30.550  34.606  1.00  0.00    -0.206 F 
ATOM     87  C   UNL A   1      46.414  27.942  36.951  1.00  0.00     0.022 A 
BRANCH  84  88
ATOM     88  S   UNL A   1      44.978  26.043  38.403  1.00  0.00     0.124 S 
ATOM     89  O   UNL A   1      44.647  26.796  39.608  1.00  0.00    -0.237 OA
ATOM     90  O   UNL A   1      43.900  25.236  37.840  1.00  0.00    -0.237 OA
ATOM     91  O   UNL A   1      46.290  25.399  38.415  1.00  0.00    -0.744 OA
ENDBRANCH  84  88
ENDBRANCH  58  81
ENDBRANCH  32  33
ENDBRANCH  24  27
ENDBRANCH  22  23
ENDBRANCH  21  22
ENDBRANCH  20  21
ENDBRANCH   1  20
TORSDOF 19
ENDMDL
