MODEL 1
REMARK VINA RESULT:     -10.5      0.000      0.000
REMARK SMILES C[C@@H]([NH+]1CCC(CCC(=O)NCCCCCCNC(=O)c2ccc(-c3c4nc(c(-c5cc(S(=O)(=O)[O-])ccc5F)c5ccc([nH]5)c(-c5cc(S(=O)(=O)[O-])ccc5F)c5nc(c(-c6cc(S(=O)(=O)[O-])ccc6F)c6ccc3[nH]6)C=C5)C=C4)cc2)CC1)C1(C)CC1
REMARK SMILES IDX 14 1 13 2 12 3 11 4 9 5 10 6 8 8 7 9 6 10 3 11 4 12 85 13
REMARK SMILES IDX 5 15 84 16 2 17 1 18 86 19 87 20 88 21 89 22 15 23 16 24
REMARK SMILES IDX 17 25 18 26 19 27 20 29 21 30 22 31 83 32 23 33 82 34 24 35
REMARK SMILES IDX 25 36 26 37 76 38 27 39 81 40 75 41 77 42 28 43 80 44 74 45
REMARK SMILES IDX 73 46 29 48 61 49 41 50 60 51 42 52 45 53 59 54 78 55 43 56
REMARK SMILES IDX 44 57 58 59 79 60 46 61 30 62 31 63 39 64 32 65 38 66 40 67
REMARK SMILES IDX 37 68 33 69 34 70 35 71 36 72 62 73 63 74 71 75 64 76 70 77
REMARK SMILES IDX 72 78 69 79 65 80 66 81 67 82 68 83 47 84 48 85 56 86 49 87
REMARK SMILES IDX 55 88 57 89 54 90 50 91 51 92 52 93 53 94
REMARK H PARENT 11 7 3 14 18 28 77 47 45 58
REMARK Flexibility Score: inf
ROOT
ATOM      1  C   UNL A   1      33.747  28.695  27.381  1.00  0.00     0.002 C 
ENDROOT
BRANCH   1   2
ATOM      2  C   UNL A   1      33.650  27.763  26.174  1.00  0.00     0.021 C 
BRANCH   2   3
ATOM      3  C   UNL A   1      32.232  27.270  25.847  1.00  0.00     0.116 C 
BRANCH   3   4
ATOM      4  N   UNL A   1      31.694  27.978  24.695  1.00  0.00    -0.356 N 
ATOM      5  C   UNL A   1      32.073  27.980  23.385  1.00  0.00     0.220 C 
ATOM      6  O   UNL A   1      31.498  28.761  22.622  1.00  0.00    -0.275 OA
ATOM      7  H   UNL A   1      30.923  28.557  24.896  1.00  0.00     0.163 HD
BRANCH   5   8
ATOM      8  C   UNL A   1      33.145  27.038  22.860  1.00  0.00     0.100 C 
BRANCH   8   9
ATOM      9  C   UNL A   1      32.594  25.778  22.171  1.00  0.00     0.014 C 
BRANCH   9  10
ATOM     10  C   UNL A   1      32.686  24.533  23.057  1.00  0.00     0.000 C 
ATOM     11  N   UNL A   1      32.424  21.789  24.016  1.00  0.00    -0.332 N 
ATOM     12  C   UNL A   1      31.512  22.840  24.483  1.00  0.00     0.262 C 
ATOM     13  C   UNL A   1      33.716  22.314  23.554  1.00  0.00     0.262 C 
ATOM     14  H   UNL A   1      32.010  21.383  23.177  1.00  0.00     0.348 HD
ATOM     15  C   UNL A   1      31.323  23.952  23.449  1.00  0.00     0.065 C 
ATOM     16  C   UNL A   1      33.537  23.403  22.481  1.00  0.00     0.065 C 
BRANCH  11  17
ATOM     17  C   UNL A   1      32.521  20.667  24.986  1.00  0.00     0.186 C 
ATOM     18  C   UNL A   1      33.505  20.930  26.137  1.00  0.00     0.076 C 
BRANCH  17  19
ATOM     19  C   UNL A   1      32.739  19.332  24.242  1.00  0.00     0.019 C 
ATOM     20  C   UNL A   1      32.200  19.322  22.824  1.00  0.00     0.018 C 
ATOM     21  C   UNL A   1      33.948  18.463  24.552  1.00  0.00     0.013 C 
ATOM     22  C   UNL A   1      32.583  18.014  24.985  1.00  0.00     0.013 C 
ENDBRANCH  17  19
ENDBRANCH  11  17
ENDBRANCH   9  10
ENDBRANCH   8   9
ENDBRANCH   5   8
ENDBRANCH   3   4
ENDBRANCH   2   3
ENDBRANCH   1   2
BRANCH   1  23
ATOM     23  C   UNL A   1      34.172  30.133  27.057  1.00  0.00     0.002 C 
BRANCH  23  24
ATOM     24  C   UNL A   1      33.105  31.020  26.406  1.00  0.00     0.021 C 
BRANCH  24  25
ATOM     25  C   UNL A   1      32.170  31.748  27.372  1.00  0.00     0.116 C 
BRANCH  25  26
ATOM     26  N   UNL A   1      32.389  33.180  27.383  1.00  0.00    -0.352 N 
ATOM     27  C   UNL A   1      33.352  33.916  28.030  1.00  0.00     0.251 C 
ATOM     28  H   UNL A   1      31.750  33.706  26.847  1.00  0.00     0.163 HD
ATOM     29  O   UNL A   1      33.242  35.138  28.070  1.00  0.00    -0.269 OA
BRANCH  27  30
ATOM     30  C   UNL A   1      34.505  33.256  28.692  1.00  0.00     0.039 A 
ATOM     31  C   UNL A   1      35.767  33.365  28.099  1.00  0.00     0.014 A 
ATOM     32  C   UNL A   1      34.349  32.478  29.843  1.00  0.00     0.014 A 
ATOM     33  C   UNL A   1      36.871  32.727  28.674  1.00  0.00     0.010 A 
ATOM     34  C   UNL A   1      35.463  31.884  30.445  1.00  0.00     0.010 A 
ATOM     35  C   UNL A   1      36.736  31.992  29.862  1.00  0.00    -0.014 A 
BRANCH  35  36
ATOM     36  C   UNL A   1      37.909  31.300  30.469  1.00  0.00     0.031 A 
ATOM     37  C   UNL A   1      38.347  31.637  31.872  1.00  0.00     0.074 A 
ATOM     38  C   UNL A   1      38.594  30.379  29.760  1.00  0.00     0.049 A 
ATOM     39  N   UNL A   1      39.356  31.168  32.562  1.00  0.00    -0.248 NA
ATOM     40  C   UNL A   1      37.555  32.650  32.583  1.00  0.00     0.031 C 
ATOM     41  C   UNL A   1      38.290  29.973  28.387  1.00  0.00     0.029 A 
ATOM     42  N   UNL A   1      39.687  29.617  30.096  1.00  0.00    -0.354 N 
ATOM     43  C   UNL A   1      39.325  31.832  33.785  1.00  0.00     0.074 A 
ATOM     44  C   UNL A   1      38.233  32.781  33.713  1.00  0.00     0.031 C 
ATOM     45  C   UNL A   1      39.157  29.020  28.008  1.00  0.00     0.029 A 
ATOM     46  C   UNL A   1      40.106  28.774  29.091  1.00  0.00     0.049 A 
ATOM     47  H   UNL A   1      40.131  29.669  30.972  1.00  0.00     0.167 HD
ATOM     48  C   UNL A   1      40.112  31.651  34.875  1.00  0.00     0.034 A 
ATOM     49  C   UNL A   1      41.137  27.906  29.042  1.00  0.00     0.034 A 
ATOM     50  C   UNL A   1      41.193  30.697  34.942  1.00  0.00     0.049 A 
ATOM     51  C   UNL A   1      42.025  27.750  30.253  1.00  0.00     0.074 A 
ATOM     52  C   UNL A   1      42.028  30.413  36.010  1.00  0.00     0.029 A 
ATOM     53  N   UNL A   1      41.592  29.870  33.900  1.00  0.00    -0.354 N 
ATOM     54  N   UNL A   1      41.957  28.362  31.413  1.00  0.00    -0.248 NA
ATOM     55  C   UNL A   1      43.120  26.776  30.153  1.00  0.00     0.031 C 
ATOM     56  C   UNL A   1      42.971  29.466  35.593  1.00  0.00     0.029 A 
ATOM     57  C   UNL A   1      42.676  29.098  34.291  1.00  0.00     0.049 A 
ATOM     58  H   UNL A   1      41.168  29.836  33.012  1.00  0.00     0.167 HD
ATOM     59  C   UNL A   1      42.975  27.815  32.192  1.00  0.00     0.074 A 
ATOM     60  C   UNL A   1      43.634  26.819  31.373  1.00  0.00     0.031 C 
ATOM     61  C   UNL A   1      43.329  28.106  33.469  1.00  0.00     0.034 A 
BRANCH  48  62
ATOM     62  C   UNL A   1      39.844  32.528  36.076  1.00  0.00     0.023 A 
ATOM     63  C   UNL A   1      38.959  32.133  37.095  1.00  0.00     0.031 A 
ATOM     64  C   UNL A   1      40.463  33.785  36.196  1.00  0.00     0.131 A 
ATOM     65  C   UNL A   1      38.658  33.014  38.144  1.00  0.00     0.055 A 
ATOM     66  C   UNL A   1      40.224  34.623  37.288  1.00  0.00     0.041 A 
ATOM     67  F   UNL A   1      41.305  34.227  35.248  1.00  0.00    -0.206 F 
ATOM     68  C   UNL A   1      39.304  34.247  38.261  1.00  0.00     0.022 A 
BRANCH  65  69
ATOM     69  S   UNL A   1      37.301  32.589  39.269  1.00  0.00     0.124 S 
ATOM     70  O   UNL A   1      37.586  31.185  39.555  1.00  0.00    -0.237 OA
ATOM     71  O   UNL A   1      37.504  33.520  40.373  1.00  0.00    -0.237 OA
ATOM     72  O   UNL A   1      36.103  32.823  38.467  1.00  0.00    -0.744 OA
ENDBRANCH  65  69
ENDBRANCH  48  62
BRANCH  49  73
ATOM     73  C   UNL A   1      41.407  27.116  27.806  1.00  0.00     0.023 A 
ATOM     74  C   UNL A   1      41.162  25.735  27.760  1.00  0.00     0.031 A 
ATOM     75  C   UNL A   1      41.976  27.721  26.670  1.00  0.00     0.131 A 
ATOM     76  C   UNL A   1      41.533  24.994  26.626  1.00  0.00     0.055 A 
ATOM     77  C   UNL A   1      42.291  26.990  25.524  1.00  0.00     0.041 A 
ATOM     78  F   UNL A   1      42.229  29.039  26.658  1.00  0.00    -0.206 F 
ATOM     79  C   UNL A   1      42.084  25.614  25.504  1.00  0.00     0.022 A 
BRANCH  76  80
ATOM     80  S   UNL A   1      41.376  23.187  26.680  1.00  0.00     0.124 S 
ATOM     81  O   UNL A   1      41.861  22.887  28.022  1.00  0.00    -0.237 OA
ATOM     82  O   UNL A   1      39.947  23.002  26.457  1.00  0.00    -0.237 OA
ATOM     83  O   UNL A   1      42.239  22.739  25.589  1.00  0.00    -0.744 OA
ENDBRANCH  76  80
ENDBRANCH  49  73
BRANCH  61  84
ATOM     84  C   UNL A   1      44.444  27.290  34.080  1.00  0.00     0.023 A 
ATOM     85  C   UNL A   1      44.228  26.001  34.597  1.00  0.00     0.031 A 
ATOM     86  C   UNL A   1      45.745  27.821  34.154  1.00  0.00     0.131 A 
ATOM     87  C   UNL A   1      45.281  25.309  35.216  1.00  0.00     0.055 A 
ATOM     88  C   UNL A   1      46.802  27.104  34.715  1.00  0.00     0.041 A 
ATOM     89  F   UNL A   1      46.009  29.048  33.677  1.00  0.00    -0.206 F 
ATOM     90  C   UNL A   1      46.570  25.846  35.263  1.00  0.00     0.022 A 
BRANCH  87  91
ATOM     91  S   UNL A   1      44.925  23.733  36.041  1.00  0.00     0.124 S 
ATOM     92  O   UNL A   1      43.562  23.460  35.601  1.00  0.00    -0.237 OA
ATOM     93  O   UNL A   1      45.958  22.857  35.498  1.00  0.00    -0.237 OA
ATOM     94  O   UNL A   1      45.067  24.050  37.461  1.00  0.00    -0.744 OA
ENDBRANCH  87  91
ENDBRANCH  61  84
ENDBRANCH  35  36
ENDBRANCH  27  30
ENDBRANCH  25  26
ENDBRANCH  24  25
ENDBRANCH  23  24
ENDBRANCH   1  23
TORSDOF 20
ENDMDL
MODEL 2
REMARK VINA RESULT:     -10.4      1.471      2.016
REMARK SMILES C[C@@H]([NH+]1CCC(CCC(=O)NCCCCCCNC(=O)c2ccc(-c3c4nc(c(-c5cc(S(=O)(=O)[O-])ccc5F)c5ccc([nH]5)c(-c5cc(S(=O)(=O)[O-])ccc5F)c5nc(c(-c6cc(S(=O)(=O)[O-])ccc6F)c6ccc3[nH]6)C=C5)C=C4)cc2)CC1)C1(C)CC1
REMARK SMILES IDX 14 1 13 2 12 3 11 4 9 5 10 6 8 8 7 9 6 10 3 11 4 12 85 13
REMARK SMILES IDX 5 15 84 16 2 17 1 18 86 19 87 20 88 21 89 22 15 23 16 24
REMARK SMILES IDX 17 25 18 26 19 27 20 29 21 30 22 31 83 32 23 33 82 34 24 35
REMARK SMILES IDX 25 36 26 37 76 38 27 39 81 40 75 41 77 42 28 43 80 44 74 45
REMARK SMILES IDX 73 46 29 48 61 49 41 50 60 51 42 52 45 53 59 54 78 55 43 56
REMARK SMILES IDX 44 57 58 59 79 60 46 61 30 62 31 63 39 64 32 65 38 66 40 67
REMARK SMILES IDX 37 68 33 69 34 70 35 71 36 72 62 73 63 74 71 75 64 76 70 77
REMARK SMILES IDX 72 78 69 79 65 80 66 81 67 82 68 83 47 84 48 85 56 86 49 87
REMARK SMILES IDX 55 88 57 89 54 90 50 91 51 92 52 93 53 94
REMARK H PARENT 11 7 3 14 18 28 77 47 45 58
REMARK Flexibility Score: inf
ROOT
ATOM      1  C   UNL A   1      33.430  28.612  27.371  1.00  0.00     0.002 C 
ENDROOT
BRANCH   1   2
ATOM      2  C   UNL A   1      33.297  27.656  26.187  1.00  0.00     0.021 C 
BRANCH   2   3
ATOM      3  C   UNL A   1      31.866  27.171  25.902  1.00  0.00     0.116 C 
BRANCH   3   4
ATOM      4  N   UNL A   1      31.077  28.229  25.289  1.00  0.00    -0.356 N 
ATOM      5  C   UNL A   1      31.056  28.709  24.014  1.00  0.00     0.220 C 
ATOM      6  O   UNL A   1      30.351  29.695  23.783  1.00  0.00    -0.275 OA
ATOM      7  H   UNL A   1      30.450  28.675  25.902  1.00  0.00     0.163 HD
BRANCH   5   8
ATOM      8  C   UNL A   1      31.846  28.047  22.895  1.00  0.00     0.100 C 
BRANCH   8   9
ATOM      9  C   UNL A   1      31.084  26.930  22.161  1.00  0.00     0.014 C 
BRANCH   9  10
ATOM     10  C   UNL A   1      31.657  25.540  22.445  1.00  0.00     0.000 C 
ATOM     11  N   UNL A   1      32.887  23.278  23.818  1.00  0.00    -0.332 N 
ATOM     12  C   UNL A   1      33.668  24.117  22.901  1.00  0.00     0.262 C 
ATOM     13  C   UNL A   1      31.446  23.303  23.533  1.00  0.00     0.262 C 
ATOM     14  H   UNL A   1      32.961  23.695  24.745  1.00  0.00     0.348 HD
ATOM     15  C   UNL A   1      33.141  25.551  22.830  1.00  0.00     0.065 C 
ATOM     16  C   UNL A   1      30.898  24.741  23.502  1.00  0.00     0.065 C 
BRANCH  11  17
ATOM     17  C   UNL A   1      33.469  21.916  23.956  1.00  0.00     0.186 C 
ATOM     18  C   UNL A   1      32.459  20.786  23.697  1.00  0.00     0.076 C 
BRANCH  17  19
ATOM     19  C   UNL A   1      34.246  21.796  25.284  1.00  0.00     0.019 C 
ATOM     20  C   UNL A   1      35.479  20.916  25.199  1.00  0.00     0.018 C 
ATOM     21  C   UNL A   1      34.257  22.947  26.279  1.00  0.00     0.013 C 
ATOM     22  C   UNL A   1      33.490  21.698  26.601  1.00  0.00     0.013 C 
ENDBRANCH  17  19
ENDBRANCH  11  17
ENDBRANCH   9  10
ENDBRANCH   8   9
ENDBRANCH   5   8
ENDBRANCH   3   4
ENDBRANCH   2   3
ENDBRANCH   1   2
BRANCH   1  23
ATOM     23  C   UNL A   1      34.025  29.984  27.033  1.00  0.00     0.002 C 
BRANCH  23  24
ATOM     24  C   UNL A   1      33.099  30.957  26.293  1.00  0.00     0.021 C 
BRANCH  24  25
ATOM     25  C   UNL A   1      32.021  31.624  27.146  1.00  0.00     0.116 C 
BRANCH  25  26
ATOM     26  N   UNL A   1      32.167  33.065  27.198  1.00  0.00    -0.352 N 
ATOM     27  C   UNL A   1      33.070  33.831  27.896  1.00  0.00     0.251 C 
ATOM     28  H   UNL A   1      31.522  33.571  26.652  1.00  0.00     0.163 HD
ATOM     29  O   UNL A   1      32.897  35.045  27.959  1.00  0.00    -0.269 OA
BRANCH  27  30
ATOM     30  C   UNL A   1      34.231  33.213  28.583  1.00  0.00     0.039 A 
ATOM     31  C   UNL A   1      35.494  33.329  27.994  1.00  0.00     0.014 A 
ATOM     32  C   UNL A   1      34.082  32.465  29.756  1.00  0.00     0.014 A 
ATOM     33  C   UNL A   1      36.606  32.730  28.593  1.00  0.00     0.010 A 
ATOM     34  C   UNL A   1      35.204  31.910  30.380  1.00  0.00     0.010 A 
ATOM     35  C   UNL A   1      36.478  32.027  29.802  1.00  0.00    -0.014 A 
BRANCH  35  36
ATOM     36  C   UNL A   1      37.661  31.375  30.435  1.00  0.00     0.031 A 
ATOM     37  C   UNL A   1      38.060  31.733  31.845  1.00  0.00     0.074 A 
ATOM     38  C   UNL A   1      38.388  30.473  29.745  1.00  0.00     0.049 A 
ATOM     39  N   UNL A   1      39.070  31.300  32.556  1.00  0.00    -0.248 NA
ATOM     40  C   UNL A   1      37.223  32.724  32.535  1.00  0.00     0.031 C 
ATOM     41  C   UNL A   1      38.124  30.051  28.368  1.00  0.00     0.029 A 
ATOM     42  N   UNL A   1      39.498  29.748  30.105  1.00  0.00    -0.354 N 
ATOM     43  C   UNL A   1      38.994  31.968  33.775  1.00  0.00     0.074 A 
ATOM     44  C   UNL A   1      37.874  32.882  33.677  1.00  0.00     0.031 C 
ATOM     45  C   UNL A   1      39.028  29.124  28.012  1.00  0.00     0.029 A 
ATOM     46  C   UNL A   1      39.963  28.914  29.114  1.00  0.00     0.049 A 
ATOM     47  H   UNL A   1      39.923  29.818  30.990  1.00  0.00     0.167 HD
ATOM     48  C   UNL A   1      39.765  31.818  34.882  1.00  0.00     0.034 A 
ATOM     49  C   UNL A   1      41.022  28.079  29.090  1.00  0.00     0.034 A 
ATOM     50  C   UNL A   1      40.874  30.899  34.974  1.00  0.00     0.049 A 
ATOM     51  C   UNL A   1      41.890  27.958  30.319  1.00  0.00     0.074 A 
ATOM     52  C   UNL A   1      41.697  30.647  36.060  1.00  0.00     0.029 A 
ATOM     53  N   UNL A   1      41.320  30.080  33.945  1.00  0.00    -0.354 N 
ATOM     54  N   UNL A   1      41.781  28.573  31.473  1.00  0.00    -0.248 NA
ATOM     55  C   UNL A   1      43.018  27.018  30.245  1.00  0.00     0.031 C 
ATOM     56  C   UNL A   1      42.677  29.728  35.667  1.00  0.00     0.029 A 
ATOM     57  C   UNL A   1      42.420  29.345  34.361  1.00  0.00     0.049 A 
ATOM     58  H   UNL A   1      40.914  30.028  33.049  1.00  0.00     0.167 HD
ATOM     59  C   UNL A   1      42.800  28.062  32.275  1.00  0.00     0.074 A 
ATOM     60  C   UNL A   1      43.506  27.084  31.474  1.00  0.00     0.031 C 
ATOM     61  C   UNL A   1      43.119  28.371  33.557  1.00  0.00     0.034 A 
BRANCH  48  62
ATOM     62  C   UNL A   1      39.446  32.692  36.072  1.00  0.00     0.023 A 
ATOM     63  C   UNL A   1      40.021  33.965  36.229  1.00  0.00     0.031 A 
ATOM     64  C   UNL A   1      38.573  32.239  37.077  1.00  0.00     0.131 A 
ATOM     65  C   UNL A   1      39.780  34.706  37.395  1.00  0.00     0.055 A 
ATOM     66  C   UNL A   1      38.269  33.018  38.197  1.00  0.00     0.041 A 
ATOM     67  F   UNL A   1      38.006  31.024  36.995  1.00  0.00    -0.206 F 
ATOM     68  C   UNL A   1      38.888  34.252  38.368  1.00  0.00     0.022 A 
BRANCH  65  69
ATOM     69  S   UNL A   1      40.763  36.201  37.690  1.00  0.00     0.124 S 
ATOM     70  O   UNL A   1      41.280  36.481  36.352  1.00  0.00    -0.237 OA
ATOM     71  O   UNL A   1      39.768  37.137  38.199  1.00  0.00    -0.237 OA
ATOM     72  O   UNL A   1      41.767  35.766  38.659  1.00  0.00    -0.744 OA
ENDBRANCH  65  69
ENDBRANCH  48  62
BRANCH  49  73
ATOM     73  C   UNL A   1      41.341  27.292  27.863  1.00  0.00     0.023 A 
ATOM     74  C   UNL A   1      41.077  25.915  27.796  1.00  0.00     0.031 A 
ATOM     75  C   UNL A   1      41.975  27.895  26.761  1.00  0.00     0.131 A 
ATOM     76  C   UNL A   1      41.492  25.175  26.678  1.00  0.00     0.055 A 
ATOM     77  C   UNL A   1      42.336  27.165  25.627  1.00  0.00     0.041 A 
ATOM     78  F   UNL A   1      42.250  29.209  26.771  1.00  0.00    -0.206 F 
ATOM     79  C   UNL A   1      42.109  25.793  25.588  1.00  0.00     0.022 A 
BRANCH  76  80
ATOM     80  S   UNL A   1      41.304  23.370  26.712  1.00  0.00     0.124 S 
ATOM     81  O   UNL A   1      39.884  23.215  26.422  1.00  0.00    -0.237 OA
ATOM     82  O   UNL A   1      42.224  22.952  25.660  1.00  0.00    -0.237 OA
ATOM     83  O   UNL A   1      41.709  23.013  28.071  1.00  0.00    -0.744 OA
ENDBRANCH  76  80
ENDBRANCH  49  73
BRANCH  61  84
ATOM     84  C   UNL A   1      44.247  27.593  34.194  1.00  0.00     0.023 A 
ATOM     85  C   UNL A   1      44.073  26.285  34.676  1.00  0.00     0.031 A 
ATOM     86  C   UNL A   1      45.518  28.182  34.329  1.00  0.00     0.131 A 
ATOM     87  C   UNL A   1      45.133  25.628  35.320  1.00  0.00     0.055 A 
ATOM     88  C   UNL A   1      46.586  27.503  34.916  1.00  0.00     0.041 A 
ATOM     89  F   UNL A   1      45.742  29.431  33.888  1.00  0.00    -0.206 F 
ATOM     90  C   UNL A   1      46.393  26.223  35.429  1.00  0.00     0.022 A 
BRANCH  87  91
ATOM     91  S   UNL A   1      44.821  24.020  36.098  1.00  0.00     0.124 S 
ATOM     92  O   UNL A   1      44.939  24.339  37.517  1.00  0.00    -0.237 OA
ATOM     93  O   UNL A   1      43.478  23.700  35.627  1.00  0.00    -0.237 OA
ATOM     94  O   UNL A   1      45.883  23.168  35.564  1.00  0.00    -0.744 OA
ENDBRANCH  87  91
ENDBRANCH  61  84
ENDBRANCH  35  36
ENDBRANCH  27  30
ENDBRANCH  25  26
ENDBRANCH  24  25
ENDBRANCH  23  24
ENDBRANCH   1  23
TORSDOF 20
ENDMDL
MODEL 3
REMARK VINA RESULT:     -10.3      6.054     11.286
REMARK SMILES C[C@@H]([NH+]1CCC(CCC(=O)NCCCCCCNC(=O)c2ccc(-c3c4nc(c(-c5cc(S(=O)(=O)[O-])ccc5F)c5ccc([nH]5)c(-c5cc(S(=O)(=O)[O-])ccc5F)c5nc(c(-c6cc(S(=O)(=O)[O-])ccc6F)c6ccc3[nH]6)C=C5)C=C4)cc2)CC1)C1(C)CC1
REMARK SMILES IDX 14 1 13 2 12 3 11 4 9 5 10 6 8 8 7 9 6 10 3 11 4 12 85 13
REMARK SMILES IDX 5 15 84 16 2 17 1 18 86 19 87 20 88 21 89 22 15 23 16 24
REMARK SMILES IDX 17 25 18 26 19 27 20 29 21 30 22 31 83 32 23 33 82 34 24 35
REMARK SMILES IDX 25 36 26 37 76 38 27 39 81 40 75 41 77 42 28 43 80 44 74 45
REMARK SMILES IDX 73 46 29 48 61 49 41 50 60 51 42 52 45 53 59 54 78 55 43 56
REMARK SMILES IDX 44 57 58 59 79 60 46 61 30 62 31 63 39 64 32 65 38 66 40 67
REMARK SMILES IDX 37 68 33 69 34 70 35 71 36 72 62 73 63 74 71 75 64 76 70 77
REMARK SMILES IDX 72 78 69 79 65 80 66 81 67 82 68 83 47 84 48 85 56 86 49 87
REMARK SMILES IDX 55 88 57 89 54 90 50 91 51 92 52 93 53 94
REMARK H PARENT 11 7 3 14 18 28 77 47 45 58
REMARK Flexibility Score: inf
ROOT
ATOM      1  C   UNL A   1      37.707  21.027  24.909  1.00  0.00     0.002 C 
ENDROOT
BRANCH   1   2
ATOM      2  C   UNL A   1      36.379  21.746  24.679  1.00  0.00     0.021 C 
BRANCH   2   3
ATOM      3  C   UNL A   1      35.179  21.148  25.431  1.00  0.00     0.116 C 
BRANCH   3   4
ATOM      4  N   UNL A   1      34.955  19.768  25.028  1.00  0.00    -0.356 N 
ATOM      5  C   UNL A   1      33.818  19.111  24.663  1.00  0.00     0.220 C 
ATOM      6  O   UNL A   1      33.895  17.896  24.461  1.00  0.00    -0.275 OA
ATOM      7  H   UNL A   1      35.768  19.211  25.016  1.00  0.00     0.163 HD
BRANCH   5   8
ATOM      8  C   UNL A   1      32.496  19.841  24.479  1.00  0.00     0.100 C 
BRANCH   8   9
ATOM      9  C   UNL A   1      32.320  20.486  23.094  1.00  0.00     0.014 C 
BRANCH   9  10
ATOM     10  C   UNL A   1      32.079  21.995  23.172  1.00  0.00     0.000 C 
ATOM     11  N   UNL A   1      32.343  24.809  23.898  1.00  0.00    -0.332 N 
ATOM     12  C   UNL A   1      31.317  23.965  24.520  1.00  0.00     0.262 C 
ATOM     13  C   UNL A   1      32.767  24.321  22.579  1.00  0.00     0.262 C 
ATOM     14  H   UNL A   1      33.184  24.732  24.470  1.00  0.00     0.348 HD
ATOM     15  C   UNL A   1      31.728  22.493  24.578  1.00  0.00     0.065 C 
ATOM     16  C   UNL A   1      33.224  22.852  22.636  1.00  0.00     0.065 C 
BRANCH  11  17
ATOM     17  C   UNL A   1      31.977  26.249  23.938  1.00  0.00     0.186 C 
ATOM     18  C   UNL A   1      32.459  27.042  22.712  1.00  0.00     0.076 C 
BRANCH  17  19
ATOM     19  C   UNL A   1      32.365  26.865  25.299  1.00  0.00     0.019 C 
ATOM     20  C   UNL A   1      33.696  26.377  25.839  1.00  0.00     0.018 C 
ATOM     21  C   UNL A   1      31.919  28.272  25.666  1.00  0.00     0.013 C 
ATOM     22  C   UNL A   1      31.300  27.095  26.361  1.00  0.00     0.013 C 
ENDBRANCH  17  19
ENDBRANCH  11  17
ENDBRANCH   9  10
ENDBRANCH   8   9
ENDBRANCH   5   8
ENDBRANCH   3   4
ENDBRANCH   2   3
ENDBRANCH   1   2
BRANCH   1  23
ATOM     23  C   UNL A   1      38.552  21.580  26.063  1.00  0.00     0.002 C 
BRANCH  23  24
ATOM     24  C   UNL A   1      40.067  21.369  25.951  1.00  0.00     0.021 C 
BRANCH  24  25
ATOM     25  C   UNL A   1      40.620  20.144  26.678  1.00  0.00     0.116 C 
BRANCH  25  26
ATOM     26  N   UNL A   1      41.755  19.557  25.993  1.00  0.00    -0.352 N 
ATOM     27  C   UNL A   1      42.903  20.152  25.529  1.00  0.00     0.251 C 
ATOM     28  H   UNL A   1      41.693  18.586  25.836  1.00  0.00     0.163 HD
ATOM     29  O   UNL A   1      43.652  19.510  24.798  1.00  0.00    -0.269 OA
BRANCH  27  30
ATOM     30  C   UNL A   1      43.237  21.554  25.881  1.00  0.00     0.039 A 
ATOM     31  C   UNL A   1      43.589  21.844  27.203  1.00  0.00     0.014 A 
ATOM     32  C   UNL A   1      43.141  22.593  24.950  1.00  0.00     0.014 A 
ATOM     33  C   UNL A   1      43.876  23.159  27.582  1.00  0.00     0.010 A 
ATOM     34  C   UNL A   1      43.478  23.899  25.319  1.00  0.00     0.010 A 
ATOM     35  C   UNL A   1      43.840  24.201  26.641  1.00  0.00    -0.014 A 
BRANCH  35  36
ATOM     36  C   UNL A   1      44.132  25.606  27.046  1.00  0.00     0.031 A 
ATOM     37  C   UNL A   1      45.518  26.173  26.872  1.00  0.00     0.074 A 
ATOM     38  C   UNL A   1      43.161  26.372  27.584  1.00  0.00     0.049 A 
ATOM     39  N   UNL A   1      45.976  27.358  27.189  1.00  0.00    -0.248 NA
ATOM     40  C   UNL A   1      46.525  25.281  26.281  1.00  0.00     0.031 C 
ATOM     41  C   UNL A   1      41.783  25.941  27.826  1.00  0.00     0.029 A 
ATOM     42  N   UNL A   1      43.183  27.673  28.025  1.00  0.00    -0.354 N 
ATOM     43  C   UNL A   1      47.324  27.353  26.843  1.00  0.00     0.074 A 
ATOM     44  C   UNL A   1      47.620  26.023  26.351  1.00  0.00     0.031 C 
ATOM     45  C   UNL A   1      41.087  26.967  28.345  1.00  0.00     0.029 A 
ATOM     46  C   UNL A   1      41.974  28.114  28.515  1.00  0.00     0.049 A 
ATOM     47  H   UNL A   1      43.987  28.239  27.994  1.00  0.00     0.167 HD
ATOM     48  C   UNL A   1      48.225  28.365  26.903  1.00  0.00     0.034 A 
ATOM     49  C   UNL A   1      41.619  29.303  29.044  1.00  0.00     0.034 A 
ATOM     50  C   UNL A   1      47.920  29.691  27.386  1.00  0.00     0.049 A 
ATOM     51  C   UNL A   1      42.649  30.402  29.138  1.00  0.00     0.074 A 
ATOM     52  C   UNL A   1      48.753  30.796  27.457  1.00  0.00     0.029 A 
ATOM     53  N   UNL A   1      46.688  30.094  27.884  1.00  0.00    -0.354 N 
ATOM     54  N   UNL A   1      43.910  30.389  28.773  1.00  0.00    -0.248 NA
ATOM     55  C   UNL A   1      42.204  31.683  29.704  1.00  0.00     0.031 C 
ATOM     56  C   UNL A   1      48.044  31.844  28.057  1.00  0.00     0.029 A 
ATOM     57  C   UNL A   1      46.746  31.420  28.288  1.00  0.00     0.049 A 
ATOM     58  H   UNL A   1      45.888  29.522  27.942  1.00  0.00     0.167 HD
ATOM     59  C   UNL A   1      44.394  31.671  29.027  1.00  0.00     0.074 A 
ATOM     60  C   UNL A   1      43.287  32.432  29.567  1.00  0.00     0.031 C 
ATOM     61  C   UNL A   1      45.639  32.173  28.826  1.00  0.00     0.034 A 
BRANCH  48  62
ATOM     62  C   UNL A   1      49.636  28.064  26.455  1.00  0.00     0.023 A 
ATOM     63  C   UNL A   1      50.029  28.200  25.112  1.00  0.00     0.031 A 
ATOM     64  C   UNL A   1      50.598  27.614  27.377  1.00  0.00     0.131 A 
ATOM     65  C   UNL A   1      51.318  27.816  24.715  1.00  0.00     0.055 A 
ATOM     66  C   UNL A   1      51.907  27.314  26.990  1.00  0.00     0.041 A 
ATOM     67  F   UNL A   1      50.280  27.447  28.671  1.00  0.00    -0.206 F 
ATOM     68  C   UNL A   1      52.268  27.398  25.650  1.00  0.00     0.022 A 
BRANCH  65  69
ATOM     69  S   UNL A   1      51.689  27.730  22.942  1.00  0.00     0.124 S 
ATOM     70  O   UNL A   1      52.508  28.925  22.755  1.00  0.00    -0.237 OA
ATOM     71  O   UNL A   1      52.386  26.454  22.827  1.00  0.00    -0.237 OA
ATOM     72  O   UNL A   1      50.371  27.781  22.313  1.00  0.00    -0.744 OA
ENDBRANCH  65  69
ENDBRANCH  48  62
BRANCH  49  73
ATOM     73  C   UNL A   1      40.231  29.529  29.543  1.00  0.00     0.023 A 
ATOM     74  C   UNL A   1      39.949  29.540  30.917  1.00  0.00     0.031 A 
ATOM     75  C   UNL A   1      39.155  29.673  28.648  1.00  0.00     0.131 A 
ATOM     76  C   UNL A   1      38.619  29.638  31.359  1.00  0.00     0.055 A 
ATOM     77  C   UNL A   1      37.841  29.826  29.093  1.00  0.00     0.041 A 
ATOM     78  F   UNL A   1      39.369  29.671  27.323  1.00  0.00    -0.206 F 
ATOM     79  C   UNL A   1      37.565  29.793  30.456  1.00  0.00     0.022 A 
BRANCH  76  80
ATOM     80  S   UNL A   1      38.277  29.457  33.132  1.00  0.00     0.124 S 
ATOM     81  O   UNL A   1      37.147  28.535  33.123  1.00  0.00    -0.237 OA
ATOM     82  O   UNL A   1      39.539  28.922  33.629  1.00  0.00    -0.237 OA
ATOM     83  O   UNL A   1      37.968  30.821  33.558  1.00  0.00    -0.744 OA
ENDBRANCH  76  80
ENDBRANCH  49  73
BRANCH  61  84
ATOM     84  C   UNL A   1      45.850  33.637  29.136  1.00  0.00     0.023 A 
ATOM     85  C   UNL A   1      45.581  34.645  28.195  1.00  0.00     0.031 A 
ATOM     86  C   UNL A   1      46.342  34.024  30.396  1.00  0.00     0.131 A 
ATOM     87  C   UNL A   1      45.857  35.986  28.507  1.00  0.00     0.055 A 
ATOM     88  C   UNL A   1      46.558  35.364  30.722  1.00  0.00     0.041 A 
ATOM     89  F   UNL A   1      46.619  33.103  31.334  1.00  0.00    -0.206 F 
ATOM     90  C   UNL A   1      46.329  36.352  29.770  1.00  0.00     0.022 A 
BRANCH  87  91
ATOM     91  S   UNL A   1      45.680  37.239  27.208  1.00  0.00     0.124 S 
ATOM     92  O   UNL A   1      46.504  36.688  26.138  1.00  0.00    -0.237 OA
ATOM     93  O   UNL A   1      44.240  37.238  26.968  1.00  0.00    -0.237 OA
ATOM     94  O   UNL A   1      46.202  38.455  27.830  1.00  0.00    -0.744 OA
ENDBRANCH  87  91
ENDBRANCH  61  84
ENDBRANCH  35  36
ENDBRANCH  27  30
ENDBRANCH  25  26
ENDBRANCH  24  25
ENDBRANCH  23  24
ENDBRANCH   1  23
TORSDOF 20
ENDMDL
