MODEL 1
REMARK VINA RESULT:     -11.5      0.000      0.000
REMARK SMILES N#C/C(=C/c1cc2c(cc1Br)OCO2)C(=O)NCCCCCCNC(=O)c1ccc(-c2c3nc(c(-c4cc(S(=O)(=O)[O-])ccc4F)c4ccc([nH]4)c(-c4cc(S(=O)(=O)[O-])ccc4F)c4nc(c(-c5cc(S(=O)(=O)[O-])ccc5F)c5ccc2[nH]5)C=C4)C=C3)cc1
REMARK SMILES IDX 21 1 20 2 19 3 18 4 17 5 15 6 16 7 3 9 4 10 2 11 1 12 5 13
REMARK SMILES IDX 6 14 10 15 7 16 9 17 11 18 8 19 14 20 12 21 13 22 22 23
REMARK SMILES IDX 23 24 24 25 25 26 26 28 27 29 28 30 89 31 29 32 88 33 30 34
REMARK SMILES IDX 31 35 32 36 82 37 33 38 87 39 81 40 83 41 34 42 86 43 80 44
REMARK SMILES IDX 79 45 35 47 67 48 47 49 66 50 48 51 51 52 65 53 84 54 49 55
REMARK SMILES IDX 50 56 64 58 85 59 52 60 36 61 37 62 45 63 38 64 44 65 46 66
REMARK SMILES IDX 43 67 39 68 40 69 41 70 42 71 68 72 69 73 77 74 70 75 76 76
REMARK SMILES IDX 78 77 75 78 71 79 72 80 73 81 74 82 53 83 54 84 62 85 55 86
REMARK SMILES IDX 61 87 63 88 60 89 56 90 57 91 58 92 59 93
REMARK H PARENT 17 8 24 27 83 46 51 57
REMARK Flexibility Score: inf
ROOT
ATOM      1  C   UNL A   1      31.476  30.324  26.096  1.00  0.00     0.002 C 
ENDROOT
BRANCH   1   2
ATOM      2  C   UNL A   1      32.506  29.450  26.824  1.00  0.00     0.002 C 
BRANCH   2   3
ATOM      3  C   UNL A   1      33.312  28.434  26.013  1.00  0.00     0.021 C 
BRANCH   3   4
ATOM      4  C   UNL A   1      33.009  26.949  26.203  1.00  0.00     0.116 C 
BRANCH   4   5
ATOM      5  N   UNL A   1      31.685  26.591  26.655  1.00  0.00    -0.351 N 
ATOM      6  C   UNL A   1      30.673  25.910  26.037  1.00  0.00     0.261 C 
ATOM      7  O   UNL A   1      29.654  25.730  26.711  1.00  0.00    -0.268 OA
ATOM      8  H   UNL A   1      31.475  26.889  27.570  1.00  0.00     0.163 HD
BRANCH   6   9
ATOM      9  C   UNL A   1      30.682  25.417  24.610  1.00  0.00     0.117 C 
ATOM     10  C   UNL A   1      30.513  26.039  23.417  1.00  0.00     0.034 C 
BRANCH   9  11
ATOM     11  C   UNL A   1      31.101  23.967  24.425  1.00  0.00     0.105 C 
ATOM     12  N   UNL A   1      31.447  22.765  24.271  1.00  0.00    -0.192 NA
ENDBRANCH   9  11
BRANCH  10  13
ATOM     13  C   UNL A   1      30.210  27.423  23.033  1.00  0.00    -0.006 A 
ATOM     14  C   UNL A   1      28.861  27.818  23.133  1.00  0.00     0.060 A 
ATOM     15  C   UNL A   1      31.178  28.363  22.606  1.00  0.00     0.029 A 
ATOM     16  C   UNL A   1      28.557  29.148  22.949  1.00  0.00     0.166 A 
ATOM     17  C   UNL A   1      30.826  29.700  22.378  1.00  0.00     0.067 A 
ATOM     18  Br  UNL A   1      33.003  27.882  22.386  1.00  0.00    -0.050 Br
ATOM     19  C   UNL A   1      29.514  30.064  22.594  1.00  0.00     0.166 A 
ATOM     20  O   UNL A   1      27.342  29.719  23.169  1.00  0.00    -0.454 OA
ATOM     21  O   UNL A   1      29.022  31.332  22.553  1.00  0.00    -0.454 OA
ATOM     22  C   UNL A   1      27.660  31.116  22.984  1.00  0.00     0.468 C 
ENDBRANCH  10  13
ENDBRANCH   6   9
ENDBRANCH   4   5
ENDBRANCH   3   4
ENDBRANCH   2   3
ENDBRANCH   1   2
BRANCH   1  23
ATOM     23  C   UNL A   1      31.387  31.808  26.463  1.00  0.00     0.021 C 
BRANCH  23  24
ATOM     24  C   UNL A   1      32.552  32.435  27.228  1.00  0.00     0.116 C 
BRANCH  24  25
ATOM     25  N   UNL A   1      32.324  33.813  27.614  1.00  0.00    -0.352 N 
ATOM     26  C   UNL A   1      32.993  34.612  28.513  1.00  0.00     0.251 C 
ATOM     27  H   UNL A   1      31.566  34.248  27.161  1.00  0.00     0.163 HD
ATOM     28  O   UNL A   1      32.551  35.735  28.747  1.00  0.00    -0.269 OA
BRANCH  26  29
ATOM     29  C   UNL A   1      34.210  34.144  29.231  1.00  0.00     0.039 A 
ATOM     30  C   UNL A   1      34.037  33.408  30.410  1.00  0.00     0.014 A 
ATOM     31  C   UNL A   1      35.505  34.454  28.803  1.00  0.00     0.014 A 
ATOM     32  C   UNL A   1      35.149  32.922  31.112  1.00  0.00     0.010 A 
ATOM     33  C   UNL A   1      36.616  33.930  29.482  1.00  0.00     0.010 A 
ATOM     34  C   UNL A   1      36.450  33.143  30.634  1.00  0.00    -0.014 A 
BRANCH  34  35
ATOM     35  C   UNL A   1      37.623  32.501  31.295  1.00  0.00     0.031 A 
ATOM     36  C   UNL A   1      38.344  31.343  30.655  1.00  0.00     0.074 A 
ATOM     37  C   UNL A   1      38.017  32.939  32.509  1.00  0.00     0.049 A 
ATOM     38  N   UNL A   1      39.343  30.635  31.120  1.00  0.00    -0.248 NA
ATOM     39  C   UNL A   1      37.875  30.918  29.328  1.00  0.00     0.031 C 
ATOM     40  C   UNL A   1      37.394  34.041  33.246  1.00  0.00     0.029 A 
ATOM     41  N   UNL A   1      39.020  32.511  33.345  1.00  0.00    -0.354 N 
ATOM     42  C   UNL A   1      39.621  29.677  30.151  1.00  0.00     0.074 A 
ATOM     43  C   UNL A   1      38.659  29.876  29.084  1.00  0.00     0.031 C 
ATOM     44  C   UNL A   1      38.032  34.206  34.416  1.00  0.00     0.029 A 
ATOM     45  C   UNL A   1      39.075  33.193  34.541  1.00  0.00     0.049 A 
ATOM     46  H   UNL A   1      39.642  31.785  33.111  1.00  0.00     0.167 HD
ATOM     47  C   UNL A   1      40.592  28.729  30.145  1.00  0.00     0.034 A 
ATOM     48  C   UNL A   1      39.855  33.010  35.627  1.00  0.00     0.034 A 
ATOM     49  C   UNL A   1      41.557  28.546  31.206  1.00  0.00     0.049 A 
ATOM     50  C   UNL A   1      40.889  31.911  35.615  1.00  0.00     0.074 A 
ATOM     51  C   UNL A   1      42.629  27.670  31.250  1.00  0.00     0.029 A 
ATOM     52  N   UNL A   1      41.561  29.234  32.412  1.00  0.00    -0.354 N 
ATOM     53  N   UNL A   1      41.177  31.061  34.656  1.00  0.00    -0.248 NA
ATOM     54  C   UNL A   1      41.704  31.749  36.827  1.00  0.00     0.031 C 
ATOM     55  C   UNL A   1      43.228  27.767  32.510  1.00  0.00     0.029 A 
ATOM     56  C   UNL A   1      42.582  28.761  33.225  1.00  0.00     0.049 A 
ATOM     57  H   UNL A   1      40.932  29.951  32.654  1.00  0.00     0.167 HD
ATOM     58  C   UNL A   1      42.222  30.281  35.146  1.00  0.00     0.074 A 
ATOM     59  C   UNL A   1      42.529  30.776  36.470  1.00  0.00     0.031 C 
ATOM     60  C   UNL A   1      42.868  29.244  34.554  1.00  0.00     0.034 A 
BRANCH  47  61
ATOM     61  C   UNL A   1      40.653  27.781  28.972  1.00  0.00     0.023 A 
ATOM     62  C   UNL A   1      41.582  27.944  27.931  1.00  0.00     0.031 A 
ATOM     63  C   UNL A   1      39.793  26.667  28.921  1.00  0.00     0.131 A 
ATOM     64  C   UNL A   1      41.604  27.032  26.864  1.00  0.00     0.055 A 
ATOM     65  C   UNL A   1      39.864  25.729  27.891  1.00  0.00     0.041 A 
ATOM     66  F   UNL A   1      38.875  26.471  29.880  1.00  0.00    -0.206 F 
ATOM     67  C   UNL A   1      40.768  25.912  26.850  1.00  0.00     0.022 A 
BRANCH  64  68
ATOM     68  S   UNL A   1      42.678  27.378  25.446  1.00  0.00     0.124 S 
ATOM     69  O   UNL A   1      43.979  27.536  26.091  1.00  0.00    -0.237 OA
ATOM     70  O   UNL A   1      42.514  26.184  24.626  1.00  0.00    -0.237 OA
ATOM     71  O   UNL A   1      42.118  28.605  24.881  1.00  0.00    -0.744 OA
ENDBRANCH  64  68
ENDBRANCH  47  61
BRANCH  48  72
ATOM     72  C   UNL A   1      39.663  33.845  36.851  1.00  0.00     0.023 A 
ATOM     73  C   UNL A   1      40.517  34.921  37.137  1.00  0.00     0.031 A 
ATOM     74  C   UNL A   1      38.671  33.524  37.796  1.00  0.00     0.131 A 
ATOM     75  C   UNL A   1      40.405  35.597  38.363  1.00  0.00     0.055 A 
ATOM     76  C   UNL A   1      38.521  34.240  38.984  1.00  0.00     0.041 A 
ATOM     77  F   UNL A   1      37.828  32.501  37.576  1.00  0.00    -0.206 F 
ATOM     78  C   UNL A   1      39.404  35.274  39.281  1.00  0.00     0.022 A 
BRANCH  75  79
ATOM     79  S   UNL A   1      41.669  36.825  38.795  1.00  0.00     0.124 S 
ATOM     80  O   UNL A   1      40.854  37.921  39.305  1.00  0.00    -0.237 OA
ATOM     81  O   UNL A   1      42.465  36.102  39.781  1.00  0.00    -0.237 OA
ATOM     82  O   UNL A   1      42.340  37.084  37.522  1.00  0.00    -0.744 OA
ENDBRANCH  75  79
ENDBRANCH  48  72
BRANCH  60  83
ATOM     83  C   UNL A   1      43.987  28.596  35.335  1.00  0.00     0.023 A 
ATOM     84  C   UNL A   1      43.761  27.472  36.149  1.00  0.00     0.031 A 
ATOM     85  C   UNL A   1      45.291  29.118  35.275  1.00  0.00     0.131 A 
ATOM     86  C   UNL A   1      44.809  26.938  36.912  1.00  0.00     0.055 A 
ATOM     87  C   UNL A   1      46.345  28.545  35.991  1.00  0.00     0.041 A 
ATOM     88  F   UNL A   1      45.565  30.191  34.517  1.00  0.00    -0.206 F 
ATOM     89  C   UNL A   1      46.104  27.457  36.826  1.00  0.00     0.022 A 
BRANCH  86  90
ATOM     90  S   UNL A   1      44.442  25.605  38.086  1.00  0.00     0.124 S 
ATOM     91  O   UNL A   1      45.687  24.844  38.080  1.00  0.00    -0.237 OA
ATOM     92  O   UNL A   1      44.150  26.340  39.312  1.00  0.00    -0.237 OA
ATOM     93  O   UNL A   1      43.296  24.924  37.485  1.00  0.00    -0.744 OA
ENDBRANCH  86  90
ENDBRANCH  60  83
ENDBRANCH  34  35
ENDBRANCH  26  29
ENDBRANCH  24  25
ENDBRANCH  23  24
ENDBRANCH   1  23
TORSDOF 18
ENDMDL
MODEL 2
REMARK VINA RESULT:     -11.3      1.859      2.166
REMARK SMILES N#C/C(=C/c1cc2c(cc1Br)OCO2)C(=O)NCCCCCCNC(=O)c1ccc(-c2c3nc(c(-c4cc(S(=O)(=O)[O-])ccc4F)c4ccc([nH]4)c(-c4cc(S(=O)(=O)[O-])ccc4F)c4nc(c(-c5cc(S(=O)(=O)[O-])ccc5F)c5ccc2[nH]5)C=C4)C=C3)cc1
REMARK SMILES IDX 21 1 20 2 19 3 18 4 17 5 15 6 16 7 3 9 4 10 2 11 1 12 5 13
REMARK SMILES IDX 6 14 10 15 7 16 9 17 11 18 8 19 14 20 12 21 13 22 22 23
REMARK SMILES IDX 23 24 24 25 25 26 26 28 27 29 28 30 89 31 29 32 88 33 30 34
REMARK SMILES IDX 31 35 32 36 82 37 33 38 87 39 81 40 83 41 34 42 86 43 80 44
REMARK SMILES IDX 79 45 35 47 67 48 47 49 66 50 48 51 51 52 65 53 84 54 49 55
REMARK SMILES IDX 50 56 64 58 85 59 52 60 36 61 37 62 45 63 38 64 44 65 46 66
REMARK SMILES IDX 43 67 39 68 40 69 41 70 42 71 68 72 69 73 77 74 70 75 76 76
REMARK SMILES IDX 78 77 75 78 71 79 72 80 73 81 74 82 53 83 54 84 62 85 55 86
REMARK SMILES IDX 61 87 63 88 60 89 56 90 57 91 58 92 59 93
REMARK H PARENT 17 8 24 27 83 46 51 57
REMARK Flexibility Score: inf
ROOT
ATOM      1  C   UNL A   1      31.588  30.432  25.925  1.00  0.00     0.002 C 
ENDROOT
BRANCH   1   2
ATOM      2  C   UNL A   1      32.372  29.376  26.713  1.00  0.00     0.002 C 
BRANCH   2   3
ATOM      3  C   UNL A   1      32.961  28.182  25.959  1.00  0.00     0.021 C 
BRANCH   3   4
ATOM      4  C   UNL A   1      32.727  26.782  26.521  1.00  0.00     0.116 C 
BRANCH   4   5
ATOM      5  N   UNL A   1      31.366  26.400  26.818  1.00  0.00    -0.351 N 
ATOM      6  C   UNL A   1      30.433  25.731  26.075  1.00  0.00     0.261 C 
ATOM      7  O   UNL A   1      29.349  25.524  26.630  1.00  0.00    -0.268 OA
ATOM      8  H   UNL A   1      31.056  26.669  27.713  1.00  0.00     0.163 HD
BRANCH   6   9
ATOM      9  C   UNL A   1      30.600  25.282  24.644  1.00  0.00     0.117 C 
ATOM     10  C   UNL A   1      30.522  25.933  23.456  1.00  0.00     0.034 C 
BRANCH   9  11
ATOM     11  C   UNL A   1      31.089  23.855  24.462  1.00  0.00     0.105 C 
ATOM     12  N   UNL A   1      31.496  22.670  24.311  1.00  0.00    -0.192 NA
ENDBRANCH   9  11
BRANCH  10  13
ATOM     13  C   UNL A   1      30.206  27.316  23.081  1.00  0.00    -0.006 A 
ATOM     14  C   UNL A   1      28.859  27.708  23.220  1.00  0.00     0.060 A 
ATOM     15  C   UNL A   1      31.158  28.259  22.627  1.00  0.00     0.029 A 
ATOM     16  C   UNL A   1      28.546  29.038  23.045  1.00  0.00     0.166 A 
ATOM     17  C   UNL A   1      30.797  29.595  22.409  1.00  0.00     0.067 A 
ATOM     18  Br  UNL A   1      32.977  27.783  22.355  1.00  0.00    -0.050 Br
ATOM     19  C   UNL A   1      29.490  29.956  22.662  1.00  0.00     0.166 A 
ATOM     20  O   UNL A   1      27.337  29.605  23.300  1.00  0.00    -0.454 OA
ATOM     21  O   UNL A   1      28.994  31.222  22.636  1.00  0.00    -0.454 OA
ATOM     22  C   UNL A   1      27.645  31.003  23.106  1.00  0.00     0.468 C 
ENDBRANCH  10  13
ENDBRANCH   6   9
ENDBRANCH   4   5
ENDBRANCH   3   4
ENDBRANCH   2   3
ENDBRANCH   1   2
BRANCH   1  23
ATOM     23  C   UNL A   1      31.439  31.832  26.526  1.00  0.00     0.021 C 
BRANCH  23  24
ATOM     24  C   UNL A   1      32.632  32.430  27.271  1.00  0.00     0.116 C 
BRANCH  24  25
ATOM     25  N   UNL A   1      32.445  33.814  27.661  1.00  0.00    -0.352 N 
ATOM     26  C   UNL A   1      33.143  34.592  28.557  1.00  0.00     0.251 C 
ATOM     27  H   UNL A   1      31.696  34.270  27.214  1.00  0.00     0.163 HD
ATOM     28  O   UNL A   1      32.733  35.726  28.796  1.00  0.00    -0.269 OA
BRANCH  26  29
ATOM     29  C   UNL A   1      34.351  34.089  29.264  1.00  0.00     0.039 A 
ATOM     30  C   UNL A   1      34.167  33.348  30.439  1.00  0.00     0.014 A 
ATOM     31  C   UNL A   1      35.651  34.372  28.832  1.00  0.00     0.014 A 
ATOM     32  C   UNL A   1      35.270  32.830  31.130  1.00  0.00     0.010 A 
ATOM     33  C   UNL A   1      36.753  33.817  29.501  1.00  0.00     0.010 A 
ATOM     34  C   UNL A   1      36.573  33.024  30.648  1.00  0.00    -0.014 A 
BRANCH  34  35
ATOM     35  C   UNL A   1      37.735  32.348  31.298  1.00  0.00     0.031 A 
ATOM     36  C   UNL A   1      38.447  31.202  30.628  1.00  0.00     0.074 A 
ATOM     37  C   UNL A   1      38.124  32.746  32.527  1.00  0.00     0.049 A 
ATOM     38  N   UNL A   1      39.434  30.469  31.079  1.00  0.00    -0.248 NA
ATOM     39  C   UNL A   1      37.983  30.823  29.287  1.00  0.00     0.031 C 
ATOM     40  C   UNL A   1      37.508  33.833  33.293  1.00  0.00     0.029 A 
ATOM     41  N   UNL A   1      39.116  32.282  33.358  1.00  0.00    -0.354 N 
ATOM     42  C   UNL A   1      39.709  29.537  30.084  1.00  0.00     0.074 A 
ATOM     43  C   UNL A   1      38.757  29.779  29.017  1.00  0.00     0.031 C 
ATOM     44  C   UNL A   1      38.140  33.955  34.471  1.00  0.00     0.029 A 
ATOM     45  C   UNL A   1      39.170  32.926  34.574  1.00  0.00     0.049 A 
ATOM     46  H   UNL A   1      39.731  31.555  33.106  1.00  0.00     0.167 HD
ATOM     47  C   UNL A   1      40.669  28.578  30.057  1.00  0.00     0.034 A 
ATOM     48  C   UNL A   1      39.939  32.703  35.659  1.00  0.00     0.034 A 
ATOM     49  C   UNL A   1      41.624  28.353  31.118  1.00  0.00     0.049 A 
ATOM     50  C   UNL A   1      40.961  31.592  35.621  1.00  0.00     0.074 A 
ATOM     51  C   UNL A   1      42.685  27.464  31.144  1.00  0.00     0.029 A 
ATOM     52  N   UNL A   1      41.626  29.004  32.344  1.00  0.00    -0.354 N 
ATOM     53  N   UNL A   1      41.247  30.768  34.640  1.00  0.00    -0.248 NA
ATOM     54  C   UNL A   1      41.765  31.384  36.834  1.00  0.00     0.031 C 
ATOM     55  C   UNL A   1      43.275  27.516  32.411  1.00  0.00     0.029 A 
ATOM     56  C   UNL A   1      42.635  28.496  33.150  1.00  0.00     0.049 A 
ATOM     57  H   UNL A   1      41.004  29.721  32.603  1.00  0.00     0.167 HD
ATOM     58  C   UNL A   1      42.279  29.962  35.113  1.00  0.00     0.074 A 
ATOM     59  C   UNL A   1      42.581  30.413  36.454  1.00  0.00     0.031 C 
ATOM     60  C   UNL A   1      42.918  28.936  34.495  1.00  0.00     0.034 A 
BRANCH  47  61
ATOM     61  C   UNL A   1      40.728  27.666  28.856  1.00  0.00     0.023 A 
ATOM     62  C   UNL A   1      41.702  27.815  27.856  1.00  0.00     0.031 A 
ATOM     63  C   UNL A   1      39.818  26.598  28.738  1.00  0.00     0.131 A 
ATOM     64  C   UNL A   1      41.720  26.936  26.761  1.00  0.00     0.055 A 
ATOM     65  C   UNL A   1      39.881  25.689  27.681  1.00  0.00     0.041 A 
ATOM     66  F   UNL A   1      38.856  26.417  29.657  1.00  0.00    -0.206 F 
ATOM     67  C   UNL A   1      40.832  25.860  26.680  1.00  0.00     0.022 A 
BRANCH  64  68
ATOM     68  S   UNL A   1      42.862  27.272  25.394  1.00  0.00     0.124 S 
ATOM     69  O   UNL A   1      42.168  28.345  24.686  1.00  0.00    -0.237 OA
ATOM     70  O   UNL A   1      44.085  27.654  26.090  1.00  0.00    -0.237 OA
ATOM     71  O   UNL A   1      42.923  26.000  24.676  1.00  0.00    -0.744 OA
ENDBRANCH  64  68
ENDBRANCH  47  61
BRANCH  48  72
ATOM     72  C   UNL A   1      39.747  33.502  36.906  1.00  0.00     0.023 A 
ATOM     73  C   UNL A   1      39.072  32.967  38.014  1.00  0.00     0.031 A 
ATOM     74  C   UNL A   1      40.165  34.844  36.976  1.00  0.00     0.131 A 
ATOM     75  C   UNL A   1      38.778  33.786  39.117  1.00  0.00     0.055 A 
ATOM     76  C   UNL A   1      39.929  35.635  38.101  1.00  0.00     0.041 A 
ATOM     77  F   UNL A   1      40.813  35.408  35.943  1.00  0.00    -0.206 F 
ATOM     78  C   UNL A   1      39.214  35.111  39.174  1.00  0.00     0.022 A 
BRANCH  75  79
ATOM     79  S   UNL A   1      37.706  33.128  40.425  1.00  0.00     0.124 S 
ATOM     80  O   UNL A   1      38.437  31.935  40.835  1.00  0.00    -0.237 OA
ATOM     81  O   UNL A   1      37.687  34.231  41.380  1.00  0.00    -0.237 OA
ATOM     82  O   UNL A   1      36.442  32.880  39.734  1.00  0.00    -0.744 OA
ENDBRANCH  75  79
ENDBRANCH  48  72
BRANCH  60  83
ATOM     83  C   UNL A   1      44.023  28.252  35.264  1.00  0.00     0.023 A 
ATOM     84  C   UNL A   1      45.355  28.697  35.191  1.00  0.00     0.031 A 
ATOM     85  C   UNL A   1      43.743  27.133  36.069  1.00  0.00     0.131 A 
ATOM     86  C   UNL A   1      46.365  27.997  35.866  1.00  0.00     0.055 A 
ATOM     87  C   UNL A   1      44.745  26.475  36.787  1.00  0.00     0.041 A 
ATOM     88  F   UNL A   1      42.491  26.662  36.174  1.00  0.00    -0.206 F 
ATOM     89  C   UNL A   1      46.067  26.898  36.676  1.00  0.00     0.022 A 
BRANCH  86  90
ATOM     90  S   UNL A   1      48.091  28.489  35.604  1.00  0.00     0.124 S 
ATOM     91  O   UNL A   1      47.955  29.900  35.259  1.00  0.00    -0.237 OA
ATOM     92  O   UNL A   1      48.697  28.206  36.901  1.00  0.00    -0.237 OA
ATOM     93  O   UNL A   1      48.534  27.623  34.512  1.00  0.00    -0.744 OA
ENDBRANCH  86  90
ENDBRANCH  60  83
ENDBRANCH  34  35
ENDBRANCH  26  29
ENDBRANCH  24  25
ENDBRANCH  23  24
ENDBRANCH   1  23
TORSDOF 18
ENDMDL
MODEL 3
REMARK VINA RESULT:     -11.2      5.781     10.579
REMARK SMILES N#C/C(=C/c1cc2c(cc1Br)OCO2)C(=O)NCCCCCCNC(=O)c1ccc(-c2c3nc(c(-c4cc(S(=O)(=O)[O-])ccc4F)c4ccc([nH]4)c(-c4cc(S(=O)(=O)[O-])ccc4F)c4nc(c(-c5cc(S(=O)(=O)[O-])ccc5F)c5ccc2[nH]5)C=C4)C=C3)cc1
REMARK SMILES IDX 21 1 20 2 19 3 18 4 17 5 15 6 16 7 3 9 4 10 2 11 1 12 5 13
REMARK SMILES IDX 6 14 10 15 7 16 9 17 11 18 8 19 14 20 12 21 13 22 22 23
REMARK SMILES IDX 23 24 24 25 25 26 26 28 27 29 28 30 89 31 29 32 88 33 30 34
REMARK SMILES IDX 31 35 32 36 82 37 33 38 87 39 81 40 83 41 34 42 86 43 80 44
REMARK SMILES IDX 79 45 35 47 67 48 47 49 66 50 48 51 51 52 65 53 84 54 49 55
REMARK SMILES IDX 50 56 64 58 85 59 52 60 36 61 37 62 45 63 38 64 44 65 46 66
REMARK SMILES IDX 43 67 39 68 40 69 41 70 42 71 68 72 69 73 77 74 70 75 76 76
REMARK SMILES IDX 78 77 75 78 71 79 72 80 73 81 74 82 53 83 54 84 62 85 55 86
REMARK SMILES IDX 61 87 63 88 60 89 56 90 57 91 58 92 59 93
REMARK H PARENT 17 8 24 27 83 46 51 57
REMARK Flexibility Score: inf
ROOT
ATOM      1  C   UNL A   1      35.197  23.327  26.292  1.00  0.00     0.002 C 
ENDROOT
BRANCH   1   2
ATOM      2  C   UNL A   1      34.810  24.386  25.253  1.00  0.00     0.002 C 
BRANCH   2   3
ATOM      3  C   UNL A   1      33.963  25.580  25.700  1.00  0.00     0.021 C 
BRANCH   3   4
ATOM      4  C   UNL A   1      33.872  26.791  24.775  1.00  0.00     0.116 C 
BRANCH   4   5
ATOM      5  N   UNL A   1      33.968  26.555  23.353  1.00  0.00    -0.351 N 
ATOM      6  C   UNL A   1      33.003  26.376  22.401  1.00  0.00     0.261 C 
ATOM      7  O   UNL A   1      33.409  26.226  21.244  1.00  0.00    -0.268 OA
ATOM      8  H   UNL A   1      34.890  26.517  23.010  1.00  0.00     0.163 HD
BRANCH   6   9
ATOM      9  C   UNL A   1      31.517  26.297  22.652  1.00  0.00     0.117 C 
ATOM     10  C   UNL A   1      30.733  25.380  23.272  1.00  0.00     0.034 C 
BRANCH   9  11
ATOM     11  C   UNL A   1      30.725  27.538  22.275  1.00  0.00     0.105 C 
ATOM     12  N   UNL A   1      30.068  28.568  21.961  1.00  0.00    -0.192 NA
ENDBRANCH   9  11
BRANCH  10  13
ATOM     13  C   UNL A   1      31.001  24.084  23.906  1.00  0.00    -0.006 A 
ATOM     14  C   UNL A   1      31.511  23.073  23.067  1.00  0.00     0.060 A 
ATOM     15  C   UNL A   1      30.807  23.812  25.281  1.00  0.00     0.029 A 
ATOM     16  C   UNL A   1      31.938  21.899  23.647  1.00  0.00     0.166 A 
ATOM     17  C   UNL A   1      31.207  22.587  25.832  1.00  0.00     0.067 A 
ATOM     18  Br  UNL A   1      30.064  25.106  26.456  1.00  0.00    -0.050 Br
ATOM     19  C   UNL A   1      31.801  21.668  24.992  1.00  0.00     0.166 A 
ATOM     20  O   UNL A   1      32.599  20.897  23.009  1.00  0.00    -0.454 OA
ATOM     21  O   UNL A   1      32.367  20.491  25.372  1.00  0.00    -0.454 OA
ATOM     22  C   UNL A   1      32.931  20.037  24.122  1.00  0.00     0.468 C 
ENDBRANCH  10  13
ENDBRANCH   6   9
ENDBRANCH   4   5
ENDBRANCH   3   4
ENDBRANCH   2   3
ENDBRANCH   1   2
BRANCH   1  23
ATOM     23  C   UNL A   1      35.501  21.906  25.809  1.00  0.00     0.021 C 
BRANCH  23  24
ATOM     24  C   UNL A   1      36.625  21.712  24.792  1.00  0.00     0.116 C 
BRANCH  24  25
ATOM     25  N   UNL A   1      37.554  20.656  25.141  1.00  0.00    -0.352 N 
ATOM     26  C   UNL A   1      38.783  20.716  25.759  1.00  0.00     0.251 C 
ATOM     27  H   UNL A   1      37.259  19.750  24.896  1.00  0.00     0.163 HD
ATOM     28  O   UNL A   1      39.440  19.681  25.864  1.00  0.00    -0.269 OA
BRANCH  26  29
ATOM     29  C   UNL A   1      39.350  21.994  26.268  1.00  0.00     0.039 A 
ATOM     30  C   UNL A   1      40.379  21.928  27.216  1.00  0.00     0.014 A 
ATOM     31  C   UNL A   1      38.861  23.245  25.877  1.00  0.00     0.014 A 
ATOM     32  C   UNL A   1      40.964  23.101  27.710  1.00  0.00     0.010 A 
ATOM     33  C   UNL A   1      39.476  24.418  26.339  1.00  0.00     0.010 A 
ATOM     34  C   UNL A   1      40.548  24.359  27.247  1.00  0.00    -0.014 A 
BRANCH  34  35
ATOM     35  C   UNL A   1      41.269  25.599  27.657  1.00  0.00     0.031 A 
ATOM     36  C   UNL A   1      40.568  26.698  28.412  1.00  0.00     0.074 A 
ATOM     37  C   UNL A   1      42.563  25.755  27.304  1.00  0.00     0.049 A 
ATOM     38  N   UNL A   1      41.032  27.862  28.792  1.00  0.00    -0.248 NA
ATOM     39  C   UNL A   1      39.164  26.464  28.775  1.00  0.00     0.031 C 
ATOM     40  C   UNL A   1      43.354  24.774  26.558  1.00  0.00     0.029 A 
ATOM     41  N   UNL A   1      43.439  26.794  27.511  1.00  0.00    -0.354 N 
ATOM     42  C   UNL A   1      39.979  28.506  29.434  1.00  0.00     0.074 A 
ATOM     43  C   UNL A   1      38.841  27.611  29.360  1.00  0.00     0.031 C 
ATOM     44  C   UNL A   1      44.596  25.254  26.378  1.00  0.00     0.029 A 
ATOM     45  C   UNL A   1      44.680  26.595  26.947  1.00  0.00     0.049 A 
ATOM     46  H   UNL A   1      43.201  27.605  28.016  1.00  0.00     0.167 HD
ATOM     47  C   UNL A   1      39.965  29.722  30.036  1.00  0.00     0.034 A 
ATOM     48  C   UNL A   1      45.756  27.406  26.869  1.00  0.00     0.034 A 
ATOM     49  C   UNL A   1      41.108  30.602  30.118  1.00  0.00     0.049 A 
ATOM     50  C   UNL A   1      45.692  28.775  27.500  1.00  0.00     0.074 A 
ATOM     51  C   UNL A   1      41.213  31.814  30.781  1.00  0.00     0.029 A 
ATOM     52  N   UNL A   1      42.335  30.380  29.509  1.00  0.00    -0.354 N 
ATOM     53  N   UNL A   1      44.705  29.334  28.161  1.00  0.00    -0.248 NA
ATOM     54  C   UNL A   1      46.888  29.622  27.376  1.00  0.00     0.031 C 
ATOM     55  C   UNL A   1      42.469  32.362  30.504  1.00  0.00     0.029 A 
ATOM     56  C   UNL A   1      43.181  31.457  29.735  1.00  0.00     0.049 A 
ATOM     57  H   UNL A   1      42.571  29.577  28.992  1.00  0.00     0.167 HD
ATOM     58  C   UNL A   1      45.172  30.587  28.550  1.00  0.00     0.074 A 
ATOM     59  C   UNL A   1      46.534  30.691  28.073  1.00  0.00     0.031 C 
ATOM     60  C   UNL A   1      44.530  31.565  29.238  1.00  0.00     0.034 A 
BRANCH  47  61
ATOM     61  C   UNL A   1      38.665  30.204  30.633  1.00  0.00     0.023 A 
ATOM     62  C   UNL A   1      37.748  30.971  29.897  1.00  0.00     0.031 A 
ATOM     63  C   UNL A   1      38.321  29.847  31.951  1.00  0.00     0.131 A 
ATOM     64  C   UNL A   1      36.548  31.390  30.495  1.00  0.00     0.055 A 
ATOM     65  C   UNL A   1      37.099  30.212  32.517  1.00  0.00     0.041 A 
ATOM     66  F   UNL A   1      39.166  29.128  32.706  1.00  0.00    -0.206 F 
ATOM     67  C   UNL A   1      36.207  30.995  31.791  1.00  0.00     0.022 A 
BRANCH  64  68
ATOM     68  S   UNL A   1      35.479  32.539  29.588  1.00  0.00     0.124 S 
ATOM     69  O   UNL A   1      36.343  33.708  29.458  1.00  0.00    -0.237 OA
ATOM     70  O   UNL A   1      35.205  31.808  28.356  1.00  0.00    -0.237 OA
ATOM     71  O   UNL A   1      34.332  32.716  30.477  1.00  0.00    -0.744 OA
ENDBRANCH  64  68
ENDBRANCH  47  61
BRANCH  48  72
ATOM     72  C   UNL A   1      46.976  26.981  26.120  1.00  0.00     0.023 A 
ATOM     73  C   UNL A   1      48.061  26.384  26.781  1.00  0.00     0.031 A 
ATOM     74  C   UNL A   1      47.108  27.244  24.744  1.00  0.00     0.131 A 
ATOM     75  C   UNL A   1      49.251  26.127  26.080  1.00  0.00     0.055 A 
ATOM     76  C   UNL A   1      48.269  26.927  24.038  1.00  0.00     0.041 A 
ATOM     77  F   UNL A   1      46.102  27.818  24.063  1.00  0.00    -0.206 F 
ATOM     78  C   UNL A   1      49.357  26.381  24.711  1.00  0.00     0.022 A 
BRANCH  75  79
ATOM     79  S   UNL A   1      50.705  25.572  27.014  1.00  0.00     0.124 S 
ATOM     80  O   UNL A   1      50.897  26.677  27.946  1.00  0.00    -0.237 OA
ATOM     81  O   UNL A   1      50.230  24.320  27.592  1.00  0.00    -0.237 OA
ATOM     82  O   UNL A   1      51.735  25.433  25.987  1.00  0.00    -0.744 OA
ENDBRANCH  75  79
ENDBRANCH  48  72
BRANCH  60  83
ATOM     83  C   UNL A   1      45.312  32.824  29.531  1.00  0.00     0.023 A 
ATOM     84  C   UNL A   1      45.180  33.975  28.734  1.00  0.00     0.031 A 
ATOM     85  C   UNL A   1      46.211  32.868  30.612  1.00  0.00     0.131 A 
ATOM     86  C   UNL A   1      45.971  35.103  28.996  1.00  0.00     0.055 A 
ATOM     87  C   UNL A   1      46.953  34.015  30.904  1.00  0.00     0.041 A 
ATOM     88  F   UNL A   1      46.380  31.799  31.405  1.00  0.00    -0.206 F 
ATOM     89  C   UNL A   1      46.845  35.136  30.086  1.00  0.00     0.022 A 
BRANCH  86  90
ATOM     90  S   UNL A   1      45.906  36.500  27.841  1.00  0.00     0.124 S 
ATOM     91  O   UNL A   1      47.242  36.471  27.255  1.00  0.00    -0.237 OA
ATOM     92  O   UNL A   1      44.812  36.121  26.953  1.00  0.00    -0.237 OA
ATOM     93  O   UNL A   1      45.633  37.647  28.705  1.00  0.00    -0.744 OA
ENDBRANCH  86  90
ENDBRANCH  60  83
ENDBRANCH  34  35
ENDBRANCH  26  29
ENDBRANCH  24  25
ENDBRANCH  23  24
ENDBRANCH   1  23
TORSDOF 18
ENDMDL
