MODEL 1
REMARK VINA RESULT:     -12.5      0.000      0.000
REMARK SMILES Cc1ccc(Nc2c(F)cccc2Cl)c(CC(=O)NCCCCCCNC(=O)c2ccc(-c3c4nc(c(-c5cc(S(=O)(=O)[O-])ccc5F)c5ccc([nH]5)c(-c5cc(S(=O)(=O)[O-])ccc5F)c5nc(c(-c6cc(S(=O)(=O)[O-])ccc6F)c6ccc3[nH]6)C=C5)C=C4)cc2)c1
REMARK SMILES IDX 22 1 21 2 20 3 19 4 17 5 18 6 16 8 15 9 1 10 2 11 3 12 92 13
REMARK SMILES IDX 4 14 5 15 6 16 7 18 8 19 13 20 9 21 10 22 12 23 14 24 11 25
REMARK SMILES IDX 23 26 24 27 25 28 26 29 27 30 28 32 29 33 30 34 91 35 31 36
REMARK SMILES IDX 90 37 32 38 33 39 34 40 84 41 35 42 89 43 83 44 85 45 36 46
REMARK SMILES IDX 88 47 82 48 81 49 37 51 69 52 49 53 68 54 50 55 53 56 67 57
REMARK SMILES IDX 86 58 51 59 52 60 66 62 87 63 54 64 38 65 39 66 47 67 40 68
REMARK SMILES IDX 46 69 48 70 45 71 41 72 42 73 43 74 44 75 70 76 71 77 79 78
REMARK SMILES IDX 72 79 78 80 80 81 77 82 73 83 74 84 75 85 76 86 55 87 56 88
REMARK SMILES IDX 64 89 57 90 63 91 65 92 62 93 58 94 59 95 60 96 61 97
REMARK H PARENT 19 7 6 17 26 31 85 50 53 61
REMARK Flexibility Score: inf
ROOT
ATOM      1  C   UNL A   1      31.359  28.565  25.457  1.00  0.00     0.002 C 
ENDROOT
BRANCH   1   2
ATOM      2  C   UNL A   1      31.190  27.488  26.538  1.00  0.00     0.021 C 
BRANCH   2   3
ATOM      3  C   UNL A   1      30.821  26.096  26.021  1.00  0.00     0.116 C 
BRANCH   3   4
ATOM      4  N   UNL A   1      31.204  25.045  26.945  1.00  0.00    -0.356 N 
ATOM      5  C   UNL A   1      31.487  23.738  26.690  1.00  0.00     0.224 C 
ATOM      6  O   UNL A   1      31.705  22.981  27.640  1.00  0.00    -0.275 OA
ATOM      7  H   UNL A   1      31.268  25.316  27.888  1.00  0.00     0.163 HD
BRANCH   5   8
ATOM      8  C   UNL A   1      31.537  23.212  25.268  1.00  0.00     0.137 C 
BRANCH   8   9
ATOM      9  C   UNL A   1      32.559  22.119  25.039  1.00  0.00    -0.015 A 
ATOM     10  C   UNL A   1      32.564  18.296  25.298  1.00  0.00     0.044 C 
ATOM     11  C   UNL A   1      33.011  19.708  25.066  1.00  0.00    -0.051 A 
ATOM     12  C   UNL A   1      34.336  19.973  24.734  1.00  0.00     0.005 A 
ATOM     13  C   UNL A   1      32.127  20.782  25.190  1.00  0.00     0.009 A 
ATOM     14  C   UNL A   1      34.765  21.288  24.538  1.00  0.00     0.026 A 
ATOM     15  C   UNL A   1      33.902  22.386  24.695  1.00  0.00     0.042 A 
BRANCH  15  16
ATOM     16  N   UNL A   1      34.355  23.706  24.477  1.00  0.00    -0.352 N 
ATOM     17  H   UNL A   1      35.148  23.974  24.996  1.00  0.00     0.167 HD
BRANCH  16  18
ATOM     18  C   UNL A   1      33.826  24.698  23.616  1.00  0.00     0.094 A 
ATOM     19  C   UNL A   1      33.376  24.399  22.320  1.00  0.00     0.148 A 
ATOM     20  C   UNL A   1      33.834  26.052  23.998  1.00  0.00     0.067 A 
ATOM     21  F   UNL A   1      33.313  23.124  21.902  1.00  0.00    -0.205 F 
ATOM     22  C   UNL A   1      32.964  25.394  21.435  1.00  0.00     0.041 A 
ATOM     23  C   UNL A   1      33.429  27.058  23.113  1.00  0.00     0.023 A 
ATOM     24  Cl  UNL A   1      34.374  26.527  25.572  1.00  0.00    -0.082 Cl
ATOM     25  C   UNL A   1      33.000  26.729  21.828  1.00  0.00     0.005 A 
ENDBRANCH  16  18
ENDBRANCH  15  16
ENDBRANCH   8   9
ENDBRANCH   5   8
ENDBRANCH   3   4
ENDBRANCH   2   3
ENDBRANCH   1   2
BRANCH   1  26
ATOM     26  C   UNL A   1      31.857  29.942  25.923  1.00  0.00     0.002 C 
BRANCH  26  27
ATOM     27  C   UNL A   1      33.347  30.044  26.254  1.00  0.00     0.021 C 
BRANCH  27  28
ATOM     28  C   UNL A   1      33.660  29.986  27.747  1.00  0.00     0.116 C 
BRANCH  28  29
ATOM     29  N   UNL A   1      34.417  31.138  28.228  1.00  0.00    -0.352 N 
ATOM     30  C   UNL A   1      35.694  31.186  28.762  1.00  0.00     0.251 C 
ATOM     31  H   UNL A   1      33.955  32.004  28.161  1.00  0.00     0.163 HD
ATOM     32  O   UNL A   1      36.161  32.228  29.194  1.00  0.00    -0.269 OA
BRANCH  30  33
ATOM     33  C   UNL A   1      36.537  29.968  28.703  1.00  0.00     0.039 A 
ATOM     34  C   UNL A   1      36.747  29.270  29.898  1.00  0.00     0.014 A 
ATOM     35  C   UNL A   1      37.268  29.655  27.563  1.00  0.00     0.014 A 
ATOM     36  C   UNL A   1      37.852  28.430  30.013  1.00  0.00     0.010 A 
ATOM     37  C   UNL A   1      38.414  28.896  27.699  1.00  0.00     0.010 A 
ATOM     38  C   UNL A   1      38.744  28.347  28.945  1.00  0.00    -0.014 A 
BRANCH  38  39
ATOM     39  C   UNL A   1      40.121  27.881  29.087  1.00  0.00     0.031 A 
ATOM     40  C   UNL A   1      40.507  26.504  28.723  1.00  0.00     0.074 A 
ATOM     41  C   UNL A   1      41.075  28.768  29.449  1.00  0.00     0.049 A 
ATOM     42  N   UNL A   1      41.644  25.972  29.023  1.00  0.00    -0.248 NA
ATOM     43  C   UNL A   1      39.600  25.573  28.059  1.00  0.00     0.031 C 
ATOM     44  C   UNL A   1      42.522  28.626  29.324  1.00  0.00     0.029 A 
ATOM     45  N   UNL A   1      40.906  29.880  30.275  1.00  0.00    -0.354 N 
ATOM     46  C   UNL A   1      41.745  24.785  28.343  1.00  0.00     0.074 A 
ATOM     47  C   UNL A   1      40.403  24.517  27.890  1.00  0.00     0.031 C 
ATOM     48  C   UNL A   1      43.114  29.414  30.235  1.00  0.00     0.029 A 
ATOM     49  C   UNL A   1      42.067  29.967  31.072  1.00  0.00     0.049 A 
ATOM     50  H   UNL A   1      40.129  30.484  30.297  1.00  0.00     0.167 HD
ATOM     51  C   UNL A   1      42.984  24.255  28.138  1.00  0.00     0.034 A 
ATOM     52  C   UNL A   1      41.983  29.834  32.429  1.00  0.00     0.034 A 
ATOM     53  C   UNL A   1      43.978  24.866  29.033  1.00  0.00     0.049 A 
ATOM     54  C   UNL A   1      42.741  28.642  32.988  1.00  0.00     0.074 A 
ATOM     55  C   UNL A   1      45.057  25.719  28.883  1.00  0.00     0.029 A 
ATOM     56  N   UNL A   1      43.766  24.765  30.400  1.00  0.00    -0.354 N 
ATOM     57  N   UNL A   1      43.410  27.782  32.267  1.00  0.00    -0.248 NA
ATOM     58  C   UNL A   1      42.727  28.279  34.406  1.00  0.00     0.031 C 
ATOM     59  C   UNL A   1      45.443  26.175  30.185  1.00  0.00     0.029 A 
ATOM     60  C   UNL A   1      44.624  25.570  31.122  1.00  0.00     0.049 A 
ATOM     61  H   UNL A   1      43.083  24.186  30.808  1.00  0.00     0.167 HD
ATOM     62  C   UNL A   1      43.829  26.746  33.061  1.00  0.00     0.074 A 
ATOM     63  C   UNL A   1      43.387  27.109  34.397  1.00  0.00     0.031 C 
ATOM     64  C   UNL A   1      44.460  25.639  32.568  1.00  0.00     0.034 A 
BRANCH  51  65
ATOM     65  C   UNL A   1      43.356  23.295  27.019  1.00  0.00     0.023 A 
ATOM     66  C   UNL A   1      42.758  22.014  27.000  1.00  0.00     0.031 A 
ATOM     67  C   UNL A   1      44.354  23.493  26.036  1.00  0.00     0.131 A 
ATOM     68  C   UNL A   1      43.164  21.020  26.086  1.00  0.00     0.055 A 
ATOM     69  C   UNL A   1      44.721  22.521  25.096  1.00  0.00     0.041 A 
ATOM     70  F   UNL A   1      45.076  24.612  25.945  1.00  0.00    -0.206 F 
ATOM     71  C   UNL A   1      44.135  21.272  25.123  1.00  0.00     0.022 A 
BRANCH  68  72
ATOM     72  S   UNL A   1      42.464  19.352  26.217  1.00  0.00     0.124 S 
ATOM     73  O   UNL A   1      42.362  19.175  27.661  1.00  0.00    -0.237 OA
ATOM     74  O   UNL A   1      41.209  19.485  25.486  1.00  0.00    -0.237 OA
ATOM     75  O   UNL A   1      43.470  18.512  25.566  1.00  0.00    -0.744 OA
ENDBRANCH  68  72
ENDBRANCH  51  65
BRANCH  52  76
ATOM     76  C   UNL A   1      40.718  30.409  32.979  1.00  0.00     0.023 A 
ATOM     77  C   UNL A   1      40.624  31.817  33.023  1.00  0.00     0.031 A 
ATOM     78  C   UNL A   1      39.530  29.672  33.065  1.00  0.00     0.131 A 
ATOM     79  C   UNL A   1      39.373  32.445  32.967  1.00  0.00     0.055 A 
ATOM     80  C   UNL A   1      38.282  30.306  33.096  1.00  0.00     0.041 A 
ATOM     81  F   UNL A   1      39.546  28.333  32.988  1.00  0.00    -0.206 F 
ATOM     82  C   UNL A   1      38.197  31.696  33.000  1.00  0.00     0.022 A 
BRANCH  79  83
ATOM     83  S   UNL A   1      39.324  34.216  32.559  1.00  0.00     0.124 S 
ATOM     84  O   UNL A   1      40.730  34.507  32.299  1.00  0.00    -0.237 OA
ATOM     85  O   UNL A   1      38.438  34.246  31.396  1.00  0.00    -0.237 OA
ATOM     86  O   UNL A   1      38.766  34.832  33.760  1.00  0.00    -0.744 OA
ENDBRANCH  79  83
ENDBRANCH  52  76
BRANCH  64  87
ATOM     87  C   UNL A   1      44.924  24.504  33.447  1.00  0.00     0.023 A 
ATOM     88  C   UNL A   1      46.276  24.333  33.785  1.00  0.00     0.031 A 
ATOM     89  C   UNL A   1      44.032  23.515  33.919  1.00  0.00     0.131 A 
ATOM     90  C   UNL A   1      46.683  23.273  34.614  1.00  0.00     0.055 A 
ATOM     91  C   UNL A   1      44.453  22.412  34.667  1.00  0.00     0.041 A 
ATOM     92  F   UNL A   1      42.709  23.602  33.714  1.00  0.00    -0.206 F 
ATOM     93  C   UNL A   1      45.785  22.292  35.032  1.00  0.00     0.022 A 
BRANCH  90  94
ATOM     94  S   UNL A   1      48.393  23.242  35.209  1.00  0.00     0.124 S 
ATOM     95  O   UNL A   1      49.164  23.352  33.974  1.00  0.00    -0.237 OA
ATOM     96  O   UNL A   1      48.422  24.413  36.082  1.00  0.00    -0.237 OA
ATOM     97  O   UNL A   1      48.498  21.956  35.896  1.00  0.00    -0.744 OA
ENDBRANCH  90  94
ENDBRANCH  64  87
ENDBRANCH  38  39
ENDBRANCH  30  33
ENDBRANCH  28  29
ENDBRANCH  27  28
ENDBRANCH  26  27
ENDBRANCH   1  26
TORSDOF 19
ENDMDL
MODEL 2
REMARK VINA RESULT:     -12.4      1.549      2.465
REMARK SMILES Cc1ccc(Nc2c(F)cccc2Cl)c(CC(=O)NCCCCCCNC(=O)c2ccc(-c3c4nc(c(-c5cc(S(=O)(=O)[O-])ccc5F)c5ccc([nH]5)c(-c5cc(S(=O)(=O)[O-])ccc5F)c5nc(c(-c6cc(S(=O)(=O)[O-])ccc6F)c6ccc3[nH]6)C=C5)C=C4)cc2)c1
REMARK SMILES IDX 22 1 21 2 20 3 19 4 17 5 18 6 16 8 15 9 1 10 2 11 3 12 92 13
REMARK SMILES IDX 4 14 5 15 6 16 7 18 8 19 13 20 9 21 10 22 12 23 14 24 11 25
REMARK SMILES IDX 23 26 24 27 25 28 26 29 27 30 28 32 29 33 30 34 91 35 31 36
REMARK SMILES IDX 90 37 32 38 33 39 34 40 84 41 35 42 89 43 83 44 85 45 36 46
REMARK SMILES IDX 88 47 82 48 81 49 37 51 69 52 49 53 68 54 50 55 53 56 67 57
REMARK SMILES IDX 86 58 51 59 52 60 66 62 87 63 54 64 38 65 39 66 47 67 40 68
REMARK SMILES IDX 46 69 48 70 45 71 41 72 42 73 43 74 44 75 70 76 71 77 79 78
REMARK SMILES IDX 72 79 78 80 80 81 77 82 73 83 74 84 75 85 76 86 55 87 56 88
REMARK SMILES IDX 64 89 57 90 63 91 65 92 62 93 58 94 59 95 60 96 61 97
REMARK H PARENT 19 7 6 17 26 31 85 50 53 61
REMARK Flexibility Score: inf
ROOT
ATOM      1  C   UNL A   1      32.732  28.737  25.412  1.00  0.00     0.002 C 
ENDROOT
BRANCH   1   2
ATOM      2  C   UNL A   1      32.545  27.212  25.389  1.00  0.00     0.021 C 
BRANCH   2   3
ATOM      3  C   UNL A   1      31.949  26.647  24.098  1.00  0.00     0.116 C 
BRANCH   3   4
ATOM      4  N   UNL A   1      32.959  26.082  23.225  1.00  0.00    -0.356 N 
ATOM      5  C   UNL A   1      33.133  24.788  22.837  1.00  0.00     0.224 C 
ATOM      6  O   UNL A   1      34.121  24.501  22.155  1.00  0.00    -0.275 OA
ATOM      7  H   UNL A   1      33.611  26.724  22.863  1.00  0.00     0.163 HD
BRANCH   5   8
ATOM      8  C   UNL A   1      32.136  23.714  23.228  1.00  0.00     0.137 C 
BRANCH   8   9
ATOM      9  C   UNL A   1      32.119  23.382  24.704  1.00  0.00    -0.015 A 
ATOM     10  C   UNL A   1      29.397  22.895  27.357  1.00  0.00     0.044 C 
ATOM     11  C   UNL A   1      30.738  22.986  26.693  1.00  0.00    -0.051 A 
ATOM     12  C   UNL A   1      31.899  22.847  27.447  1.00  0.00     0.005 A 
ATOM     13  C   UNL A   1      30.857  23.227  25.322  1.00  0.00     0.009 A 
ATOM     14  C   UNL A   1      33.152  22.954  26.839  1.00  0.00     0.026 A 
ATOM     15  C   UNL A   1      33.296  23.233  25.470  1.00  0.00     0.042 A 
BRANCH  15  16
ATOM     16  N   UNL A   1      34.575  23.321  24.875  1.00  0.00    -0.352 N 
ATOM     17  H   UNL A   1      34.675  24.015  24.184  1.00  0.00     0.167 HD
BRANCH  16  18
ATOM     18  C   UNL A   1      35.732  22.547  25.135  1.00  0.00     0.094 A 
ATOM     19  C   UNL A   1      36.942  23.127  25.544  1.00  0.00     0.148 A 
ATOM     20  C   UNL A   1      35.734  21.162  24.885  1.00  0.00     0.067 A 
ATOM     21  F   UNL A   1      37.003  24.438  25.830  1.00  0.00    -0.205 F 
ATOM     22  C   UNL A   1      38.109  22.376  25.687  1.00  0.00     0.041 A 
ATOM     23  C   UNL A   1      36.903  20.403  25.019  1.00  0.00     0.023 A 
ATOM     24  Cl  UNL A   1      34.294  20.350  24.373  1.00  0.00    -0.082 Cl
ATOM     25  C   UNL A   1      38.092  21.012  25.414  1.00  0.00     0.005 A 
ENDBRANCH  16  18
ENDBRANCH  15  16
ENDBRANCH   8   9
ENDBRANCH   5   8
ENDBRANCH   3   4
ENDBRANCH   2   3
ENDBRANCH   1   2
BRANCH   1  26
ATOM     26  C   UNL A   1      31.981  29.510  26.508  1.00  0.00     0.002 C 
BRANCH  26  27
ATOM     27  C   UNL A   1      32.774  30.603  27.227  1.00  0.00     0.021 C 
BRANCH  27  28
ATOM     28  C   UNL A   1      34.272  30.328  27.320  1.00  0.00     0.116 C 
BRANCH  28  29
ATOM     29  N   UNL A   1      35.008  31.356  28.051  1.00  0.00    -0.352 N 
ATOM     30  C   UNL A   1      36.203  31.252  28.743  1.00  0.00     0.251 C 
ATOM     31  H   UNL A   1      34.597  32.249  28.050  1.00  0.00     0.163 HD
ATOM     32  O   UNL A   1      36.653  32.196  29.374  1.00  0.00    -0.269 OA
BRANCH  30  33
ATOM     33  C   UNL A   1      36.992  30.003  28.619  1.00  0.00     0.039 A 
ATOM     34  C   UNL A   1      37.100  29.192  29.755  1.00  0.00     0.014 A 
ATOM     35  C   UNL A   1      37.775  29.757  27.496  1.00  0.00     0.014 A 
ATOM     36  C   UNL A   1      38.158  28.292  29.852  1.00  0.00     0.010 A 
ATOM     37  C   UNL A   1      38.876  28.932  27.625  1.00  0.00     0.010 A 
ATOM     38  C   UNL A   1      39.107  28.259  28.831  1.00  0.00    -0.014 A 
BRANCH  38  39
ATOM     39  C   UNL A   1      40.450  27.714  29.005  1.00  0.00     0.031 A 
ATOM     40  C   UNL A   1      40.762  26.315  28.656  1.00  0.00     0.074 A 
ATOM     41  C   UNL A   1      41.447  28.546  29.383  1.00  0.00     0.049 A 
ATOM     42  N   UNL A   1      41.859  25.718  28.983  1.00  0.00    -0.248 NA
ATOM     43  C   UNL A   1      39.817  25.434  27.978  1.00  0.00     0.031 C 
ATOM     44  C   UNL A   1      42.886  28.318  29.291  1.00  0.00     0.029 A 
ATOM     45  N   UNL A   1      41.326  29.671  30.200  1.00  0.00    -0.354 N 
ATOM     46  C   UNL A   1      41.904  24.523  28.311  1.00  0.00     0.074 A 
ATOM     47  C   UNL A   1      40.559  24.332  27.831  1.00  0.00     0.031 C 
ATOM     48  C   UNL A   1      43.503  29.075  30.210  1.00  0.00     0.029 A 
ATOM     49  C   UNL A   1      42.473  29.694  31.021  1.00  0.00     0.049 A 
ATOM     50  H   UNL A   1      40.586  30.319  30.203  1.00  0.00     0.167 HD
ATOM     51  C   UNL A   1      43.114  23.921  28.135  1.00  0.00     0.034 A 
ATOM     52  C   UNL A   1      42.353  29.575  32.377  1.00  0.00     0.034 A 
ATOM     53  C   UNL A   1      44.123  24.478  29.049  1.00  0.00     0.049 A 
ATOM     54  C   UNL A   1      43.027  28.344  32.958  1.00  0.00     0.074 A 
ATOM     55  C   UNL A   1      45.254  25.265  28.918  1.00  0.00     0.029 A 
ATOM     56  N   UNL A   1      43.877  24.398  30.411  1.00  0.00    -0.354 N 
ATOM     57  N   UNL A   1      43.659  27.442  32.256  1.00  0.00    -0.248 NA
ATOM     58  C   UNL A   1      42.962  27.991  34.377  1.00  0.00     0.031 C 
ATOM     59  C   UNL A   1      45.639  25.705  30.225  1.00  0.00     0.029 A 
ATOM     60  C   UNL A   1      44.766  25.155  31.147  1.00  0.00     0.049 A 
ATOM     61  H   UNL A   1      43.153  23.862  30.807  1.00  0.00     0.167 HD
ATOM     62  C   UNL A   1      44.000  26.387  33.064  1.00  0.00     0.074 A 
ATOM     63  C   UNL A   1      43.552  26.783  34.388  1.00  0.00     0.031 C 
ATOM     64  C   UNL A   1      44.575  25.242  32.590  1.00  0.00     0.034 A 
BRANCH  51  65
ATOM     65  C   UNL A   1      43.453  22.933  27.029  1.00  0.00     0.023 A 
ATOM     66  C   UNL A   1      42.793  21.683  27.013  1.00  0.00     0.031 A 
ATOM     67  C   UNL A   1      44.472  23.074  26.058  1.00  0.00     0.131 A 
ATOM     68  C   UNL A   1      43.161  20.662  26.112  1.00  0.00     0.055 A 
ATOM     69  C   UNL A   1      44.803  22.077  25.131  1.00  0.00     0.041 A 
ATOM     70  F   UNL A   1      45.249  24.155  25.967  1.00  0.00    -0.206 F 
ATOM     71  C   UNL A   1      44.155  20.858  25.160  1.00  0.00     0.022 A 
BRANCH  68  72
ATOM     72  S   UNL A   1      42.379  19.032  26.248  1.00  0.00     0.124 S 
ATOM     73  O   UNL A   1      43.218  18.216  25.376  1.00  0.00    -0.237 OA
ATOM     74  O   UNL A   1      42.471  18.763  27.678  1.00  0.00    -0.237 OA
ATOM     75  O   UNL A   1      41.023  19.266  25.750  1.00  0.00    -0.744 OA
ENDBRANCH  68  72
ENDBRANCH  51  65
BRANCH  52  76
ATOM     76  C   UNL A   1      41.113  30.226  32.897  1.00  0.00     0.023 A 
ATOM     77  C   UNL A   1      41.114  31.637  32.965  1.00  0.00     0.031 A 
ATOM     78  C   UNL A   1      39.875  29.571  32.931  1.00  0.00     0.131 A 
ATOM     79  C   UNL A   1      39.911  32.350  32.881  1.00  0.00     0.055 A 
ATOM     80  C   UNL A   1      38.672  30.289  32.934  1.00  0.00     0.041 A 
ATOM     81  F   UNL A   1      39.801  28.236  32.828  1.00  0.00    -0.206 F 
ATOM     82  C   UNL A   1      38.686  31.684  32.861  1.00  0.00     0.022 A 
BRANCH  79  83
ATOM     83  S   UNL A   1      39.997  34.127  32.505  1.00  0.00     0.124 S 
ATOM     84  O   UNL A   1      40.485  34.123  31.130  1.00  0.00    -0.237 OA
ATOM     85  O   UNL A   1      38.611  34.555  32.691  1.00  0.00    -0.237 OA
ATOM     86  O   UNL A   1      40.930  34.646  33.502  1.00  0.00    -0.744 OA
ENDBRANCH  79  83
ENDBRANCH  52  76
BRANCH  64  87
ATOM     87  C   UNL A   1      44.953  24.087  33.484  1.00  0.00     0.023 A 
ATOM     88  C   UNL A   1      46.293  23.777  33.768  1.00  0.00     0.031 A 
ATOM     89  C   UNL A   1      43.981  23.217  34.026  1.00  0.00     0.131 A 
ATOM     90  C   UNL A   1      46.619  22.701  34.612  1.00  0.00     0.055 A 
ATOM     91  C   UNL A   1      44.314  22.095  34.791  1.00  0.00     0.041 A 
ATOM     92  F   UNL A   1      42.667  23.444  33.877  1.00  0.00    -0.206 F 
ATOM     93  C   UNL A   1      45.640  21.838  35.101  1.00  0.00     0.022 A 
BRANCH  90  94
ATOM     94  S   UNL A   1      48.342  22.497  35.132  1.00  0.00     0.124 S 
ATOM     95  O   UNL A   1      48.688  21.188  34.586  1.00  0.00    -0.237 OA
ATOM     96  O   UNL A   1      48.981  23.642  34.489  1.00  0.00    -0.237 OA
ATOM     97  O   UNL A   1      48.274  22.565  36.590  1.00  0.00    -0.744 OA
ENDBRANCH  90  94
ENDBRANCH  64  87
ENDBRANCH  38  39
ENDBRANCH  30  33
ENDBRANCH  28  29
ENDBRANCH  27  28
ENDBRANCH  26  27
ENDBRANCH   1  26
TORSDOF 19
ENDMDL
MODEL 3
REMARK VINA RESULT:     -12.0      1.580      2.737
REMARK SMILES Cc1ccc(Nc2c(F)cccc2Cl)c(CC(=O)NCCCCCCNC(=O)c2ccc(-c3c4nc(c(-c5cc(S(=O)(=O)[O-])ccc5F)c5ccc([nH]5)c(-c5cc(S(=O)(=O)[O-])ccc5F)c5nc(c(-c6cc(S(=O)(=O)[O-])ccc6F)c6ccc3[nH]6)C=C5)C=C4)cc2)c1
REMARK SMILES IDX 22 1 21 2 20 3 19 4 17 5 18 6 16 8 15 9 1 10 2 11 3 12 92 13
REMARK SMILES IDX 4 14 5 15 6 16 7 18 8 19 13 20 9 21 10 22 12 23 14 24 11 25
REMARK SMILES IDX 23 26 24 27 25 28 26 29 27 30 28 32 29 33 30 34 91 35 31 36
REMARK SMILES IDX 90 37 32 38 33 39 34 40 84 41 35 42 89 43 83 44 85 45 36 46
REMARK SMILES IDX 88 47 82 48 81 49 37 51 69 52 49 53 68 54 50 55 53 56 67 57
REMARK SMILES IDX 86 58 51 59 52 60 66 62 87 63 54 64 38 65 39 66 47 67 40 68
REMARK SMILES IDX 46 69 48 70 45 71 41 72 42 73 43 74 44 75 70 76 71 77 79 78
REMARK SMILES IDX 72 79 78 80 80 81 77 82 73 83 74 84 75 85 76 86 55 87 56 88
REMARK SMILES IDX 64 89 57 90 63 91 65 92 62 93 58 94 59 95 60 96 61 97
REMARK H PARENT 19 7 6 17 26 31 85 50 53 61
REMARK Flexibility Score: inf
ROOT
ATOM      1  C   UNL A   1      32.152  29.265  24.974  1.00  0.00     0.002 C 
ENDROOT
BRANCH   1   2
ATOM      2  C   UNL A   1      33.316  28.591  24.233  1.00  0.00     0.021 C 
BRANCH   2   3
ATOM      3  C   UNL A   1      33.588  27.137  24.626  1.00  0.00     0.116 C 
BRANCH   3   4
ATOM      4  N   UNL A   1      32.685  26.211  23.970  1.00  0.00    -0.356 N 
ATOM      5  C   UNL A   1      32.347  24.942  24.327  1.00  0.00     0.224 C 
ATOM      6  O   UNL A   1      31.624  24.285  23.573  1.00  0.00    -0.275 OA
ATOM      7  H   UNL A   1      32.258  26.549  23.150  1.00  0.00     0.163 HD
BRANCH   5   8
ATOM      8  C   UNL A   1      32.843  24.337  25.627  1.00  0.00     0.137 C 
BRANCH   8   9
ATOM      9  C   UNL A   1      34.096  23.499  25.491  1.00  0.00    -0.015 A 
ATOM     10  C   UNL A   1      37.841  24.086  26.049  1.00  0.00     0.044 C 
ATOM     11  C   UNL A   1      36.538  23.425  25.716  1.00  0.00    -0.051 A 
ATOM     12  C   UNL A   1      36.523  22.122  25.227  1.00  0.00     0.005 A 
ATOM     13  C   UNL A   1      35.322  24.095  25.868  1.00  0.00     0.009 A 
ATOM     14  C   UNL A   1      35.314  21.507  24.893  1.00  0.00     0.026 A 
ATOM     15  C   UNL A   1      34.082  22.175  25.003  1.00  0.00     0.042 A 
BRANCH  15  16
ATOM     16  N   UNL A   1      32.871  21.527  24.672  1.00  0.00    -0.352 N 
ATOM     17  H   UNL A   1      32.075  22.105  24.639  1.00  0.00     0.167 HD
BRANCH  16  18
ATOM     18  C   UNL A   1      32.645  20.159  24.384  1.00  0.00     0.094 A 
ATOM     19  C   UNL A   1      32.886  19.147  25.325  1.00  0.00     0.148 A 
ATOM     20  C   UNL A   1      32.266  19.757  23.089  1.00  0.00     0.067 A 
ATOM     21  F   UNL A   1      33.220  19.461  26.588  1.00  0.00    -0.205 F 
ATOM     22  C   UNL A   1      32.772  17.795  25.000  1.00  0.00     0.041 A 
ATOM     23  C   UNL A   1      32.158  18.402  22.753  1.00  0.00     0.023 A 
ATOM     24  Cl  UNL A   1      31.949  20.927  21.854  1.00  0.00    -0.082 Cl
ATOM     25  C   UNL A   1      32.417  17.421  23.708  1.00  0.00     0.005 A 
ENDBRANCH  16  18
ENDBRANCH  15  16
ENDBRANCH   8   9
ENDBRANCH   5   8
ENDBRANCH   3   4
ENDBRANCH   2   3
ENDBRANCH   1   2
BRANCH   1  26
ATOM     26  C   UNL A   1      32.503  30.458  25.876  1.00  0.00     0.002 C 
BRANCH  26  27
ATOM     27  C   UNL A   1      33.142  30.119  27.225  1.00  0.00     0.021 C 
BRANCH  27  28
ATOM     28  C   UNL A   1      34.661  29.984  27.178  1.00  0.00     0.116 C 
BRANCH  28  29
ATOM     29  N   UNL A   1      35.361  31.045  27.898  1.00  0.00    -0.352 N 
ATOM     30  C   UNL A   1      36.545  30.983  28.615  1.00  0.00     0.251 C 
ATOM     31  H   UNL A   1      34.932  31.929  27.867  1.00  0.00     0.163 HD
ATOM     32  O   UNL A   1      36.963  31.951  29.231  1.00  0.00    -0.269 OA
BRANCH  30  33
ATOM     33  C   UNL A   1      37.361  29.748  28.537  1.00  0.00     0.039 A 
ATOM     34  C   UNL A   1      37.439  28.951  29.685  1.00  0.00     0.014 A 
ATOM     35  C   UNL A   1      38.194  29.505  27.449  1.00  0.00     0.014 A 
ATOM     36  C   UNL A   1      38.508  28.072  29.835  1.00  0.00     0.010 A 
ATOM     37  C   UNL A   1      39.303  28.703  27.631  1.00  0.00     0.010 A 
ATOM     38  C   UNL A   1      39.498  28.048  28.853  1.00  0.00    -0.014 A 
BRANCH  38  39
ATOM     39  C   UNL A   1      40.844  27.530  29.087  1.00  0.00     0.031 A 
ATOM     40  C   UNL A   1      41.217  26.158  28.695  1.00  0.00     0.074 A 
ATOM     41  C   UNL A   1      41.790  28.369  29.565  1.00  0.00     0.049 A 
ATOM     42  N   UNL A   1      42.308  25.575  29.064  1.00  0.00    -0.248 NA
ATOM     43  C   UNL A   1      40.341  25.285  27.919  1.00  0.00     0.031 C 
ATOM     44  C   UNL A   1      43.238  28.184  29.553  1.00  0.00     0.029 A 
ATOM     45  N   UNL A   1      41.586  29.450  30.422  1.00  0.00    -0.354 N 
ATOM     46  C   UNL A   1      42.430  24.415  28.342  1.00  0.00     0.074 A 
ATOM     47  C   UNL A   1      41.124  24.211  27.770  1.00  0.00     0.031 C 
ATOM     48  C   UNL A   1      43.775  28.913  30.543  1.00  0.00     0.029 A 
ATOM     49  C   UNL A   1      42.679  29.466  31.315  1.00  0.00     0.049 A 
ATOM     50  H   UNL A   1      40.829  30.078  30.408  1.00  0.00     0.167 HD
ATOM     51  C   UNL A   1      43.665  23.853  28.216  1.00  0.00     0.034 A 
ATOM     52  C   UNL A   1      42.478  29.279  32.653  1.00  0.00     0.034 A 
ATOM     53  C   UNL A   1      44.599  24.393  29.216  1.00  0.00     0.049 A 
ATOM     54  C   UNL A   1      43.151  28.040  33.220  1.00  0.00     0.074 A 
ATOM     55  C   UNL A   1      45.712  25.215  29.193  1.00  0.00     0.029 A 
ATOM     56  N   UNL A   1      44.271  24.242  30.555  1.00  0.00    -0.354 N 
ATOM     57  N   UNL A   1      43.851  27.189  32.519  1.00  0.00    -0.248 NA
ATOM     58  C   UNL A   1      43.008  27.619  34.614  1.00  0.00     0.031 C 
ATOM     59  C   UNL A   1      46.002  25.603  30.541  1.00  0.00     0.029 A 
ATOM     60  C   UNL A   1      45.090  24.986  31.380  1.00  0.00     0.049 A 
ATOM     61  H   UNL A   1      43.540  23.670  30.880  1.00  0.00     0.167 HD
ATOM     62  C   UNL A   1      44.172  26.107  33.298  1.00  0.00     0.074 A 
ATOM     63  C   UNL A   1      43.631  26.428  34.608  1.00  0.00     0.031 C 
ATOM     64  C   UNL A   1      44.808  25.001  32.810  1.00  0.00     0.034 A 
BRANCH  51  65
ATOM     65  C   UNL A   1      44.101  22.928  27.090  1.00  0.00     0.023 A 
ATOM     66  C   UNL A   1      43.339  21.765  26.838  1.00  0.00     0.031 A 
ATOM     67  C   UNL A   1      45.285  23.034  26.324  1.00  0.00     0.131 A 
ATOM     68  C   UNL A   1      43.764  20.787  25.915  1.00  0.00     0.055 A 
ATOM     69  C   UNL A   1      45.680  22.086  25.372  1.00  0.00     0.041 A 
ATOM     70  F   UNL A   1      46.165  24.026  26.474  1.00  0.00    -0.206 F 
ATOM     71  C   UNL A   1      44.925  20.948  25.169  1.00  0.00     0.022 A 
BRANCH  68  72
ATOM     72  S   UNL A   1      42.818  19.247  25.752  1.00  0.00     0.124 S 
ATOM     73  O   UNL A   1      42.944  18.668  27.086  1.00  0.00    -0.237 OA
ATOM     74  O   UNL A   1      41.496  19.734  25.375  1.00  0.00    -0.237 OA
ATOM     75  O   UNL A   1      43.532  18.523  24.700  1.00  0.00    -0.744 OA
ENDBRANCH  68  72
ENDBRANCH  51  65
BRANCH  52  76
ATOM     76  C   UNL A   1      41.189  29.872  33.123  1.00  0.00     0.023 A 
ATOM     77  C   UNL A   1      41.128  31.281  33.203  1.00  0.00     0.031 A 
ATOM     78  C   UNL A   1      39.981  29.166  33.096  1.00  0.00     0.131 A 
ATOM     79  C   UNL A   1      39.901  31.944  33.071  1.00  0.00     0.055 A 
ATOM     80  C   UNL A   1      38.749  29.833  33.051  1.00  0.00     0.041 A 
ATOM     81  F   UNL A   1      39.968  27.830  32.979  1.00  0.00    -0.206 F 
ATOM     82  C   UNL A   1      38.707  31.227  32.991  1.00  0.00     0.022 A 
BRANCH  79  83
ATOM     83  S   UNL A   1      39.928  33.727  32.714  1.00  0.00     0.124 S 
ATOM     84  O   UNL A   1      41.304  34.082  33.044  1.00  0.00    -0.237 OA
ATOM     85  O   UNL A   1      39.579  33.769  31.295  1.00  0.00    -0.237 OA
ATOM     86  O   UNL A   1      38.907  34.272  33.605  1.00  0.00    -0.744 OA
ENDBRANCH  79  83
ENDBRANCH  52  76
BRANCH  64  87
ATOM     87  C   UNL A   1      45.163  23.816  33.672  1.00  0.00     0.023 A 
ATOM     88  C   UNL A   1      46.474  23.592  34.122  1.00  0.00     0.031 A 
ATOM     89  C   UNL A   1      44.208  22.832  34.016  1.00  0.00     0.131 A 
ATOM     90  C   UNL A   1      46.778  22.485  34.934  1.00  0.00     0.055 A 
ATOM     91  C   UNL A   1      44.533  21.685  34.747  1.00  0.00     0.041 A 
ATOM     92  F   UNL A   1      42.912  22.965  33.697  1.00  0.00    -0.206 F 
ATOM     93  C   UNL A   1      45.823  21.512  35.223  1.00  0.00     0.022 A 
BRANCH  90  94
ATOM     94  S   UNL A   1      48.427  22.379  35.678  1.00  0.00     0.124 S 
ATOM     95  O   UNL A   1      48.517  23.625  36.433  1.00  0.00    -0.237 OA
ATOM     96  O   UNL A   1      48.312  21.160  36.474  1.00  0.00    -0.237 OA
ATOM     97  O   UNL A   1      49.321  22.284  34.526  1.00  0.00    -0.744 OA
ENDBRANCH  90  94
ENDBRANCH  64  87
ENDBRANCH  38  39
ENDBRANCH  30  33
ENDBRANCH  28  29
ENDBRANCH  27  28
ENDBRANCH  26  27
ENDBRANCH   1  26
TORSDOF 19
ENDMDL
