MODEL 1
REMARK VINA RESULT:     -11.5      0.000      0.000
REMARK SMILES O=C(NCCCCCCNC(=O)c1ccc(-c2c3nc(c(-c4cc(S(=O)(=O)[O-])ccc4F)c4ccc([nH]4)c(-c4cc(S(=O)(=O)[O-])ccc4F)c4nc(c(-c5cc(S(=O)(=O)[O-])ccc5F)c5ccc2[nH]5)C=C4)C=C3)cc1)C1=Cc2cc(C(F)(F)F)ccc2O[C@@H]1C(F)(F)F
REMARK SMILES IDX 7 1 6 2 5 3 4 4 3 5 1 6 2 7 76 9 77 10 89 11 78 12 88 13
REMARK SMILES IDX 79 14 87 15 80 16 86 17 85 18 90 19 91 20 92 21 93 22 81 23
REMARK SMILES IDX 82 24 83 25 84 26 8 27 9 28 10 29 11 30 12 32 13 33 14 34
REMARK SMILES IDX 75 35 15 36 74 37 16 38 17 39 18 40 68 41 19 42 73 43 67 44
REMARK SMILES IDX 69 45 20 46 72 47 66 48 65 49 21 51 53 52 33 53 52 54 34 55
REMARK SMILES IDX 37 56 51 57 70 58 35 59 36 60 50 62 71 63 38 64 22 65 23 66
REMARK SMILES IDX 31 67 24 68 30 69 32 70 29 71 25 72 26 73 27 74 28 75 54 76
REMARK SMILES IDX 55 77 63 78 56 79 62 80 64 81 61 82 57 83 58 84 59 85 60 86
REMARK SMILES IDX 39 87 40 88 48 89 41 90 47 91 49 92 46 93 42 94 43 95 44 96
REMARK SMILES IDX 45 97
REMARK H PARENT 3 8 10 31 69 50 37 61
REMARK Flexibility Score: inf
ROOT
ATOM      1  C   UNL A   1      35.186  22.334  23.930  1.00  0.00     0.002 C 
ENDROOT
BRANCH   1   2
ATOM      2  C   UNL A   1      34.158  23.430  23.619  1.00  0.00     0.002 C 
BRANCH   2   3
ATOM      3  C   UNL A   1      33.518  23.387  22.234  1.00  0.00     0.021 C 
BRANCH   3   4
ATOM      4  C   UNL A   1      32.475  24.462  21.948  1.00  0.00     0.116 C 
BRANCH   4   5
ATOM      5  N   UNL A   1      32.993  25.811  21.797  1.00  0.00    -0.352 N 
ATOM      6  O   UNL A   1      33.710  27.839  22.446  1.00  0.00    -0.270 OA
ATOM      7  C   UNL A   1      33.090  26.813  22.725  1.00  0.00     0.251 C 
ATOM      8  H   UNL A   1      33.322  26.038  20.897  1.00  0.00     0.163 HD
BRANCH   7   9
ATOM      9  C   UNL A   1      32.548  26.673  24.110  1.00  0.00     0.067 C 
ATOM     10  C   UNL A   1      33.349  26.697  25.189  1.00  0.00     0.025 C 
ATOM     11  C   UNL A   1      31.125  27.166  24.240  1.00  0.00     0.314 C 
ATOM     12  C   UNL A   1      33.171  27.952  25.966  1.00  0.00     0.018 A 
ATOM     13  O   UNL A   1      31.069  28.490  24.836  1.00  0.00    -0.475 OA
ATOM     14  C   UNL A   1      34.246  28.395  26.744  1.00  0.00     0.025 A 
ATOM     15  C   UNL A   1      32.110  28.823  25.668  1.00  0.00     0.128 A 
ATOM     16  C   UNL A   1      34.331  29.744  27.123  1.00  0.00     0.056 A 
ATOM     17  C   UNL A   1      32.153  30.143  26.105  1.00  0.00     0.048 A 
ATOM     18  C   UNL A   1      33.269  30.608  26.809  1.00  0.00     0.017 A 
BRANCH  11  19
ATOM     19  C   UNL A   1      30.231  26.174  25.000  1.00  0.00     0.429 C 
ATOM     20  F   UNL A   1      30.643  24.897  24.813  1.00  0.00    -0.167 F 
ATOM     21  F   UNL A   1      30.256  26.400  26.336  1.00  0.00    -0.167 F 
ATOM     22  F   UNL A   1      28.936  26.238  24.613  1.00  0.00    -0.167 F 
ENDBRANCH  11  19
BRANCH  16  23
ATOM     23  C   UNL A   1      35.588  30.262  27.783  1.00  0.00     0.416 C 
ATOM     24  F   UNL A   1      36.716  29.722  27.261  1.00  0.00    -0.166 F 
ATOM     25  F   UNL A   1      35.713  31.614  27.651  1.00  0.00    -0.166 F 
ATOM     26  F   UNL A   1      35.617  30.026  29.123  1.00  0.00    -0.166 F 
ENDBRANCH  16  23
ENDBRANCH   7   9
ENDBRANCH   4   5
ENDBRANCH   3   4
ENDBRANCH   2   3
ENDBRANCH   1   2
BRANCH   1  27
ATOM     27  C   UNL A   1      36.576  22.794  24.383  1.00  0.00     0.021 C 
BRANCH  27  28
ATOM     28  C   UNL A   1      36.900  22.603  25.862  1.00  0.00     0.116 C 
BRANCH  28  29
ATOM     29  N   UNL A   1      37.971  21.646  26.084  1.00  0.00    -0.352 N 
ATOM     30  C   UNL A   1      39.279  21.849  26.448  1.00  0.00     0.251 C 
ATOM     31  H   UNL A   1      37.717  20.704  25.951  1.00  0.00     0.163 HD
ATOM     32  O   UNL A   1      40.060  20.904  26.418  1.00  0.00    -0.269 OA
BRANCH  30  33
ATOM     33  C   UNL A   1      39.755  23.195  26.846  1.00  0.00     0.039 A 
ATOM     34  C   UNL A   1      40.569  23.310  27.978  1.00  0.00     0.014 A 
ATOM     35  C   UNL A   1      39.383  24.342  26.140  1.00  0.00     0.014 A 
ATOM     36  C   UNL A   1      41.053  24.562  28.365  1.00  0.00     0.010 A 
ATOM     37  C   UNL A   1      39.930  25.579  26.481  1.00  0.00     0.010 A 
ATOM     38  C   UNL A   1      40.766  25.703  27.601  1.00  0.00    -0.014 A 
BRANCH  38  39
ATOM     39  C   UNL A   1      41.323  27.034  27.970  1.00  0.00     0.031 A 
ATOM     40  C   UNL A   1      42.753  27.373  27.648  1.00  0.00     0.074 A 
ATOM     41  C   UNL A   1      40.553  27.918  28.636  1.00  0.00     0.049 A 
ATOM     42  N   UNL A   1      43.436  28.451  27.940  1.00  0.00    -0.248 NA
ATOM     43  C   UNL A   1      43.525  26.351  26.927  1.00  0.00     0.031 C 
ATOM     44  C   UNL A   1      39.163  27.690  29.038  1.00  0.00     0.029 A 
ATOM     45  N   UNL A   1      40.830  29.180  29.099  1.00  0.00    -0.354 N 
ATOM     46  C   UNL A   1      44.718  28.236  27.442  1.00  0.00     0.074 A 
ATOM     47  C   UNL A   1      44.732  26.893  26.900  1.00  0.00     0.031 C 
ATOM     48  C   UNL A   1      38.703  28.783  29.666  1.00  0.00     0.029 A 
ATOM     49  C   UNL A   1      39.775  29.769  29.758  1.00  0.00     0.049 A 
ATOM     50  H   UNL A   1      41.699  29.623  28.971  1.00  0.00     0.167 HD
ATOM     51  C   UNL A   1      45.775  29.086  27.416  1.00  0.00     0.034 A 
ATOM     52  C   UNL A   1      39.684  30.961  30.383  1.00  0.00     0.034 A 
ATOM     53  C   UNL A   1      45.742  30.419  27.968  1.00  0.00     0.049 A 
ATOM     54  C   UNL A   1      40.883  31.875  30.381  1.00  0.00     0.074 A 
ATOM     55  C   UNL A   1      46.739  31.379  27.965  1.00  0.00     0.029 A 
ATOM     56  N   UNL A   1      44.659  30.980  28.635  1.00  0.00    -0.354 N 
ATOM     57  N   UNL A   1      42.074  31.676  29.865  1.00  0.00    -0.248 NA
ATOM     58  C   UNL A   1      40.721  33.181  31.034  1.00  0.00     0.031 C 
ATOM     59  C   UNL A   1      46.289  32.486  28.694  1.00  0.00     0.029 A 
ATOM     60  C   UNL A   1      44.977  32.257  29.077  1.00  0.00     0.049 A 
ATOM     61  H   UNL A   1      43.791  30.536  28.775  1.00  0.00     0.167 HD
ATOM     62  C   UNL A   1      42.795  32.843  30.108  1.00  0.00     0.074 A 
ATOM     63  C   UNL A   1      41.897  33.745  30.800  1.00  0.00     0.031 C 
ATOM     64  C   UNL A   1      44.079  33.143  29.783  1.00  0.00     0.034 A 
BRANCH  51  65
ATOM     65  C   UNL A   1      47.055  28.579  26.791  1.00  0.00     0.023 A 
ATOM     66  C   UNL A   1      47.210  28.492  25.395  1.00  0.00     0.031 A 
ATOM     67  C   UNL A   1      48.120  28.136  27.595  1.00  0.00     0.131 A 
ATOM     68  C   UNL A   1      48.353  27.890  24.851  1.00  0.00     0.055 A 
ATOM     69  C   UNL A   1      49.297  27.625  27.045  1.00  0.00     0.041 A 
ATOM     70  F   UNL A   1      48.028  28.173  28.934  1.00  0.00    -0.206 F 
ATOM     71  C   UNL A   1      49.411  27.481  25.665  1.00  0.00     0.022 A 
BRANCH  68  72
ATOM     72  S   UNL A   1      48.361  27.490  23.081  1.00  0.00     0.124 S 
ATOM     73  O   UNL A   1      49.626  28.081  22.652  1.00  0.00    -0.237 OA
ATOM     74  O   UNL A   1      48.304  26.033  23.087  1.00  0.00    -0.237 OA
ATOM     75  O   UNL A   1      47.166  28.161  22.574  1.00  0.00    -0.744 OA
ENDBRANCH  68  72
ENDBRANCH  51  65
BRANCH  52  76
ATOM     76  C   UNL A   1      38.423  31.350  31.078  1.00  0.00     0.023 A 
ATOM     77  C   UNL A   1      37.454  32.141  30.442  1.00  0.00     0.031 A 
ATOM     78  C   UNL A   1      38.181  30.952  32.406  1.00  0.00     0.131 A 
ATOM     79  C   UNL A   1      36.307  32.544  31.147  1.00  0.00     0.055 A 
ATOM     80  C   UNL A   1      37.014  31.308  33.083  1.00  0.00     0.041 A 
ATOM     81  F   UNL A   1      39.073  30.192  33.060  1.00  0.00    -0.206 F 
ATOM     82  C   UNL A   1      36.074  32.118  32.456  1.00  0.00     0.022 A 
BRANCH  79  83
ATOM     83  S   UNL A   1      35.157  33.698  30.350  1.00  0.00     0.124 S 
ATOM     84  O   UNL A   1      34.898  34.649  31.425  1.00  0.00    -0.237 OA
ATOM     85  O   UNL A   1      35.951  34.194  29.231  1.00  0.00    -0.237 OA
ATOM     86  O   UNL A   1      34.026  32.849  29.980  1.00  0.00    -0.744 OA
ENDBRANCH  79  83
ENDBRANCH  52  76
BRANCH  64  87
ATOM     87  C   UNL A   1      44.573  34.526  30.139  1.00  0.00     0.023 A 
ATOM     88  C   UNL A   1      44.325  35.639  29.317  1.00  0.00     0.031 A 
ATOM     89  C   UNL A   1      45.312  34.729  31.318  1.00  0.00     0.131 A 
ATOM     90  C   UNL A   1      44.860  36.892  29.653  1.00  0.00     0.055 A 
ATOM     91  C   UNL A   1      45.784  35.991  31.683  1.00  0.00     0.041 A 
ATOM     92  F   UNL A   1      45.585  33.703  32.140  1.00  0.00    -0.206 F 
ATOM     93  C   UNL A   1      45.571  37.078  30.841  1.00  0.00     0.022 A 
BRANCH  90  94
ATOM     94  S   UNL A   1      44.701  38.255  28.468  1.00  0.00     0.124 S 
ATOM     95  O   UNL A   1      45.948  38.983  28.675  1.00  0.00    -0.237 OA
ATOM     96  O   UNL A   1      44.576  37.551  27.196  1.00  0.00    -0.237 OA
ATOM     97  O   UNL A   1      43.495  38.955  28.910  1.00  0.00    -0.744 OA
ENDBRANCH  90  94
ENDBRANCH  64  87
ENDBRANCH  38  39
ENDBRANCH  30  33
ENDBRANCH  28  29
ENDBRANCH  27  28
ENDBRANCH   1  27
TORSDOF 18
ENDMDL
MODEL 2
REMARK VINA RESULT:     -11.5      5.131      9.829
REMARK SMILES O=C(NCCCCCCNC(=O)c1ccc(-c2c3nc(c(-c4cc(S(=O)(=O)[O-])ccc4F)c4ccc([nH]4)c(-c4cc(S(=O)(=O)[O-])ccc4F)c4nc(c(-c5cc(S(=O)(=O)[O-])ccc5F)c5ccc2[nH]5)C=C4)C=C3)cc1)C1=Cc2cc(C(F)(F)F)ccc2O[C@@H]1C(F)(F)F
REMARK SMILES IDX 7 1 6 2 5 3 4 4 3 5 1 6 2 7 76 9 77 10 89 11 78 12 88 13
REMARK SMILES IDX 79 14 87 15 80 16 86 17 85 18 90 19 91 20 92 21 93 22 81 23
REMARK SMILES IDX 82 24 83 25 84 26 8 27 9 28 10 29 11 30 12 32 13 33 14 34
REMARK SMILES IDX 75 35 15 36 74 37 16 38 17 39 18 40 68 41 19 42 73 43 67 44
REMARK SMILES IDX 69 45 20 46 72 47 66 48 65 49 21 51 53 52 33 53 52 54 34 55
REMARK SMILES IDX 37 56 51 57 70 58 35 59 36 60 50 62 71 63 38 64 22 65 23 66
REMARK SMILES IDX 31 67 24 68 30 69 32 70 29 71 25 72 26 73 27 74 28 75 54 76
REMARK SMILES IDX 55 77 63 78 56 79 62 80 64 81 61 82 57 83 58 84 59 85 60 86
REMARK SMILES IDX 39 87 40 88 48 89 41 90 47 91 49 92 46 93 42 94 43 95 44 96
REMARK SMILES IDX 45 97
REMARK H PARENT 3 8 10 31 69 50 37 61
REMARK Flexibility Score: inf
ROOT
ATOM      1  C   UNL A   1      32.329  27.606  26.837  1.00  0.00     0.002 C 
ENDROOT
BRANCH   1   2
ATOM      2  C   UNL A   1      31.164  26.609  26.863  1.00  0.00     0.002 C 
BRANCH   2   3
ATOM      3  C   UNL A   1      30.776  25.981  25.527  1.00  0.00     0.021 C 
BRANCH   3   4
ATOM      4  C   UNL A   1      30.684  24.460  25.506  1.00  0.00     0.116 C 
BRANCH   4   5
ATOM      5  N   UNL A   1      31.475  23.771  26.512  1.00  0.00    -0.352 N 
ATOM      6  O   UNL A   1      33.328  22.982  27.508  1.00  0.00    -0.270 OA
ATOM      7  C   UNL A   1      32.797  23.418  26.487  1.00  0.00     0.251 C 
ATOM      8  H   UNL A   1      30.988  23.523  27.332  1.00  0.00     0.163 HD
BRANCH   7   9
ATOM      9  C   UNL A   1      33.656  23.630  25.283  1.00  0.00     0.067 C 
ATOM     10  C   UNL A   1      34.747  24.414  25.321  1.00  0.00     0.025 C 
ATOM     11  C   UNL A   1      33.622  22.465  24.321  1.00  0.00     0.314 C 
ATOM     12  C   UNL A   1      35.993  23.609  25.241  1.00  0.00     0.018 A 
ATOM     13  O   UNL A   1      34.799  21.624  24.456  1.00  0.00    -0.475 OA
ATOM     14  C   UNL A   1      37.156  24.148  25.805  1.00  0.00     0.025 A 
ATOM     15  C   UNL A   1      35.933  22.242  24.924  1.00  0.00     0.128 A 
ATOM     16  C   UNL A   1      38.215  23.304  26.173  1.00  0.00     0.056 A 
ATOM     17  C   UNL A   1      37.012  21.413  25.218  1.00  0.00     0.048 A 
ATOM     18  C   UNL A   1      38.138  21.937  25.860  1.00  0.00     0.017 A 
BRANCH  11  19
ATOM     19  C   UNL A   1      33.422  22.916  22.865  1.00  0.00     0.429 C 
ATOM     20  F   UNL A   1      32.746  21.985  22.150  1.00  0.00    -0.167 F 
ATOM     21  F   UNL A   1      32.705  24.063  22.791  1.00  0.00    -0.167 F 
ATOM     22  F   UNL A   1      34.594  23.141  22.225  1.00  0.00    -0.167 F 
ENDBRANCH  11  19
BRANCH  16  23
ATOM     23  C   UNL A   1      39.377  23.858  26.966  1.00  0.00     0.416 C 
ATOM     24  F   UNL A   1      40.095  24.776  26.274  1.00  0.00    -0.166 F 
ATOM     25  F   UNL A   1      38.965  24.476  28.110  1.00  0.00    -0.166 F 
ATOM     26  F   UNL A   1      40.248  22.893  27.370  1.00  0.00    -0.166 F 
ENDBRANCH  16  23
ENDBRANCH   7   9
ENDBRANCH   4   5
ENDBRANCH   3   4
ENDBRANCH   2   3
ENDBRANCH   1   2
BRANCH   1  27
ATOM     27  C   UNL A   1      33.051  27.795  25.498  1.00  0.00     0.021 C 
BRANCH  27  28
ATOM     28  C   UNL A   1      34.040  28.955  25.423  1.00  0.00     0.116 C 
BRANCH  28  29
ATOM     29  N   UNL A   1      33.496  30.193  25.955  1.00  0.00    -0.352 N 
ATOM     30  C   UNL A   1      33.855  30.913  27.067  1.00  0.00     0.251 C 
ATOM     31  H   UNL A   1      32.752  30.575  25.434  1.00  0.00     0.163 HD
ATOM     32  O   UNL A   1      33.149  31.849  27.426  1.00  0.00    -0.269 OA
BRANCH  30  33
ATOM     33  C   UNL A   1      35.063  30.551  27.846  1.00  0.00     0.039 A 
ATOM     34  C   UNL A   1      36.194  31.369  27.746  1.00  0.00     0.014 A 
ATOM     35  C   UNL A   1      35.105  29.405  28.643  1.00  0.00     0.014 A 
ATOM     36  C   UNL A   1      37.340  31.068  28.486  1.00  0.00     0.010 A 
ATOM     37  C   UNL A   1      36.221  29.149  29.440  1.00  0.00     0.010 A 
ATOM     38  C   UNL A   1      37.353  29.975  29.366  1.00  0.00    -0.014 A 
BRANCH  38  39
ATOM     39  C   UNL A   1      38.548  29.678  30.202  1.00  0.00     0.031 A 
ATOM     40  C   UNL A   1      38.711  30.327  31.550  1.00  0.00     0.074 A 
ATOM     41  C   UNL A   1      39.508  28.859  29.728  1.00  0.00     0.049 A 
ATOM     42  N   UNL A   1      39.706  30.242  32.397  1.00  0.00    -0.248 NA
ATOM     43  C   UNL A   1      37.623  31.212  31.989  1.00  0.00     0.031 C 
ATOM     44  C   UNL A   1      39.482  28.199  28.420  1.00  0.00     0.029 A 
ATOM     45  N   UNL A   1      40.693  28.446  30.284  1.00  0.00    -0.354 N 
ATOM     46  C   UNL A   1      39.365  31.065  33.467  1.00  0.00     0.074 A 
ATOM     47  C   UNL A   1      38.108  31.696  33.121  1.00  0.00     0.031 C 
ATOM     48  C   UNL A   1      40.586  27.449  28.285  1.00  0.00     0.029 A 
ATOM     49  C   UNL A   1      41.423  27.611  29.469  1.00  0.00     0.049 A 
ATOM     50  H   UNL A   1      40.993  28.721  31.180  1.00  0.00     0.167 HD
ATOM     51  C   UNL A   1      40.024  31.256  34.638  1.00  0.00     0.034 A 
ATOM     52  C   UNL A   1      42.638  27.052  29.647  1.00  0.00     0.034 A 
ATOM     53  C   UNL A   1      41.280  30.622  34.960  1.00  0.00     0.049 A 
ATOM     54  C   UNL A   1      43.375  27.311  30.936  1.00  0.00     0.074 A 
ATOM     55  C   UNL A   1      42.017  30.713  36.128  1.00  0.00     0.029 A 
ATOM     56  N   UNL A   1      41.994  29.787  34.108  1.00  0.00    -0.354 N 
ATOM     57  N   UNL A   1      43.018  28.054  31.958  1.00  0.00    -0.248 NA
ATOM     58  C   UNL A   1      44.673  26.643  31.101  1.00  0.00     0.031 C 
ATOM     59  C   UNL A   1      43.209  30.000  35.954  1.00  0.00     0.029 A 
ATOM     60  C   UNL A   1      43.178  29.387  34.711  1.00  0.00     0.049 A 
ATOM     61  H   UNL A   1      41.703  29.519  33.207  1.00  0.00     0.167 HD
ATOM     62  C   UNL A   1      44.037  27.921  32.900  1.00  0.00     0.074 A 
ATOM     63  C   UNL A   1      45.010  27.013  32.329  1.00  0.00     0.031 C 
ATOM     64  C   UNL A   1      44.152  28.493  34.126  1.00  0.00     0.034 A 
BRANCH  51  65
ATOM     65  C   UNL A   1      39.403  32.209  35.634  1.00  0.00     0.023 A 
ATOM     66  C   UNL A   1      39.787  33.561  35.697  1.00  0.00     0.031 A 
ATOM     67  C   UNL A   1      38.448  31.758  36.561  1.00  0.00     0.131 A 
ATOM     68  C   UNL A   1      39.294  34.385  36.720  1.00  0.00     0.055 A 
ATOM     69  C   UNL A   1      37.889  32.607  37.518  1.00  0.00     0.041 A 
ATOM     70  F   UNL A   1      38.054  30.474  36.568  1.00  0.00    -0.206 F 
ATOM     71  C   UNL A   1      38.326  33.925  37.615  1.00  0.00     0.022 A 
BRANCH  68  72
ATOM     72  S   UNL A   1      40.067  36.007  36.970  1.00  0.00     0.124 S 
ATOM     73  O   UNL A   1      41.463  35.637  37.191  1.00  0.00    -0.237 OA
ATOM     74  O   UNL A   1      39.777  36.692  35.716  1.00  0.00    -0.237 OA
ATOM     75  O   UNL A   1      39.378  36.537  38.146  1.00  0.00    -0.744 OA
ENDBRANCH  68  72
ENDBRANCH  51  65
BRANCH  52  76
ATOM     76  C   UNL A   1      43.241  26.212  28.573  1.00  0.00     0.023 A 
ATOM     77  C   UNL A   1      44.208  26.730  27.697  1.00  0.00     0.031 A 
ATOM     78  C   UNL A   1      42.838  24.875  28.392  1.00  0.00     0.131 A 
ATOM     79  C   UNL A   1      44.709  25.932  26.655  1.00  0.00     0.055 A 
ATOM     80  C   UNL A   1      43.380  24.069  27.390  1.00  0.00     0.041 A 
ATOM     81  F   UNL A   1      41.920  24.328  29.204  1.00  0.00    -0.206 F 
ATOM     82  C   UNL A   1      44.314  24.600  26.507  1.00  0.00     0.022 A 
BRANCH  79  83
ATOM     83  S   UNL A   1      45.832  26.683  25.446  1.00  0.00     0.124 S 
ATOM     84  O   UNL A   1      46.053  25.579  24.520  1.00  0.00    -0.237 OA
ATOM     85  O   UNL A   1      45.034  27.795  24.941  1.00  0.00    -0.237 OA
ATOM     86  O   UNL A   1      46.990  27.066  26.251  1.00  0.00    -0.744 OA
ENDBRANCH  79  83
ENDBRANCH  52  76
BRANCH  64  87
ATOM     87  C   UNL A   1      45.361  28.115  34.950  1.00  0.00     0.023 A 
ATOM     88  C   UNL A   1      45.354  27.009  35.816  1.00  0.00     0.031 A 
ATOM     89  C   UNL A   1      46.537  28.882  34.869  1.00  0.00     0.131 A 
ATOM     90  C   UNL A   1      46.478  26.735  36.612  1.00  0.00     0.055 A 
ATOM     91  C   UNL A   1      47.676  28.565  35.612  1.00  0.00     0.041 A 
ATOM     92  F   UNL A   1      46.602  29.953  34.063  1.00  0.00    -0.206 F 
ATOM     93  C   UNL A   1      47.645  27.494  36.500  1.00  0.00     0.022 A 
BRANCH  90  94
ATOM     94  S   UNL A   1      46.359  25.433  37.869  1.00  0.00     0.124 S 
ATOM     95  O   UNL A   1      46.668  24.235  37.094  1.00  0.00    -0.237 OA
ATOM     96  O   UNL A   1      47.368  25.842  38.840  1.00  0.00    -0.237 OA
ATOM     97  O   UNL A   1      44.976  25.529  38.334  1.00  0.00    -0.744 OA
ENDBRANCH  90  94
ENDBRANCH  64  87
ENDBRANCH  38  39
ENDBRANCH  30  33
ENDBRANCH  28  29
ENDBRANCH  27  28
ENDBRANCH   1  27
TORSDOF 18
ENDMDL
MODEL 3
REMARK VINA RESULT:     -11.4      4.909     10.252
REMARK SMILES O=C(NCCCCCCNC(=O)c1ccc(-c2c3nc(c(-c4cc(S(=O)(=O)[O-])ccc4F)c4ccc([nH]4)c(-c4cc(S(=O)(=O)[O-])ccc4F)c4nc(c(-c5cc(S(=O)(=O)[O-])ccc5F)c5ccc2[nH]5)C=C4)C=C3)cc1)C1=Cc2cc(C(F)(F)F)ccc2O[C@@H]1C(F)(F)F
REMARK SMILES IDX 7 1 6 2 5 3 4 4 3 5 1 6 2 7 76 9 77 10 89 11 78 12 88 13
REMARK SMILES IDX 79 14 87 15 80 16 86 17 85 18 90 19 91 20 92 21 93 22 81 23
REMARK SMILES IDX 82 24 83 25 84 26 8 27 9 28 10 29 11 30 12 32 13 33 14 34
REMARK SMILES IDX 75 35 15 36 74 37 16 38 17 39 18 40 68 41 19 42 73 43 67 44
REMARK SMILES IDX 69 45 20 46 72 47 66 48 65 49 21 51 53 52 33 53 52 54 34 55
REMARK SMILES IDX 37 56 51 57 70 58 35 59 36 60 50 62 71 63 38 64 22 65 23 66
REMARK SMILES IDX 31 67 24 68 30 69 32 70 29 71 25 72 26 73 27 74 28 75 54 76
REMARK SMILES IDX 55 77 63 78 56 79 62 80 64 81 61 82 57 83 58 84 59 85 60 86
REMARK SMILES IDX 39 87 40 88 48 89 41 90 47 91 49 92 46 93 42 94 43 95 44 96
REMARK SMILES IDX 45 97
REMARK H PARENT 3 8 10 31 69 50 37 61
REMARK Flexibility Score: inf
ROOT
ATOM      1  C   UNL A   1      31.399  28.245  25.018  1.00  0.00     0.002 C 
ENDROOT
BRANCH   1   2
ATOM      2  C   UNL A   1      30.625  27.922  23.734  1.00  0.00     0.002 C 
BRANCH   2   3
ATOM      3  C   UNL A   1      31.418  27.260  22.610  1.00  0.00     0.021 C 
BRANCH   3   4
ATOM      4  C   UNL A   1      31.164  25.772  22.400  1.00  0.00     0.116 C 
BRANCH   4   5
ATOM      5  N   UNL A   1      32.282  25.016  21.860  1.00  0.00    -0.352 N 
ATOM      6  O   UNL A   1      33.752  23.325  21.696  1.00  0.00    -0.270 OA
ATOM      7  C   UNL A   1      32.928  23.928  22.383  1.00  0.00     0.251 C 
ATOM      8  H   UNL A   1      32.624  25.332  20.993  1.00  0.00     0.163 HD
BRANCH   7   9
ATOM      9  C   UNL A   1      32.603  23.381  23.733  1.00  0.00     0.067 C 
ATOM     10  C   UNL A   1      31.961  22.210  23.887  1.00  0.00     0.025 C 
ATOM     11  C   UNL A   1      33.571  23.833  24.803  1.00  0.00     0.314 C 
ATOM     12  C   UNL A   1      32.870  21.161  24.418  1.00  0.00     0.018 A 
ATOM     13  O   UNL A   1      34.545  22.801  25.116  1.00  0.00    -0.475 OA
ATOM     14  C   UNL A   1      32.567  19.826  24.125  1.00  0.00     0.025 A 
ATOM     15  C   UNL A   1      34.145  21.506  24.895  1.00  0.00     0.128 A 
ATOM     16  C   UNL A   1      33.572  18.848  24.184  1.00  0.00     0.056 A 
ATOM     17  C   UNL A   1      35.125  20.526  25.027  1.00  0.00     0.048 A 
ATOM     18  C   UNL A   1      34.847  19.208  24.652  1.00  0.00     0.017 A 
BRANCH  11  19
ATOM     19  C   UNL A   1      32.853  24.324  26.070  1.00  0.00     0.429 C 
ATOM     20  F   UNL A   1      33.310  25.540  26.455  1.00  0.00    -0.167 F 
ATOM     21  F   UNL A   1      31.519  24.454  25.871  1.00  0.00    -0.167 F 
ATOM     22  F   UNL A   1      33.015  23.484  27.119  1.00  0.00    -0.167 F 
ENDBRANCH  11  19
BRANCH  16  23
ATOM     23  C   UNL A   1      33.296  17.453  23.671  1.00  0.00     0.416 C 
ATOM     24  F   UNL A   1      32.604  17.451  22.505  1.00  0.00    -0.166 F 
ATOM     25  F   UNL A   1      34.446  16.759  23.436  1.00  0.00    -0.166 F 
ATOM     26  F   UNL A   1      32.591  16.696  24.554  1.00  0.00    -0.166 F 
ENDBRANCH  16  23
ENDBRANCH   7   9
ENDBRANCH   4   5
ENDBRANCH   3   4
ENDBRANCH   2   3
ENDBRANCH   1   2
BRANCH   1  27
ATOM     27  C   UNL A   1      32.445  29.362  24.934  1.00  0.00     0.021 C 
BRANCH  27  28
ATOM     28  C   UNL A   1      33.218  29.658  26.217  1.00  0.00     0.116 C 
BRANCH  28  29
ATOM     29  N   UNL A   1      33.104  31.045  26.634  1.00  0.00    -0.352 N 
ATOM     30  C   UNL A   1      33.866  31.770  27.516  1.00  0.00     0.251 C 
ATOM     31  H   UNL A   1      32.363  31.542  26.219  1.00  0.00     0.163 HD
ATOM     32  O   UNL A   1      33.491  32.890  27.850  1.00  0.00    -0.269 OA
BRANCH  30  33
ATOM     33  C   UNL A   1      35.113  31.204  28.084  1.00  0.00     0.039 A 
ATOM     34  C   UNL A   1      36.245  32.022  28.163  1.00  0.00     0.014 A 
ATOM     35  C   UNL A   1      35.187  29.875  28.508  1.00  0.00     0.014 A 
ATOM     36  C   UNL A   1      37.427  31.525  28.716  1.00  0.00     0.010 A 
ATOM     37  C   UNL A   1      36.343  29.404  29.129  1.00  0.00     0.010 A 
ATOM     38  C   UNL A   1      37.478  30.222  29.235  1.00  0.00    -0.014 A 
BRANCH  38  39
ATOM     39  C   UNL A   1      38.715  29.700  29.878  1.00  0.00     0.031 A 
ATOM     40  C   UNL A   1      39.153  30.225  31.219  1.00  0.00     0.074 A 
ATOM     41  C   UNL A   1      39.468  28.786  29.233  1.00  0.00     0.049 A 
ATOM     42  N   UNL A   1      40.228  29.941  31.910  1.00  0.00    -0.248 NA
ATOM     43  C   UNL A   1      38.280  31.225  31.850  1.00  0.00     0.031 C 
ATOM     44  C   UNL A   1      39.169  28.228  27.912  1.00  0.00     0.029 A 
ATOM     45  N   UNL A   1      40.641  28.172  29.594  1.00  0.00    -0.354 N 
ATOM     46  C   UNL A   1      40.161  30.729  33.056  1.00  0.00     0.074 A 
ATOM     47  C   UNL A   1      38.979  31.555  32.924  1.00  0.00     0.031 C 
ATOM     48  C   UNL A   1      40.119  27.339  27.585  1.00  0.00     0.029 A 
ATOM     49  C   UNL A   1      41.122  27.298  28.645  1.00  0.00     0.049 A 
ATOM     50  H   UNL A   1      41.096  28.339  30.451  1.00  0.00     0.167 HD
ATOM     51  C   UNL A   1      40.992  30.742  34.129  1.00  0.00     0.034 A 
ATOM     52  C   UNL A   1      42.250  26.560  28.621  1.00  0.00     0.034 A 
ATOM     53  C   UNL A   1      42.169  29.914  34.239  1.00  0.00     0.049 A 
ATOM     54  C   UNL A   1      43.184  26.622  29.803  1.00  0.00     0.074 A 
ATOM     55  C   UNL A   1      43.061  29.819  35.293  1.00  0.00     0.029 A 
ATOM     56  N   UNL A   1      42.629  29.047  33.255  1.00  0.00    -0.354 N 
ATOM     57  N   UNL A   1      43.083  27.336  30.900  1.00  0.00    -0.248 NA
ATOM     58  C   UNL A   1      44.376  25.766  29.750  1.00  0.00     0.031 C 
ATOM     59  C   UNL A   1      44.097  28.956  34.917  1.00  0.00     0.029 A 
ATOM     60  C   UNL A   1      43.809  28.441  33.663  1.00  0.00     0.049 A 
ATOM     61  H   UNL A   1      42.183  28.886  32.392  1.00  0.00     0.167 HD
ATOM     62  C   UNL A   1      44.186  26.995  31.680  1.00  0.00     0.074 A 
ATOM     63  C   UNL A   1      44.926  25.998  30.933  1.00  0.00     0.031 C 
ATOM     64  C   UNL A   1      44.549  27.459  32.903  1.00  0.00     0.034 A 
BRANCH  51  65
ATOM     65  C   UNL A   1      40.661  31.704  35.248  1.00  0.00     0.023 A 
ATOM     66  C   UNL A   1      39.651  31.422  36.187  1.00  0.00     0.031 A 
ATOM     67  C   UNL A   1      41.328  32.937  35.357  1.00  0.00     0.131 A 
ATOM     68  C   UNL A   1      39.275  32.392  37.127  1.00  0.00     0.055 A 
ATOM     69  C   UNL A   1      41.013  33.860  36.356  1.00  0.00     0.041 A 
ATOM     70  F   UNL A   1      42.286  33.275  34.480  1.00  0.00    -0.206 F 
ATOM     71  C   UNL A   1      39.967  33.599  37.237  1.00  0.00     0.022 A 
BRANCH  68  72
ATOM     72  S   UNL A   1      37.757  32.125  38.085  1.00  0.00     0.124 S 
ATOM     73  O   UNL A   1      38.232  32.334  39.451  1.00  0.00    -0.237 OA
ATOM     74  O   UNL A   1      36.865  33.147  37.554  1.00  0.00    -0.237 OA
ATOM     75  O   UNL A   1      37.390  30.746  37.767  1.00  0.00    -0.744 OA
ENDBRANCH  68  72
ENDBRANCH  51  65
BRANCH  52  76
ATOM     76  C   UNL A   1      42.571  25.719  27.432  1.00  0.00     0.023 A 
ATOM     77  C   UNL A   1      42.150  24.382  27.349  1.00  0.00     0.031 A 
ATOM     78  C   UNL A   1      43.329  26.237  26.366  1.00  0.00     0.131 A 
ATOM     79  C   UNL A   1      42.524  23.598  26.246  1.00  0.00     0.055 A 
ATOM     80  C   UNL A   1      43.651  25.471  25.246  1.00  0.00     0.041 A 
ATOM     81  F   UNL A   1      43.754  27.511  26.392  1.00  0.00    -0.206 F 
ATOM     82  C   UNL A   1      43.256  24.138  25.186  1.00  0.00     0.022 A 
BRANCH  79  83
ATOM     83  S   UNL A   1      42.103  21.834  26.249  1.00  0.00     0.124 S 
ATOM     84  O   UNL A   1      42.440  21.450  27.615  1.00  0.00    -0.237 OA
ATOM     85  O   UNL A   1      40.682  21.860  25.922  1.00  0.00    -0.237 OA
ATOM     86  O   UNL A   1      42.968  21.276  25.212  1.00  0.00    -0.744 OA
ENDBRANCH  79  83
ENDBRANCH  52  76
BRANCH  64  87
ATOM     87  C   UNL A   1      45.786  26.856  33.528  1.00  0.00     0.023 A 
ATOM     88  C   UNL A   1      45.738  25.666  34.274  1.00  0.00     0.031 A 
ATOM     89  C   UNL A   1      47.032  27.490  33.377  1.00  0.00     0.131 A 
ATOM     90  C   UNL A   1      46.900  25.179  34.892  1.00  0.00     0.055 A 
ATOM     91  C   UNL A   1      48.199  26.965  33.936  1.00  0.00     0.041 A 
ATOM     92  F   UNL A   1      47.140  28.632  32.679  1.00  0.00    -0.206 F 
ATOM     93  C   UNL A   1      48.134  25.810  34.710  1.00  0.00     0.022 A 
BRANCH  90  94
ATOM     94  S   UNL A   1      46.762  23.765  36.018  1.00  0.00     0.124 S 
ATOM     95  O   UNL A   1      47.893  23.980  36.914  1.00  0.00    -0.237 OA
ATOM     96  O   UNL A   1      45.439  23.957  36.602  1.00  0.00    -0.237 OA
ATOM     97  O   UNL A   1      46.885  22.607  35.132  1.00  0.00    -0.744 OA
ENDBRANCH  90  94
ENDBRANCH  64  87
ENDBRANCH  38  39
ENDBRANCH  30  33
ENDBRANCH  28  29
ENDBRANCH  27  28
ENDBRANCH   1  27
TORSDOF 18
ENDMDL
