MODEL 1
REMARK VINA RESULT:     -10.7      0.000      0.000
REMARK SMILES CCn1nc(C(C)C)cc1C(=O)N[C@@H](CC(N)=O)C(=O)NCCCCCCNC(=O)c1ccc(-c2c3nc(c(-c4cc(S(=O)(=O)[O-])ccc4F)c4ccc([nH]4)c(-c4cc(S(=O)(=O)[O-])ccc4F)c4nc(c(-c5cc(S(=O)(=O)[O-])ccc5F)c5ccc2[nH]5)C=C4)C=C3)cc1
REMARK SMILES IDX 24 1 23 2 22 3 21 4 19 5 20 6 14 8 13 9 11 10 12 11 10 13
REMARK SMILES IDX 3 14 4 15 5 16 9 17 2 18 1 19 6 20 7 21 8 22 15 23 16 24
REMARK SMILES IDX 17 25 18 26 25 29 26 30 27 31 28 32 29 33 30 35 31 36 32 37
REMARK SMILES IDX 93 38 33 39 92 40 34 41 35 42 36 43 86 44 37 45 91 46 85 47
REMARK SMILES IDX 87 48 38 49 90 50 84 51 83 52 39 54 71 55 51 56 70 57 52 58
REMARK SMILES IDX 55 59 69 60 88 61 53 62 54 63 68 65 89 66 56 67 40 68 41 69
REMARK SMILES IDX 49 70 42 71 48 72 50 73 47 74 43 75 44 76 45 77 46 78 72 79
REMARK SMILES IDX 73 80 81 81 74 82 80 83 82 84 79 85 75 86 76 87 77 88 78 89
REMARK SMILES IDX 57 90 58 91 66 92 59 93 65 94 67 95 64 96 60 97 61 98 62 99
REMARK SMILES IDX 63 100
REMARK H PARENT 21 7 13 12 17 27 17 28 28 34 87 53 55 64
REMARK Flexibility Score: inf
ROOT
ATOM      1  C   UNL A   1      37.791  22.350  25.661  1.00  0.00     0.002 C 
ENDROOT
BRANCH   1   2
ATOM      2  C   UNL A   1      37.097  21.940  24.360  1.00  0.00     0.021 C 
BRANCH   2   3
ATOM      3  C   UNL A   1      35.730  22.564  24.127  1.00  0.00     0.116 C 
BRANCH   3   4
ATOM      4  N   UNL A   1      35.425  23.675  25.005  1.00  0.00    -0.354 N 
ATOM      5  C   UNL A   1      34.240  24.312  25.225  1.00  0.00     0.243 C 
ATOM      6  O   UNL A   1      34.151  24.998  26.252  1.00  0.00    -0.273 OA
ATOM      7  H   UNL A   1      36.188  24.023  25.519  1.00  0.00     0.163 HD
BRANCH   5   8
ATOM      8  C   UNL A   1      32.998  24.117  24.330  1.00  0.00     0.181 C 
BRANCH   8   9
ATOM      9  N   UNL A   1      33.146  24.684  22.993  1.00  0.00    -0.338 N 
ATOM     10  C   UNL A   1      33.231  25.978  22.539  1.00  0.00     0.270 C 
ATOM     11  O   UNL A   1      33.470  26.092  21.337  1.00  0.00    -0.268 OA
ATOM     12  H   UNL A   1      33.195  24.009  22.278  1.00  0.00     0.164 HD
BRANCH  10  13
ATOM     13  C   UNL A   1      32.948  27.119  23.386  1.00  0.00     0.126 A 
ATOM     14  N   UNL A   1      31.664  27.517  23.735  1.00  0.00    -0.260 N 
ATOM     15  N   UNL A   1      31.642  28.374  24.785  1.00  0.00    -0.177 NA
ATOM     16  C   UNL A   1      32.921  28.710  24.955  1.00  0.00     0.066 A 
ATOM     17  C   UNL A   1      33.744  28.063  24.012  1.00  0.00     0.059 A 
BRANCH  14  18
ATOM     18  C   UNL A   1      30.412  27.061  23.145  1.00  0.00     0.142 C 
ATOM     19  C   UNL A   1      29.718  25.927  23.890  1.00  0.00     0.029 C 
ENDBRANCH  14  18
BRANCH  16  20
ATOM     20  C   UNL A   1      33.375  29.642  26.040  1.00  0.00     0.034 C 
ATOM     21  C   UNL A   1      32.209  30.430  26.629  1.00  0.00     0.014 C 
ATOM     22  C   UNL A   1      34.175  28.930  27.133  1.00  0.00     0.014 C 
ENDBRANCH  16  20
ENDBRANCH  10  13
ENDBRANCH   8   9
BRANCH   8  23
ATOM     23  C   UNL A   1      32.369  22.730  24.403  1.00  0.00     0.134 C 
BRANCH  23  24
ATOM     24  C   UNL A   1      31.560  22.441  25.632  1.00  0.00     0.220 C 
ATOM     25  N   UNL A   1      32.269  22.323  26.789  1.00  0.00    -0.370 N 
ATOM     26  O   UNL A   1      30.342  22.309  25.623  1.00  0.00    -0.275 OA
ATOM     27  H   UNL A   1      33.248  22.432  26.780  1.00  0.00     0.159 HD
ATOM     28  H   UNL A   1      31.804  22.127  27.634  1.00  0.00     0.159 HD
ENDBRANCH  23  24
ENDBRANCH   8  23
ENDBRANCH   5   8
ENDBRANCH   3   4
ENDBRANCH   2   3
ENDBRANCH   1   2
BRANCH   1  29
ATOM     29  C   UNL A   1      39.132  21.675  25.986  1.00  0.00     0.002 C 
BRANCH  29  30
ATOM     30  C   UNL A   1      40.064  22.368  26.991  1.00  0.00     0.021 C 
BRANCH  30  31
ATOM     31  C   UNL A   1      39.944  23.882  27.047  1.00  0.00     0.116 C 
BRANCH  31  32
ATOM     32  N   UNL A   1      40.850  24.559  26.124  1.00  0.00    -0.352 N 
ATOM     33  C   UNL A   1      41.102  25.918  26.015  1.00  0.00     0.251 C 
ATOM     34  H   UNL A   1      41.345  23.978  25.502  1.00  0.00     0.163 HD
ATOM     35  O   UNL A   1      41.535  26.379  24.973  1.00  0.00    -0.269 OA
BRANCH  33  36
ATOM     36  C   UNL A   1      40.830  26.783  27.182  1.00  0.00     0.039 A 
ATOM     37  C   UNL A   1      40.860  26.291  28.488  1.00  0.00     0.014 A 
ATOM     38  C   UNL A   1      40.560  28.127  26.942  1.00  0.00     0.014 A 
ATOM     39  C   UNL A   1      40.695  27.187  29.545  1.00  0.00     0.010 A 
ATOM     40  C   UNL A   1      40.580  29.029  27.973  1.00  0.00     0.010 A 
ATOM     41  C   UNL A   1      40.576  28.563  29.277  1.00  0.00    -0.014 A 
BRANCH  41  42
ATOM     42  C   UNL A   1      40.558  29.556  30.345  1.00  0.00     0.031 A 
ATOM     43  C   UNL A   1      39.244  30.216  30.528  1.00  0.00     0.074 A 
ATOM     44  C   UNL A   1      41.566  29.732  31.229  1.00  0.00     0.049 A 
ATOM     45  N   UNL A   1      38.899  31.384  30.105  1.00  0.00    -0.248 NA
ATOM     46  C   UNL A   1      38.123  29.425  31.059  1.00  0.00     0.031 C 
ATOM     47  C   UNL A   1      42.812  28.967  31.355  1.00  0.00     0.029 A 
ATOM     48  N   UNL A   1      41.649  30.605  32.271  1.00  0.00    -0.354 N 
ATOM     49  C   UNL A   1      37.607  31.591  30.569  1.00  0.00     0.074 A 
ATOM     50  C   UNL A   1      37.112  30.285  30.915  1.00  0.00     0.031 C 
ATOM     51  C   UNL A   1      43.424  29.273  32.522  1.00  0.00     0.029 A 
ATOM     52  C   UNL A   1      42.718  30.383  33.137  1.00  0.00     0.049 A 
ATOM     53  H   UNL A   1      41.003  31.338  32.402  1.00  0.00     0.167 HD
ATOM     54  C   UNL A   1      37.176  32.846  30.879  1.00  0.00     0.034 A 
ATOM     55  C   UNL A   1      43.031  31.077  34.264  1.00  0.00     0.034 A 
ATOM     56  C   UNL A   1      38.109  33.838  30.373  1.00  0.00     0.049 A 
ATOM     57  C   UNL A   1      42.416  32.416  34.111  1.00  0.00     0.074 A 
ATOM     58  C   UNL A   1      38.583  34.184  29.123  1.00  0.00     0.029 A 
ATOM     59  N   UNL A   1      39.012  34.367  31.272  1.00  0.00    -0.354 N 
ATOM     60  N   UNL A   1      42.786  33.262  33.190  1.00  0.00    -0.248 NA
ATOM     61  C   UNL A   1      41.078  32.631  34.641  1.00  0.00     0.031 C 
ATOM     62  C   UNL A   1      39.968  34.470  29.318  1.00  0.00     0.029 A 
ATOM     63  C   UNL A   1      40.253  34.373  30.683  1.00  0.00     0.049 A 
ATOM     64  H   UNL A   1      38.803  34.685  32.180  1.00  0.00     0.167 HD
ATOM     65  C   UNL A   1      41.606  33.804  32.706  1.00  0.00     0.074 A 
ATOM     66  C   UNL A   1      40.603  33.477  33.719  1.00  0.00     0.031 C 
ATOM     67  C   UNL A   1      41.504  34.217  31.407  1.00  0.00     0.034 A 
BRANCH  54  68
ATOM     68  C   UNL A   1      36.173  33.192  31.960  1.00  0.00     0.023 A 
ATOM     69  C   UNL A   1      35.044  33.935  31.560  1.00  0.00     0.031 A 
ATOM     70  C   UNL A   1      36.378  33.104  33.355  1.00  0.00     0.131 A 
ATOM     71  C   UNL A   1      34.273  34.647  32.494  1.00  0.00     0.055 A 
ATOM     72  C   UNL A   1      35.567  33.762  34.286  1.00  0.00     0.041 A 
ATOM     73  F   UNL A   1      37.410  32.455  33.902  1.00  0.00    -0.206 F 
ATOM     74  C   UNL A   1      34.531  34.571  33.858  1.00  0.00     0.022 A 
BRANCH  71  75
ATOM     75  S   UNL A   1      33.047  35.824  31.869  1.00  0.00     0.124 S 
ATOM     76  O   UNL A   1      33.571  37.087  32.377  1.00  0.00    -0.237 OA
ATOM     77  O   UNL A   1      33.140  35.617  30.428  1.00  0.00    -0.237 OA
ATOM     78  O   UNL A   1      31.801  35.372  32.485  1.00  0.00    -0.744 OA
ENDBRANCH  71  75
ENDBRANCH  54  68
BRANCH  55  79
ATOM     79  C   UNL A   1      43.557  30.550  35.554  1.00  0.00     0.023 A 
ATOM     80  C   UNL A   1      43.377  29.218  35.988  1.00  0.00     0.031 A 
ATOM     81  C   UNL A   1      44.495  31.328  36.268  1.00  0.00     0.131 A 
ATOM     82  C   UNL A   1      44.125  28.717  37.083  1.00  0.00     0.055 A 
ATOM     83  C   UNL A   1      45.233  30.827  37.343  1.00  0.00     0.041 A 
ATOM     84  F   UNL A   1      44.788  32.581  35.883  1.00  0.00    -0.206 F 
ATOM     85  C   UNL A   1      45.058  29.515  37.749  1.00  0.00     0.022 A 
BRANCH  82  86
ATOM     86  S   UNL A   1      43.951  26.980  37.619  1.00  0.00     0.124 S 
ATOM     87  O   UNL A   1      42.530  26.727  37.410  1.00  0.00    -0.237 OA
ATOM     88  O   UNL A   1      44.872  26.284  36.728  1.00  0.00    -0.237 OA
ATOM     89  O   UNL A   1      44.366  27.010  39.023  1.00  0.00    -0.744 OA
ENDBRANCH  82  86
ENDBRANCH  55  79
BRANCH  67  90
ATOM     90  C   UNL A   1      42.787  34.349  30.606  1.00  0.00     0.023 A 
ATOM     91  C   UNL A   1      43.268  33.399  29.672  1.00  0.00     0.031 A 
ATOM     92  C   UNL A   1      43.500  35.553  30.731  1.00  0.00     0.131 A 
ATOM     93  C   UNL A   1      44.429  33.671  28.920  1.00  0.00     0.055 A 
ATOM     94  C   UNL A   1      44.635  35.829  29.969  1.00  0.00     0.041 A 
ATOM     95  F   UNL A   1      43.082  36.505  31.581  1.00  0.00    -0.206 F 
ATOM     96  C   UNL A   1      45.107  34.885  29.064  1.00  0.00     0.022 A 
BRANCH  93  97
ATOM     97  S   UNL A   1      45.091  32.441  27.746  1.00  0.00     0.124 S 
ATOM     98  O   UNL A   1      44.265  31.263  27.983  1.00  0.00    -0.237 OA
ATOM     99  O   UNL A   1      44.909  33.100  26.457  1.00  0.00    -0.237 OA
ATOM    100  O   UNL A   1      46.490  32.295  28.158  1.00  0.00    -0.744 OA
ENDBRANCH  93  97
ENDBRANCH  67  90
ENDBRANCH  41  42
ENDBRANCH  33  36
ENDBRANCH  31  32
ENDBRANCH  30  31
ENDBRANCH  29  30
ENDBRANCH   1  29
TORSDOF 22
ENDMDL
MODEL 2
REMARK VINA RESULT:     -10.6      3.514      8.915
REMARK SMILES CCn1nc(C(C)C)cc1C(=O)N[C@@H](CC(N)=O)C(=O)NCCCCCCNC(=O)c1ccc(-c2c3nc(c(-c4cc(S(=O)(=O)[O-])ccc4F)c4ccc([nH]4)c(-c4cc(S(=O)(=O)[O-])ccc4F)c4nc(c(-c5cc(S(=O)(=O)[O-])ccc5F)c5ccc2[nH]5)C=C4)C=C3)cc1
REMARK SMILES IDX 24 1 23 2 22 3 21 4 19 5 20 6 14 8 13 9 11 10 12 11 10 13
REMARK SMILES IDX 3 14 4 15 5 16 9 17 2 18 1 19 6 20 7 21 8 22 15 23 16 24
REMARK SMILES IDX 17 25 18 26 25 29 26 30 27 31 28 32 29 33 30 35 31 36 32 37
REMARK SMILES IDX 93 38 33 39 92 40 34 41 35 42 36 43 86 44 37 45 91 46 85 47
REMARK SMILES IDX 87 48 38 49 90 50 84 51 83 52 39 54 71 55 51 56 70 57 52 58
REMARK SMILES IDX 55 59 69 60 88 61 53 62 54 63 68 65 89 66 56 67 40 68 41 69
REMARK SMILES IDX 49 70 42 71 48 72 50 73 47 74 43 75 44 76 45 77 46 78 72 79
REMARK SMILES IDX 73 80 81 81 74 82 80 83 82 84 79 85 75 86 76 87 77 88 78 89
REMARK SMILES IDX 57 90 58 91 66 92 59 93 65 94 67 95 64 96 60 97 61 98 62 99
REMARK SMILES IDX 63 100
REMARK H PARENT 21 7 13 12 17 27 17 28 28 34 87 53 55 64
REMARK Flexibility Score: inf
ROOT
ATOM      1  C   UNL A   1      32.773  29.580  26.615  1.00  0.00     0.002 C 
ENDROOT
BRANCH   1   2
ATOM      2  C   UNL A   1      33.574  28.352  26.177  1.00  0.00     0.021 C 
BRANCH   2   3
ATOM      3  C   UNL A   1      33.877  28.268  24.690  1.00  0.00     0.116 C 
BRANCH   3   4
ATOM      4  N   UNL A   1      32.720  28.441  23.835  1.00  0.00    -0.354 N 
ATOM      5  C   UNL A   1      31.770  27.538  23.462  1.00  0.00     0.243 C 
ATOM      6  O   UNL A   1      30.709  27.989  23.012  1.00  0.00    -0.273 OA
ATOM      7  H   UNL A   1      32.603  29.346  23.469  1.00  0.00     0.163 HD
BRANCH   5   8
ATOM      8  C   UNL A   1      31.915  26.018  23.689  1.00  0.00     0.181 C 
BRANCH   8   9
ATOM      9  N   UNL A   1      31.394  25.566  24.975  1.00  0.00    -0.338 N 
ATOM     10  C   UNL A   1      31.635  24.444  25.730  1.00  0.00     0.270 C 
ATOM     11  O   UNL A   1      31.100  24.439  26.839  1.00  0.00    -0.268 OA
ATOM     12  H   UNL A   1      30.745  26.186  25.380  1.00  0.00     0.164 HD
BRANCH  10  13
ATOM     13  C   UNL A   1      32.369  23.305  25.218  1.00  0.00     0.126 A 
ATOM     14  N   UNL A   1      33.756  23.230  25.198  1.00  0.00    -0.260 N 
ATOM     15  N   UNL A   1      34.216  21.970  25.003  1.00  0.00    -0.177 NA
ATOM     16  C   UNL A   1      33.129  21.279  24.659  1.00  0.00     0.066 A 
ATOM     17  C   UNL A   1      31.988  22.106  24.641  1.00  0.00     0.059 A 
BRANCH  14  18
ATOM     18  C   UNL A   1      34.697  24.319  25.427  1.00  0.00     0.142 C 
ATOM     19  C   UNL A   1      36.162  23.970  25.194  1.00  0.00     0.029 C 
ENDBRANCH  14  18
BRANCH  16  20
ATOM     20  C   UNL A   1      33.165  19.808  24.366  1.00  0.00     0.034 C 
ATOM     21  C   UNL A   1      32.768  18.980  25.584  1.00  0.00     0.014 C 
ATOM     22  C   UNL A   1      32.332  19.429  23.139  1.00  0.00     0.014 C 
ENDBRANCH  16  20
ENDBRANCH  10  13
ENDBRANCH   8   9
BRANCH   8  23
ATOM     23  C   UNL A   1      31.559  25.155  22.482  1.00  0.00     0.134 C 
BRANCH  23  24
ATOM     24  C   UNL A   1      32.695  24.806  21.568  1.00  0.00     0.220 C 
ATOM     25  N   UNL A   1      33.068  23.496  21.566  1.00  0.00    -0.370 N 
ATOM     26  O   UNL A   1      33.272  25.627  20.866  1.00  0.00    -0.275 OA
ATOM     27  H   UNL A   1      32.594  22.848  22.136  1.00  0.00     0.159 HD
ATOM     28  H   UNL A   1      33.812  23.196  20.995  1.00  0.00     0.159 HD
ENDBRANCH  23  24
ENDBRANCH   8  23
ENDBRANCH   5   8
ENDBRANCH   3   4
ENDBRANCH   2   3
ENDBRANCH   1   2
BRANCH   1  29
ATOM     29  C   UNL A   1      33.543  30.711  27.313  1.00  0.00     0.002 C 
BRANCH  29  30
ATOM     30  C   UNL A   1      34.812  30.343  28.096  1.00  0.00     0.021 C 
BRANCH  30  31
ATOM     31  C   UNL A   1      36.076  31.060  27.653  1.00  0.00     0.116 C 
BRANCH  31  32
ATOM     32  N   UNL A   1      36.291  32.321  28.358  1.00  0.00    -0.352 N 
ATOM     33  C   UNL A   1      36.961  32.529  29.553  1.00  0.00     0.251 C 
ATOM     34  H   UNL A   1      35.914  33.123  27.930  1.00  0.00     0.163 HD
ATOM     35  O   UNL A   1      36.719  33.516  30.227  1.00  0.00    -0.269 OA
BRANCH  33  36
ATOM     36  C   UNL A   1      37.963  31.532  29.985  1.00  0.00     0.039 A 
ATOM     37  C   UNL A   1      37.593  30.279  30.476  1.00  0.00     0.014 A 
ATOM     38  C   UNL A   1      39.308  31.873  29.867  1.00  0.00     0.014 A 
ATOM     39  C   UNL A   1      38.594  29.352  30.769  1.00  0.00     0.010 A 
ATOM     40  C   UNL A   1      40.275  30.910  29.979  1.00  0.00     0.010 A 
ATOM     41  C   UNL A   1      39.937  29.670  30.495  1.00  0.00    -0.014 A 
BRANCH  41  42
ATOM     42  C   UNL A   1      41.004  28.686  30.634  1.00  0.00     0.031 A 
ATOM     43  C   UNL A   1      41.375  28.398  32.039  1.00  0.00     0.074 A 
ATOM     44  C   UNL A   1      41.484  27.944  29.610  1.00  0.00     0.049 A 
ATOM     45  N   UNL A   1      42.392  28.864  32.682  1.00  0.00    -0.248 NA
ATOM     46  C   UNL A   1      40.416  27.679  32.891  1.00  0.00     0.031 C 
ATOM     47  C   UNL A   1      41.026  27.910  28.216  1.00  0.00     0.029 A 
ATOM     48  N   UNL A   1      42.455  26.989  29.627  1.00  0.00    -0.354 N 
ATOM     49  C   UNL A   1      42.356  28.266  33.935  1.00  0.00     0.074 A 
ATOM     50  C   UNL A   1      41.016  27.766  34.082  1.00  0.00     0.031 C 
ATOM     51  C   UNL A   1      41.575  26.851  27.577  1.00  0.00     0.029 A 
ATOM     52  C   UNL A   1      42.559  26.242  28.454  1.00  0.00     0.049 A 
ATOM     53  H   UNL A   1      43.038  26.837  30.406  1.00  0.00     0.167 HD
ATOM     54  C   UNL A   1      43.511  28.004  34.608  1.00  0.00     0.034 A 
ATOM     55  C   UNL A   1      43.415  25.216  28.198  1.00  0.00     0.034 A 
ATOM     56  C   UNL A   1      44.627  28.691  33.981  1.00  0.00     0.049 A 
ATOM     57  C   UNL A   1      44.565  25.396  29.115  1.00  0.00     0.074 A 
ATOM     58  C   UNL A   1      44.941  30.011  33.726  1.00  0.00     0.029 A 
ATOM     59  N   UNL A   1      45.428  27.949  33.138  1.00  0.00    -0.354 N 
ATOM     60  N   UNL A   1      45.375  26.415  29.041  1.00  0.00    -0.248 NA
ATOM     61  C   UNL A   1      44.534  24.728  30.407  1.00  0.00     0.031 C 
ATOM     62  C   UNL A   1      45.541  30.004  32.430  1.00  0.00     0.029 A 
ATOM     63  C   UNL A   1      45.646  28.680  31.997  1.00  0.00     0.049 A 
ATOM     64  H   UNL A   1      45.783  27.049  33.324  1.00  0.00     0.167 HD
ATOM     65  C   UNL A   1      45.594  26.795  30.356  1.00  0.00     0.074 A 
ATOM     66  C   UNL A   1      45.159  25.648  31.151  1.00  0.00     0.031 C 
ATOM     67  C   UNL A   1      45.841  28.100  30.678  1.00  0.00     0.034 A 
BRANCH  54  68
ATOM     68  C   UNL A   1      43.737  26.840  35.552  1.00  0.00     0.023 A 
ATOM     69  C   UNL A   1      44.039  27.161  36.891  1.00  0.00     0.031 A 
ATOM     70  C   UNL A   1      43.957  25.493  35.186  1.00  0.00     0.131 A 
ATOM     71  C   UNL A   1      44.650  26.227  37.743  1.00  0.00     0.055 A 
ATOM     72  C   UNL A   1      44.506  24.548  36.060  1.00  0.00     0.041 A 
ATOM     73  F   UNL A   1      43.741  25.026  33.953  1.00  0.00    -0.206 F 
ATOM     74  C   UNL A   1      44.892  24.920  37.335  1.00  0.00     0.022 A 
BRANCH  71  75
ATOM     75  S   UNL A   1      45.293  26.812  39.331  1.00  0.00     0.124 S 
ATOM     76  O   UNL A   1      46.712  26.497  39.204  1.00  0.00    -0.237 OA
ATOM     77  O   UNL A   1      44.938  28.227  39.295  1.00  0.00    -0.237 OA
ATOM     78  O   UNL A   1      44.560  26.010  40.308  1.00  0.00    -0.744 OA
ENDBRANCH  71  75
ENDBRANCH  54  68
BRANCH  55  79
ATOM     79  C   UNL A   1      43.149  23.962  27.441  1.00  0.00     0.023 A 
ATOM     80  C   UNL A   1      43.942  23.515  26.360  1.00  0.00     0.031 A 
ATOM     81  C   UNL A   1      42.224  23.036  27.972  1.00  0.00     0.131 A 
ATOM     82  C   UNL A   1      43.796  22.195  25.866  1.00  0.00     0.055 A 
ATOM     83  C   UNL A   1      42.089  21.734  27.485  1.00  0.00     0.041 A 
ATOM     84  F   UNL A   1      41.480  23.345  29.048  1.00  0.00    -0.206 F 
ATOM     85  C   UNL A   1      42.883  21.304  26.434  1.00  0.00     0.022 A 
BRANCH  82  86
ATOM     86  S   UNL A   1      44.855  21.580  24.511  1.00  0.00     0.124 S 
ATOM     87  O   UNL A   1      46.195  21.721  25.069  1.00  0.00    -0.237 OA
ATOM     88  O   UNL A   1      44.368  20.217  24.327  1.00  0.00    -0.237 OA
ATOM     89  O   UNL A   1      44.557  22.489  23.403  1.00  0.00    -0.744 OA
ENDBRANCH  82  86
ENDBRANCH  55  79
BRANCH  67  90
ATOM     90  C   UNL A   1      46.169  29.056  29.545  1.00  0.00     0.023 A 
ATOM     91  C   UNL A   1      45.216  29.741  28.752  1.00  0.00     0.031 A 
ATOM     92  C   UNL A   1      47.525  29.358  29.332  1.00  0.00     0.131 A 
ATOM     93  C   UNL A   1      45.640  30.674  27.784  1.00  0.00     0.055 A 
ATOM     94  C   UNL A   1      47.940  30.298  28.390  1.00  0.00     0.041 A 
ATOM     95  F   UNL A   1      48.477  28.761  30.068  1.00  0.00    -0.206 F 
ATOM     96  C   UNL A   1      46.998  30.957  27.608  1.00  0.00     0.022 A 
BRANCH  93  97
ATOM     97  S   UNL A   1      44.431  31.532  26.721  1.00  0.00     0.124 S 
ATOM     98  O   UNL A   1      43.481  30.483  26.369  1.00  0.00    -0.237 OA
ATOM     99  O   UNL A   1      43.925  32.584  27.598  1.00  0.00    -0.237 OA
ATOM    100  O   UNL A   1      45.243  32.017  25.602  1.00  0.00    -0.744 OA
ENDBRANCH  93  97
ENDBRANCH  67  90
ENDBRANCH  41  42
ENDBRANCH  33  36
ENDBRANCH  31  32
ENDBRANCH  30  31
ENDBRANCH  29  30
ENDBRANCH   1  29
TORSDOF 22
ENDMDL
MODEL 3
REMARK VINA RESULT:     -10.6      3.479      8.535
REMARK SMILES CCn1nc(C(C)C)cc1C(=O)N[C@@H](CC(N)=O)C(=O)NCCCCCCNC(=O)c1ccc(-c2c3nc(c(-c4cc(S(=O)(=O)[O-])ccc4F)c4ccc([nH]4)c(-c4cc(S(=O)(=O)[O-])ccc4F)c4nc(c(-c5cc(S(=O)(=O)[O-])ccc5F)c5ccc2[nH]5)C=C4)C=C3)cc1
REMARK SMILES IDX 24 1 23 2 22 3 21 4 19 5 20 6 14 8 13 9 11 10 12 11 10 13
REMARK SMILES IDX 3 14 4 15 5 16 9 17 2 18 1 19 6 20 7 21 8 22 15 23 16 24
REMARK SMILES IDX 17 25 18 26 25 29 26 30 27 31 28 32 29 33 30 35 31 36 32 37
REMARK SMILES IDX 93 38 33 39 92 40 34 41 35 42 36 43 86 44 37 45 91 46 85 47
REMARK SMILES IDX 87 48 38 49 90 50 84 51 83 52 39 54 71 55 51 56 70 57 52 58
REMARK SMILES IDX 55 59 69 60 88 61 53 62 54 63 68 65 89 66 56 67 40 68 41 69
REMARK SMILES IDX 49 70 42 71 48 72 50 73 47 74 43 75 44 76 45 77 46 78 72 79
REMARK SMILES IDX 73 80 81 81 74 82 80 83 82 84 79 85 75 86 76 87 77 88 78 89
REMARK SMILES IDX 57 90 58 91 66 92 59 93 65 94 67 95 64 96 60 97 61 98 62 99
REMARK SMILES IDX 63 100
REMARK H PARENT 21 7 13 12 17 27 17 28 28 34 87 53 55 64
REMARK Flexibility Score: inf
ROOT
ATOM      1  C   UNL A   1      32.814  28.248  26.705  1.00  0.00     0.002 C 
ENDROOT
BRANCH   1   2
ATOM      2  C   UNL A   1      33.794  27.378  25.915  1.00  0.00     0.021 C 
BRANCH   2   3
ATOM      3  C   UNL A   1      33.656  27.449  24.402  1.00  0.00     0.116 C 
BRANCH   3   4
ATOM      4  N   UNL A   1      32.287  27.431  23.928  1.00  0.00    -0.354 N 
ATOM      5  C   UNL A   1      31.372  26.421  23.946  1.00  0.00     0.243 C 
ATOM      6  O   UNL A   1      30.183  26.735  23.800  1.00  0.00    -0.273 OA
ATOM      7  H   UNL A   1      31.970  28.275  23.534  1.00  0.00     0.163 HD
BRANCH   5   8
ATOM      8  C   UNL A   1      31.739  24.954  24.255  1.00  0.00     0.181 C 
BRANCH   8   9
ATOM      9  N   UNL A   1      31.175  24.463  25.509  1.00  0.00    -0.338 N 
ATOM     10  C   UNL A   1      31.438  23.350  26.270  1.00  0.00     0.270 C 
ATOM     11  O   UNL A   1      30.843  23.304  27.347  1.00  0.00    -0.268 OA
ATOM     12  H   UNL A   1      30.469  25.040  25.880  1.00  0.00     0.164 HD
BRANCH  10  13
ATOM     13  C   UNL A   1      32.264  22.259  25.793  1.00  0.00     0.126 A 
ATOM     14  N   UNL A   1      33.618  22.139  26.078  1.00  0.00    -0.260 N 
ATOM     15  N   UNL A   1      34.104  20.899  25.830  1.00  0.00    -0.177 NA
ATOM     16  C   UNL A   1      33.121  20.294  25.162  1.00  0.00     0.066 A 
ATOM     17  C   UNL A   1      32.019  21.156  24.994  1.00  0.00     0.059 A 
BRANCH  14  18
ATOM     18  C   UNL A   1      34.488  23.158  26.653  1.00  0.00     0.142 C 
ATOM     19  C   UNL A   1      35.150  24.090  25.646  1.00  0.00     0.029 C 
ENDBRANCH  14  18
BRANCH  16  20
ATOM     20  C   UNL A   1      33.217  18.871  24.696  1.00  0.00     0.034 C 
ATOM     21  C   UNL A   1      32.656  17.901  25.731  1.00  0.00     0.014 C 
ATOM     22  C   UNL A   1      32.575  18.655  23.324  1.00  0.00     0.014 C 
ENDBRANCH  16  20
ENDBRANCH  10  13
ENDBRANCH   8   9
BRANCH   8  23
ATOM     23  C   UNL A   1      31.648  24.007  23.063  1.00  0.00     0.134 C 
BRANCH  23  24
ATOM     24  C   UNL A   1      32.812  24.030  22.118  1.00  0.00     0.220 C 
ATOM     25  N   UNL A   1      32.616  24.720  20.960  1.00  0.00    -0.370 N 
ATOM     26  O   UNL A   1      33.877  23.469  22.346  1.00  0.00    -0.275 OA
ATOM     27  H   UNL A   1      31.755  25.166  20.792  1.00  0.00     0.159 HD
ATOM     28  H   UNL A   1      33.336  24.771  20.289  1.00  0.00     0.159 HD
ENDBRANCH  23  24
ENDBRANCH   8  23
ENDBRANCH   5   8
ENDBRANCH   3   4
ENDBRANCH   2   3
ENDBRANCH   1   2
BRANCH   1  29
ATOM     29  C   UNL A   1      33.363  29.547  27.316  1.00  0.00     0.002 C 
BRANCH  29  30
ATOM     30  C   UNL A   1      34.849  29.591  27.702  1.00  0.00     0.021 C 
BRANCH  30  31
ATOM     31  C   UNL A   1      35.510  30.953  27.576  1.00  0.00     0.116 C 
BRANCH  31  32
ATOM     32  N   UNL A   1      35.174  31.852  28.676  1.00  0.00    -0.352 N 
ATOM     33  C   UNL A   1      35.597  31.787  29.994  1.00  0.00     0.251 C 
ATOM     34  H   UNL A   1      34.572  32.599  28.453  1.00  0.00     0.163 HD
ATOM     35  O   UNL A   1      34.943  32.317  30.875  1.00  0.00    -0.269 OA
BRANCH  33  36
ATOM     36  C   UNL A   1      36.847  31.060  30.300  1.00  0.00     0.039 A 
ATOM     37  C   UNL A   1      36.841  29.737  30.747  1.00  0.00     0.014 A 
ATOM     38  C   UNL A   1      38.050  31.732  30.106  1.00  0.00     0.014 A 
ATOM     39  C   UNL A   1      38.062  29.083  30.917  1.00  0.00     0.010 A 
ATOM     40  C   UNL A   1      39.233  31.041  30.096  1.00  0.00     0.010 A 
ATOM     41  C   UNL A   1      39.257  29.738  30.567  1.00  0.00    -0.014 A 
BRANCH  41  42
ATOM     42  C   UNL A   1      40.543  29.051  30.576  1.00  0.00     0.031 A 
ATOM     43  C   UNL A   1      41.067  28.779  31.935  1.00  0.00     0.074 A 
ATOM     44  C   UNL A   1      41.123  28.522  29.476  1.00  0.00     0.049 A 
ATOM     45  N   UNL A   1      41.976  29.446  32.562  1.00  0.00    -0.248 NA
ATOM     46  C   UNL A   1      40.377  27.788  32.775  1.00  0.00     0.031 C 
ATOM     47  C   UNL A   1      40.596  28.460  28.108  1.00  0.00     0.029 A 
ATOM     48  N   UNL A   1      42.301  27.845  29.371  1.00  0.00    -0.354 N 
ATOM     49  C   UNL A   1      42.174  28.781  33.765  1.00  0.00     0.074 A 
ATOM     50  C   UNL A   1      41.015  27.949  33.938  1.00  0.00     0.031 C 
ATOM     51  C   UNL A   1      41.348  27.617  27.362  1.00  0.00     0.029 A 
ATOM     52  C   UNL A   1      42.510  27.224  28.140  1.00  0.00     0.049 A 
ATOM     53  H   UNL A   1      42.954  27.798  30.106  1.00  0.00     0.167 HD
ATOM     54  C   UNL A   1      43.401  28.779  34.358  1.00  0.00     0.034 A 
ATOM     55  C   UNL A   1      43.576  26.468  27.763  1.00  0.00     0.034 A 
ATOM     56  C   UNL A   1      44.265  29.765  33.733  1.00  0.00     0.049 A 
ATOM     57  C   UNL A   1      44.702  26.875  28.634  1.00  0.00     0.074 A 
ATOM     58  C   UNL A   1      44.221  31.135  33.566  1.00  0.00     0.029 A 
ATOM     59  N   UNL A   1      45.168  29.305  32.797  1.00  0.00    -0.354 N 
ATOM     60  N   UNL A   1      45.225  28.070  28.600  1.00  0.00    -0.248 NA
ATOM     61  C   UNL A   1      44.926  26.142  29.870  1.00  0.00     0.031 C 
ATOM     62  C   UNL A   1      44.716  31.362  32.246  1.00  0.00     0.029 A 
ATOM     63  C   UNL A   1      45.120  30.138  31.706  1.00  0.00     0.049 A 
ATOM     64  H   UNL A   1      45.748  28.515  32.895  1.00  0.00     0.167 HD
ATOM     65  C   UNL A   1      45.430  28.409  29.928  1.00  0.00     0.074 A 
ATOM     66  C   UNL A   1      45.350  27.141  30.653  1.00  0.00     0.031 C 
ATOM     67  C   UNL A   1      45.365  29.711  30.338  1.00  0.00     0.034 A 
BRANCH  54  68
ATOM     68  C   UNL A   1      43.973  27.653  35.197  1.00  0.00     0.023 A 
ATOM     69  C   UNL A   1      44.254  26.446  34.526  1.00  0.00     0.031 A 
ATOM     70  C   UNL A   1      43.988  27.582  36.607  1.00  0.00     0.131 A 
ATOM     71  C   UNL A   1      44.395  25.238  35.229  1.00  0.00     0.055 A 
ATOM     72  C   UNL A   1      44.194  26.387  37.306  1.00  0.00     0.041 A 
ATOM     73  F   UNL A   1      43.724  28.628  37.394  1.00  0.00    -0.206 F 
ATOM     74  C   UNL A   1      44.361  25.199  36.619  1.00  0.00     0.022 A 
BRANCH  71  75
ATOM     75  S   UNL A   1      44.433  23.697  34.282  1.00  0.00     0.124 S 
ATOM     76  O   UNL A   1      45.709  23.127  34.702  1.00  0.00    -0.237 OA
ATOM     77  O   UNL A   1      43.234  23.020  34.762  1.00  0.00    -0.237 OA
ATOM     78  O   UNL A   1      44.380  24.152  32.894  1.00  0.00    -0.744 OA
ENDBRANCH  71  75
ENDBRANCH  54  68
BRANCH  55  79
ATOM     79  C   UNL A   1      43.581  25.237  26.925  1.00  0.00     0.023 A 
ATOM     80  C   UNL A   1      42.787  24.101  27.196  1.00  0.00     0.031 A 
ATOM     81  C   UNL A   1      44.205  25.286  25.659  1.00  0.00     0.131 A 
ATOM     82  C   UNL A   1      42.639  23.084  26.220  1.00  0.00     0.055 A 
ATOM     83  C   UNL A   1      44.051  24.283  24.698  1.00  0.00     0.041 A 
ATOM     84  F   UNL A   1      44.918  26.361  25.282  1.00  0.00    -0.206 F 
ATOM     85  C   UNL A   1      43.258  23.181  24.972  1.00  0.00     0.022 A 
BRANCH  82  86
ATOM     86  S   UNL A   1      41.568  21.637  26.529  1.00  0.00     0.124 S 
ATOM     87  O   UNL A   1      40.255  22.124  26.120  1.00  0.00    -0.237 OA
ATOM     88  O   UNL A   1      42.173  20.613  25.684  1.00  0.00    -0.237 OA
ATOM     89  O   UNL A   1      41.711  21.404  27.967  1.00  0.00    -0.744 OA
ENDBRANCH  82  86
ENDBRANCH  55  79
BRANCH  67  90
ATOM     90  C   UNL A   1      45.367  30.789  29.269  1.00  0.00     0.023 A 
ATOM     91  C   UNL A   1      46.524  31.326  28.654  1.00  0.00     0.031 A 
ATOM     92  C   UNL A   1      44.118  31.214  28.784  1.00  0.00     0.131 A 
ATOM     93  C   UNL A   1      46.398  32.262  27.606  1.00  0.00     0.055 A 
ATOM     94  C   UNL A   1      43.998  32.122  27.732  1.00  0.00     0.041 A 
ATOM     95  F   UNL A   1      42.983  30.724  29.308  1.00  0.00    -0.206 F 
ATOM     96  C   UNL A   1      45.139  32.654  27.143  1.00  0.00     0.022 A 
BRANCH  93  97
ATOM     97  S   UNL A   1      47.876  33.001  26.832  1.00  0.00     0.124 S 
ATOM     98  O   UNL A   1      47.332  33.751  25.706  1.00  0.00    -0.237 OA
ATOM     99  O   UNL A   1      48.440  33.799  27.917  1.00  0.00    -0.237 OA
ATOM    100  O   UNL A   1      48.682  31.838  26.456  1.00  0.00    -0.744 OA
ENDBRANCH  93  97
ENDBRANCH  67  90
ENDBRANCH  41  42
ENDBRANCH  33  36
ENDBRANCH  31  32
ENDBRANCH  30  31
ENDBRANCH  29  30
ENDBRANCH   1  29
TORSDOF 22
ENDMDL
