MODEL 1
REMARK VINA RESULT:     -11.1      0.000      0.000
REMARK SMILES CCSc1ccc(-c2cc(Cl)cc3c2O[C@H](C(F)(F)F)C(C(=O)NCCCCCCNC(=O)c2ccc(-c4c5nc(c(-c6cc(S(=O)(=O)[O-])ccc6F)c6ccc([nH]6)c(-c6cc(S(=O)(=O)[O-])ccc6F)c6nc(c(-c7cc(S(=O)(=O)[O-])ccc7F)c7ccc4[nH]7)C=C6)C=C5)cc2)=C3)cc1
REMARK SMILES IDX 27 1 26 2 25 3 24 4 22 5 23 6 21 8 8 9 9 10 14 11 10 12
REMARK SMILES IDX 13 13 15 14 11 15 12 16 97 17 16 18 7 19 4 20 5 21 99 22
REMARK SMILES IDX 6 23 98 24 3 25 2 26 1 27 17 28 18 29 19 30 20 31 28 32
REMARK SMILES IDX 29 33 30 34 31 35 32 36 33 38 34 39 35 40 96 41 36 42 95 43
REMARK SMILES IDX 37 44 38 45 39 46 89 47 40 48 94 49 88 50 90 51 41 52 93 53
REMARK SMILES IDX 87 54 86 55 42 57 74 58 54 59 73 60 55 61 58 62 72 63 91 64
REMARK SMILES IDX 56 65 57 66 71 68 92 69 59 70 43 71 44 72 52 73 45 74 51 75
REMARK SMILES IDX 53 76 50 77 46 78 47 79 48 80 49 81 75 82 76 83 84 84 77 85
REMARK SMILES IDX 83 86 85 87 82 88 78 89 79 90 80 91 81 92 60 93 61 94 69 95
REMARK SMILES IDX 62 96 68 97 70 98 67 99 63 100 64 101 65 102 66 103
REMARK H PARENT 24 7 31 37 90 56 58 67
REMARK Flexibility Score: inf
ROOT
ATOM      1  C   UNL A   1      35.512  24.507  25.404  1.00  0.00     0.002 C 
ENDROOT
BRANCH   1   2
ATOM      2  C   UNL A   1      34.142  25.203  25.333  1.00  0.00     0.021 C 
BRANCH   2   3
ATOM      3  C   UNL A   1      33.153  24.779  26.427  1.00  0.00     0.116 C 
BRANCH   3   4
ATOM      4  N   UNL A   1      32.150  25.808  26.603  1.00  0.00    -0.352 N 
ATOM      5  C   UNL A   1      31.088  26.000  25.785  1.00  0.00     0.251 C 
ATOM      6  O   UNL A   1      30.850  27.114  25.331  1.00  0.00    -0.270 OA
ATOM      7  H   UNL A   1      32.245  26.412  27.375  1.00  0.00     0.163 HD
BRANCH   5   8
ATOM      8  C   UNL A   1      30.163  24.839  25.632  1.00  0.00     0.067 C 
ATOM      9  C   UNL A   1      32.502  22.521  23.276  1.00  0.00     0.026 A 
ATOM     10  C   UNL A   1      33.060  23.380  22.292  1.00  0.00     0.033 A 
ATOM     11  C   UNL A   1      31.434  23.038  24.023  1.00  0.00     0.135 A 
ATOM     12  C   UNL A   1      32.472  24.590  21.936  1.00  0.00     0.042 A 
ATOM     13  C   UNL A   1      30.780  24.209  23.566  1.00  0.00     0.019 A 
ATOM     14  O   UNL A   1      31.017  22.499  25.235  1.00  0.00    -0.475 OA
ATOM     15  Cl  UNL A   1      33.212  25.582  20.745  1.00  0.00    -0.084 Cl
ATOM     16  C   UNL A   1      31.279  24.974  22.515  1.00  0.00     0.032 A 
ATOM     17  C   UNL A   1      29.666  24.734  24.384  1.00  0.00     0.025 C 
ATOM     18  C   UNL A   1      30.655  23.539  26.249  1.00  0.00     0.314 C 
BRANCH   9  19
ATOM     19  C   UNL A   1      32.954  21.108  23.185  1.00  0.00    -0.015 A 
ATOM     20  C   UNL A   1      32.938  18.351  23.920  1.00  0.00     0.007 A 
ATOM     21  C   UNL A   1      32.183  18.813  22.836  1.00  0.00     0.015 A 
ATOM     22  C   UNL A   1      33.785  19.255  24.562  1.00  0.00     0.015 A 
ATOM     23  C   UNL A   1      32.206  20.165  22.457  1.00  0.00     0.010 A 
ATOM     24  C   UNL A   1      33.810  20.612  24.184  1.00  0.00     0.010 A 
BRANCH  20  25
ATOM     25  S   UNL A   1      32.618  16.668  24.445  1.00  0.00    -0.126 SA
BRANCH  25  26
ATOM     26  C   UNL A   1      33.864  16.322  25.729  1.00  0.00     0.071 C 
ATOM     27  C   UNL A   1      35.181  15.867  25.130  1.00  0.00     0.016 C 
ENDBRANCH  25  26
ENDBRANCH  20  25
ENDBRANCH   9  19
BRANCH  18  28
ATOM     28  C   UNL A   1      29.574  23.043  27.236  1.00  0.00     0.429 C 
ATOM     29  F   UNL A   1      30.100  22.549  28.378  1.00  0.00    -0.167 F 
ATOM     30  F   UNL A   1      28.720  24.039  27.572  1.00  0.00    -0.167 F 
ATOM     31  F   UNL A   1      28.806  22.052  26.706  1.00  0.00    -0.167 F 
ENDBRANCH  18  28
ENDBRANCH   5   8
ENDBRANCH   3   4
ENDBRANCH   2   3
ENDBRANCH   1   2
BRANCH   1  32
ATOM     32  C   UNL A   1      35.911  23.748  24.137  1.00  0.00     0.002 C 
BRANCH  32  33
ATOM     33  C   UNL A   1      36.823  22.547  24.383  1.00  0.00     0.021 C 
BRANCH  33  34
ATOM     34  C   UNL A   1      37.080  22.242  25.853  1.00  0.00     0.116 C 
BRANCH  34  35
ATOM     35  N   UNL A   1      38.120  21.243  26.032  1.00  0.00    -0.352 N 
ATOM     36  C   UNL A   1      39.441  21.423  26.342  1.00  0.00     0.251 C 
ATOM     37  H   UNL A   1      37.835  20.308  25.913  1.00  0.00     0.163 HD
ATOM     38  O   UNL A   1      40.220  20.470  26.253  1.00  0.00    -0.269 OA
BRANCH  36  39
ATOM     39  C   UNL A   1      39.931  22.755  26.755  1.00  0.00     0.039 A 
ATOM     40  C   UNL A   1      40.818  22.842  27.829  1.00  0.00     0.014 A 
ATOM     41  C   UNL A   1      39.506  23.915  26.100  1.00  0.00     0.014 A 
ATOM     42  C   UNL A   1      41.302  24.089  28.225  1.00  0.00     0.010 A 
ATOM     43  C   UNL A   1      40.058  25.147  26.439  1.00  0.00     0.010 A 
ATOM     44  C   UNL A   1      40.943  25.251  27.522  1.00  0.00    -0.014 A 
BRANCH  44  45
ATOM     45  C   UNL A   1      41.452  26.582  27.944  1.00  0.00     0.031 A 
ATOM     46  C   UNL A   1      42.871  26.979  27.631  1.00  0.00     0.074 A 
ATOM     47  C   UNL A   1      40.646  27.423  28.620  1.00  0.00     0.049 A 
ATOM     48  N   UNL A   1      43.505  28.087  27.921  1.00  0.00    -0.248 NA
ATOM     49  C   UNL A   1      43.696  25.985  26.927  1.00  0.00     0.031 C 
ATOM     50  C   UNL A   1      39.267  27.131  29.020  1.00  0.00     0.029 A 
ATOM     51  N   UNL A   1      40.863  28.694  29.090  1.00  0.00    -0.354 N 
ATOM     52  C   UNL A   1      44.799  27.922  27.437  1.00  0.00     0.074 A 
ATOM     53  C   UNL A   1      44.880  26.577  26.912  1.00  0.00     0.031 C 
ATOM     54  C   UNL A   1      38.752  28.204  29.639  1.00  0.00     0.029 A 
ATOM     55  C   UNL A   1      39.774  29.244  29.724  1.00  0.00     0.049 A 
ATOM     56  H   UNL A   1      41.719  29.168  28.982  1.00  0.00     0.167 HD
ATOM     57  C   UNL A   1      45.815  28.820  27.403  1.00  0.00     0.034 A 
ATOM     58  C   UNL A   1      39.616  30.446  30.311  1.00  0.00     0.034 A 
ATOM     59  C   UNL A   1      45.714  30.159  27.931  1.00  0.00     0.049 A 
ATOM     60  C   UNL A   1      40.767  31.422  30.284  1.00  0.00     0.074 A 
ATOM     61  C   UNL A   1      46.665  31.163  27.922  1.00  0.00     0.029 A 
ATOM     62  N   UNL A   1      44.594  30.680  28.568  1.00  0.00    -0.354 N 
ATOM     63  N   UNL A   1      41.969  31.268  29.777  1.00  0.00    -0.248 NA
ATOM     64  C   UNL A   1      40.531  32.738  30.886  1.00  0.00     0.031 C 
ATOM     65  C   UNL A   1      46.151  32.262  28.618  1.00  0.00     0.029 A 
ATOM     66  C   UNL A   1      44.843  31.981  28.982  1.00  0.00     0.049 A 
ATOM     67  H   UNL A   1      43.748  30.197  28.708  1.00  0.00     0.167 HD
ATOM     68  C   UNL A   1      42.621  32.484  29.972  1.00  0.00     0.074 A 
ATOM     69  C   UNL A   1      41.669  33.361  30.622  1.00  0.00     0.031 C 
ATOM     70  C   UNL A   1      43.888  32.844  29.641  1.00  0.00     0.034 A 
BRANCH  57  71
ATOM     71  C   UNL A   1      47.124  28.365  26.796  1.00  0.00     0.023 A 
ATOM     72  C   UNL A   1      47.307  28.297  25.403  1.00  0.00     0.031 A 
ATOM     73  C   UNL A   1      48.190  27.959  27.616  1.00  0.00     0.131 A 
ATOM     74  C   UNL A   1      48.488  27.755  24.874  1.00  0.00     0.055 A 
ATOM     75  C   UNL A   1      49.400  27.507  27.083  1.00  0.00     0.041 A 
ATOM     76  F   UNL A   1      48.071  27.976  28.954  1.00  0.00    -0.206 F 
ATOM     77  C   UNL A   1      49.548  27.387  25.705  1.00  0.00     0.022 A 
BRANCH  74  78
ATOM     78  S   UNL A   1      48.553  27.387  23.099  1.00  0.00     0.124 S 
ATOM     79  O   UNL A   1      48.353  25.939  23.092  1.00  0.00    -0.237 OA
ATOM     80  O   UNL A   1      47.455  28.187  22.570  1.00  0.00    -0.237 OA
ATOM     81  O   UNL A   1      49.892  27.823  22.708  1.00  0.00    -0.744 OA
ENDBRANCH  74  78
ENDBRANCH  57  71
BRANCH  58  82
ATOM     82  C   UNL A   1      38.329  30.799  30.979  1.00  0.00     0.023 A 
ATOM     83  C   UNL A   1      37.316  31.489  30.295  1.00  0.00     0.031 A 
ATOM     84  C   UNL A   1      38.111  30.482  32.333  1.00  0.00     0.131 A 
ATOM     85  C   UNL A   1      36.155  31.885  30.978  1.00  0.00     0.055 A 
ATOM     86  C   UNL A   1      36.929  30.826  32.991  1.00  0.00     0.041 A 
ATOM     87  F   UNL A   1      39.044  29.820  33.035  1.00  0.00    -0.206 F 
ATOM     88  C   UNL A   1      35.948  31.545  32.316  1.00  0.00     0.022 A 
BRANCH  85  89
ATOM     89  S   UNL A   1      34.955  32.938  30.114  1.00  0.00     0.124 S 
ATOM     90  O   UNL A   1      34.408  32.016  29.126  1.00  0.00    -0.237 OA
ATOM     91  O   UNL A   1      34.058  33.326  31.198  1.00  0.00    -0.237 OA
ATOM     92  O   UNL A   1      35.779  34.017  29.574  1.00  0.00    -0.744 OA
ENDBRANCH  85  89
ENDBRANCH  58  82
BRANCH  70  93
ATOM     93  C   UNL A   1      44.294  34.270  29.932  1.00  0.00     0.023 A 
ATOM     94  C   UNL A   1      44.088  35.307  29.006  1.00  0.00     0.031 A 
ATOM     95  C   UNL A   1      44.925  34.589  31.148  1.00  0.00     0.131 A 
ATOM     96  C   UNL A   1      44.573  36.595  29.277  1.00  0.00     0.055 A 
ATOM     97  C   UNL A   1      45.339  35.888  31.445  1.00  0.00     0.041 A 
ATOM     98  F   UNL A   1      45.153  33.641  32.071  1.00  0.00    -0.206 F 
ATOM     99  C   UNL A   1      45.180  36.897  30.499  1.00  0.00     0.022 A 
BRANCH  96 100
ATOM    100  S   UNL A   1      44.518  37.841  27.960  1.00  0.00     0.124 S 
ATOM    101  O   UNL A   1      43.464  37.320  27.094  1.00  0.00    -0.237 OA
ATOM    102  O   UNL A   1      44.192  39.058  28.697  1.00  0.00    -0.237 OA
ATOM    103  O   UNL A   1      45.863  37.800  27.392  1.00  0.00    -0.744 OA
ENDBRANCH  96 100
ENDBRANCH  70  93
ENDBRANCH  44  45
ENDBRANCH  36  39
ENDBRANCH  34  35
ENDBRANCH  33  34
ENDBRANCH  32  33
ENDBRANCH   1  32
TORSDOF 20
ENDMDL
MODEL 2
REMARK VINA RESULT:     -10.9      5.031      9.579
REMARK SMILES CCSc1ccc(-c2cc(Cl)cc3c2O[C@H](C(F)(F)F)C(C(=O)NCCCCCCNC(=O)c2ccc(-c4c5nc(c(-c6cc(S(=O)(=O)[O-])ccc6F)c6ccc([nH]6)c(-c6cc(S(=O)(=O)[O-])ccc6F)c6nc(c(-c7cc(S(=O)(=O)[O-])ccc7F)c7ccc4[nH]7)C=C6)C=C5)cc2)=C3)cc1
REMARK SMILES IDX 27 1 26 2 25 3 24 4 22 5 23 6 21 8 8 9 9 10 14 11 10 12
REMARK SMILES IDX 13 13 15 14 11 15 12 16 97 17 16 18 7 19 4 20 5 21 99 22
REMARK SMILES IDX 6 23 98 24 3 25 2 26 1 27 17 28 18 29 19 30 20 31 28 32
REMARK SMILES IDX 29 33 30 34 31 35 32 36 33 38 34 39 35 40 96 41 36 42 95 43
REMARK SMILES IDX 37 44 38 45 39 46 89 47 40 48 94 49 88 50 90 51 41 52 93 53
REMARK SMILES IDX 87 54 86 55 42 57 74 58 54 59 73 60 55 61 58 62 72 63 91 64
REMARK SMILES IDX 56 65 57 66 71 68 92 69 59 70 43 71 44 72 52 73 45 74 51 75
REMARK SMILES IDX 53 76 50 77 46 78 47 79 48 80 49 81 75 82 76 83 84 84 77 85
REMARK SMILES IDX 83 86 85 87 82 88 78 89 79 90 80 91 81 92 60 93 61 94 69 95
REMARK SMILES IDX 62 96 68 97 70 98 67 99 63 100 64 101 65 102 66 103
REMARK H PARENT 24 7 31 37 90 56 58 67
REMARK Flexibility Score: inf
ROOT
ATOM      1  C   UNL A   1      32.992  29.489  26.607  1.00  0.00     0.002 C 
ENDROOT
BRANCH   1   2
ATOM      2  C   UNL A   1      33.693  28.157  26.926  1.00  0.00     0.021 C 
BRANCH   2   3
ATOM      3  C   UNL A   1      34.462  27.542  25.748  1.00  0.00     0.116 C 
BRANCH   3   4
ATOM      4  N   UNL A   1      33.595  26.642  25.017  1.00  0.00    -0.352 N 
ATOM      5  C   UNL A   1      34.023  25.649  24.202  1.00  0.00     0.251 C 
ATOM      6  O   UNL A   1      33.581  25.550  23.063  1.00  0.00    -0.270 OA
ATOM      7  H   UNL A   1      32.623  26.759  25.120  1.00  0.00     0.163 HD
BRANCH   5   8
ATOM      8  C   UNL A   1      34.899  24.618  24.832  1.00  0.00     0.067 C 
ATOM      9  C   UNL A   1      32.206  21.604  25.058  1.00  0.00     0.026 A 
ATOM     10  C   UNL A   1      30.994  22.180  25.523  1.00  0.00     0.033 A 
ATOM     11  C   UNL A   1      33.360  22.393  25.179  1.00  0.00     0.135 A 
ATOM     12  C   UNL A   1      30.960  23.373  26.240  1.00  0.00     0.042 A 
ATOM     13  C   UNL A   1      33.323  23.537  26.013  1.00  0.00     0.019 A 
ATOM     14  O   UNL A   1      34.529  22.150  24.467  1.00  0.00    -0.475 OA
ATOM     15  Cl  UNL A   1      29.454  24.015  26.759  1.00  0.00    -0.084 Cl
ATOM     16  C   UNL A   1      32.138  24.018  26.561  1.00  0.00     0.032 A 
ATOM     17  C   UNL A   1      34.552  24.354  26.107  1.00  0.00     0.025 C 
ATOM     18  C   UNL A   1      35.184  23.401  23.968  1.00  0.00     0.314 C 
BRANCH   9  19
ATOM     19  C   UNL A   1      32.122  20.150  24.763  1.00  0.00    -0.015 A 
ATOM     20  C   UNL A   1      33.187  17.612  24.007  1.00  0.00     0.007 A 
ATOM     21  C   UNL A   1      33.043  17.963  25.354  1.00  0.00     0.015 A 
ATOM     22  C   UNL A   1      32.691  18.493  23.045  1.00  0.00     0.015 A 
ATOM     23  C   UNL A   1      32.499  19.201  25.730  1.00  0.00     0.010 A 
ATOM     24  C   UNL A   1      32.144  19.736  23.419  1.00  0.00     0.010 A 
BRANCH  20  25
ATOM     25  S   UNL A   1      34.124  16.123  23.674  1.00  0.00    -0.126 SA
BRANCH  25  26
ATOM     26  C   UNL A   1      34.675  15.529  25.306  1.00  0.00     0.071 C 
ATOM     27  C   UNL A   1      36.089  15.977  25.622  1.00  0.00     0.016 C 
ENDBRANCH  25  26
ENDBRANCH  20  25
ENDBRANCH   9  19
BRANCH  18  28
ATOM     28  C   UNL A   1      36.719  23.250  23.850  1.00  0.00     0.429 C 
ATOM     29  F   UNL A   1      37.140  21.996  24.125  1.00  0.00    -0.167 F 
ATOM     30  F   UNL A   1      37.150  23.567  22.606  1.00  0.00    -0.167 F 
ATOM     31  F   UNL A   1      37.385  24.075  24.702  1.00  0.00    -0.167 F 
ENDBRANCH  18  28
ENDBRANCH   5   8
ENDBRANCH   3   4
ENDBRANCH   2   3
ENDBRANCH   1   2
BRANCH   1  32
ATOM     32  C   UNL A   1      33.438  30.669  27.471  1.00  0.00     0.002 C 
BRANCH  32  33
ATOM     33  C   UNL A   1      32.503  31.876  27.420  1.00  0.00     0.021 C 
BRANCH  33  34
ATOM     34  C   UNL A   1      33.203  33.205  27.170  1.00  0.00     0.116 C 
BRANCH  34  35
ATOM     35  N   UNL A   1      32.805  34.223  28.129  1.00  0.00    -0.352 N 
ATOM     36  C   UNL A   1      33.309  34.472  29.377  1.00  0.00     0.251 C 
ATOM     37  H   UNL A   1      32.073  34.813  27.840  1.00  0.00     0.163 HD
ATOM     38  O   UNL A   1      32.710  35.247  30.128  1.00  0.00    -0.269 OA
BRANCH  36  39
ATOM     39  C   UNL A   1      34.545  33.799  29.826  1.00  0.00     0.039 A 
ATOM     40  C   UNL A   1      34.438  32.687  30.663  1.00  0.00     0.014 A 
ATOM     41  C   UNL A   1      35.804  34.269  29.440  1.00  0.00     0.014 A 
ATOM     42  C   UNL A   1      35.594  32.029  31.087  1.00  0.00     0.010 A 
ATOM     43  C   UNL A   1      36.949  33.560  29.791  1.00  0.00     0.010 A 
ATOM     44  C   UNL A   1      36.859  32.447  30.639  1.00  0.00    -0.014 A 
BRANCH  44  45
ATOM     45  C   UNL A   1      38.092  31.752  31.093  1.00  0.00     0.031 A 
ATOM     46  C   UNL A   1      38.725  32.126  32.408  1.00  0.00     0.074 A 
ATOM     47  C   UNL A   1      38.648  30.801  30.319  1.00  0.00     0.049 A 
ATOM     48  N   UNL A   1      39.804  31.646  32.974  1.00  0.00    -0.248 NA
ATOM     49  C   UNL A   1      38.077  33.203  33.172  1.00  0.00     0.031 C 
ATOM     50  C   UNL A   1      38.150  30.387  29.004  1.00  0.00     0.029 A 
ATOM     51  N   UNL A   1      39.750  30.009  30.519  1.00  0.00    -0.354 N 
ATOM     52  C   UNL A   1      39.963  32.363  34.156  1.00  0.00     0.074 A 
ATOM     53  C   UNL A   1      38.919  33.364  34.181  1.00  0.00     0.031 C 
ATOM     54  C   UNL A   1      38.921  29.392  28.537  1.00  0.00     0.029 A 
ATOM     55  C   UNL A   1      39.993  29.129  29.491  1.00  0.00     0.049 A 
ATOM     56  H   UNL A   1      40.313  30.064  31.325  1.00  0.00     0.167 HD
ATOM     57  C   UNL A   1      40.874  32.182  35.145  1.00  0.00     0.034 A 
ATOM     58  C   UNL A   1      40.972  28.216  29.332  1.00  0.00     0.034 A 
ATOM     59  C   UNL A   1      41.907  31.175  35.102  1.00  0.00     0.049 A 
ATOM     60  C   UNL A   1      41.990  28.047  30.432  1.00  0.00     0.074 A 
ATOM     61  C   UNL A   1      42.862  30.879  36.058  1.00  0.00     0.029 A 
ATOM     62  N   UNL A   1      42.125  30.303  34.042  1.00  0.00    -0.354 N 
ATOM     63  N   UNL A   1      42.097  28.699  31.567  1.00  0.00    -0.248 NA
ATOM     64  C   UNL A   1      43.003  27.004  30.239  1.00  0.00     0.031 C 
ATOM     65  C   UNL A   1      43.701  29.883  35.547  1.00  0.00     0.029 A 
ATOM     66  C   UNL A   1      43.216  29.489  34.310  1.00  0.00     0.049 A 
ATOM     67  H   UNL A   1      41.585  30.268  33.220  1.00  0.00     0.167 HD
ATOM     68  C   UNL A   1      43.172  28.120  32.238  1.00  0.00     0.074 A 
ATOM     69  C   UNL A   1      43.661  27.054  31.387  1.00  0.00     0.031 C 
ATOM     70  C   UNL A   1      43.703  28.436  33.448  1.00  0.00     0.034 A 
BRANCH  57  71
ATOM     71  C   UNL A   1      40.799  33.110  36.336  1.00  0.00     0.023 A 
ATOM     72  C   UNL A   1      40.049  32.784  37.481  1.00  0.00     0.031 A 
ATOM     73  C   UNL A   1      41.455  34.354  36.317  1.00  0.00     0.131 A 
ATOM     74  C   UNL A   1      39.902  33.720  38.516  1.00  0.00     0.055 A 
ATOM     75  C   UNL A   1      41.380  35.244  37.392  1.00  0.00     0.041 A 
ATOM     76  F   UNL A   1      42.168  34.736  35.245  1.00  0.00    -0.206 F 
ATOM     77  C   UNL A   1      40.587  34.936  38.492  1.00  0.00     0.022 A 
BRANCH  74  78
ATOM     78  S   UNL A   1      38.675  33.392  39.811  1.00  0.00     0.124 S 
ATOM     79  O   UNL A   1      38.664  34.663  40.533  1.00  0.00    -0.237 OA
ATOM     80  O   UNL A   1      37.476  33.085  39.041  1.00  0.00    -0.237 OA
ATOM     81  O   UNL A   1      39.250  32.270  40.551  1.00  0.00    -0.744 OA
ENDBRANCH  74  78
ENDBRANCH  57  71
BRANCH  58  82
ATOM     82  C   UNL A   1      41.047  27.396  28.086  1.00  0.00     0.023 A 
ATOM     83  C   UNL A   1      40.776  26.019  28.102  1.00  0.00     0.031 A 
ATOM     84  C   UNL A   1      41.432  27.978  26.864  1.00  0.00     0.131 A 
ATOM     85  C   UNL A   1      40.943  25.260  26.933  1.00  0.00     0.055 A 
ATOM     86  C   UNL A   1      41.539  27.229  25.691  1.00  0.00     0.041 A 
ATOM     87  F   UNL A   1      41.699  29.291  26.791  1.00  0.00    -0.206 F 
ATOM     88  C   UNL A   1      41.307  25.858  25.725  1.00  0.00     0.022 A 
BRANCH  85  89
ATOM     89  S   UNL A   1      40.769  23.457  27.035  1.00  0.00     0.124 S 
ATOM     90  O   UNL A   1      39.326  23.290  26.901  1.00  0.00    -0.237 OA
ATOM     91  O   UNL A   1      41.575  23.010  25.904  1.00  0.00    -0.237 OA
ATOM     92  O   UNL A   1      41.316  23.137  28.351  1.00  0.00    -0.744 OA
ENDBRANCH  85  89
ENDBRANCH  58  82
BRANCH  70  93
ATOM     93  C   UNL A   1      44.844  27.578  33.941  1.00  0.00     0.023 A 
ATOM     94  C   UNL A   1      46.185  27.882  33.649  1.00  0.00     0.031 A 
ATOM     95  C   UNL A   1      44.581  26.418  34.694  1.00  0.00     0.131 A 
ATOM     96  C   UNL A   1      47.205  27.001  34.041  1.00  0.00     0.055 A 
ATOM     97  C   UNL A   1      45.605  25.585  35.147  1.00  0.00     0.041 A 
ATOM     98  F   UNL A   1      43.320  26.074  35.002  1.00  0.00    -0.206 F 
ATOM     99  C   UNL A   1      46.925  25.865  34.805  1.00  0.00     0.022 A 
BRANCH  96 100
ATOM    100  S   UNL A   1      48.888  27.291  33.430  1.00  0.00     0.124 S 
ATOM    101  O   UNL A   1      49.404  28.246  34.405  1.00  0.00    -0.237 OA
ATOM    102  O   UNL A   1      49.470  25.954  33.477  1.00  0.00    -0.237 OA
ATOM    103  O   UNL A   1      48.677  27.829  32.088  1.00  0.00    -0.744 OA
ENDBRANCH  96 100
ENDBRANCH  70  93
ENDBRANCH  44  45
ENDBRANCH  36  39
ENDBRANCH  34  35
ENDBRANCH  33  34
ENDBRANCH  32  33
ENDBRANCH   1  32
TORSDOF 20
ENDMDL
MODEL 3
REMARK VINA RESULT:     -10.9      5.482      9.793
REMARK SMILES CCSc1ccc(-c2cc(Cl)cc3c2O[C@H](C(F)(F)F)C(C(=O)NCCCCCCNC(=O)c2ccc(-c4c5nc(c(-c6cc(S(=O)(=O)[O-])ccc6F)c6ccc([nH]6)c(-c6cc(S(=O)(=O)[O-])ccc6F)c6nc(c(-c7cc(S(=O)(=O)[O-])ccc7F)c7ccc4[nH]7)C=C6)C=C5)cc2)=C3)cc1
REMARK SMILES IDX 27 1 26 2 25 3 24 4 22 5 23 6 21 8 8 9 9 10 14 11 10 12
REMARK SMILES IDX 13 13 15 14 11 15 12 16 97 17 16 18 7 19 4 20 5 21 99 22
REMARK SMILES IDX 6 23 98 24 3 25 2 26 1 27 17 28 18 29 19 30 20 31 28 32
REMARK SMILES IDX 29 33 30 34 31 35 32 36 33 38 34 39 35 40 96 41 36 42 95 43
REMARK SMILES IDX 37 44 38 45 39 46 89 47 40 48 94 49 88 50 90 51 41 52 93 53
REMARK SMILES IDX 87 54 86 55 42 57 74 58 54 59 73 60 55 61 58 62 72 63 91 64
REMARK SMILES IDX 56 65 57 66 71 68 92 69 59 70 43 71 44 72 52 73 45 74 51 75
REMARK SMILES IDX 53 76 50 77 46 78 47 79 48 80 49 81 75 82 76 83 84 84 77 85
REMARK SMILES IDX 83 86 85 87 82 88 78 89 79 90 80 91 81 92 60 93 61 94 69 95
REMARK SMILES IDX 62 96 68 97 70 98 67 99 63 100 64 101 65 102 66 103
REMARK H PARENT 24 7 31 37 90 56 58 67
REMARK Flexibility Score: inf
ROOT
ATOM      1  C   UNL A   1      32.916  29.480  26.795  1.00  0.00     0.002 C 
ENDROOT
BRANCH   1   2
ATOM      2  C   UNL A   1      33.647  28.136  26.961  1.00  0.00     0.021 C 
BRANCH   2   3
ATOM      3  C   UNL A   1      34.419  27.673  25.718  1.00  0.00     0.116 C 
BRANCH   3   4
ATOM      4  N   UNL A   1      33.593  26.774  24.938  1.00  0.00    -0.352 N 
ATOM      5  C   UNL A   1      34.065  25.783  24.145  1.00  0.00     0.251 C 
ATOM      6  O   UNL A   1      33.686  25.687  22.983  1.00  0.00    -0.270 OA
ATOM      7  H   UNL A   1      32.617  26.891  24.989  1.00  0.00     0.163 HD
BRANCH   5   8
ATOM      8  C   UNL A   1      34.906  24.752  24.819  1.00  0.00     0.067 C 
ATOM      9  C   UNL A   1      32.161  21.783  25.019  1.00  0.00     0.026 A 
ATOM     10  C   UNL A   1      30.945  22.386  25.437  1.00  0.00     0.033 A 
ATOM     11  C   UNL A   1      33.322  22.557  25.159  1.00  0.00     0.135 A 
ATOM     12  C   UNL A   1      30.909  23.592  26.131  1.00  0.00     0.042 A 
ATOM     13  C   UNL A   1      33.279  23.716  25.972  1.00  0.00     0.019 A 
ATOM     14  O   UNL A   1      34.508  22.283  24.488  1.00  0.00    -0.475 OA
ATOM     15  Cl  UNL A   1      29.398  24.266  26.593  1.00  0.00    -0.084 Cl
ATOM     16  C   UNL A   1      32.086  24.225  26.475  1.00  0.00     0.032 A 
ATOM     17  C   UNL A   1      34.517  24.516  26.088  1.00  0.00     0.025 C 
ATOM     18  C   UNL A   1      35.197  23.514  23.986  1.00  0.00     0.314 C 
BRANCH   9  19
ATOM     19  C   UNL A   1      32.062  20.325  24.747  1.00  0.00    -0.015 A 
ATOM     20  C   UNL A   1      33.099  17.769  24.016  1.00  0.00     0.007 A 
ATOM     21  C   UNL A   1      32.976  18.141  25.360  1.00  0.00     0.015 A 
ATOM     22  C   UNL A   1      32.597  18.638  23.048  1.00  0.00     0.015 A 
ATOM     23  C   UNL A   1      32.445  19.388  25.724  1.00  0.00     0.010 A 
ATOM     24  C   UNL A   1      32.064  19.890  23.409  1.00  0.00     0.010 A 
BRANCH  20  25
ATOM     25  S   UNL A   1      34.022  16.267  23.694  1.00  0.00    -0.126 SA
BRANCH  25  26
ATOM     26  C   UNL A   1      34.073  15.385  25.289  1.00  0.00     0.071 C 
ATOM     27  C   UNL A   1      32.805  14.591  25.535  1.00  0.00     0.016 C 
ENDBRANCH  25  26
ENDBRANCH  20  25
ENDBRANCH   9  19
BRANCH  18  28
ATOM     28  C   UNL A   1      36.732  23.338  23.917  1.00  0.00     0.429 C 
ATOM     29  F   UNL A   1      37.117  22.057  24.105  1.00  0.00    -0.167 F 
ATOM     30  F   UNL A   1      37.220  23.744  22.721  1.00  0.00    -0.167 F 
ATOM     31  F   UNL A   1      37.380  24.076  24.858  1.00  0.00    -0.167 F 
ENDBRANCH  18  28
ENDBRANCH   5   8
ENDBRANCH   3   4
ENDBRANCH   2   3
ENDBRANCH   1   2
BRANCH   1  32
ATOM     32  C   UNL A   1      33.643  30.682  27.400  1.00  0.00     0.002 C 
BRANCH  32  33
ATOM     33  C   UNL A   1      32.737  31.871  27.718  1.00  0.00     0.021 C 
BRANCH  33  34
ATOM     34  C   UNL A   1      33.272  33.215  27.241  1.00  0.00     0.116 C 
BRANCH  34  35
ATOM     35  N   UNL A   1      32.838  34.310  28.094  1.00  0.00    -0.352 N 
ATOM     36  C   UNL A   1      33.288  34.662  29.337  1.00  0.00     0.251 C 
ATOM     37  H   UNL A   1      32.123  34.876  27.724  1.00  0.00     0.163 HD
ATOM     38  O   UNL A   1      32.663  35.498  29.994  1.00  0.00    -0.269 OA
BRANCH  36  39
ATOM     39  C   UNL A   1      34.499  34.025  29.895  1.00  0.00     0.039 A 
ATOM     40  C   UNL A   1      34.352  33.042  30.876  1.00  0.00     0.014 A 
ATOM     41  C   UNL A   1      35.776  34.405  29.470  1.00  0.00     0.014 A 
ATOM     42  C   UNL A   1      35.483  32.420  31.405  1.00  0.00     0.010 A 
ATOM     43  C   UNL A   1      36.896  33.722  29.934  1.00  0.00     0.010 A 
ATOM     44  C   UNL A   1      36.765  32.739  30.925  1.00  0.00    -0.014 A 
BRANCH  44  45
ATOM     45  C   UNL A   1      37.972  32.082  31.490  1.00  0.00     0.031 A 
ATOM     46  C   UNL A   1      38.525  32.537  32.816  1.00  0.00     0.074 A 
ATOM     47  C   UNL A   1      38.578  31.093  30.807  1.00  0.00     0.049 A 
ATOM     48  N   UNL A   1      39.570  32.100  33.471  1.00  0.00    -0.248 NA
ATOM     49  C   UNL A   1      37.828  33.652  33.476  1.00  0.00     0.031 C 
ATOM     50  C   UNL A   1      38.160  30.598  29.492  1.00  0.00     0.029 A 
ATOM     51  N   UNL A   1      39.669  30.322  31.117  1.00  0.00    -0.354 N 
ATOM     52  C   UNL A   1      39.656  32.886  34.617  1.00  0.00     0.074 A 
ATOM     53  C   UNL A   1      38.607  33.878  34.522  1.00  0.00     0.031 C 
ATOM     54  C   UNL A   1      38.961  29.585  29.130  1.00  0.00     0.029 A 
ATOM     55  C   UNL A   1      39.977  29.386  30.159  1.00  0.00     0.049 A 
ATOM     56  H   UNL A   1      40.184  30.429  31.950  1.00  0.00     0.167 HD
ATOM     57  C   UNL A   1      40.508  32.770  35.666  1.00  0.00     0.034 A 
ATOM     58  C   UNL A   1      40.968  28.474  30.111  1.00  0.00     0.034 A 
ATOM     59  C   UNL A   1      41.547  31.771  35.743  1.00  0.00     0.049 A 
ATOM     60  C   UNL A   1      41.920  28.377  31.277  1.00  0.00     0.074 A 
ATOM     61  C   UNL A   1      42.445  31.539  36.769  1.00  0.00     0.029 A 
ATOM     62  N   UNL A   1      41.831  30.840  34.751  1.00  0.00    -0.354 N 
ATOM     63  N   UNL A   1      41.957  29.095  32.377  1.00  0.00    -0.248 NA
ATOM     64  C   UNL A   1      42.948  27.333  31.206  1.00  0.00     0.031 C 
ATOM     65  C   UNL A   1      43.317  30.522  36.368  1.00  0.00     0.029 A 
ATOM     66  C   UNL A   1      42.908  30.052  35.129  1.00  0.00     0.049 A 
ATOM     67  H   UNL A   1      41.340  30.753  33.902  1.00  0.00     0.167 HD
ATOM     68  C   UNL A   1      42.993  28.565  33.142  1.00  0.00     0.074 A 
ATOM     69  C   UNL A   1      43.537  27.456  32.385  1.00  0.00     0.031 C 
ATOM     70  C   UNL A   1      43.450  28.955  34.360  1.00  0.00     0.034 A 
BRANCH  57  71
ATOM     71  C   UNL A   1      40.358  33.766  36.795  1.00  0.00     0.023 A 
ATOM     72  C   UNL A   1      41.241  34.852  36.943  1.00  0.00     0.031 A 
ATOM     73  C   UNL A   1      39.345  33.610  37.757  1.00  0.00     0.131 A 
ATOM     74  C   UNL A   1      41.148  35.684  38.068  1.00  0.00     0.055 A 
ATOM     75  C   UNL A   1      39.201  34.498  38.826  1.00  0.00     0.041 A 
ATOM     76  F   UNL A   1      38.486  32.581  37.686  1.00  0.00    -0.206 F 
ATOM     77  C   UNL A   1      40.116  35.532  38.996  1.00  0.00     0.022 A 
BRANCH  74  78
ATOM     78  S   UNL A   1      42.491  36.861  38.387  1.00  0.00     0.124 S 
ATOM     79  O   UNL A   1      42.894  37.222  37.029  1.00  0.00    -0.237 OA
ATOM     80  O   UNL A   1      41.821  37.905  39.153  1.00  0.00    -0.237 OA
ATOM     81  O   UNL A   1      43.471  36.070  39.129  1.00  0.00    -0.744 OA
ENDBRANCH  74  78
ENDBRANCH  57  71
BRANCH  58  82
ATOM     82  C   UNL A   1      41.120  27.583  28.922  1.00  0.00     0.023 A 
ATOM     83  C   UNL A   1      42.095  27.833  27.944  1.00  0.00     0.031 A 
ATOM     84  C   UNL A   1      40.258  26.488  28.729  1.00  0.00     0.131 A 
ATOM     85  C   UNL A   1      42.152  27.030  26.793  1.00  0.00     0.055 A 
ATOM     86  C   UNL A   1      40.358  25.657  27.612  1.00  0.00     0.041 A 
ATOM     87  F   UNL A   1      39.310  26.202  29.635  1.00  0.00    -0.206 F 
ATOM     88  C   UNL A   1      41.301  25.935  26.628  1.00  0.00     0.022 A 
BRANCH  85  89
ATOM     89  S   UNL A   1      43.297  27.496  25.464  1.00  0.00     0.124 S 
ATOM     90  O   UNL A   1      42.400  28.144  24.514  1.00  0.00    -0.237 OA
ATOM     91  O   UNL A   1      44.233  28.369  26.163  1.00  0.00    -0.237 OA
ATOM     92  O   UNL A   1      43.849  26.216  25.028  1.00  0.00    -0.744 OA
ENDBRANCH  85  89
ENDBRANCH  58  82
BRANCH  70  93
ATOM     93  C   UNL A   1      44.564  28.136  34.969  1.00  0.00     0.023 A 
ATOM     94  C   UNL A   1      44.309  27.012  35.773  1.00  0.00     0.031 A 
ATOM     95  C   UNL A   1      45.906  28.506  34.763  1.00  0.00     0.131 A 
ATOM     96  C   UNL A   1      45.370  26.343  36.400  1.00  0.00     0.055 A 
ATOM     97  C   UNL A   1      46.963  27.792  35.328  1.00  0.00     0.041 A 
ATOM     98  F   UNL A   1      46.213  29.573  34.007  1.00  0.00    -0.206 F 
ATOM     99  C   UNL A   1      46.697  26.714  36.167  1.00  0.00     0.022 A 
BRANCH  96 100
ATOM    100  S   UNL A   1      44.988  25.063  37.628  1.00  0.00     0.124 S 
ATOM    101  O   UNL A   1      44.146  25.790  38.572  1.00  0.00    -0.237 OA
ATOM    102  O   UNL A   1      44.314  24.050  36.821  1.00  0.00    -0.237 OA
ATOM    103  O   UNL A   1      46.301  24.676  38.140  1.00  0.00    -0.744 OA
ENDBRANCH  96 100
ENDBRANCH  70  93
ENDBRANCH  44  45
ENDBRANCH  36  39
ENDBRANCH  34  35
ENDBRANCH  33  34
ENDBRANCH  32  33
ENDBRANCH   1  32
TORSDOF 20
ENDMDL
