MODEL 1
REMARK VINA RESULT:     -10.1      0.000      0.000
REMARK SMILES CC[C@H](C(=O)NCCCCCCNC(=O)c1ccc(-c2c3nc(c(-c4cc(S(=O)(=O)[O-])ccc4F)c4ccc([nH]4)c(-c4cc(S(=O)(=O)[O-])ccc4F)c4nc(c(-c5cc(S(=O)(=O)[O-])ccc5F)c5ccc2[nH]5)C=C4)C=C3)cc1)[N@@H+](C)Cc1cncn1C(C)C
REMARK SMILES IDX 9 1 8 2 7 3 6 4 4 5 5 6 3 8 2 9 1 10 79 11 80 12 81 14 82 15
REMARK SMILES IDX 83 16 86 17 84 18 85 19 87 20 88 21 89 22 10 23 11 24 12 25
REMARK SMILES IDX 13 26 14 27 15 29 16 30 17 31 78 32 18 33 77 34 19 35 20 36
REMARK SMILES IDX 21 37 71 38 22 39 76 40 70 41 72 42 23 43 75 44 69 45 68 46
REMARK SMILES IDX 24 48 56 49 36 50 55 51 37 52 40 53 54 54 73 55 38 56 39 57
REMARK SMILES IDX 53 59 74 60 41 61 25 62 26 63 34 64 27 65 33 66 35 67 32 68
REMARK SMILES IDX 28 69 29 70 30 71 31 72 57 73 58 74 66 75 59 76 65 77 67 78
REMARK SMILES IDX 64 79 60 80 61 81 62 82 63 83 42 84 43 85 51 86 44 87 50 88
REMARK SMILES IDX 52 89 49 90 45 91 46 92 47 93 48 94
REMARK H PARENT 6 7 79 13 13 28 72 47 40 58
REMARK Flexibility Score: inf
ROOT
ATOM      1  C   UNL A   1      34.285  21.146  24.636  1.00  0.00     0.002 C 
ENDROOT
BRANCH   1   2
ATOM      2  C   UNL A   1      34.035  20.771  26.098  1.00  0.00     0.021 C 
BRANCH   2   3
ATOM      3  C   UNL A   1      33.959  21.921  27.088  1.00  0.00     0.116 C 
BRANCH   3   4
ATOM      4  N   UNL A   1      32.654  22.256  27.561  1.00  0.00    -0.351 N 
ATOM      5  C   UNL A   1      31.684  22.985  26.957  1.00  0.00     0.278 C 
ATOM      6  O   UNL A   1      30.632  23.031  27.618  1.00  0.00    -0.268 OA
ATOM      7  H   UNL A   1      32.427  21.909  28.453  1.00  0.00     0.163 HD
BRANCH   5   8
ATOM      8  C   UNL A   1      31.861  23.864  25.645  1.00  0.00     0.273 C 
BRANCH   8   9
ATOM      9  C   UNL A   1      31.073  23.834  24.291  1.00  0.00     0.072 C 
ATOM     10  C   UNL A   1      31.661  23.645  22.905  1.00  0.00     0.011 C 
ENDBRANCH   8   9
BRANCH   8  11
ATOM     11  N   UNL A   1      32.144  25.283  26.077  1.00  0.00    -0.322 N 
ATOM     12  C   UNL A   1      33.472  25.779  25.763  1.00  0.00     0.333 C 
ATOM     13  H   UNL A   1      32.156  25.169  27.090  1.00  0.00     0.348 HD
BRANCH  11  14
ATOM     14  C   UNL A   1      31.064  26.264  25.904  1.00  0.00     0.319 C 
BRANCH  14  15
ATOM     15  C   UNL A   1      31.447  27.679  26.155  1.00  0.00     0.093 A 
ATOM     16  C   UNL A   1      31.738  28.300  27.356  1.00  0.00     0.140 A 
ATOM     17  N   UNL A   1      31.650  28.667  25.216  1.00  0.00    -0.327 N 
ATOM     18  N   UNL A   1      31.894  29.647  27.193  1.00  0.00    -0.245 NA
ATOM     19  C   UNL A   1      31.793  29.848  25.901  1.00  0.00     0.200 A 
BRANCH  17  20
ATOM     20  C   UNL A   1      31.893  28.511  23.787  1.00  0.00     0.082 C 
ATOM     21  C   UNL A   1      30.850  29.213  22.921  1.00  0.00     0.031 C 
ATOM     22  C   UNL A   1      33.307  28.985  23.434  1.00  0.00     0.031 C 
ENDBRANCH  17  20
ENDBRANCH  14  15
ENDBRANCH  11  14
ENDBRANCH   8  11
ENDBRANCH   5   8
ENDBRANCH   3   4
ENDBRANCH   2   3
ENDBRANCH   1   2
BRANCH   1  23
ATOM     23  C   UNL A   1      35.076  22.428  24.360  1.00  0.00     0.002 C 
BRANCH  23  24
ATOM     24  C   UNL A   1      36.604  22.328  24.347  1.00  0.00     0.021 C 
BRANCH  24  25
ATOM     25  C   UNL A   1      37.326  22.706  25.636  1.00  0.00     0.116 C 
BRANCH  25  26
ATOM     26  N   UNL A   1      38.480  21.870  25.911  1.00  0.00    -0.352 N 
ATOM     27  C   UNL A   1      39.717  22.199  26.406  1.00  0.00     0.251 C 
ATOM     28  H   UNL A   1      38.355  20.915  25.711  1.00  0.00     0.163 HD
ATOM     29  O   UNL A   1      40.590  21.338  26.445  1.00  0.00    -0.269 OA
BRANCH  27  30
ATOM     30  C   UNL A   1      40.017  23.579  26.857  1.00  0.00     0.039 A 
ATOM     31  C   UNL A   1      40.377  23.773  28.193  1.00  0.00     0.014 A 
ATOM     32  C   UNL A   1      39.922  24.679  25.998  1.00  0.00     0.014 A 
ATOM     33  C   UNL A   1      40.690  25.055  28.653  1.00  0.00     0.010 A 
ATOM     34  C   UNL A   1      40.308  25.947  26.440  1.00  0.00     0.010 A 
ATOM     35  C   UNL A   1      40.693  26.150  27.774  1.00  0.00    -0.014 A 
BRANCH  35  36
ATOM     36  C   UNL A   1      41.112  27.496  28.247  1.00  0.00     0.031 A 
ATOM     37  C   UNL A   1      42.567  27.881  28.284  1.00  0.00     0.074 A 
ATOM     38  C   UNL A   1      40.173  28.367  28.671  1.00  0.00     0.049 A 
ATOM     39  N   UNL A   1      43.115  29.010  28.657  1.00  0.00    -0.248 NA
ATOM     40  C   UNL A   1      43.533  26.853  27.875  1.00  0.00     0.031 C 
ATOM     41  C   UNL A   1      38.736  28.091  28.732  1.00  0.00     0.029 A 
ATOM     42  N   UNL A   1      40.281  29.657  29.125  1.00  0.00    -0.354 N 
ATOM     43  C   UNL A   1      44.488  28.827  28.533  1.00  0.00     0.074 A 
ATOM     44  C   UNL A   1      44.688  27.455  28.113  1.00  0.00     0.031 C 
ATOM     45  C   UNL A   1      38.095  29.189  29.160  1.00  0.00     0.029 A 
ATOM     46  C   UNL A   1      39.072  30.232  29.449  1.00  0.00     0.049 A 
ATOM     47  H   UNL A   1      41.141  30.129  29.212  1.00  0.00     0.167 HD
ATOM     48  C   UNL A   1      45.487  29.725  28.730  1.00  0.00     0.034 A 
ATOM     49  C   UNL A   1      38.783  31.457  29.930  1.00  0.00     0.034 A 
ATOM     50  C   UNL A   1      45.267  31.090  29.147  1.00  0.00     0.049 A 
ATOM     51  C   UNL A   1      39.909  32.433  30.153  1.00  0.00     0.074 A 
ATOM     52  C   UNL A   1      46.198  32.100  29.317  1.00  0.00     0.029 A 
ATOM     53  N   UNL A   1      44.031  31.635  29.477  1.00  0.00    -0.354 N 
ATOM     54  N   UNL A   1      41.199  32.266  29.963  1.00  0.00    -0.248 NA
ATOM     55  C   UNL A   1      39.539  33.767  30.638  1.00  0.00     0.031 C 
ATOM     56  C   UNL A   1      45.539  33.227  29.826  1.00  0.00     0.029 A 
ATOM     57  C   UNL A   1      44.182  32.953  29.887  1.00  0.00     0.049 A 
ATOM     58  H   UNL A   1      43.173  31.156  29.425  1.00  0.00     0.167 HD
ATOM     59  C   UNL A   1      41.789  33.486  30.284  1.00  0.00     0.074 A 
ATOM     60  C   UNL A   1      40.712  34.383  30.650  1.00  0.00     0.031 C 
ATOM     61  C   UNL A   1      43.104  33.833  30.278  1.00  0.00     0.034 A 
BRANCH  48  62
ATOM     62  C   UNL A   1      46.908  29.245  28.525  1.00  0.00     0.023 A 
ATOM     63  C   UNL A   1      47.431  28.999  27.242  1.00  0.00     0.031 A 
ATOM     64  C   UNL A   1      47.745  29.005  29.629  1.00  0.00     0.131 A 
ATOM     65  C   UNL A   1      48.716  28.453  27.100  1.00  0.00     0.055 A 
ATOM     66  C   UNL A   1      49.055  28.545  29.476  1.00  0.00     0.041 A 
ATOM     67  F   UNL A   1      47.299  29.199  30.880  1.00  0.00    -0.206 F 
ATOM     68  C   UNL A   1      49.543  28.251  28.207  1.00  0.00     0.022 A 
BRANCH  65  69
ATOM     69  S   UNL A   1      49.233  27.866  25.464  1.00  0.00     0.124 S 
ATOM     70  O   UNL A   1      49.469  26.447  25.721  1.00  0.00    -0.237 OA
ATOM     71  O   UNL A   1      48.075  28.181  24.634  1.00  0.00    -0.237 OA
ATOM     72  O   UNL A   1      50.435  28.647  25.181  1.00  0.00    -0.744 OA
ENDBRANCH  65  69
ENDBRANCH  48  62
BRANCH  49  73
ATOM     73  C   UNL A   1      37.373  31.831  30.242  1.00  0.00     0.023 A 
ATOM     74  C   UNL A   1      36.540  32.414  29.273  1.00  0.00     0.031 A 
ATOM     75  C   UNL A   1      36.845  31.640  31.532  1.00  0.00     0.131 A 
ATOM     76  C   UNL A   1      35.244  32.827  29.620  1.00  0.00     0.055 A 
ATOM     77  C   UNL A   1      35.536  31.998  31.857  1.00  0.00     0.041 A 
ATOM     78  F   UNL A   1      37.597  31.084  32.497  1.00  0.00    -0.206 F 
ATOM     79  C   UNL A   1      34.731  32.608  30.901  1.00  0.00     0.022 A 
BRANCH  76  80
ATOM     80  S   UNL A   1      34.262  33.734  28.394  1.00  0.00     0.124 S 
ATOM     81  O   UNL A   1      35.279  34.109  27.418  1.00  0.00    -0.237 OA
ATOM     82  O   UNL A   1      33.302  32.723  27.965  1.00  0.00    -0.237 OA
ATOM     83  O   UNL A   1      33.696  34.840  29.162  1.00  0.00    -0.744 OA
ENDBRANCH  76  80
ENDBRANCH  49  73
BRANCH  61  84
ATOM     84  C   UNL A   1      43.432  35.259  30.654  1.00  0.00     0.023 A 
ATOM     85  C   UNL A   1      43.357  36.308  29.719  1.00  0.00     0.031 A 
ATOM     86  C   UNL A   1      43.865  35.569  31.956  1.00  0.00     0.131 A 
ATOM     87  C   UNL A   1      43.788  37.595  30.074  1.00  0.00     0.055 A 
ATOM     88  C   UNL A   1      44.219  36.869  32.325  1.00  0.00     0.041 A 
ATOM     89  F   UNL A   1      43.962  34.611  32.892  1.00  0.00    -0.206 F 
ATOM     90  C   UNL A   1      44.199  37.886  31.377  1.00  0.00     0.022 A 
BRANCH  87  91
ATOM     91  S   UNL A   1      43.931  38.852  28.773  1.00  0.00     0.124 S 
ATOM     92  O   UNL A   1      42.543  39.004  28.346  1.00  0.00    -0.237 OA
ATOM     93  O   UNL A   1      44.503  39.984  29.495  1.00  0.00    -0.237 OA
ATOM     94  O   UNL A   1      44.817  38.229  27.791  1.00  0.00    -0.744 OA
ENDBRANCH  87  91
ENDBRANCH  61  84
ENDBRANCH  35  36
ENDBRANCH  27  30
ENDBRANCH  25  26
ENDBRANCH  24  25
ENDBRANCH  23  24
ENDBRANCH   1  23
TORSDOF 21
ENDMDL
MODEL 2
REMARK VINA RESULT:     -10.0      5.076      8.796
REMARK SMILES CC[C@H](C(=O)NCCCCCCNC(=O)c1ccc(-c2c3nc(c(-c4cc(S(=O)(=O)[O-])ccc4F)c4ccc([nH]4)c(-c4cc(S(=O)(=O)[O-])ccc4F)c4nc(c(-c5cc(S(=O)(=O)[O-])ccc5F)c5ccc2[nH]5)C=C4)C=C3)cc1)[N@@H+](C)Cc1cncn1C(C)C
REMARK SMILES IDX 9 1 8 2 7 3 6 4 4 5 5 6 3 8 2 9 1 10 79 11 80 12 81 14 82 15
REMARK SMILES IDX 83 16 86 17 84 18 85 19 87 20 88 21 89 22 10 23 11 24 12 25
REMARK SMILES IDX 13 26 14 27 15 29 16 30 17 31 78 32 18 33 77 34 19 35 20 36
REMARK SMILES IDX 21 37 71 38 22 39 76 40 70 41 72 42 23 43 75 44 69 45 68 46
REMARK SMILES IDX 24 48 56 49 36 50 55 51 37 52 40 53 54 54 73 55 38 56 39 57
REMARK SMILES IDX 53 59 74 60 41 61 25 62 26 63 34 64 27 65 33 66 35 67 32 68
REMARK SMILES IDX 28 69 29 70 30 71 31 72 57 73 58 74 66 75 59 76 65 77 67 78
REMARK SMILES IDX 64 79 60 80 61 81 62 82 63 83 42 84 43 85 51 86 44 87 50 88
REMARK SMILES IDX 52 89 49 90 45 91 46 92 47 93 48 94
REMARK H PARENT 6 7 79 13 13 28 72 47 40 58
REMARK Flexibility Score: inf
ROOT
ATOM      1  C   UNL A   1      30.713  29.679  24.306  1.00  0.00     0.002 C 
ENDROOT
BRANCH   1   2
ATOM      2  C   UNL A   1      31.524  29.030  23.182  1.00  0.00     0.021 C 
BRANCH   2   3
ATOM      3  C   UNL A   1      31.091  27.639  22.752  1.00  0.00     0.116 C 
BRANCH   3   4
ATOM      4  N   UNL A   1      31.859  27.038  21.708  1.00  0.00    -0.351 N 
ATOM      5  C   UNL A   1      32.849  26.117  21.791  1.00  0.00     0.278 C 
ATOM      6  O   UNL A   1      33.266  25.752  20.679  1.00  0.00    -0.268 OA
ATOM      7  H   UNL A   1      31.637  27.337  20.796  1.00  0.00     0.163 HD
BRANCH   5   8
ATOM      8  C   UNL A   1      33.575  25.650  23.126  1.00  0.00     0.273 C 
BRANCH   8   9
ATOM      9  C   UNL A   1      33.807  26.416  24.474  1.00  0.00     0.072 C 
ATOM     10  C   UNL A   1      32.980  26.292  25.739  1.00  0.00     0.011 C 
ENDBRANCH   8   9
BRANCH   8  11
ATOM     11  N   UNL A   1      33.192  24.212  23.378  1.00  0.00    -0.322 N 
ATOM     12  C   UNL A   1      31.771  23.922  23.315  1.00  0.00     0.333 C 
ATOM     13  H   UNL A   1      33.416  24.131  24.369  1.00  0.00     0.348 HD
BRANCH  11  14
ATOM     14  C   UNL A   1      34.057  23.177  22.796  1.00  0.00     0.319 C 
BRANCH  14  15
ATOM     15  C   UNL A   1      35.159  22.704  23.675  1.00  0.00     0.093 A 
ATOM     16  C   UNL A   1      36.521  22.911  23.548  1.00  0.00     0.140 A 
ATOM     17  N   UNL A   1      35.042  21.996  24.851  1.00  0.00    -0.327 N 
ATOM     18  N   UNL A   1      37.221  22.186  24.469  1.00  0.00    -0.245 NA
ATOM     19  C   UNL A   1      36.309  21.609  25.214  1.00  0.00     0.200 A 
BRANCH  17  20
ATOM     20  C   UNL A   1      33.864  21.848  25.697  1.00  0.00     0.082 C 
ATOM     21  C   UNL A   1      33.052  20.594  25.380  1.00  0.00     0.031 C 
ATOM     22  C   UNL A   1      34.263  21.882  27.176  1.00  0.00     0.031 C 
ENDBRANCH  17  20
ENDBRANCH  14  15
ENDBRANCH  11  14
ENDBRANCH   8  11
ENDBRANCH   5   8
ENDBRANCH   3   4
ENDBRANCH   2   3
ENDBRANCH   1   2
BRANCH   1  23
ATOM     23  C   UNL A   1      31.454  30.028  25.601  1.00  0.00     0.002 C 
BRANCH  23  24
ATOM     24  C   UNL A   1      31.325  31.461  26.125  1.00  0.00     0.021 C 
BRANCH  24  25
ATOM     25  C   UNL A   1      32.531  32.031  26.864  1.00  0.00     0.116 C 
BRANCH  25  26
ATOM     26  N   UNL A   1      32.377  33.431  27.214  1.00  0.00    -0.352 N 
ATOM     27  C   UNL A   1      33.072  34.204  28.110  1.00  0.00     0.251 C 
ATOM     28  H   UNL A   1      31.660  33.900  26.731  1.00  0.00     0.163 HD
ATOM     29  O   UNL A   1      32.687  35.347  28.332  1.00  0.00    -0.269 OA
BRANCH  27  30
ATOM     30  C   UNL A   1      34.250  33.665  28.832  1.00  0.00     0.039 A 
ATOM     31  C   UNL A   1      34.032  32.712  29.830  1.00  0.00     0.014 A 
ATOM     32  C   UNL A   1      35.551  34.102  28.563  1.00  0.00     0.014 A 
ATOM     33  C   UNL A   1      35.116  32.162  30.519  1.00  0.00     0.010 A 
ATOM     34  C   UNL A   1      36.638  33.497  29.199  1.00  0.00     0.010 A 
ATOM     35  C   UNL A   1      36.433  32.523  30.187  1.00  0.00    -0.014 A 
BRANCH  35  36
ATOM     36  C   UNL A   1      37.586  31.870  30.862  1.00  0.00     0.031 A 
ATOM     37  C   UNL A   1      38.407  30.830  30.148  1.00  0.00     0.074 A 
ATOM     38  C   UNL A   1      37.878  32.202  32.136  1.00  0.00     0.049 A 
ATOM     39  N   UNL A   1      39.451  30.163  30.574  1.00  0.00    -0.248 NA
ATOM     40  C   UNL A   1      37.983  30.472  28.788  1.00  0.00     0.031 C 
ATOM     41  C   UNL A   1      37.123  33.158  32.949  1.00  0.00     0.029 A 
ATOM     42  N   UNL A   1      38.882  31.780  32.970  1.00  0.00    -0.354 N 
ATOM     43  C   UNL A   1      39.805  29.305  29.539  1.00  0.00     0.074 A 
ATOM     44  C   UNL A   1      38.822  29.490  28.491  1.00  0.00     0.031 C 
ATOM     45  C   UNL A   1      37.713  33.276  34.149  1.00  0.00     0.029 A 
ATOM     46  C   UNL A   1      38.858  32.374  34.211  1.00  0.00     0.049 A 
ATOM     47  H   UNL A   1      39.559  31.114  32.706  1.00  0.00     0.167 HD
ATOM     48  C   UNL A   1      40.863  28.457  29.461  1.00  0.00     0.034 A 
ATOM     49  C   UNL A   1      39.661  32.209  35.280  1.00  0.00     0.034 A 
ATOM     50  C   UNL A   1      41.833  28.287  30.517  1.00  0.00     0.049 A 
ATOM     51  C   UNL A   1      40.821  31.253  35.175  1.00  0.00     0.074 A 
ATOM     52  C   UNL A   1      42.974  27.504  30.521  1.00  0.00     0.029 A 
ATOM     53  N   UNL A   1      41.771  28.897  31.765  1.00  0.00    -0.354 N 
ATOM     54  N   UNL A   1      41.182  30.499  34.162  1.00  0.00    -0.248 NA
ATOM     55  C   UNL A   1      41.690  31.140  36.352  1.00  0.00     0.031 C 
ATOM     56  C   UNL A   1      43.555  27.577  31.793  1.00  0.00     0.029 A 
ATOM     57  C   UNL A   1      42.830  28.477  32.558  1.00  0.00     0.049 A 
ATOM     58  H   UNL A   1      41.077  29.537  32.045  1.00  0.00     0.167 HD
ATOM     59  C   UNL A   1      42.338  29.840  34.574  1.00  0.00     0.074 A 
ATOM     60  C   UNL A   1      42.624  30.309  35.915  1.00  0.00     0.031 C 
ATOM     61  C   UNL A   1      43.093  28.929  33.906  1.00  0.00     0.034 A 
BRANCH  48  62
ATOM     62  C   UNL A   1      41.002  27.628  28.203  1.00  0.00     0.023 A 
ATOM     63  C   UNL A   1      40.702  26.254  28.181  1.00  0.00     0.031 A 
ATOM     64  C   UNL A   1      41.464  28.214  27.011  1.00  0.00     0.131 A 
ATOM     65  C   UNL A   1      40.946  25.499  27.024  1.00  0.00     0.055 A 
ATOM     66  C   UNL A   1      41.621  27.475  25.837  1.00  0.00     0.041 A 
ATOM     67  F   UNL A   1      41.789  29.516  26.970  1.00  0.00    -0.206 F 
ATOM     68  C   UNL A   1      41.377  26.105  25.842  1.00  0.00     0.022 A 
BRANCH  65  69
ATOM     69  S   UNL A   1      40.842  23.691  27.130  1.00  0.00     0.124 S 
ATOM     70  O   UNL A   1      39.425  23.461  26.857  1.00  0.00    -0.237 OA
ATOM     71  O   UNL A   1      41.771  23.260  26.092  1.00  0.00    -0.237 OA
ATOM     72  O   UNL A   1      41.258  23.401  28.501  1.00  0.00    -0.744 OA
ENDBRANCH  65  69
ENDBRANCH  48  62
BRANCH  49  73
ATOM     73  C   UNL A   1      39.395  32.955  36.545  1.00  0.00     0.023 A 
ATOM     74  C   UNL A   1      39.999  34.197  36.800  1.00  0.00     0.031 A 
ATOM     75  C   UNL A   1      38.555  32.417  37.536  1.00  0.00     0.131 A 
ATOM     76  C   UNL A   1      39.792  34.837  38.032  1.00  0.00     0.055 A 
ATOM     77  C   UNL A   1      38.305  33.084  38.736  1.00  0.00     0.041 A 
ATOM     78  F   UNL A   1      37.950  31.233  37.344  1.00  0.00    -0.206 F 
ATOM     79  C   UNL A   1      38.936  34.296  38.996  1.00  0.00     0.022 A 
BRANCH  76  80
ATOM     80  S   UNL A   1      40.724  36.349  38.397  1.00  0.00     0.124 S 
ATOM     81  O   UNL A   1      39.654  37.324  38.568  1.00  0.00    -0.237 OA
ATOM     82  O   UNL A   1      41.450  35.974  39.606  1.00  0.00    -0.237 OA
ATOM     83  O   UNL A   1      41.553  36.533  37.208  1.00  0.00    -0.744 OA
ENDBRANCH  76  80
ENDBRANCH  49  73
BRANCH  61  84
ATOM     84  C   UNL A   1      44.319  28.408  34.619  1.00  0.00     0.023 A 
ATOM     85  C   UNL A   1      44.282  27.234  35.393  1.00  0.00     0.031 A 
ATOM     86  C   UNL A   1      45.532  29.117  34.559  1.00  0.00     0.131 A 
ATOM     87  C   UNL A   1      45.408  26.851  36.139  1.00  0.00     0.055 A 
ATOM     88  C   UNL A   1      46.672  28.688  35.241  1.00  0.00     0.041 A 
ATOM     89  F   UNL A   1      45.630  30.248  33.840  1.00  0.00    -0.206 F 
ATOM     90  C   UNL A   1      46.608  27.560  36.052  1.00  0.00     0.022 A 
BRANCH  87  91
ATOM     91  S   UNL A   1      45.239  25.491  37.329  1.00  0.00     0.124 S 
ATOM     92  O   UNL A   1      46.583  24.921  37.329  1.00  0.00    -0.237 OA
ATOM     93  O   UNL A   1      44.842  26.189  38.547  1.00  0.00    -0.237 OA
ATOM     94  O   UNL A   1      44.207  24.642  36.735  1.00  0.00    -0.744 OA
ENDBRANCH  87  91
ENDBRANCH  61  84
ENDBRANCH  35  36
ENDBRANCH  27  30
ENDBRANCH  25  26
ENDBRANCH  24  25
ENDBRANCH  23  24
ENDBRANCH   1  23
TORSDOF 21
ENDMDL
MODEL 3
REMARK VINA RESULT:      -9.6      2.326      8.208
REMARK SMILES CC[C@H](C(=O)NCCCCCCNC(=O)c1ccc(-c2c3nc(c(-c4cc(S(=O)(=O)[O-])ccc4F)c4ccc([nH]4)c(-c4cc(S(=O)(=O)[O-])ccc4F)c4nc(c(-c5cc(S(=O)(=O)[O-])ccc5F)c5ccc2[nH]5)C=C4)C=C3)cc1)[N@@H+](C)Cc1cncn1C(C)C
REMARK SMILES IDX 9 1 8 2 7 3 6 4 4 5 5 6 3 8 2 9 1 10 79 11 80 12 81 14 82 15
REMARK SMILES IDX 83 16 86 17 84 18 85 19 87 20 88 21 89 22 10 23 11 24 12 25
REMARK SMILES IDX 13 26 14 27 15 29 16 30 17 31 78 32 18 33 77 34 19 35 20 36
REMARK SMILES IDX 21 37 71 38 22 39 76 40 70 41 72 42 23 43 75 44 69 45 68 46
REMARK SMILES IDX 24 48 56 49 36 50 55 51 37 52 40 53 54 54 73 55 38 56 39 57
REMARK SMILES IDX 53 59 74 60 41 61 25 62 26 63 34 64 27 65 33 66 35 67 32 68
REMARK SMILES IDX 28 69 29 70 30 71 31 72 57 73 58 74 66 75 59 76 65 77 67 78
REMARK SMILES IDX 64 79 60 80 61 81 62 82 63 83 42 84 43 85 51 86 44 87 50 88
REMARK SMILES IDX 52 89 49 90 45 91 46 92 47 93 48 94
REMARK H PARENT 6 7 79 13 13 28 72 47 40 58
REMARK Flexibility Score: inf
ROOT
ATOM      1  C   UNL A   1      34.383  20.354  24.641  1.00  0.00     0.002 C 
ENDROOT
BRANCH   1   2
ATOM      2  C   UNL A   1      33.522  20.324  25.906  1.00  0.00     0.021 C 
BRANCH   2   3
ATOM      3  C   UNL A   1      33.579  21.556  26.792  1.00  0.00     0.116 C 
BRANCH   3   4
ATOM      4  N   UNL A   1      32.321  22.096  27.197  1.00  0.00    -0.351 N 
ATOM      5  C   UNL A   1      31.755  23.286  26.879  1.00  0.00     0.278 C 
ATOM      6  O   UNL A   1      30.611  23.418  27.348  1.00  0.00    -0.268 OA
ATOM      7  H   UNL A   1      31.788  21.522  27.794  1.00  0.00     0.163 HD
BRANCH   5   8
ATOM      8  C   UNL A   1      32.482  24.497  26.151  1.00  0.00     0.273 C 
BRANCH   8   9
ATOM      9  C   UNL A   1      33.989  24.691  25.770  1.00  0.00     0.072 C 
ATOM     10  C   UNL A   1      34.634  24.367  24.435  1.00  0.00     0.011 C 
ENDBRANCH   8   9
BRANCH   8  11
ATOM     11  N   UNL A   1      31.576  24.980  25.045  1.00  0.00    -0.322 N 
ATOM     12  C   UNL A   1      31.215  23.984  24.052  1.00  0.00     0.333 C 
ATOM     13  H   UNL A   1      32.207  25.607  24.548  1.00  0.00     0.348 HD
BRANCH  11  14
ATOM     14  C   UNL A   1      30.489  25.895  25.421  1.00  0.00     0.319 C 
BRANCH  14  15
ATOM     15  C   UNL A   1      30.322  27.078  24.535  1.00  0.00     0.093 A 
ATOM     16  C   UNL A   1      29.407  27.278  23.518  1.00  0.00     0.140 A 
ATOM     17  N   UNL A   1      31.023  28.263  24.585  1.00  0.00    -0.327 N 
ATOM     18  N   UNL A   1      29.671  28.429  22.832  1.00  0.00    -0.245 NA
ATOM     19  C   UNL A   1      30.677  28.981  23.467  1.00  0.00     0.200 A 
BRANCH  17  20
ATOM     20  C   UNL A   1      31.816  28.791  25.689  1.00  0.00     0.082 C 
ATOM     21  C   UNL A   1      33.291  28.408  25.605  1.00  0.00     0.031 C 
ATOM     22  C   UNL A   1      31.650  30.312  25.781  1.00  0.00     0.031 C 
ENDBRANCH  17  20
ENDBRANCH  14  15
ENDBRANCH  11  14
ENDBRANCH   8  11
ENDBRANCH   5   8
ENDBRANCH   3   4
ENDBRANCH   2   3
ENDBRANCH   1   2
BRANCH   1  23
ATOM     23  C   UNL A   1      35.804  20.911  24.765  1.00  0.00     0.002 C 
BRANCH  23  24
ATOM     24  C   UNL A   1      36.940  19.909  24.988  1.00  0.00     0.021 C 
BRANCH  24  25
ATOM     25  C   UNL A   1      38.324  20.491  25.257  1.00  0.00     0.116 C 
BRANCH  25  26
ATOM     26  N   UNL A   1      39.306  19.486  25.620  1.00  0.00    -0.352 N 
ATOM     27  C   UNL A   1      40.580  19.625  26.110  1.00  0.00     0.251 C 
ATOM     28  H   UNL A   1      39.009  18.556  25.496  1.00  0.00     0.163 HD
ATOM     29  O   UNL A   1      41.281  18.626  26.235  1.00  0.00    -0.269 OA
BRANCH  27  30
ATOM     30  C   UNL A   1      41.125  20.961  26.452  1.00  0.00     0.039 A 
ATOM     31  C   UNL A   1      41.739  21.702  25.439  1.00  0.00     0.014 A 
ATOM     32  C   UNL A   1      41.069  21.477  27.751  1.00  0.00     0.014 A 
ATOM     33  C   UNL A   1      42.246  22.974  25.714  1.00  0.00     0.010 A 
ATOM     34  C   UNL A   1      41.508  22.779  28.006  1.00  0.00     0.010 A 
ATOM     35  C   UNL A   1      42.105  23.541  26.991  1.00  0.00    -0.014 A 
BRANCH  35  36
ATOM     36  C   UNL A   1      42.567  24.929  27.256  1.00  0.00     0.031 A 
ATOM     37  C   UNL A   1      41.667  25.923  27.939  1.00  0.00     0.074 A 
ATOM     38  C   UNL A   1      43.800  25.301  26.854  1.00  0.00     0.049 A 
ATOM     39  N   UNL A   1      41.902  27.171  28.259  1.00  0.00    -0.248 NA
ATOM     40  C   UNL A   1      40.314  25.463  28.282  1.00  0.00     0.031 C 
ATOM     41  C   UNL A   1      44.744  24.443  26.136  1.00  0.00     0.029 A 
ATOM     42  N   UNL A   1      44.472  26.489  26.991  1.00  0.00    -0.354 N 
ATOM     43  C   UNL A   1      40.729  27.646  28.835  1.00  0.00     0.074 A 
ATOM     44  C   UNL A   1      39.764  26.570  28.759  1.00  0.00     0.031 C 
ATOM     45  C   UNL A   1      45.885  25.120  25.930  1.00  0.00     0.029 A 
ATOM     46  C   UNL A   1      45.741  26.472  26.457  1.00  0.00     0.049 A 
ATOM     47  H   UNL A   1      44.085  27.281  27.431  1.00  0.00     0.167 HD
ATOM     48  C   UNL A   1      40.488  28.859  29.395  1.00  0.00     0.034 A 
ATOM     49  C   UNL A   1      46.680  27.436  26.393  1.00  0.00     0.034 A 
ATOM     50  C   UNL A   1      41.465  29.920  29.463  1.00  0.00     0.049 A 
ATOM     51  C   UNL A   1      46.384  28.779  27.009  1.00  0.00     0.074 A 
ATOM     52  C   UNL A   1      41.348  31.163  30.060  1.00  0.00     0.029 A 
ATOM     53  N   UNL A   1      42.737  29.872  28.902  1.00  0.00    -0.354 N 
ATOM     54  N   UNL A   1      45.292  29.190  27.613  1.00  0.00    -0.248 NA
ATOM     55  C   UNL A   1      47.454  29.781  26.950  1.00  0.00     0.031 C 
ATOM     56  C   UNL A   1      42.512  31.893  29.790  1.00  0.00     0.029 A 
ATOM     57  C   UNL A   1      43.396  31.076  29.104  1.00  0.00     0.049 A 
ATOM     58  H   UNL A   1      43.115  29.095  28.431  1.00  0.00     0.167 HD
ATOM     59  C   UNL A   1      45.556  30.493  28.027  1.00  0.00     0.074 A 
ATOM     60  C   UNL A   1      46.919  30.784  27.628  1.00  0.00     0.031 C 
ATOM     61  C   UNL A   1      44.746  31.369  28.678  1.00  0.00     0.034 A 
BRANCH  48  62
ATOM     62  C   UNL A   1      39.101  29.109  29.948  1.00  0.00     0.023 A 
ATOM     63  C   UNL A   1      38.111  29.771  29.200  1.00  0.00     0.031 A 
ATOM     64  C   UNL A   1      38.770  28.701  31.252  1.00  0.00     0.131 A 
ATOM     65  C   UNL A   1      36.874  30.078  29.786  1.00  0.00     0.055 A 
ATOM     66  C   UNL A   1      37.506  28.932  31.800  1.00  0.00     0.041 A 
ATOM     67  F   UNL A   1      39.676  28.084  32.027  1.00  0.00    -0.206 F 
ATOM     68  C   UNL A   1      36.554  29.638  31.072  1.00  0.00     0.022 A 
BRANCH  65  69
ATOM     69  S   UNL A   1      35.748  31.194  28.903  1.00  0.00     0.124 S 
ATOM     70  O   UNL A   1      34.893  30.247  28.191  1.00  0.00    -0.237 OA
ATOM     71  O   UNL A   1      35.118  31.932  29.992  1.00  0.00    -0.237 OA
ATOM     72  O   UNL A   1      36.639  31.978  28.050  1.00  0.00    -0.744 OA
ENDBRANCH  65  69
ENDBRANCH  48  62
BRANCH  49  73
ATOM     73  C   UNL A   1      47.983  27.175  25.714  1.00  0.00     0.023 A 
ATOM     74  C   UNL A   1      49.081  26.653  26.418  1.00  0.00     0.031 A 
ATOM     75  C   UNL A   1      48.159  27.477  24.352  1.00  0.00     0.131 A 
ATOM     76  C   UNL A   1      50.316  26.493  25.770  1.00  0.00     0.055 A 
ATOM     77  C   UNL A   1      49.373  27.261  23.697  1.00  0.00     0.041 A 
ATOM     78  F   UNL A   1      47.142  27.976  23.630  1.00  0.00    -0.206 F 
ATOM     79  C   UNL A   1      50.465  26.779  24.410  1.00  0.00     0.022 A 
BRANCH  76  80
ATOM     80  S   UNL A   1      51.754  25.986  26.751  1.00  0.00     0.124 S 
ATOM     81  O   UNL A   1      52.040  27.199  27.509  1.00  0.00    -0.237 OA
ATOM     82  O   UNL A   1      51.220  24.863  27.515  1.00  0.00    -0.237 OA
ATOM     83  O   UNL A   1      52.748  25.632  25.741  1.00  0.00    -0.744 OA
ENDBRANCH  76  80
ENDBRANCH  49  73
BRANCH  61  84
ATOM     84  C   UNL A   1      45.338  32.717  29.018  1.00  0.00     0.023 A 
ATOM     85  C   UNL A   1      45.331  33.783  28.099  1.00  0.00     0.031 A 
ATOM     86  C   UNL A   1      45.955  32.929  30.264  1.00  0.00     0.131 A 
ATOM     87  C   UNL A   1      45.998  34.978  28.407  1.00  0.00     0.055 A 
ATOM     88  C   UNL A   1      46.551  34.148  30.594  1.00  0.00     0.041 A 
ATOM     89  F   UNL A   1      45.998  31.950  31.183  1.00  0.00    -0.206 F 
ATOM     90  C   UNL A   1      46.591  35.174  29.656  1.00  0.00     0.022 A 
BRANCH  87  91
ATOM     91  S   UNL A   1      46.198  36.222  27.100  1.00  0.00     0.124 S 
ATOM     92  O   UNL A   1      45.297  37.279  27.549  1.00  0.00    -0.237 OA
ATOM     93  O   UNL A   1      47.623  36.525  27.173  1.00  0.00    -0.237 OA
ATOM     94  O   UNL A   1      45.773  35.518  25.890  1.00  0.00    -0.744 OA
ENDBRANCH  87  91
ENDBRANCH  61  84
ENDBRANCH  35  36
ENDBRANCH  27  30
ENDBRANCH  25  26
ENDBRANCH  24  25
ENDBRANCH  23  24
ENDBRANCH   1  23
TORSDOF 21
ENDMDL
