MODEL 1
REMARK VINA RESULT:     -11.2      0.000      0.000
REMARK SMILES O=C(CSc1ccnc(C(=O)NCCCCCCNC(=O)c2ccc(-c3c4nc(c(-c5cc(S(=O)(=O)[O-])ccc5F)c5ccc([nH]5)c(-c5cc(S(=O)(=O)[O-])ccc5F)c5nc(c(-c6cc(S(=O)(=O)[O-])ccc6F)c6ccc3[nH]6)C=C5)C=C4)cc2)c1)NNc1ccccn1
REMARK SMILES IDX 14 1 13 2 12 3 10 4 11 5 9 7 5 8 6 9 85 10 7 11 8 12 4 13
REMARK SMILES IDX 3 14 2 15 1 16 86 17 87 19 88 21 89 22 93 23 90 24 92 25
REMARK SMILES IDX 91 26 15 27 16 28 17 29 18 30 19 31 20 32 21 34 22 35 23 36
REMARK SMILES IDX 84 37 24 38 83 39 25 40 26 41 27 42 77 43 28 44 82 45 76 46
REMARK SMILES IDX 78 47 29 48 81 49 75 50 74 51 30 53 62 54 42 55 61 56 43 57
REMARK SMILES IDX 46 58 60 59 79 60 44 61 45 62 59 64 80 65 47 66 31 67 32 68
REMARK SMILES IDX 40 69 33 70 39 71 41 72 38 73 34 74 35 75 36 76 37 77 63 78
REMARK SMILES IDX 64 79 72 80 65 81 71 82 73 83 70 84 66 85 67 86 68 87 69 88
REMARK SMILES IDX 48 89 49 90 57 91 50 92 56 93 58 94 55 95 51 96 52 97 53 98
REMARK SMILES IDX 54 99
REMARK H PARENT 12 6 86 18 87 20 19 33 78 52 46 63
REMARK Flexibility Score: inf
ROOT
ATOM      1  C   UNL A   1      30.548  27.980  23.974  1.00  0.00     0.021 C 
ENDROOT
BRANCH   1   2
ATOM      2  C   UNL A   1      30.783  28.088  22.472  1.00  0.00     0.116 C 
BRANCH   2   3
ATOM      3  N   UNL A   1      32.159  28.388  22.116  1.00  0.00    -0.351 N 
ATOM      4  C   UNL A   1      33.327  27.651  22.136  1.00  0.00     0.269 C 
ATOM      5  O   UNL A   1      34.351  28.242  21.782  1.00  0.00    -0.268 OA
ATOM      6  H   UNL A   1      32.287  29.309  21.795  1.00  0.00     0.163 HD
BRANCH   4   7
ATOM      7  C   UNL A   1      33.415  26.215  22.590  1.00  0.00     0.129 A 
ATOM      8  C   UNL A   1      34.113  24.484  24.109  1.00  0.00     0.012 A 
ATOM      9  C   UNL A   1      33.712  23.541  23.171  1.00  0.00     0.035 A 
ATOM     10  C   UNL A   1      33.868  25.833  23.841  1.00  0.00     0.049 A 
ATOM     11  C   UNL A   1      33.136  23.993  21.996  1.00  0.00     0.113 A 
ATOM     12  N   UNL A   1      33.016  25.296  21.673  1.00  0.00    -0.251 NA
BRANCH   8  13
ATOM     13  S   UNL A   1      34.999  24.164  25.632  1.00  0.00    -0.116 SA
BRANCH  13  14
ATOM     14  C   UNL A   1      33.839  23.178  26.639  1.00  0.00     0.176 C 
BRANCH  14  15
ATOM     15  C   UNL A   1      34.139  21.696  26.533  1.00  0.00     0.248 C 
ATOM     16  O   UNL A   1      35.290  21.272  26.433  1.00  0.00    -0.272 OA
ATOM     17  N   UNL A   1      33.024  20.885  26.604  1.00  0.00    -0.268 N 
ATOM     18  H   UNL A   1      32.130  21.265  26.764  1.00  0.00     0.191 HD
BRANCH  17  19
ATOM     19  N   UNL A   1      33.199  19.521  26.443  1.00  0.00    -0.282 N 
ATOM     20  H   UNL A   1      33.440  18.954  27.211  1.00  0.00     0.190 HD
BRANCH  19  21
ATOM     21  C   UNL A   1      33.029  18.961  25.178  1.00  0.00     0.144 A 
ATOM     22  C   UNL A   1      32.445  19.657  24.120  1.00  0.00     0.048 A 
ATOM     23  N   UNL A   1      33.488  17.701  25.030  1.00  0.00    -0.238 NA
ATOM     24  C   UNL A   1      32.308  19.030  22.883  1.00  0.00     0.005 A 
ATOM     25  C   UNL A   1      33.333  17.110  23.825  1.00  0.00     0.113 A 
ATOM     26  C   UNL A   1      32.755  17.726  22.732  1.00  0.00     0.020 A 
ENDBRANCH  19  21
ENDBRANCH  17  19
ENDBRANCH  14  15
ENDBRANCH  13  14
ENDBRANCH   8  13
ENDBRANCH   4   7
ENDBRANCH   2   3
ENDBRANCH   1   2
BRANCH   1  27
ATOM     27  C   UNL A   1      31.398  28.899  24.850  1.00  0.00     0.002 C 
BRANCH  27  28
ATOM     28  C   UNL A   1      31.667  28.407  26.276  1.00  0.00     0.002 C 
BRANCH  28  29
ATOM     29  C   UNL A   1      33.136  28.179  26.643  1.00  0.00     0.021 C 
BRANCH  29  30
ATOM     30  C   UNL A   1      34.099  29.270  26.186  1.00  0.00     0.116 C 
BRANCH  30  31
ATOM     31  N   UNL A   1      33.886  30.518  26.897  1.00  0.00    -0.352 N 
ATOM     32  C   UNL A   1      34.569  31.042  27.967  1.00  0.00     0.251 C 
ATOM     33  H   UNL A   1      33.142  31.070  26.562  1.00  0.00     0.163 HD
ATOM     34  O   UNL A   1      34.098  31.998  28.575  1.00  0.00    -0.269 OA
BRANCH  32  35
ATOM     35  C   UNL A   1      35.853  30.444  28.394  1.00  0.00     0.039 A 
ATOM     36  C   UNL A   1      37.014  30.754  27.681  1.00  0.00     0.014 A 
ATOM     37  C   UNL A   1      35.912  29.562  29.478  1.00  0.00     0.014 A 
ATOM     38  C   UNL A   1      38.240  30.222  28.087  1.00  0.00     0.010 A 
ATOM     39  C   UNL A   1      37.145  29.093  29.926  1.00  0.00     0.010 A 
ATOM     40  C   UNL A   1      38.321  29.413  29.232  1.00  0.00    -0.014 A 
BRANCH  40  41
ATOM     41  C   UNL A   1      39.626  28.882  29.708  1.00  0.00     0.031 A 
ATOM     42  C   UNL A   1      40.359  29.574  30.826  1.00  0.00     0.074 A 
ATOM     43  C   UNL A   1      40.174  27.812  29.099  1.00  0.00     0.049 A 
ATOM     44  N   UNL A   1      41.536  29.308  31.335  1.00  0.00    -0.248 NA
ATOM     45  C   UNL A   1      39.691  30.735  31.432  1.00  0.00     0.031 C 
ATOM     46  C   UNL A   1      39.574  27.079  27.982  1.00  0.00     0.029 A 
ATOM     47  N   UNL A   1      41.359  27.158  29.325  1.00  0.00    -0.354 N 
ATOM     48  C   UNL A   1      41.753  30.275  32.311  1.00  0.00     0.074 A 
ATOM     49  C   UNL A   1      40.617  31.170  32.273  1.00  0.00     0.031 C 
ATOM     50  C   UNL A   1      40.381  26.062  27.639  1.00  0.00     0.029 A 
ATOM     51  C   UNL A   1      41.578  26.099  28.474  1.00  0.00     0.049 A 
ATOM     52  H   UNL A   1      41.994  27.421  30.030  1.00  0.00     0.167 HD
ATOM     53  C   UNL A   1      42.794  30.390  33.175  1.00  0.00     0.034 A 
ATOM     54  C   UNL A   1      42.629  25.260  28.368  1.00  0.00     0.034 A 
ATOM     55  C   UNL A   1      43.916  29.483  33.201  1.00  0.00     0.049 A 
ATOM     56  C   UNL A   1      43.790  25.430  29.314  1.00  0.00     0.074 A 
ATOM     57  C   UNL A   1      44.998  29.475  34.064  1.00  0.00     0.029 A 
ATOM     58  N   UNL A   1      44.108  28.427  32.319  1.00  0.00    -0.354 N 
ATOM     59  N   UNL A   1      43.960  26.320  30.265  1.00  0.00    -0.248 NA
ATOM     60  C   UNL A   1      44.897  24.474  29.180  1.00  0.00     0.031 C 
ATOM     61  C   UNL A   1      45.878  28.467  33.656  1.00  0.00     0.029 A 
ATOM     62  C   UNL A   1      45.306  27.786  32.593  1.00  0.00     0.049 A 
ATOM     63  H   UNL A   1      43.482  28.171  31.602  1.00  0.00     0.167 HD
ATOM     64  C   UNL A   1      45.178  26.011  30.862  1.00  0.00     0.074 A 
ATOM     65  C   UNL A   1      45.691  24.843  30.175  1.00  0.00     0.031 C 
ATOM     66  C   UNL A   1      45.813  26.630  31.890  1.00  0.00     0.034 A 
BRANCH  53  67
ATOM     67  C   UNL A   1      42.772  31.556  34.138  1.00  0.00     0.023 A 
ATOM     68  C   UNL A   1      42.051  31.505  35.346  1.00  0.00     0.031 A 
ATOM     69  C   UNL A   1      43.454  32.747  33.833  1.00  0.00     0.131 A 
ATOM     70  C   UNL A   1      41.959  32.645  36.157  1.00  0.00     0.055 A 
ATOM     71  C   UNL A   1      43.433  33.849  34.690  1.00  0.00     0.041 A 
ATOM     72  F   UNL A   1      44.142  32.867  32.687  1.00  0.00    -0.206 F 
ATOM     73  C   UNL A   1      42.667  33.809  35.852  1.00  0.00     0.022 A 
BRANCH  70  74
ATOM     74  S   UNL A   1      40.771  32.636  37.528  1.00  0.00     0.124 S 
ATOM     75  O   UNL A   1      39.755  31.712  37.031  1.00  0.00    -0.237 OA
ATOM     76  O   UNL A   1      41.580  32.158  38.643  1.00  0.00    -0.237 OA
ATOM     77  O   UNL A   1      40.343  34.031  37.619  1.00  0.00    -0.744 OA
ENDBRANCH  70  74
ENDBRANCH  53  67
BRANCH  54  78
ATOM     78  C   UNL A   1      42.642  24.196  27.324  1.00  0.00     0.023 A 
ATOM     79  C   UNL A   1      41.884  23.024  27.475  1.00  0.00     0.031 A 
ATOM     80  C   UNL A   1      43.443  24.318  26.174  1.00  0.00     0.131 A 
ATOM     81  C   UNL A   1      41.979  22.001  26.519  1.00  0.00     0.055 A 
ATOM     82  C   UNL A   1      43.490  23.322  25.197  1.00  0.00     0.041 A 
ATOM     83  F   UNL A   1      44.185  25.420  25.977  1.00  0.00    -0.206 F 
ATOM     84  C   UNL A   1      42.765  22.148  25.373  1.00  0.00     0.022 A 
BRANCH  81  85
ATOM     85  S   UNL A   1      41.126  20.432  26.836  1.00  0.00     0.124 S 
ATOM     86  O   UNL A   1      42.109  19.461  26.369  1.00  0.00    -0.237 OA
ATOM     87  O   UNL A   1      40.914  20.490  28.278  1.00  0.00    -0.237 OA
ATOM     88  O   UNL A   1      39.915  20.534  26.025  1.00  0.00    -0.744 OA
ENDBRANCH  81  85
ENDBRANCH  54  78
BRANCH  66  89
ATOM     89  C   UNL A   1      47.115  26.025  32.358  1.00  0.00     0.023 A 
ATOM     90  C   UNL A   1      47.163  25.075  33.393  1.00  0.00     0.031 A 
ATOM     91  C   UNL A   1      48.329  26.415  31.765  1.00  0.00     0.131 A 
ATOM     92  C   UNL A   1      48.402  24.590  33.841  1.00  0.00     0.055 A 
ATOM     93  C   UNL A   1      49.552  25.880  32.168  1.00  0.00     0.041 A 
ATOM     94  F   UNL A   1      48.346  27.323  30.775  1.00  0.00    -0.206 F 
ATOM     95  C   UNL A   1      49.595  24.972  33.222  1.00  0.00     0.022 A 
BRANCH  92  96
ATOM     96  S   UNL A   1      48.440  23.528  35.311  1.00  0.00     0.124 S 
ATOM     97  O   UNL A   1      49.800  23.731  35.796  1.00  0.00    -0.237 OA
ATOM     98  O   UNL A   1      47.378  24.097  36.135  1.00  0.00    -0.237 OA
ATOM     99  O   UNL A   1      48.164  22.195  34.779  1.00  0.00    -0.744 OA
ENDBRANCH  92  96
ENDBRANCH  66  89
ENDBRANCH  40  41
ENDBRANCH  32  35
ENDBRANCH  30  31
ENDBRANCH  29  30
ENDBRANCH  28  29
ENDBRANCH  27  28
ENDBRANCH   1  27
TORSDOF 21
ENDMDL
MODEL 2
REMARK VINA RESULT:     -10.9      3.467      8.561
REMARK SMILES O=C(CSc1ccnc(C(=O)NCCCCCCNC(=O)c2ccc(-c3c4nc(c(-c5cc(S(=O)(=O)[O-])ccc5F)c5ccc([nH]5)c(-c5cc(S(=O)(=O)[O-])ccc5F)c5nc(c(-c6cc(S(=O)(=O)[O-])ccc6F)c6ccc3[nH]6)C=C5)C=C4)cc2)c1)NNc1ccccn1
REMARK SMILES IDX 14 1 13 2 12 3 10 4 11 5 9 7 5 8 6 9 85 10 7 11 8 12 4 13
REMARK SMILES IDX 3 14 2 15 1 16 86 17 87 19 88 21 89 22 93 23 90 24 92 25
REMARK SMILES IDX 91 26 15 27 16 28 17 29 18 30 19 31 20 32 21 34 22 35 23 36
REMARK SMILES IDX 84 37 24 38 83 39 25 40 26 41 27 42 77 43 28 44 82 45 76 46
REMARK SMILES IDX 78 47 29 48 81 49 75 50 74 51 30 53 62 54 42 55 61 56 43 57
REMARK SMILES IDX 46 58 60 59 79 60 44 61 45 62 59 64 80 65 47 66 31 67 32 68
REMARK SMILES IDX 40 69 33 70 39 71 41 72 38 73 34 74 35 75 36 76 37 77 63 78
REMARK SMILES IDX 64 79 72 80 65 81 71 82 73 83 70 84 66 85 67 86 68 87 69 88
REMARK SMILES IDX 48 89 49 90 57 91 50 92 56 93 58 94 55 95 51 96 52 97 53 98
REMARK SMILES IDX 54 99
REMARK H PARENT 12 6 86 18 87 20 19 33 78 52 46 63
REMARK Flexibility Score: inf
ROOT
ATOM      1  C   UNL A   1      30.510  30.120  24.258  1.00  0.00     0.021 C 
ENDROOT
BRANCH   1   2
ATOM      2  C   UNL A   1      30.225  29.275  23.022  1.00  0.00     0.116 C 
BRANCH   2   3
ATOM      3  N   UNL A   1      29.248  28.223  23.247  1.00  0.00    -0.351 N 
ATOM      4  C   UNL A   1      29.316  26.971  23.826  1.00  0.00     0.269 C 
ATOM      5  O   UNL A   1      28.273  26.312  23.826  1.00  0.00    -0.268 OA
ATOM      6  H   UNL A   1      28.349  28.450  22.917  1.00  0.00     0.163 HD
BRANCH   4   7
ATOM      7  C   UNL A   1      30.574  26.375  24.407  1.00  0.00     0.129 A 
ATOM      8  C   UNL A   1      32.691  25.244  24.233  1.00  0.00     0.012 A 
ATOM      9  C   UNL A   1      32.698  25.107  25.616  1.00  0.00     0.035 A 
ATOM     10  C   UNL A   1      31.656  25.973  23.643  1.00  0.00     0.049 A 
ATOM     11  C   UNL A   1      31.648  25.658  26.331  1.00  0.00     0.113 A 
ATOM     12  N   UNL A   1      30.579  26.248  25.760  1.00  0.00    -0.251 NA
BRANCH   8  13
ATOM     13  S   UNL A   1      33.851  24.510  23.083  1.00  0.00    -0.116 SA
BRANCH  13  14
ATOM     14  C   UNL A   1      34.382  22.962  23.892  1.00  0.00     0.176 C 
BRANCH  14  15
ATOM     15  C   UNL A   1      33.317  21.889  23.782  1.00  0.00     0.248 C 
ATOM     16  O   UNL A   1      32.285  22.062  23.133  1.00  0.00    -0.272 OA
ATOM     17  N   UNL A   1      33.630  20.710  24.429  1.00  0.00    -0.268 N 
ATOM     18  H   UNL A   1      34.502  20.590  24.870  1.00  0.00     0.191 HD
BRANCH  17  19
ATOM     19  N   UNL A   1      32.682  19.701  24.440  1.00  0.00    -0.282 N 
ATOM     20  H   UNL A   1      31.733  19.905  24.274  1.00  0.00     0.190 HD
BRANCH  19  21
ATOM     21  C   UNL A   1      33.090  18.392  24.689  1.00  0.00     0.144 A 
ATOM     22  C   UNL A   1      34.363  17.926  24.363  1.00  0.00     0.048 A 
ATOM     23  N   UNL A   1      32.179  17.600  25.291  1.00  0.00    -0.238 NA
ATOM     24  C   UNL A   1      34.699  16.602  24.642  1.00  0.00     0.005 A 
ATOM     25  C   UNL A   1      32.523  16.318  25.541  1.00  0.00     0.113 A 
ATOM     26  C   UNL A   1      33.758  15.777  25.238  1.00  0.00     0.020 A 
ENDBRANCH  19  21
ENDBRANCH  17  19
ENDBRANCH  14  15
ENDBRANCH  13  14
ENDBRANCH   8  13
ENDBRANCH   4   7
ENDBRANCH   2   3
ENDBRANCH   1   2
BRANCH   1  27
ATOM     27  C   UNL A   1      31.693  29.671  25.115  1.00  0.00     0.002 C 
BRANCH  27  28
ATOM     28  C   UNL A   1      31.748  30.242  26.536  1.00  0.00     0.002 C 
BRANCH  28  29
ATOM     29  C   UNL A   1      31.714  31.769  26.649  1.00  0.00     0.021 C 
BRANCH  29  30
ATOM     30  C   UNL A   1      32.965  32.407  27.245  1.00  0.00     0.116 C 
BRANCH  30  31
ATOM     31  N   UNL A   1      32.741  33.789  27.631  1.00  0.00    -0.352 N 
ATOM     32  C   UNL A   1      33.288  34.507  28.666  1.00  0.00     0.251 C 
ATOM     33  H   UNL A   1      32.103  34.284  27.067  1.00  0.00     0.163 HD
ATOM     34  O   UNL A   1      32.803  35.592  28.971  1.00  0.00    -0.269 OA
BRANCH  32  35
ATOM     35  C   UNL A   1      34.440  33.964  29.419  1.00  0.00     0.039 A 
ATOM     36  C   UNL A   1      34.204  33.075  30.470  1.00  0.00     0.014 A 
ATOM     37  C   UNL A   1      35.749  34.348  29.107  1.00  0.00     0.014 A 
ATOM     38  C   UNL A   1      35.281  32.529  31.173  1.00  0.00     0.010 A 
ATOM     39  C   UNL A   1      36.823  33.747  29.759  1.00  0.00     0.010 A 
ATOM     40  C   UNL A   1      36.601  32.836  30.803  1.00  0.00    -0.014 A 
BRANCH  40  41
ATOM     41  C   UNL A   1      37.759  32.223  31.506  1.00  0.00     0.031 A 
ATOM     42  C   UNL A   1      38.544  31.120  30.848  1.00  0.00     0.074 A 
ATOM     43  C   UNL A   1      38.069  32.623  32.756  1.00  0.00     0.049 A 
ATOM     44  N   UNL A   1      39.538  30.413  31.323  1.00  0.00    -0.248 NA
ATOM     45  C   UNL A   1      38.136  30.744  29.487  1.00  0.00     0.031 C 
ATOM     46  C   UNL A   1      37.360  33.660  33.509  1.00  0.00     0.029 A 
ATOM     47  N   UNL A   1      39.054  32.204  33.615  1.00  0.00    -0.354 N 
ATOM     48  C   UNL A   1      39.867  29.503  30.324  1.00  0.00     0.074 A 
ATOM     49  C   UNL A   1      38.921  29.705  29.247  1.00  0.00     0.031 C 
ATOM     50  C   UNL A   1      37.948  33.812  34.707  1.00  0.00     0.029 A 
ATOM     51  C   UNL A   1      39.042  32.854  34.828  1.00  0.00     0.049 A 
ATOM     52  H   UNL A   1      39.706  31.504  33.386  1.00  0.00     0.167 HD
ATOM     53  C   UNL A   1      40.879  28.600  30.297  1.00  0.00     0.034 A 
ATOM     54  C   UNL A   1      39.816  32.688  35.920  1.00  0.00     0.034 A 
ATOM     55  C   UNL A   1      41.817  28.418  31.379  1.00  0.00     0.049 A 
ATOM     56  C   UNL A   1      40.911  31.652  35.882  1.00  0.00     0.074 A 
ATOM     57  C   UNL A   1      42.909  27.570  31.440  1.00  0.00     0.029 A 
ATOM     58  N   UNL A   1      41.770  29.088  32.596  1.00  0.00    -0.354 N 
ATOM     59  N   UNL A   1      41.241  30.831  34.911  1.00  0.00    -0.248 NA
ATOM     60  C   UNL A   1      41.747  31.530  37.083  1.00  0.00     0.031 C 
ATOM     61  C   UNL A   1      43.473  27.671  32.717  1.00  0.00     0.029 A 
ATOM     62  C   UNL A   1      42.790  28.645  33.425  1.00  0.00     0.049 A 
ATOM     63  H   UNL A   1      41.108  29.778  32.834  1.00  0.00     0.167 HD
ATOM     64  C   UNL A   1      42.342  30.117  35.375  1.00  0.00     0.074 A 
ATOM     65  C   UNL A   1      42.629  30.616  36.704  1.00  0.00     0.031 C 
ATOM     66  C   UNL A   1      43.056  29.142  34.756  1.00  0.00     0.034 A 
BRANCH  53  67
ATOM     67  C   UNL A   1      40.999  27.725  29.070  1.00  0.00     0.023 A 
ATOM     68  C   UNL A   1      41.999  27.940  28.103  1.00  0.00     0.031 A 
ATOM     69  C   UNL A   1      40.084  26.681  28.844  1.00  0.00     0.131 A 
ATOM     70  C   UNL A   1      42.007  27.183  26.923  1.00  0.00     0.055 A 
ATOM     71  C   UNL A   1      40.153  25.872  27.709  1.00  0.00     0.041 A 
ATOM     72  F   UNL A   1      39.094  26.439  29.718  1.00  0.00    -0.206 F 
ATOM     73  C   UNL A   1      41.108  26.132  26.730  1.00  0.00     0.022 A 
BRANCH  70  74
ATOM     74  S   UNL A   1      43.104  27.699  25.573  1.00  0.00     0.124 S 
ATOM     75  O   UNL A   1      42.160  28.317  24.646  1.00  0.00    -0.237 OA
ATOM     76  O   UNL A   1      44.026  28.607  26.246  1.00  0.00    -0.237 OA
ATOM     77  O   UNL A   1      43.690  26.443  25.109  1.00  0.00    -0.744 OA
ENDBRANCH  70  74
ENDBRANCH  53  67
BRANCH  54  78
ATOM     78  C   UNL A   1      39.579  33.506  37.144  1.00  0.00     0.023 A 
ATOM     79  C   UNL A   1      40.321  34.673  37.389  1.00  0.00     0.031 A 
ATOM     80  C   UNL A   1      38.632  33.113  38.107  1.00  0.00     0.131 A 
ATOM     81  C   UNL A   1      40.138  35.379  38.588  1.00  0.00     0.055 A 
ATOM     82  C   UNL A   1      38.413  33.850  39.271  1.00  0.00     0.041 A 
ATOM     83  F   UNL A   1      37.893  32.007  37.920  1.00  0.00    -0.206 F 
ATOM     84  C   UNL A   1      39.179  34.984  39.525  1.00  0.00     0.022 A 
BRANCH  81  85
ATOM     85  S   UNL A   1      41.235  36.777  38.951  1.00  0.00     0.124 S 
ATOM     86  O   UNL A   1      41.978  36.901  37.701  1.00  0.00    -0.237 OA
ATOM     87  O   UNL A   1      40.282  37.842  39.241  1.00  0.00    -0.237 OA
ATOM     88  O   UNL A   1      42.013  36.310  40.096  1.00  0.00    -0.744 OA
ENDBRANCH  81  85
ENDBRANCH  54  78
BRANCH  66  89
ATOM     89  C   UNL A   1      44.245  28.584  35.500  1.00  0.00     0.023 A 
ATOM     90  C   UNL A   1      44.112  27.554  36.448  1.00  0.00     0.031 A 
ATOM     91  C   UNL A   1      45.533  29.098  35.263  1.00  0.00     0.131 A 
ATOM     92  C   UNL A   1      45.235  27.113  37.165  1.00  0.00     0.055 A 
ATOM     93  C   UNL A   1      46.656  28.609  35.930  1.00  0.00     0.041 A 
ATOM     94  F   UNL A   1      45.721  30.085  34.372  1.00  0.00    -0.206 F 
ATOM     95  C   UNL A   1      46.509  27.621  36.898  1.00  0.00     0.022 A 
BRANCH  92  96
ATOM     96  S   UNL A   1      44.992  25.936  38.524  1.00  0.00     0.124 S 
ATOM     97  O   UNL A   1      46.270  26.012  39.223  1.00  0.00    -0.237 OA
ATOM     98  O   UNL A   1      43.846  26.503  39.227  1.00  0.00    -0.237 OA
ATOM     99  O   UNL A   1      44.735  24.670  37.839  1.00  0.00    -0.744 OA
ENDBRANCH  92  96
ENDBRANCH  66  89
ENDBRANCH  40  41
ENDBRANCH  32  35
ENDBRANCH  30  31
ENDBRANCH  29  30
ENDBRANCH  28  29
ENDBRANCH  27  28
ENDBRANCH   1  27
TORSDOF 21
ENDMDL
MODEL 3
REMARK VINA RESULT:     -10.8      3.489      8.727
REMARK SMILES O=C(CSc1ccnc(C(=O)NCCCCCCNC(=O)c2ccc(-c3c4nc(c(-c5cc(S(=O)(=O)[O-])ccc5F)c5ccc([nH]5)c(-c5cc(S(=O)(=O)[O-])ccc5F)c5nc(c(-c6cc(S(=O)(=O)[O-])ccc6F)c6ccc3[nH]6)C=C5)C=C4)cc2)c1)NNc1ccccn1
REMARK SMILES IDX 14 1 13 2 12 3 10 4 11 5 9 7 5 8 6 9 85 10 7 11 8 12 4 13
REMARK SMILES IDX 3 14 2 15 1 16 86 17 87 19 88 21 89 22 93 23 90 24 92 25
REMARK SMILES IDX 91 26 15 27 16 28 17 29 18 30 19 31 20 32 21 34 22 35 23 36
REMARK SMILES IDX 84 37 24 38 83 39 25 40 26 41 27 42 77 43 28 44 82 45 76 46
REMARK SMILES IDX 78 47 29 48 81 49 75 50 74 51 30 53 62 54 42 55 61 56 43 57
REMARK SMILES IDX 46 58 60 59 79 60 44 61 45 62 59 64 80 65 47 66 31 67 32 68
REMARK SMILES IDX 40 69 33 70 39 71 41 72 38 73 34 74 35 75 36 76 37 77 63 78
REMARK SMILES IDX 64 79 72 80 65 81 71 82 73 83 70 84 66 85 67 86 68 87 69 88
REMARK SMILES IDX 48 89 49 90 57 91 50 92 56 93 58 94 55 95 51 96 52 97 53 98
REMARK SMILES IDX 54 99
REMARK H PARENT 12 6 86 18 87 20 19 33 78 52 46 63
REMARK Flexibility Score: inf
ROOT
ATOM      1  C   UNL A   1      32.830  28.556  26.130  1.00  0.00     0.021 C 
ENDROOT
BRANCH   1   2
ATOM      2  C   UNL A   1      32.032  27.272  25.934  1.00  0.00     0.116 C 
BRANCH   2   3
ATOM      3  N   UNL A   1      31.892  26.879  24.543  1.00  0.00    -0.351 N 
ATOM      4  C   UNL A   1      31.901  25.659  23.895  1.00  0.00     0.269 C 
ATOM      5  O   UNL A   1      31.778  25.693  22.668  1.00  0.00    -0.268 OA
ATOM      6  H   UNL A   1      31.763  27.641  23.934  1.00  0.00     0.163 HD
BRANCH   4   7
ATOM      7  C   UNL A   1      32.086  24.333  24.590  1.00  0.00     0.129 A 
ATOM      8  C   UNL A   1      33.335  22.347  25.123  1.00  0.00     0.012 A 
ATOM      9  C   UNL A   1      32.192  21.822  25.712  1.00  0.00     0.035 A 
ATOM     10  C   UNL A   1      33.293  23.658  24.644  1.00  0.00     0.049 A 
ATOM     11  C   UNL A   1      31.055  22.611  25.746  1.00  0.00     0.113 A 
ATOM     12  N   UNL A   1      30.968  23.826  25.169  1.00  0.00    -0.251 NA
BRANCH   8  13
ATOM     13  S   UNL A   1      34.878  21.484  24.834  1.00  0.00    -0.116 SA
BRANCH  13  14
ATOM     14  C   UNL A   1      36.022  22.777  24.240  1.00  0.00     0.176 C 
BRANCH  14  15
ATOM     15  C   UNL A   1      37.067  23.112  25.286  1.00  0.00     0.248 C 
ATOM     16  O   UNL A   1      36.889  23.998  26.122  1.00  0.00    -0.272 OA
ATOM     17  N   UNL A   1      38.193  22.313  25.239  1.00  0.00    -0.268 N 
ATOM     18  H   UNL A   1      38.256  21.565  24.603  1.00  0.00     0.191 HD
BRANCH  17  19
ATOM     19  N   UNL A   1      39.229  22.596  26.112  1.00  0.00    -0.282 N 
ATOM     20  H   UNL A   1      39.173  23.367  26.722  1.00  0.00     0.190 HD
BRANCH  19  21
ATOM     21  C   UNL A   1      40.355  21.774  26.115  1.00  0.00     0.144 A 
ATOM     22  C   UNL A   1      41.654  22.278  26.117  1.00  0.00     0.048 A 
ATOM     23  N   UNL A   1      40.109  20.447  26.141  1.00  0.00    -0.238 NA
ATOM     24  C   UNL A   1      42.731  21.393  26.120  1.00  0.00     0.005 A 
ATOM     25  C   UNL A   1      41.168  19.609  26.132  1.00  0.00     0.113 A 
ATOM     26  C   UNL A   1      42.485  20.029  26.121  1.00  0.00     0.020 A 
ENDBRANCH  19  21
ENDBRANCH  17  19
ENDBRANCH  14  15
ENDBRANCH  13  14
ENDBRANCH   8  13
ENDBRANCH   4   7
ENDBRANCH   2   3
ENDBRANCH   1   2
BRANCH   1  27
ATOM     27  C   UNL A   1      32.109  29.685  26.864  1.00  0.00     0.002 C 
BRANCH  27  28
ATOM     28  C   UNL A   1      31.405  30.719  25.980  1.00  0.00     0.002 C 
BRANCH  28  29
ATOM     29  C   UNL A   1      31.358  32.150  26.525  1.00  0.00     0.021 C 
BRANCH  29  30
ATOM     30  C   UNL A   1      32.668  32.667  27.112  1.00  0.00     0.116 C 
BRANCH  30  31
ATOM     31  N   UNL A   1      32.538  34.019  27.627  1.00  0.00    -0.352 N 
ATOM     32  C   UNL A   1      33.165  34.611  28.695  1.00  0.00     0.251 C 
ATOM     33  H   UNL A   1      31.907  34.595  27.138  1.00  0.00     0.163 HD
ATOM     34  O   UNL A   1      32.756  35.689  29.116  1.00  0.00    -0.269 OA
BRANCH  32  35
ATOM     35  C   UNL A   1      34.315  33.944  29.345  1.00  0.00     0.039 A 
ATOM     36  C   UNL A   1      35.608  34.253  28.916  1.00  0.00     0.014 A 
ATOM     37  C   UNL A   1      34.120  32.998  30.358  1.00  0.00     0.014 A 
ATOM     38  C   UNL A   1      36.707  33.654  29.537  1.00  0.00     0.010 A 
ATOM     39  C   UNL A   1      35.218  32.460  31.025  1.00  0.00     0.010 A 
ATOM     40  C   UNL A   1      36.523  32.777  30.619  1.00  0.00    -0.014 A 
BRANCH  40  41
ATOM     41  C   UNL A   1      37.683  32.173  31.326  1.00  0.00     0.031 A 
ATOM     42  C   UNL A   1      38.450  31.044  30.691  1.00  0.00     0.074 A 
ATOM     43  C   UNL A   1      38.011  32.605  32.560  1.00  0.00     0.049 A 
ATOM     44  N   UNL A   1      39.443  30.341  31.174  1.00  0.00    -0.248 NA
ATOM     45  C   UNL A   1      38.022  30.634  29.345  1.00  0.00     0.031 C 
ATOM     46  C   UNL A   1      37.321  33.670  33.292  1.00  0.00     0.029 A 
ATOM     47  N   UNL A   1      39.001  32.200  33.420  1.00  0.00    -0.354 N 
ATOM     48  C   UNL A   1      39.751  29.400  30.198  1.00  0.00     0.074 A 
ATOM     49  C   UNL A   1      38.794  29.580  29.127  1.00  0.00     0.031 C 
ATOM     50  C   UNL A   1      37.924  33.850  34.478  1.00  0.00     0.029 A 
ATOM     51  C   UNL A   1      39.010  32.884  34.615  1.00  0.00     0.049 A 
ATOM     52  H   UNL A   1      39.644  31.487  33.204  1.00  0.00     0.167 HD
ATOM     53  C   UNL A   1      40.754  28.486  30.186  1.00  0.00     0.034 A 
ATOM     54  C   UNL A   1      39.794  32.741  35.702  1.00  0.00     0.034 A 
ATOM     55  C   UNL A   1      41.702  28.325  31.262  1.00  0.00     0.049 A 
ATOM     56  C   UNL A   1      40.879  31.695  35.682  1.00  0.00     0.074 A 
ATOM     57  C   UNL A   1      42.786  27.468  31.335  1.00  0.00     0.029 A 
ATOM     58  N   UNL A   1      41.675  29.030  32.460  1.00  0.00    -0.354 N 
ATOM     59  N   UNL A   1      41.189  30.843  34.730  1.00  0.00    -0.248 NA
ATOM     60  C   UNL A   1      41.727  31.598  36.876  1.00  0.00     0.031 C 
ATOM     61  C   UNL A   1      43.366  27.599  32.602  1.00  0.00     0.029 A 
ATOM     62  C   UNL A   1      42.700  28.601  33.291  1.00  0.00     0.049 A 
ATOM     63  H   UNL A   1      41.023  29.733  32.685  1.00  0.00     0.167 HD
ATOM     64  C   UNL A   1      42.289  30.132  35.202  1.00  0.00     0.074 A 
ATOM     65  C   UNL A   1      42.596  30.664  36.513  1.00  0.00     0.031 C 
ATOM     66  C   UNL A   1      42.986  29.132  34.603  1.00  0.00     0.034 A 
BRANCH  53  67
ATOM     67  C   UNL A   1      40.851  27.576  28.983  1.00  0.00     0.023 A 
ATOM     68  C   UNL A   1      41.822  27.772  27.983  1.00  0.00     0.031 A 
ATOM     69  C   UNL A   1      39.943  26.515  28.814  1.00  0.00     0.131 A 
ATOM     70  C   UNL A   1      41.807  26.980  26.826  1.00  0.00     0.055 A 
ATOM     71  C   UNL A   1      39.992  25.672  27.702  1.00  0.00     0.041 A 
ATOM     72  F   UNL A   1      38.981  26.288  29.721  1.00  0.00    -0.206 F 
ATOM     73  C   UNL A   1      40.917  25.913  26.689  1.00  0.00     0.022 A 
BRANCH  70  74
ATOM     74  S   UNL A   1      42.861  27.468  25.432  1.00  0.00     0.124 S 
ATOM     75  O   UNL A   1      42.054  28.510  24.803  1.00  0.00    -0.237 OA
ATOM     76  O   UNL A   1      44.078  27.916  26.099  1.00  0.00    -0.237 OA
ATOM     77  O   UNL A   1      42.991  26.237  24.654  1.00  0.00    -0.744 OA
ENDBRANCH  70  74
ENDBRANCH  53  67
BRANCH  54  78
ATOM     78  C   UNL A   1      39.580  33.596  36.905  1.00  0.00     0.023 A 
ATOM     79  C   UNL A   1      39.006  33.070  38.073  1.00  0.00     0.031 A 
ATOM     80  C   UNL A   1      39.911  34.963  36.891  1.00  0.00     0.131 A 
ATOM     81  C   UNL A   1      38.738  33.915  39.162  1.00  0.00     0.055 A 
ATOM     82  C   UNL A   1      39.695  35.787  37.997  1.00  0.00     0.041 A 
ATOM     83  F   UNL A   1      40.467  35.517  35.801  1.00  0.00    -0.206 F 
ATOM     84  C   UNL A   1      39.091  35.266  39.138  1.00  0.00     0.022 A 
BRANCH  81  85
ATOM     85  S   UNL A   1      37.836  33.240  40.584  1.00  0.00     0.124 S 
ATOM     86  O   UNL A   1      38.544  31.987  40.816  1.00  0.00    -0.237 OA
ATOM     87  O   UNL A   1      38.028  34.283  41.586  1.00  0.00    -0.237 OA
ATOM     88  O   UNL A   1      36.470  33.102  40.085  1.00  0.00    -0.744 OA
ENDBRANCH  81  85
ENDBRANCH  54  78
BRANCH  66  89
ATOM     89  C   UNL A   1      44.178  28.583  35.350  1.00  0.00     0.023 A 
ATOM     90  C   UNL A   1      44.051  27.551  36.296  1.00  0.00     0.031 A 
ATOM     91  C   UNL A   1      45.462  29.109  35.117  1.00  0.00     0.131 A 
ATOM     92  C   UNL A   1      45.176  27.118  37.015  1.00  0.00     0.055 A 
ATOM     93  C   UNL A   1      46.588  28.629  35.786  1.00  0.00     0.041 A 
ATOM     94  F   UNL A   1      45.643  30.100  34.228  1.00  0.00    -0.206 F 
ATOM     95  C   UNL A   1      46.446  27.638  36.753  1.00  0.00     0.022 A 
BRANCH  92  96
ATOM     96  S   UNL A   1      44.940  25.937  38.371  1.00  0.00     0.124 S 
ATOM     97  O   UNL A   1      44.080  24.935  37.754  1.00  0.00    -0.237 OA
ATOM     98  O   UNL A   1      46.307  25.514  38.659  1.00  0.00    -0.237 OA
ATOM     99  O   UNL A   1      44.307  26.739  39.417  1.00  0.00    -0.744 OA
ENDBRANCH  92  96
ENDBRANCH  66  89
ENDBRANCH  40  41
ENDBRANCH  32  35
ENDBRANCH  30  31
ENDBRANCH  29  30
ENDBRANCH  28  29
ENDBRANCH  27  28
ENDBRANCH   1  27
TORSDOF 21
ENDMDL
