MODEL 1
REMARK VINA RESULT:     -11.1      0.000      0.000
REMARK SMILES C[C@H]1[C@@H](C(=O)NCCCCCCNC(=O)c2ccc(-c3c4nc(c(-c5cc(S(=O)(=O)[O-])ccc5F)c5ccc([nH]5)c(-c5cc(S(=O)(=O)[O-])ccc5F)c5nc(c(-c6cc(S(=O)(=O)[O-])ccc6F)c6ccc3[nH]6)C=C5)C=C4)cc2)CC[N@@H+]1CC1(O)CCCC1
REMARK SMILES IDX 9 1 8 2 7 3 6 4 4 5 5 6 3 8 1 9 2 10 81 11 79 12 80 13 82 15
REMARK SMILES IDX 83 16 85 17 88 18 86 19 87 20 84 21 10 23 11 24 12 25 13 26
REMARK SMILES IDX 14 27 15 29 16 30 17 31 78 32 18 33 77 34 19 35 20 36 21 37
REMARK SMILES IDX 71 38 22 39 76 40 70 41 72 42 23 43 75 44 69 45 68 46 24 48
REMARK SMILES IDX 56 49 36 50 55 51 37 52 40 53 54 54 73 55 38 56 39 57 53 59
REMARK SMILES IDX 74 60 41 61 25 62 26 63 34 64 27 65 33 66 35 67 32 68 28 69
REMARK SMILES IDX 29 70 30 71 31 72 57 73 58 74 66 75 59 76 65 77 67 78 64 79
REMARK SMILES IDX 60 80 61 81 62 82 63 83 42 84 43 85 51 86 44 87 50 88 52 89
REMARK SMILES IDX 49 90 45 91 46 92 47 93 48 94
REMARK H PARENT 6 7 81 14 84 22 13 28 72 47 40 58
REMARK Flexibility Score: inf
ROOT
ATOM      1  C   UNL A   1      37.447  22.274  24.894  1.00  0.00     0.002 C 
ENDROOT
BRANCH   1   2
ATOM      2  C   UNL A   1      36.488  23.095  25.757  1.00  0.00     0.021 C 
BRANCH   2   3
ATOM      3  C   UNL A   1      35.326  23.722  24.980  1.00  0.00     0.116 C 
BRANCH   3   4
ATOM      4  N   UNL A   1      34.340  24.176  25.933  1.00  0.00    -0.356 N 
ATOM      5  C   UNL A   1      32.985  24.044  25.895  1.00  0.00     0.229 C 
ATOM      6  O   UNL A   1      32.342  24.881  26.531  1.00  0.00    -0.275 OA
ATOM      7  H   UNL A   1      34.698  24.647  26.721  1.00  0.00     0.163 HD
BRANCH   5   8
ATOM      8  C   UNL A   1      32.336  22.810  25.260  1.00  0.00     0.142 C 
ATOM      9  C   UNL A   1      33.664  21.137  26.834  1.00  0.00     0.076 C 
ATOM     10  C   UNL A   1      32.637  21.368  25.735  1.00  0.00     0.193 C 
ATOM     11  N   UNL A   1      33.147  20.635  24.572  1.00  0.00    -0.330 N 
ATOM     12  C   UNL A   1      32.641  22.774  23.750  1.00  0.00     0.081 C 
ATOM     13  C   UNL A   1      33.582  21.604  23.581  1.00  0.00     0.263 C 
ATOM     14  H   UNL A   1      33.962  20.096  24.865  1.00  0.00     0.348 HD
BRANCH  11  15
ATOM     15  C   UNL A   1      32.354  19.497  24.097  1.00  0.00     0.297 C 
BRANCH  15  16
ATOM     16  C   UNL A   1      32.909  18.049  24.140  1.00  0.00     0.113 C 
ATOM     17  C   UNL A   1      32.485  17.205  25.345  1.00  0.00     0.041 C 
ATOM     18  C   UNL A   1      34.436  18.051  24.303  1.00  0.00     0.041 C 
ATOM     19  C   UNL A   1      33.535  16.095  25.439  1.00  0.00     0.003 C 
ATOM     20  C   UNL A   1      34.771  16.619  24.713  1.00  0.00     0.003 C 
BRANCH  16  21
ATOM     21  O   UNL A   1      32.616  17.382  22.905  1.00  0.00    -0.384 OA
ATOM     22  H   UNL A   1      32.701  16.424  23.028  1.00  0.00     0.211 HD
ENDBRANCH  16  21
ENDBRANCH  15  16
ENDBRANCH  11  15
ENDBRANCH   5   8
ENDBRANCH   3   4
ENDBRANCH   2   3
ENDBRANCH   1   2
BRANCH   1  23
ATOM     23  C   UNL A   1      37.048  20.807  24.736  1.00  0.00     0.002 C 
BRANCH  23  24
ATOM     24  C   UNL A   1      38.179  19.800  24.967  1.00  0.00     0.021 C 
BRANCH  24  25
ATOM     25  C   UNL A   1      39.194  20.208  26.035  1.00  0.00     0.116 C 
BRANCH  25  26
ATOM     26  N   UNL A   1      40.332  19.307  26.064  1.00  0.00    -0.352 N 
ATOM     27  C   UNL A   1      41.669  19.606  26.076  1.00  0.00     0.251 C 
ATOM     28  H   UNL A   1      40.114  18.347  26.077  1.00  0.00     0.163 HD
ATOM     29  O   UNL A   1      42.495  18.726  25.827  1.00  0.00    -0.269 OA
BRANCH  27  30
ATOM     30  C   UNL A   1      42.112  20.983  26.372  1.00  0.00     0.039 A 
ATOM     31  C   UNL A   1      42.387  21.339  27.694  1.00  0.00     0.014 A 
ATOM     32  C   UNL A   1      42.241  21.925  25.347  1.00  0.00     0.014 A 
ATOM     33  C   UNL A   1      42.840  22.628  27.982  1.00  0.00     0.010 A 
ATOM     34  C   UNL A   1      42.758  23.187  25.626  1.00  0.00     0.010 A 
ATOM     35  C   UNL A   1      43.056  23.555  26.947  1.00  0.00    -0.014 A 
BRANCH  35  36
ATOM     36  C   UNL A   1      43.575  24.916  27.233  1.00  0.00     0.031 A 
ATOM     37  C   UNL A   1      42.657  25.970  27.789  1.00  0.00     0.074 A 
ATOM     38  C   UNL A   1      44.856  25.215  26.941  1.00  0.00     0.049 A 
ATOM     39  N   UNL A   1      42.900  27.230  28.044  1.00  0.00    -0.248 NA
ATOM     40  C   UNL A   1      41.274  25.556  28.068  1.00  0.00     0.031 C 
ATOM     41  C   UNL A   1      45.829  24.285  26.366  1.00  0.00     0.029 A 
ATOM     42  N   UNL A   1      45.558  26.385  27.081  1.00  0.00    -0.354 N 
ATOM     43  C   UNL A   1      41.700  27.763  28.502  1.00  0.00     0.074 A 
ATOM     44  C   UNL A   1      40.717  26.702  28.428  1.00  0.00     0.031 C 
ATOM     45  C   UNL A   1      47.008  24.914  26.223  1.00  0.00     0.029 A 
ATOM     46  C   UNL A   1      46.863  26.301  26.655  1.00  0.00     0.049 A 
ATOM     47  H   UNL A   1      45.166  27.208  27.452  1.00  0.00     0.167 HD
ATOM     48  C   UNL A   1      41.448  29.013  28.966  1.00  0.00     0.034 A 
ATOM     49  C   UNL A   1      47.831  27.239  26.606  1.00  0.00     0.034 A 
ATOM     50  C   UNL A   1      42.443  30.054  29.040  1.00  0.00     0.049 A 
ATOM     51  C   UNL A   1      47.520  28.630  27.097  1.00  0.00     0.074 A 
ATOM     52  C   UNL A   1      42.314  31.338  29.540  1.00  0.00     0.029 A 
ATOM     53  N   UNL A   1      43.754  29.936  28.592  1.00  0.00    -0.354 N 
ATOM     54  N   UNL A   1      46.393  29.104  27.575  1.00  0.00    -0.248 NA
ATOM     55  C   UNL A   1      48.614  29.607  27.050  1.00  0.00     0.031 C 
ATOM     56  C   UNL A   1      43.521  32.014  29.332  1.00  0.00     0.029 A 
ATOM     57  C   UNL A   1      44.432  31.132  28.773  1.00  0.00     0.049 A 
ATOM     58  H   UNL A   1      44.144  29.119  28.203  1.00  0.00     0.167 HD
ATOM     59  C   UNL A   1      46.653  30.429  27.913  1.00  0.00     0.074 A 
ATOM     60  C   UNL A   1      48.046  30.671  27.598  1.00  0.00     0.031 C 
ATOM     61  C   UNL A   1      45.818  31.362  28.439  1.00  0.00     0.034 A 
BRANCH  48  62
ATOM     62  C   UNL A   1      40.032  29.320  29.399  1.00  0.00     0.023 A 
ATOM     63  C   UNL A   1      39.689  29.455  30.756  1.00  0.00     0.031 A 
ATOM     64  C   UNL A   1      39.005  29.446  28.447  1.00  0.00     0.131 A 
ATOM     65  C   UNL A   1      38.346  29.624  31.126  1.00  0.00     0.055 A 
ATOM     66  C   UNL A   1      37.683  29.701  28.818  1.00  0.00     0.041 A 
ATOM     67  F   UNL A   1      39.266  29.308  27.137  1.00  0.00    -0.206 F 
ATOM     68  C   UNL A   1      37.344  29.774  30.166  1.00  0.00     0.022 A 
BRANCH  65  69
ATOM     69  S   UNL A   1      37.910  29.491  32.881  1.00  0.00     0.124 S 
ATOM     70  O   UNL A   1      37.523  28.085  32.983  1.00  0.00    -0.237 OA
ATOM     71  O   UNL A   1      39.155  29.860  33.545  1.00  0.00    -0.237 OA
ATOM     72  O   UNL A   1      36.813  30.444  33.036  1.00  0.00    -0.744 OA
ENDBRANCH  65  69
ENDBRANCH  48  62
BRANCH  49  73
ATOM     73  C   UNL A   1      49.180  26.903  26.067  1.00  0.00     0.023 A 
ATOM     74  C   UNL A   1      49.572  27.325  24.788  1.00  0.00     0.031 A 
ATOM     75  C   UNL A   1      50.083  26.122  26.810  1.00  0.00     0.131 A 
ATOM     76  C   UNL A   1      50.815  26.927  24.271  1.00  0.00     0.055 A 
ATOM     77  C   UNL A   1      51.340  25.772  26.312  1.00  0.00     0.041 A 
ATOM     78  F   UNL A   1      49.760  25.696  28.042  1.00  0.00    -0.206 F 
ATOM     79  C   UNL A   1      51.707  26.165  25.029  1.00  0.00     0.022 A 
BRANCH  76  80
ATOM     80  S   UNL A   1      51.219  27.354  22.554  1.00  0.00     0.124 S 
ATOM     81  O   UNL A   1      50.155  26.678  21.822  1.00  0.00    -0.237 OA
ATOM     82  O   UNL A   1      51.154  28.811  22.583  1.00  0.00    -0.237 OA
ATOM     83  O   UNL A   1      52.557  26.795  22.371  1.00  0.00    -0.744 OA
ENDBRANCH  76  80
ENDBRANCH  49  73
BRANCH  61  84
ATOM     84  C   UNL A   1      46.409  32.718  28.739  1.00  0.00     0.023 A 
ATOM     85  C   UNL A   1      46.407  33.752  27.788  1.00  0.00     0.031 A 
ATOM     86  C   UNL A   1      46.997  32.971  29.992  1.00  0.00     0.131 A 
ATOM     87  C   UNL A   1      47.031  34.974  28.084  1.00  0.00     0.055 A 
ATOM     88  C   UNL A   1      47.561  34.209  30.302  1.00  0.00     0.041 A 
ATOM     89  F   UNL A   1      47.030  32.018  30.937  1.00  0.00    -0.206 F 
ATOM     90  C   UNL A   1      47.592  35.215  29.340  1.00  0.00     0.022 A 
BRANCH  87  91
ATOM     91  S   UNL A   1      47.181  36.216  26.769  1.00  0.00     0.124 S 
ATOM     92  O   UNL A   1      48.338  36.987  27.211  1.00  0.00    -0.237 OA
ATOM     93  O   UNL A   1      47.380  35.391  25.582  1.00  0.00    -0.237 OA
ATOM     94  O   UNL A   1      45.905  36.927  26.822  1.00  0.00    -0.744 OA
ENDBRANCH  87  91
ENDBRANCH  61  84
ENDBRANCH  35  36
ENDBRANCH  27  30
ENDBRANCH  25  26
ENDBRANCH  24  25
ENDBRANCH  23  24
ENDBRANCH   1  23
TORSDOF 19
ENDMDL
MODEL 2
REMARK VINA RESULT:     -11.0      2.445      4.107
REMARK SMILES C[C@H]1[C@@H](C(=O)NCCCCCCNC(=O)c2ccc(-c3c4nc(c(-c5cc(S(=O)(=O)[O-])ccc5F)c5ccc([nH]5)c(-c5cc(S(=O)(=O)[O-])ccc5F)c5nc(c(-c6cc(S(=O)(=O)[O-])ccc6F)c6ccc3[nH]6)C=C5)C=C4)cc2)CC[N@@H+]1CC1(O)CCCC1
REMARK SMILES IDX 9 1 8 2 7 3 6 4 4 5 5 6 3 8 1 9 2 10 81 11 79 12 80 13 82 15
REMARK SMILES IDX 83 16 85 17 88 18 86 19 87 20 84 21 10 23 11 24 12 25 13 26
REMARK SMILES IDX 14 27 15 29 16 30 17 31 78 32 18 33 77 34 19 35 20 36 21 37
REMARK SMILES IDX 71 38 22 39 76 40 70 41 72 42 23 43 75 44 69 45 68 46 24 48
REMARK SMILES IDX 56 49 36 50 55 51 37 52 40 53 54 54 73 55 38 56 39 57 53 59
REMARK SMILES IDX 74 60 41 61 25 62 26 63 34 64 27 65 33 66 35 67 32 68 28 69
REMARK SMILES IDX 29 70 30 71 31 72 57 73 58 74 66 75 59 76 65 77 67 78 64 79
REMARK SMILES IDX 60 80 61 81 62 82 63 83 42 84 43 85 51 86 44 87 50 88 52 89
REMARK SMILES IDX 49 90 45 91 46 92 47 93 48 94
REMARK H PARENT 6 7 81 14 84 22 13 28 72 47 40 58
REMARK Flexibility Score: inf
ROOT
ATOM      1  C   UNL A   1      36.107  21.837  24.946  1.00  0.00     0.002 C 
ENDROOT
BRANCH   1   2
ATOM      2  C   UNL A   1      36.302  23.327  25.227  1.00  0.00     0.021 C 
BRANCH   2   3
ATOM      3  C   UNL A   1      34.995  24.108  25.401  1.00  0.00     0.116 C 
BRANCH   3   4
ATOM      4  N   UNL A   1      34.055  23.640  24.409  1.00  0.00    -0.356 N 
ATOM      5  C   UNL A   1      32.924  24.243  23.949  1.00  0.00     0.229 C 
ATOM      6  O   UNL A   1      32.063  23.493  23.484  1.00  0.00    -0.275 OA
ATOM      7  H   UNL A   1      34.262  22.764  24.009  1.00  0.00     0.163 HD
BRANCH   5   8
ATOM      8  C   UNL A   1      32.834  25.768  23.844  1.00  0.00     0.142 C 
ATOM      9  C   UNL A   1      30.399  25.830  24.897  1.00  0.00     0.076 C 
ATOM     10  C   UNL A   1      31.606  26.570  24.339  1.00  0.00     0.193 C 
ATOM     11  N   UNL A   1      31.096  27.321  23.186  1.00  0.00    -0.330 N 
ATOM     12  C   UNL A   1      32.994  26.204  22.375  1.00  0.00     0.081 C 
ATOM     13  C   UNL A   1      31.627  26.713  21.978  1.00  0.00     0.263 C 
ATOM     14  H   UNL A   1      30.081  27.226  23.166  1.00  0.00     0.348 HD
BRANCH  11  15
ATOM     15  C   UNL A   1      31.128  28.784  23.272  1.00  0.00     0.297 C 
BRANCH  15  16
ATOM     16  C   UNL A   1      29.931  29.649  22.799  1.00  0.00     0.113 C 
ATOM     17  C   UNL A   1      29.542  30.813  23.715  1.00  0.00     0.041 C 
ATOM     18  C   UNL A   1      28.632  28.832  22.792  1.00  0.00     0.041 C 
ATOM     19  C   UNL A   1      28.095  31.142  23.344  1.00  0.00     0.003 C 
ATOM     20  C   UNL A   1      27.528  29.883  22.693  1.00  0.00     0.003 C 
BRANCH  16  21
ATOM     21  O   UNL A   1      30.158  30.095  21.455  1.00  0.00    -0.384 OA
ATOM     22  H   UNL A   1      29.309  30.169  20.992  1.00  0.00     0.211 HD
ENDBRANCH  16  21
ENDBRANCH  15  16
ENDBRANCH  11  15
ENDBRANCH   5   8
ENDBRANCH   3   4
ENDBRANCH   2   3
ENDBRANCH   1   2
BRANCH   1  23
ATOM     23  C   UNL A   1      37.293  21.171  24.248  1.00  0.00     0.002 C 
BRANCH  23  24
ATOM     24  C   UNL A   1      37.923  20.002  25.014  1.00  0.00     0.021 C 
BRANCH  24  25
ATOM     25  C   UNL A   1      38.967  20.405  26.054  1.00  0.00     0.116 C 
BRANCH  25  26
ATOM     26  N   UNL A   1      40.087  19.481  26.074  1.00  0.00    -0.352 N 
ATOM     27  C   UNL A   1      41.430  19.752  26.092  1.00  0.00     0.251 C 
ATOM     28  H   UNL A   1      39.849  18.526  26.074  1.00  0.00     0.163 HD
ATOM     29  O   UNL A   1      42.238  18.858  25.834  1.00  0.00    -0.269 OA
BRANCH  27  30
ATOM     30  C   UNL A   1      41.901  21.115  26.406  1.00  0.00     0.039 A 
ATOM     31  C   UNL A   1      42.253  21.427  27.721  1.00  0.00     0.014 A 
ATOM     32  C   UNL A   1      41.980  22.089  25.405  1.00  0.00     0.014 A 
ATOM     33  C   UNL A   1      42.732  22.703  28.023  1.00  0.00     0.010 A 
ATOM     34  C   UNL A   1      42.523  23.338  25.695  1.00  0.00     0.010 A 
ATOM     35  C   UNL A   1      42.897  23.661  27.008  1.00  0.00    -0.014 A 
BRANCH  35  36
ATOM     36  C   UNL A   1      43.444  25.009  27.308  1.00  0.00     0.031 A 
ATOM     37  C   UNL A   1      42.543  26.081  27.856  1.00  0.00     0.074 A 
ATOM     38  C   UNL A   1      44.736  25.280  27.034  1.00  0.00     0.049 A 
ATOM     39  N   UNL A   1      42.811  27.334  28.120  1.00  0.00    -0.248 NA
ATOM     40  C   UNL A   1      41.147  25.698  28.115  1.00  0.00     0.031 C 
ATOM     41  C   UNL A   1      45.695  24.330  26.467  1.00  0.00     0.029 A 
ATOM     42  N   UNL A   1      45.462  26.432  27.188  1.00  0.00    -0.354 N 
ATOM     43  C   UNL A   1      41.618  27.892  28.564  1.00  0.00     0.074 A 
ATOM     44  C   UNL A   1      40.612  26.854  28.472  1.00  0.00     0.031 C 
ATOM     45  C   UNL A   1      46.889  24.933  26.343  1.00  0.00     0.029 A 
ATOM     46  C   UNL A   1      46.771  26.320  26.779  1.00  0.00     0.049 A 
ATOM     47  H   UNL A   1      45.083  27.263  27.558  1.00  0.00     0.167 HD
ATOM     48  C   UNL A   1      41.388  29.146  29.030  1.00  0.00     0.034 A 
ATOM     49  C   UNL A   1      47.760  27.236  26.747  1.00  0.00     0.034 A 
ATOM     50  C   UNL A   1      42.406  30.163  29.122  1.00  0.00     0.049 A 
ATOM     51  C   UNL A   1      47.474  28.631  27.240  1.00  0.00     0.074 A 
ATOM     52  C   UNL A   1      42.300  31.448  29.627  1.00  0.00     0.029 A 
ATOM     53  N   UNL A   1      43.719  30.017  28.692  1.00  0.00    -0.354 N 
ATOM     54  N   UNL A   1      46.352  29.130  27.706  1.00  0.00    -0.248 NA
ATOM     55  C   UNL A   1      48.591  29.584  27.212  1.00  0.00     0.031 C 
ATOM     56  C   UNL A   1      43.524  32.097  29.438  1.00  0.00     0.029 A 
ATOM     57  C   UNL A   1      44.422  31.196  28.887  1.00  0.00     0.049 A 
ATOM     58  H   UNL A   1      44.096  29.193  28.304  1.00  0.00     0.167 HD
ATOM     59  C   UNL A   1      46.637  30.447  28.053  1.00  0.00     0.074 A 
ATOM     60  C   UNL A   1      48.040  30.658  27.758  1.00  0.00     0.031 C 
ATOM     61  C   UNL A   1      45.818  31.396  28.572  1.00  0.00     0.034 A 
BRANCH  48  62
ATOM     62  C   UNL A   1      39.974  29.483  29.446  1.00  0.00     0.023 A 
ATOM     63  C   UNL A   1      39.604  29.570  30.800  1.00  0.00     0.031 A 
ATOM     64  C   UNL A   1      38.974  29.688  28.479  1.00  0.00     0.131 A 
ATOM     65  C   UNL A   1      38.260  29.770  31.148  1.00  0.00     0.055 A 
ATOM     66  C   UNL A   1      37.654  29.972  28.832  1.00  0.00     0.041 A 
ATOM     67  F   UNL A   1      39.261  29.598  27.170  1.00  0.00    -0.206 F 
ATOM     68  C   UNL A   1      37.286  29.997  30.174  1.00  0.00     0.022 A 
BRANCH  65  69
ATOM     69  S   UNL A   1      37.778  29.574  32.886  1.00  0.00     0.124 S 
ATOM     70  O   UNL A   1      36.582  30.411  32.956  1.00  0.00    -0.237 OA
ATOM     71  O   UNL A   1      37.559  28.136  32.992  1.00  0.00    -0.237 OA
ATOM     72  O   UNL A   1      38.932  30.087  33.622  1.00  0.00    -0.744 OA
ENDBRANCH  65  69
ENDBRANCH  48  62
BRANCH  49  73
ATOM     73  C   UNL A   1      49.108  26.872  26.225  1.00  0.00     0.023 A 
ATOM     74  C   UNL A   1      49.539  27.315  24.965  1.00  0.00     0.031 A 
ATOM     75  C   UNL A   1      49.971  26.042  26.963  1.00  0.00     0.131 A 
ATOM     76  C   UNL A   1      50.778  26.892  24.461  1.00  0.00     0.055 A 
ATOM     77  C   UNL A   1      51.226  25.666  26.479  1.00  0.00     0.041 A 
ATOM     78  F   UNL A   1      49.610  25.594  28.176  1.00  0.00    -0.206 F 
ATOM     79  C   UNL A   1      51.630  26.081  25.214  1.00  0.00     0.022 A 
BRANCH  76  80
ATOM     80  S   UNL A   1      51.229  27.352  22.765  1.00  0.00     0.124 S 
ATOM     81  O   UNL A   1      50.065  26.897  22.014  1.00  0.00    -0.237 OA
ATOM     82  O   UNL A   1      51.395  28.797  22.879  1.00  0.00    -0.237 OA
ATOM     83  O   UNL A   1      52.460  26.602  22.525  1.00  0.00    -0.744 OA
ENDBRANCH  76  80
ENDBRANCH  49  73
BRANCH  61  84
ATOM     84  C   UNL A   1      46.435  32.737  28.886  1.00  0.00     0.023 A 
ATOM     85  C   UNL A   1      46.465  33.777  27.942  1.00  0.00     0.031 A 
ATOM     86  C   UNL A   1      47.016  32.970  30.146  1.00  0.00     0.131 A 
ATOM     87  C   UNL A   1      47.113  34.983  28.251  1.00  0.00     0.055 A 
ATOM     88  C   UNL A   1      47.604  34.193  30.470  1.00  0.00     0.041 A 
ATOM     89  F   UNL A   1      47.019  32.010  31.086  1.00  0.00    -0.206 F 
ATOM     90  C   UNL A   1      47.667  35.203  29.515  1.00  0.00     0.022 A 
BRANCH  87  91
ATOM     91  S   UNL A   1      47.303  36.229  26.946  1.00  0.00     0.124 S 
ATOM     92  O   UNL A   1      46.457  35.689  25.887  1.00  0.00    -0.237 OA
ATOM     93  O   UNL A   1      46.815  37.440  27.596  1.00  0.00    -0.237 OA
ATOM     94  O   UNL A   1      48.736  36.212  26.662  1.00  0.00    -0.744 OA
ENDBRANCH  87  91
ENDBRANCH  61  84
ENDBRANCH  35  36
ENDBRANCH  27  30
ENDBRANCH  25  26
ENDBRANCH  24  25
ENDBRANCH  23  24
ENDBRANCH   1  23
TORSDOF 19
ENDMDL
MODEL 3
REMARK VINA RESULT:     -10.9      5.725      8.585
REMARK SMILES C[C@H]1[C@@H](C(=O)NCCCCCCNC(=O)c2ccc(-c3c4nc(c(-c5cc(S(=O)(=O)[O-])ccc5F)c5ccc([nH]5)c(-c5cc(S(=O)(=O)[O-])ccc5F)c5nc(c(-c6cc(S(=O)(=O)[O-])ccc6F)c6ccc3[nH]6)C=C5)C=C4)cc2)CC[N@@H+]1CC1(O)CCCC1
REMARK SMILES IDX 9 1 8 2 7 3 6 4 4 5 5 6 3 8 1 9 2 10 81 11 79 12 80 13 82 15
REMARK SMILES IDX 83 16 85 17 88 18 86 19 87 20 84 21 10 23 11 24 12 25 13 26
REMARK SMILES IDX 14 27 15 29 16 30 17 31 78 32 18 33 77 34 19 35 20 36 21 37
REMARK SMILES IDX 71 38 22 39 76 40 70 41 72 42 23 43 75 44 69 45 68 46 24 48
REMARK SMILES IDX 56 49 36 50 55 51 37 52 40 53 54 54 73 55 38 56 39 57 53 59
REMARK SMILES IDX 74 60 41 61 25 62 26 63 34 64 27 65 33 66 35 67 32 68 28 69
REMARK SMILES IDX 29 70 30 71 31 72 57 73 58 74 66 75 59 76 65 77 67 78 64 79
REMARK SMILES IDX 60 80 61 81 62 82 63 83 42 84 43 85 51 86 44 87 50 88 52 89
REMARK SMILES IDX 49 90 45 91 46 92 47 93 48 94
REMARK H PARENT 6 7 81 14 84 22 13 28 72 47 40 58
REMARK Flexibility Score: inf
ROOT
ATOM      1  C   UNL A   1      33.437  27.266  25.171  1.00  0.00     0.002 C 
ENDROOT
BRANCH   1   2
ATOM      2  C   UNL A   1      33.718  27.415  23.676  1.00  0.00     0.021 C 
BRANCH   2   3
ATOM      3  C   UNL A   1      33.306  26.201  22.836  1.00  0.00     0.116 C 
BRANCH   3   4
ATOM      4  N   UNL A   1      31.971  25.814  23.230  1.00  0.00    -0.356 N 
ATOM      5  C   UNL A   1      31.504  24.584  23.583  1.00  0.00     0.229 C 
ATOM      6  O   UNL A   1      30.296  24.398  23.423  1.00  0.00    -0.275 OA
ATOM      7  H   UNL A   1      31.306  26.541  23.247  1.00  0.00     0.163 HD
BRANCH   5   8
ATOM      8  C   UNL A   1      32.404  23.584  24.315  1.00  0.00     0.142 C 
ATOM      9  C   UNL A   1      32.124  21.745  22.423  1.00  0.00     0.076 C 
ATOM     10  C   UNL A   1      32.746  22.189  23.739  1.00  0.00     0.193 C 
ATOM     11  N   UNL A   1      32.301  21.200  24.727  1.00  0.00    -0.330 N 
ATOM     12  C   UNL A   1      31.823  23.277  25.709  1.00  0.00     0.081 C 
ATOM     13  C   UNL A   1      31.351  21.844  25.616  1.00  0.00     0.263 C 
ATOM     14  H   UNL A   1      31.814  20.452  24.233  1.00  0.00     0.348 HD
BRANCH  11  15
ATOM     15  C   UNL A   1      33.331  20.355  25.340  1.00  0.00     0.297 C 
BRANCH  15  16
ATOM     16  C   UNL A   1      33.388  18.828  25.076  1.00  0.00     0.113 C 
ATOM     17  C   UNL A   1      34.745  18.277  24.626  1.00  0.00     0.041 C 
ATOM     18  C   UNL A   1      32.502  18.443  23.883  1.00  0.00     0.041 C 
ATOM     19  C   UNL A   1      34.423  16.948  23.940  1.00  0.00     0.003 C 
ATOM     20  C   UNL A   1      32.959  17.034  23.516  1.00  0.00     0.003 C 
BRANCH  16  21
ATOM     21  O   UNL A   1      32.890  18.121  26.219  1.00  0.00    -0.384 OA
ATOM     22  H   UNL A   1      33.065  18.638  27.021  1.00  0.00     0.211 HD
ENDBRANCH  16  21
ENDBRANCH  15  16
ENDBRANCH  11  15
ENDBRANCH   5   8
ENDBRANCH   3   4
ENDBRANCH   2   3
ENDBRANCH   1   2
BRANCH   1  23
ATOM     23  C   UNL A   1      33.889  28.458  26.015  1.00  0.00     0.002 C 
BRANCH  23  24
ATOM     24  C   UNL A   1      33.059  29.733  25.831  1.00  0.00     0.021 C 
BRANCH  24  25
ATOM     25  C   UNL A   1      32.706  30.462  27.127  1.00  0.00     0.116 C 
BRANCH  25  26
ATOM     26  N   UNL A   1      32.879  31.898  26.999  1.00  0.00    -0.352 N 
ATOM     27  C   UNL A   1      33.784  32.717  27.620  1.00  0.00     0.251 C 
ATOM     28  H   UNL A   1      32.259  32.346  26.380  1.00  0.00     0.163 HD
ATOM     29  O   UNL A   1      33.616  33.937  27.605  1.00  0.00    -0.269 OA
BRANCH  27  30
ATOM     30  C   UNL A   1      34.948  32.132  28.316  1.00  0.00     0.039 A 
ATOM     31  C   UNL A   1      34.800  30.912  28.979  1.00  0.00     0.014 A 
ATOM     32  C   UNL A   1      36.178  32.796  28.327  1.00  0.00     0.014 A 
ATOM     33  C   UNL A   1      35.901  30.332  29.611  1.00  0.00     0.010 A 
ATOM     34  C   UNL A   1      37.291  32.184  28.899  1.00  0.00     0.010 A 
ATOM     35  C   UNL A   1      37.163  30.950  29.553  1.00  0.00    -0.014 A 
BRANCH  35  36
ATOM     36  C   UNL A   1      38.352  30.325  30.187  1.00  0.00     0.031 A 
ATOM     37  C   UNL A   1      38.758  30.724  31.580  1.00  0.00     0.074 A 
ATOM     38  C   UNL A   1      39.094  29.444  29.488  1.00  0.00     0.049 A 
ATOM     39  N   UNL A   1      39.797  30.346  32.280  1.00  0.00    -0.248 NA
ATOM     40  C   UNL A   1      37.896  31.699  32.263  1.00  0.00     0.031 C 
ATOM     41  C   UNL A   1      38.817  29.009  28.117  1.00  0.00     0.029 A 
ATOM     42  N   UNL A   1      40.233  28.761  29.829  1.00  0.00    -0.354 N 
ATOM     43  C   UNL A   1      39.719  31.043  33.480  1.00  0.00     0.074 A 
ATOM     44  C   UNL A   1      38.566  31.914  33.383  1.00  0.00     0.031 C 
ATOM     45  C   UNL A   1      39.748  28.116  27.743  1.00  0.00     0.029 A 
ATOM     46  C   UNL A   1      40.710  27.947  28.828  1.00  0.00     0.049 A 
ATOM     47  H   UNL A   1      40.668  28.844  30.708  1.00  0.00     0.167 HD
ATOM     48  C   UNL A   1      40.521  30.948  34.571  1.00  0.00     0.034 A 
ATOM     49  C   UNL A   1      41.807  27.164  28.784  1.00  0.00     0.034 A 
ATOM     50  C   UNL A   1      41.660  30.067  34.651  1.00  0.00     0.049 A 
ATOM     51  C   UNL A   1      42.700  27.096  29.996  1.00  0.00     0.074 A 
ATOM     52  C   UNL A   1      42.509  29.849  35.723  1.00  0.00     0.029 A 
ATOM     53  N   UNL A   1      42.119  29.262  33.615  1.00  0.00    -0.354 N 
ATOM     54  N   UNL A   1      42.584  27.725  31.144  1.00  0.00    -0.248 NA
ATOM     55  C   UNL A   1      43.865  26.207  29.910  1.00  0.00     0.031 C 
ATOM     56  C   UNL A   1      43.517  28.969  35.313  1.00  0.00     0.029 A 
ATOM     57  C   UNL A   1      43.256  28.575  34.011  1.00  0.00     0.049 A 
ATOM     58  H   UNL A   1      41.696  29.191  32.728  1.00  0.00     0.167 HD
ATOM     59  C   UNL A   1      43.648  27.283  31.926  1.00  0.00     0.074 A 
ATOM     60  C   UNL A   1      44.381  26.324  31.125  1.00  0.00     0.031 C 
ATOM     61  C   UNL A   1      43.987  27.633  33.193  1.00  0.00     0.034 A 
BRANCH  48  62
ATOM     62  C   UNL A   1      40.200  31.841  35.748  1.00  0.00     0.023 A 
ATOM     63  C   UNL A   1      39.138  31.555  36.625  1.00  0.00     0.031 A 
ATOM     64  C   UNL A   1      40.943  33.013  35.978  1.00  0.00     0.131 A 
ATOM     65  C   UNL A   1      38.798  32.466  37.635  1.00  0.00     0.055 A 
ATOM     66  C   UNL A   1      40.653  33.873  37.039  1.00  0.00     0.041 A 
ATOM     67  F   UNL A   1      41.955  33.351  35.165  1.00  0.00    -0.206 F 
ATOM     68  C   UNL A   1      39.563  33.611  37.866  1.00  0.00     0.022 A 
BRANCH  65  69
ATOM     69  S   UNL A   1      37.249  32.211  38.544  1.00  0.00     0.124 S 
ATOM     70  O   UNL A   1      36.329  33.076  37.807  1.00  0.00    -0.237 OA
ATOM     71  O   UNL A   1      37.031  30.776  38.399  1.00  0.00    -0.237 OA
ATOM     72  O   UNL A   1      37.566  32.662  39.897  1.00  0.00    -0.744 OA
ENDBRANCH  65  69
ENDBRANCH  48  62
BRANCH  49  73
ATOM     73  C   UNL A   1      42.130  26.386  27.554  1.00  0.00     0.023 A 
ATOM     74  C   UNL A   1      41.799  25.027  27.450  1.00  0.00     0.031 A 
ATOM     75  C   UNL A   1      42.810  26.984  26.477  1.00  0.00     0.131 A 
ATOM     76  C   UNL A   1      42.187  24.297  26.315  1.00  0.00     0.055 A 
ATOM     77  C   UNL A   1      43.148  26.266  25.328  1.00  0.00     0.041 A 
ATOM     78  F   UNL A   1      43.145  28.283  26.523  1.00  0.00    -0.206 F 
ATOM     79  C   UNL A   1      42.847  24.910  25.248  1.00  0.00     0.022 A 
BRANCH  76  80
ATOM     80  S   UNL A   1      41.886  22.508  26.288  1.00  0.00     0.124 S 
ATOM     81  O   UNL A   1      42.408  22.100  27.587  1.00  0.00    -0.237 OA
ATOM     82  O   UNL A   1      40.436  22.449  26.131  1.00  0.00    -0.237 OA
ATOM     83  O   UNL A   1      42.655  22.052  25.133  1.00  0.00    -0.744 OA
ENDBRANCH  76  80
ENDBRANCH  49  73
BRANCH  61  84
ATOM     84  C   UNL A   1      45.185  26.943  33.797  1.00  0.00     0.023 A 
ATOM     85  C   UNL A   1      45.074  25.700  34.444  1.00  0.00     0.031 A 
ATOM     86  C   UNL A   1      46.454  27.546  33.735  1.00  0.00     0.131 A 
ATOM     87  C   UNL A   1      46.202  25.128  35.054  1.00  0.00     0.055 A 
ATOM     88  C   UNL A   1      47.583  26.942  34.289  1.00  0.00     0.041 A 
ATOM     89  F   UNL A   1      46.617  28.735  33.131  1.00  0.00    -0.206 F 
ATOM     90  C   UNL A   1      47.458  25.732  34.964  1.00  0.00     0.022 A 
BRANCH  87  91
ATOM     91  S   UNL A   1      45.985  23.624  36.045  1.00  0.00     0.124 S 
ATOM     92  O   UNL A   1      44.564  23.678  36.371  1.00  0.00    -0.237 OA
ATOM     93  O   UNL A   1      46.386  22.575  35.114  1.00  0.00    -0.237 OA
ATOM     94  O   UNL A   1      46.888  23.826  37.176  1.00  0.00    -0.744 OA
ENDBRANCH  87  91
ENDBRANCH  61  84
ENDBRANCH  35  36
ENDBRANCH  27  30
ENDBRANCH  25  26
ENDBRANCH  24  25
ENDBRANCH  23  24
ENDBRANCH   1  23
TORSDOF 19
ENDMDL
