MODEL 1
REMARK VINA RESULT:     -11.3      0.000      0.000
REMARK SMILES CCCc1c(C(=O)NCCCCCCNC(=O)c2ccc(-c3c4nc(c(-c5cc(S(=O)(=O)[O-])ccc5F)c5ccc([nH]5)c(-c5cc(S(=O)(=O)[O-])ccc5F)c5nc(c(-c6cc(S(=O)(=O)[O-])ccc6F)c6ccc3[nH]6)C=C5)C=C4)cc2)nnn1[C@@H](C)[C@H](C)O
REMARK SMILES IDX 11 1 10 2 9 3 8 4 6 5 7 6 5 8 4 9 83 10 81 11 82 12 3 13
REMARK SMILES IDX 2 14 1 15 84 16 85 17 86 18 87 19 88 20 12 22 13 23 14 24
REMARK SMILES IDX 15 25 16 26 17 28 18 29 19 30 80 31 20 32 79 33 21 34 22 35
REMARK SMILES IDX 23 36 73 37 24 38 78 39 72 40 74 41 25 42 77 43 71 44 70 45
REMARK SMILES IDX 26 47 58 48 38 49 57 50 39 51 42 52 56 53 75 54 40 55 41 56
REMARK SMILES IDX 55 58 76 59 43 60 27 61 28 62 36 63 29 64 35 65 37 66 34 67
REMARK SMILES IDX 30 68 31 69 32 70 33 71 59 72 60 73 68 74 61 75 67 76 69 77
REMARK SMILES IDX 66 78 62 79 63 80 64 81 65 82 44 83 45 84 53 85 46 86 52 87
REMARK SMILES IDX 54 88 51 89 47 90 48 91 49 92 50 93
REMARK H PARENT 8 7 88 21 15 27 74 46 42 57
REMARK Flexibility Score: inf
ROOT
ATOM      1  C   UNL A   1      32.288  29.874  25.511  1.00  0.00     0.002 C 
ENDROOT
BRANCH   1   2
ATOM      2  C   UNL A   1      32.974  29.025  24.434  1.00  0.00     0.021 C 
BRANCH   2   3
ATOM      3  C   UNL A   1      32.173  28.943  23.134  1.00  0.00     0.116 C 
BRANCH   3   4
ATOM      4  N   UNL A   1      32.821  28.070  22.202  1.00  0.00    -0.351 N 
ATOM      5  C   UNL A   1      33.049  26.723  22.185  1.00  0.00     0.273 C 
ATOM      6  O   UNL A   1      33.607  26.337  21.149  1.00  0.00    -0.267 OA
ATOM      7  H   UNL A   1      33.174  28.536  21.410  1.00  0.00     0.163 HD
BRANCH   5   8
ATOM      8  C   UNL A   1      32.654  25.757  23.223  1.00  0.00     0.173 A 
ATOM      9  C   UNL A   1      33.262  24.947  24.197  1.00  0.00     0.072 A 
ATOM     10  N   UNL A   1      32.192  24.256  24.737  1.00  0.00    -0.243 N 
ATOM     11  N   UNL A   1      31.287  25.511  23.269  1.00  0.00    -0.125 NA
ATOM     12  N   UNL A   1      31.029  24.608  24.184  1.00  0.00    -0.066 NA
BRANCH   9  13
ATOM     13  C   UNL A   1      34.659  24.627  24.649  1.00  0.00     0.058 C 
BRANCH  13  14
ATOM     14  C   UNL A   1      35.412  23.621  23.746  1.00  0.00     0.003 C 
ATOM     15  C   UNL A   1      35.985  22.397  24.458  1.00  0.00     0.004 C 
ENDBRANCH  13  14
ENDBRANCH   9  13
BRANCH  10  16
ATOM     16  C   UNL A   1      32.160  23.288  25.829  1.00  0.00     0.135 C 
ATOM     17  C   UNL A   1      32.472  23.998  27.149  1.00  0.00     0.036 C 
BRANCH  16  18
ATOM     18  C   UNL A   1      30.880  22.425  25.772  1.00  0.00     0.135 C 
ATOM     19  C   UNL A   1      29.910  22.615  26.928  1.00  0.00     0.040 C 
BRANCH  18  20
ATOM     20  O   UNL A   1      31.266  21.040  25.740  1.00  0.00    -0.391 OA
ATOM     21  H   UNL A   1      31.226  20.671  26.637  1.00  0.00     0.211 HD
ENDBRANCH  18  20
ENDBRANCH  16  18
ENDBRANCH  10  16
ENDBRANCH   5   8
ENDBRANCH   3   4
ENDBRANCH   2   3
ENDBRANCH   1   2
BRANCH   1  22
ATOM     22  C   UNL A   1      32.841  29.689  26.935  1.00  0.00     0.002 C 
BRANCH  22  23
ATOM     23  C   UNL A   1      33.902  28.589  27.097  1.00  0.00     0.021 C 
BRANCH  23  24
ATOM     24  C   UNL A   1      35.310  29.142  27.247  1.00  0.00     0.116 C 
BRANCH  24  25
ATOM     25  N   UNL A   1      35.478  29.829  28.527  1.00  0.00    -0.352 N 
ATOM     26  C   UNL A   1      36.476  29.652  29.456  1.00  0.00     0.251 C 
ATOM     27  H   UNL A   1      34.793  30.500  28.751  1.00  0.00     0.163 HD
ATOM     28  O   UNL A   1      36.296  29.983  30.631  1.00  0.00    -0.269 OA
BRANCH  26  29
ATOM     29  C   UNL A   1      37.754  29.070  29.021  1.00  0.00     0.039 A 
ATOM     30  C   UNL A   1      38.427  29.552  27.896  1.00  0.00     0.014 A 
ATOM     31  C   UNL A   1      38.293  28.038  29.791  1.00  0.00     0.014 A 
ATOM     32  C   UNL A   1      39.685  29.035  27.600  1.00  0.00     0.010 A 
ATOM     33  C   UNL A   1      39.585  27.627  29.576  1.00  0.00     0.010 A 
ATOM     34  C   UNL A   1      40.271  28.087  28.458  1.00  0.00    -0.014 A 
BRANCH  34  35
ATOM     35  C   UNL A   1      41.676  27.706  28.309  1.00  0.00     0.031 A 
ATOM     36  C   UNL A   1      41.853  26.418  27.587  1.00  0.00     0.074 A 
ATOM     37  C   UNL A   1      42.714  28.529  28.585  1.00  0.00     0.049 A 
ATOM     38  N   UNL A   1      42.201  25.282  28.090  1.00  0.00    -0.248 NA
ATOM     39  C   UNL A   1      41.391  26.321  26.189  1.00  0.00     0.031 C 
ATOM     40  C   UNL A   1      42.661  29.925  29.034  1.00  0.00     0.029 A 
ATOM     41  N   UNL A   1      44.054  28.329  28.426  1.00  0.00    -0.354 N 
ATOM     42  C   UNL A   1      42.297  24.406  27.014  1.00  0.00     0.074 A 
ATOM     43  C   UNL A   1      41.551  25.016  25.950  1.00  0.00     0.031 C 
ATOM     44  C   UNL A   1      43.875  30.504  28.884  1.00  0.00     0.029 A 
ATOM     45  C   UNL A   1      44.834  29.487  28.489  1.00  0.00     0.049 A 
ATOM     46  H   UNL A   1      44.442  27.436  28.279  1.00  0.00     0.167 HD
ATOM     47  C   UNL A   1      43.237  23.420  27.011  1.00  0.00     0.034 A 
ATOM     48  C   UNL A   1      46.167  29.617  28.233  1.00  0.00     0.034 A 
ATOM     49  C   UNL A   1      43.771  23.222  28.345  1.00  0.00     0.049 A 
ATOM     50  C   UNL A   1      46.758  28.265  28.386  1.00  0.00     0.074 A 
ATOM     51  C   UNL A   1      43.218  22.926  29.577  1.00  0.00     0.029 A 
ATOM     52  N   UNL A   1      45.020  23.739  28.617  1.00  0.00    -0.354 N 
ATOM     53  N   UNL A   1      46.797  27.634  29.529  1.00  0.00    -0.248 NA
ATOM     54  C   UNL A   1      46.817  27.411  27.209  1.00  0.00     0.031 C 
ATOM     55  C   UNL A   1      43.930  23.746  30.502  1.00  0.00     0.029 A 
ATOM     56  C   UNL A   1      44.948  24.409  29.813  1.00  0.00     0.049 A 
ATOM     57  H   UNL A   1      45.822  23.646  28.053  1.00  0.00     0.167 HD
ATOM     58  C   UNL A   1      46.420  26.334  29.232  1.00  0.00     0.074 A 
ATOM     59  C   UNL A   1      46.542  26.231  27.777  1.00  0.00     0.031 C 
ATOM     60  C   UNL A   1      45.767  25.561  30.150  1.00  0.00     0.034 A 
BRANCH  47  61
ATOM     61  C   UNL A   1      43.987  22.945  25.781  1.00  0.00     0.023 A 
ATOM     62  C   UNL A   1      44.069  21.551  25.593  1.00  0.00     0.031 A 
ATOM     63  C   UNL A   1      44.865  23.720  24.990  1.00  0.00     0.131 A 
ATOM     64  C   UNL A   1      45.069  20.987  24.783  1.00  0.00     0.055 A 
ATOM     65  C   UNL A   1      45.812  23.155  24.131  1.00  0.00     0.041 A 
ATOM     66  F   UNL A   1      44.927  25.053  25.058  1.00  0.00    -0.206 F 
ATOM     67  C   UNL A   1      45.946  21.781  24.052  1.00  0.00     0.022 A 
BRANCH  64  68
ATOM     68  S   UNL A   1      45.324  19.198  24.864  1.00  0.00     0.124 S 
ATOM     69  O   UNL A   1      46.494  19.114  25.733  1.00  0.00    -0.237 OA
ATOM     70  O   UNL A   1      44.061  18.742  25.433  1.00  0.00    -0.237 OA
ATOM     71  O   UNL A   1      45.552  18.827  23.469  1.00  0.00    -0.744 OA
ENDBRANCH  64  68
ENDBRANCH  47  61
BRANCH  48  72
ATOM     72  C   UNL A   1      46.866  30.752  27.550  1.00  0.00     0.023 A 
ATOM     73  C   UNL A   1      46.207  31.871  26.986  1.00  0.00     0.031 A 
ATOM     74  C   UNL A   1      48.271  30.850  27.672  1.00  0.00     0.131 A 
ATOM     75  C   UNL A   1      46.950  33.009  26.572  1.00  0.00     0.055 A 
ATOM     76  C   UNL A   1      48.996  31.973  27.266  1.00  0.00     0.041 A 
ATOM     77  F   UNL A   1      48.983  29.882  28.272  1.00  0.00    -0.206 F 
ATOM     78  C   UNL A   1      48.337  33.062  26.721  1.00  0.00     0.022 A 
BRANCH  75  79
ATOM     79  S   UNL A   1      46.120  34.487  25.882  1.00  0.00     0.124 S 
ATOM     80  O   UNL A   1      45.449  35.046  27.049  1.00  0.00    -0.237 OA
ATOM     81  O   UNL A   1      47.240  35.252  25.346  1.00  0.00    -0.237 OA
ATOM     82  O   UNL A   1      45.220  33.933  24.869  1.00  0.00    -0.744 OA
ENDBRANCH  75  79
ENDBRANCH  48  72
BRANCH  60  83
ATOM     83  C   UNL A   1      45.740  26.020  31.596  1.00  0.00     0.023 A 
ATOM     84  C   UNL A   1      44.624  26.582  32.263  1.00  0.00     0.031 A 
ATOM     85  C   UNL A   1      46.892  25.763  32.361  1.00  0.00     0.131 A 
ATOM     86  C   UNL A   1      44.701  26.873  33.641  1.00  0.00     0.055 A 
ATOM     87  C   UNL A   1      46.954  26.029  33.727  1.00  0.00     0.041 A 
ATOM     88  F   UNL A   1      47.976  25.211  31.792  1.00  0.00    -0.206 F 
ATOM     89  C   UNL A   1      45.861  26.591  34.372  1.00  0.00     0.022 A 
BRANCH  86  90
ATOM     90  S   UNL A   1      43.303  27.650  34.517  1.00  0.00     0.124 S 
ATOM     91  O   UNL A   1      43.908  28.803  35.172  1.00  0.00    -0.237 OA
ATOM     92  O   UNL A   1      42.375  27.947  33.429  1.00  0.00    -0.237 OA
ATOM     93  O   UNL A   1      42.847  26.600  35.431  1.00  0.00    -0.744 OA
ENDBRANCH  86  90
ENDBRANCH  60  83
ENDBRANCH  34  35
ENDBRANCH  26  29
ENDBRANCH  24  25
ENDBRANCH  23  24
ENDBRANCH  22  23
ENDBRANCH   1  22
TORSDOF 21
ENDMDL
MODEL 2
REMARK VINA RESULT:     -11.3      1.429      2.434
REMARK SMILES CCCc1c(C(=O)NCCCCCCNC(=O)c2ccc(-c3c4nc(c(-c5cc(S(=O)(=O)[O-])ccc5F)c5ccc([nH]5)c(-c5cc(S(=O)(=O)[O-])ccc5F)c5nc(c(-c6cc(S(=O)(=O)[O-])ccc6F)c6ccc3[nH]6)C=C5)C=C4)cc2)nnn1[C@@H](C)[C@H](C)O
REMARK SMILES IDX 11 1 10 2 9 3 8 4 6 5 7 6 5 8 4 9 83 10 81 11 82 12 3 13
REMARK SMILES IDX 2 14 1 15 84 16 85 17 86 18 87 19 88 20 12 22 13 23 14 24
REMARK SMILES IDX 15 25 16 26 17 28 18 29 19 30 80 31 20 32 79 33 21 34 22 35
REMARK SMILES IDX 23 36 73 37 24 38 78 39 72 40 74 41 25 42 77 43 71 44 70 45
REMARK SMILES IDX 26 47 58 48 38 49 57 50 39 51 42 52 56 53 75 54 40 55 41 56
REMARK SMILES IDX 55 58 76 59 43 60 27 61 28 62 36 63 29 64 35 65 37 66 34 67
REMARK SMILES IDX 30 68 31 69 32 70 33 71 59 72 60 73 68 74 61 75 67 76 69 77
REMARK SMILES IDX 66 78 62 79 63 80 64 81 65 82 44 83 45 84 53 85 46 86 52 87
REMARK SMILES IDX 54 88 51 89 47 90 48 91 49 92 50 93
REMARK H PARENT 8 7 88 21 15 27 74 46 42 57
REMARK Flexibility Score: inf
ROOT
ATOM      1  C   UNL A   1      33.688  27.876  24.545  1.00  0.00     0.002 C 
ENDROOT
BRANCH   1   2
ATOM      2  C   UNL A   1      33.565  26.736  23.526  1.00  0.00     0.021 C 
BRANCH   2   3
ATOM      3  C   UNL A   1      33.010  25.447  24.132  1.00  0.00     0.116 C 
BRANCH   3   4
ATOM      4  N   UNL A   1      32.810  24.461  23.112  1.00  0.00    -0.351 N 
ATOM      5  C   UNL A   1      33.471  23.313  22.779  1.00  0.00     0.273 C 
ATOM      6  O   UNL A   1      32.938  22.698  21.846  1.00  0.00    -0.267 OA
ATOM      7  H   UNL A   1      32.037  24.649  22.533  1.00  0.00     0.163 HD
BRANCH   5   8
ATOM      8  C   UNL A   1      34.665  22.768  23.445  1.00  0.00     0.173 A 
ATOM      9  C   UNL A   1      34.980  21.926  24.525  1.00  0.00     0.072 A 
ATOM     10  N   UNL A   1      36.362  21.964  24.555  1.00  0.00    -0.243 N 
ATOM     11  N   UNL A   1      35.864  23.219  22.904  1.00  0.00    -0.125 NA
ATOM     12  N   UNL A   1      36.871  22.726  23.584  1.00  0.00    -0.066 NA
BRANCH   9  13
ATOM     13  C   UNL A   1      34.232  21.174  25.590  1.00  0.00     0.058 C 
BRANCH  13  14
ATOM     14  C   UNL A   1      33.223  22.029  26.392  1.00  0.00     0.003 C 
ATOM     15  C   UNL A   1      33.765  22.659  27.674  1.00  0.00     0.004 C 
ENDBRANCH  13  14
ENDBRANCH   9  13
BRANCH  10  16
ATOM     16  C   UNL A   1      37.297  21.257  25.425  1.00  0.00     0.135 C 
ATOM     17  C   UNL A   1      37.959  20.119  24.646  1.00  0.00     0.036 C 
BRANCH  16  18
ATOM     18  C   UNL A   1      38.227  22.246  26.164  1.00  0.00     0.135 C 
ATOM     19  C   UNL A   1      37.726  23.679  26.246  1.00  0.00     0.040 C 
BRANCH  18  20
ATOM     20  O   UNL A   1      39.501  22.259  25.496  1.00  0.00    -0.391 OA
ATOM     21  H   UNL A   1      40.129  21.703  25.985  1.00  0.00     0.211 HD
ENDBRANCH  18  20
ENDBRANCH  16  18
ENDBRANCH  10  16
ENDBRANCH   5   8
ENDBRANCH   3   4
ENDBRANCH   2   3
ENDBRANCH   1   2
BRANCH   1  22
ATOM     22  C   UNL A   1      33.580  27.446  26.018  1.00  0.00     0.002 C 
BRANCH  22  23
ATOM     23  C   UNL A   1      33.770  28.567  27.053  1.00  0.00     0.021 C 
BRANCH  23  24
ATOM     24  C   UNL A   1      35.230  28.923  27.277  1.00  0.00     0.116 C 
BRANCH  24  25
ATOM     25  N   UNL A   1      35.400  29.741  28.477  1.00  0.00    -0.352 N 
ATOM     26  C   UNL A   1      36.417  29.685  29.401  1.00  0.00     0.251 C 
ATOM     27  H   UNL A   1      34.700  30.413  28.645  1.00  0.00     0.163 HD
ATOM     28  O   UNL A   1      36.247  30.129  30.539  1.00  0.00    -0.269 OA
BRANCH  26  29
ATOM     29  C   UNL A   1      37.703  29.095  29.004  1.00  0.00     0.039 A 
ATOM     30  C   UNL A   1      38.379  29.527  27.860  1.00  0.00     0.014 A 
ATOM     31  C   UNL A   1      38.247  28.108  29.827  1.00  0.00     0.014 A 
ATOM     32  C   UNL A   1      39.645  29.008  27.598  1.00  0.00     0.010 A 
ATOM     33  C   UNL A   1      39.544  27.699  29.641  1.00  0.00     0.010 A 
ATOM     34  C   UNL A   1      40.234  28.109  28.507  1.00  0.00    -0.014 A 
BRANCH  34  35
ATOM     35  C   UNL A   1      41.643  27.735  28.386  1.00  0.00     0.031 A 
ATOM     36  C   UNL A   1      41.842  26.461  27.644  1.00  0.00     0.074 A 
ATOM     37  C   UNL A   1      42.671  28.555  28.702  1.00  0.00     0.049 A 
ATOM     38  N   UNL A   1      42.180  25.316  28.134  1.00  0.00    -0.248 NA
ATOM     39  C   UNL A   1      41.415  26.389  26.233  1.00  0.00     0.031 C 
ATOM     40  C   UNL A   1      42.603  29.942  29.176  1.00  0.00     0.029 A 
ATOM     41  N   UNL A   1      44.015  28.361  28.573  1.00  0.00    -0.354 N 
ATOM     42  C   UNL A   1      42.306  24.461  27.045  1.00  0.00     0.074 A 
ATOM     43  C   UNL A   1      41.585  25.089  25.974  1.00  0.00     0.031 C 
ATOM     44  C   UNL A   1      43.818  30.527  29.067  1.00  0.00     0.029 A 
ATOM     45  C   UNL A   1      44.790  29.520  28.678  1.00  0.00     0.049 A 
ATOM     46  H   UNL A   1      44.410  27.472  28.420  1.00  0.00     0.167 HD
ATOM     47  C   UNL A   1      43.249  23.478  27.047  1.00  0.00     0.034 A 
ATOM     48  C   UNL A   1      46.129  29.659  28.457  1.00  0.00     0.034 A 
ATOM     49  C   UNL A   1      43.750  23.256  28.390  1.00  0.00     0.049 A 
ATOM     50  C   UNL A   1      46.719  28.305  28.600  1.00  0.00     0.074 A 
ATOM     51  C   UNL A   1      43.168  22.936  29.602  1.00  0.00     0.029 A 
ATOM     52  N   UNL A   1      44.990  23.772  28.702  1.00  0.00    -0.354 N 
ATOM     53  N   UNL A   1      46.732  27.654  29.731  1.00  0.00    -0.248 NA
ATOM     54  C   UNL A   1      46.810  27.474  27.409  1.00  0.00     0.031 C 
ATOM     55  C   UNL A   1      43.854  23.740  30.560  1.00  0.00     0.029 A 
ATOM     56  C   UNL A   1      44.887  24.419  29.909  1.00  0.00     0.049 A 
ATOM     57  H   UNL A   1      45.806  23.691  28.157  1.00  0.00     0.167 HD
ATOM     58  C   UNL A   1      46.367  26.358  29.400  1.00  0.00     0.074 A 
ATOM     59  C   UNL A   1      46.525  26.283  27.947  1.00  0.00     0.031 C 
ATOM     60  C   UNL A   1      45.693  25.567  30.288  1.00  0.00     0.034 A 
BRANCH  47  61
ATOM     61  C   UNL A   1      44.031  23.027  25.828  1.00  0.00     0.023 A 
ATOM     62  C   UNL A   1      44.030  21.646  25.553  1.00  0.00     0.031 A 
ATOM     63  C   UNL A   1      45.000  23.786  25.133  1.00  0.00     0.131 A 
ATOM     64  C   UNL A   1      45.032  21.064  24.759  1.00  0.00     0.055 A 
ATOM     65  C   UNL A   1      45.953  23.211  24.287  1.00  0.00     0.041 A 
ATOM     66  F   UNL A   1      45.148  25.105  25.291  1.00  0.00    -0.206 F 
ATOM     67  C   UNL A   1      45.999  21.838  24.126  1.00  0.00     0.022 A 
BRANCH  64  68
ATOM     68  S   UNL A   1      45.162  19.260  24.736  1.00  0.00     0.124 S 
ATOM     69  O   UNL A   1      46.579  19.071  25.030  1.00  0.00    -0.237 OA
ATOM     70  O   UNL A   1      44.227  18.880  25.788  1.00  0.00    -0.237 OA
ATOM     71  O   UNL A   1      44.752  18.910  23.378  1.00  0.00    -0.744 OA
ENDBRANCH  64  68
ENDBRANCH  47  61
BRANCH  48  72
ATOM     72  C   UNL A   1      46.840  30.807  27.813  1.00  0.00     0.023 A 
ATOM     73  C   UNL A   1      46.202  31.817  27.054  1.00  0.00     0.031 A 
ATOM     74  C   UNL A   1      48.188  31.050  28.166  1.00  0.00     0.131 A 
ATOM     75  C   UNL A   1      46.908  32.993  26.682  1.00  0.00     0.055 A 
ATOM     76  C   UNL A   1      48.877  32.209  27.800  1.00  0.00     0.041 A 
ATOM     77  F   UNL A   1      48.860  30.198  28.958  1.00  0.00    -0.206 F 
ATOM     78  C   UNL A   1      48.237  33.190  27.061  1.00  0.00     0.022 A 
BRANCH  75  79
ATOM     79  S   UNL A   1      46.094  34.333  25.740  1.00  0.00     0.124 S 
ATOM     80  O   UNL A   1      45.155  33.603  24.898  1.00  0.00    -0.237 OA
ATOM     81  O   UNL A   1      45.518  35.154  26.799  1.00  0.00    -0.237 OA
ATOM     82  O   UNL A   1      47.200  34.964  25.015  1.00  0.00    -0.744 OA
ENDBRANCH  75  79
ENDBRANCH  48  72
BRANCH  60  83
ATOM     83  C   UNL A   1      45.628  25.998  31.741  1.00  0.00     0.023 A 
ATOM     84  C   UNL A   1      44.494  26.541  32.391  1.00  0.00     0.031 A 
ATOM     85  C   UNL A   1      46.763  25.734  32.528  1.00  0.00     0.131 A 
ATOM     86  C   UNL A   1      44.536  26.806  33.776  1.00  0.00     0.055 A 
ATOM     87  C   UNL A   1      46.792  25.975  33.900  1.00  0.00     0.041 A 
ATOM     88  F   UNL A   1      47.865  25.199  31.975  1.00  0.00    -0.206 F 
ATOM     89  C   UNL A   1      45.680  26.518  34.529  1.00  0.00     0.022 A 
BRANCH  86  90
ATOM     90  S   UNL A   1      43.112  27.558  34.632  1.00  0.00     0.124 S 
ATOM     91  O   UNL A   1      43.658  27.948  35.927  1.00  0.00    -0.237 OA
ATOM     92  O   UNL A   1      42.746  28.652  33.737  1.00  0.00    -0.237 OA
ATOM     93  O   UNL A   1      42.133  26.469  34.687  1.00  0.00    -0.744 OA
ENDBRANCH  86  90
ENDBRANCH  60  83
ENDBRANCH  34  35
ENDBRANCH  26  29
ENDBRANCH  24  25
ENDBRANCH  23  24
ENDBRANCH  22  23
ENDBRANCH   1  22
TORSDOF 21
ENDMDL
MODEL 3
REMARK VINA RESULT:     -11.2      2.469      3.282
REMARK SMILES CCCc1c(C(=O)NCCCCCCNC(=O)c2ccc(-c3c4nc(c(-c5cc(S(=O)(=O)[O-])ccc5F)c5ccc([nH]5)c(-c5cc(S(=O)(=O)[O-])ccc5F)c5nc(c(-c6cc(S(=O)(=O)[O-])ccc6F)c6ccc3[nH]6)C=C5)C=C4)cc2)nnn1[C@@H](C)[C@H](C)O
REMARK SMILES IDX 11 1 10 2 9 3 8 4 6 5 7 6 5 8 4 9 83 10 81 11 82 12 3 13
REMARK SMILES IDX 2 14 1 15 84 16 85 17 86 18 87 19 88 20 12 22 13 23 14 24
REMARK SMILES IDX 15 25 16 26 17 28 18 29 19 30 80 31 20 32 79 33 21 34 22 35
REMARK SMILES IDX 23 36 73 37 24 38 78 39 72 40 74 41 25 42 77 43 71 44 70 45
REMARK SMILES IDX 26 47 58 48 38 49 57 50 39 51 42 52 56 53 75 54 40 55 41 56
REMARK SMILES IDX 55 58 76 59 43 60 27 61 28 62 36 63 29 64 35 65 37 66 34 67
REMARK SMILES IDX 30 68 31 69 32 70 33 71 59 72 60 73 68 74 61 75 67 76 69 77
REMARK SMILES IDX 66 78 62 79 63 80 64 81 65 82 44 83 45 84 53 85 46 86 52 87
REMARK SMILES IDX 54 88 51 89 47 90 48 91 49 92 50 93
REMARK H PARENT 8 7 88 21 15 27 74 46 42 57
REMARK Flexibility Score: inf
ROOT
ATOM      1  C   UNL A   1      33.662  28.046  24.674  1.00  0.00     0.002 C 
ENDROOT
BRANCH   1   2
ATOM      2  C   UNL A   1      33.589  26.885  23.675  1.00  0.00     0.021 C 
BRANCH   2   3
ATOM      3  C   UNL A   1      33.150  25.568  24.315  1.00  0.00     0.116 C 
BRANCH   3   4
ATOM      4  N   UNL A   1      32.916  24.576  23.309  1.00  0.00    -0.351 N 
ATOM      5  C   UNL A   1      33.569  23.429  22.956  1.00  0.00     0.273 C 
ATOM      6  O   UNL A   1      33.004  22.807  22.047  1.00  0.00    -0.267 OA
ATOM      7  H   UNL A   1      32.121  24.758  22.758  1.00  0.00     0.163 HD
BRANCH   5   8
ATOM      8  C   UNL A   1      34.790  22.893  23.578  1.00  0.00     0.173 A 
ATOM      9  C   UNL A   1      35.152  21.936  24.542  1.00  0.00     0.072 A 
ATOM     10  N   UNL A   1      36.525  22.079  24.621  1.00  0.00    -0.243 N 
ATOM     11  N   UNL A   1      35.958  23.509  23.144  1.00  0.00    -0.125 NA
ATOM     12  N   UNL A   1      36.989  23.008  23.781  1.00  0.00    -0.066 NA
BRANCH   9  13
ATOM     13  C   UNL A   1      34.447  20.986  25.469  1.00  0.00     0.058 C 
BRANCH  13  14
ATOM     14  C   UNL A   1      34.046  19.638  24.825  1.00  0.00     0.003 C 
ATOM     15  C   UNL A   1      32.767  19.002  25.368  1.00  0.00     0.004 C 
ENDBRANCH  13  14
ENDBRANCH   9  13
BRANCH  10  16
ATOM     16  C   UNL A   1      37.498  21.334  25.415  1.00  0.00     0.135 C 
ATOM     17  C   UNL A   1      37.821  20.012  24.717  1.00  0.00     0.036 C 
BRANCH  16  18
ATOM     18  C   UNL A   1      38.688  22.231  25.823  1.00  0.00     0.135 C 
ATOM     19  C   UNL A   1      39.807  21.532  26.578  1.00  0.00     0.040 C 
BRANCH  18  20
ATOM     20  O   UNL A   1      38.192  23.296  26.653  1.00  0.00    -0.391 OA
ATOM     21  H   UNL A   1      38.874  23.981  26.745  1.00  0.00     0.211 HD
ENDBRANCH  18  20
ENDBRANCH  16  18
ENDBRANCH  10  16
ENDBRANCH   5   8
ENDBRANCH   3   4
ENDBRANCH   2   3
ENDBRANCH   1   2
BRANCH   1  22
ATOM     22  C   UNL A   1      33.579  27.635  26.155  1.00  0.00     0.002 C 
BRANCH  22  23
ATOM     23  C   UNL A   1      33.789  28.770  27.171  1.00  0.00     0.021 C 
BRANCH  23  24
ATOM     24  C   UNL A   1      35.256  29.046  27.455  1.00  0.00     0.116 C 
BRANCH  24  25
ATOM     25  N   UNL A   1      35.420  29.862  28.656  1.00  0.00    -0.352 N 
ATOM     26  C   UNL A   1      36.445  29.820  29.572  1.00  0.00     0.251 C 
ATOM     27  H   UNL A   1      34.711  30.521  28.832  1.00  0.00     0.163 HD
ATOM     28  O   UNL A   1      36.277  30.257  30.714  1.00  0.00    -0.269 OA
BRANCH  26  29
ATOM     29  C   UNL A   1      37.739  29.254  29.163  1.00  0.00     0.039 A 
ATOM     30  C   UNL A   1      38.585  29.934  28.284  1.00  0.00     0.014 A 
ATOM     31  C   UNL A   1      38.112  28.025  29.708  1.00  0.00     0.014 A 
ATOM     32  C   UNL A   1      39.843  29.399  28.021  1.00  0.00     0.010 A 
ATOM     33  C   UNL A   1      39.398  27.569  29.554  1.00  0.00     0.010 A 
ATOM     34  C   UNL A   1      40.255  28.225  28.679  1.00  0.00    -0.014 A 
BRANCH  34  35
ATOM     35  C   UNL A   1      41.644  27.773  28.610  1.00  0.00     0.031 A 
ATOM     36  C   UNL A   1      41.821  26.572  27.749  1.00  0.00     0.074 A 
ATOM     37  C   UNL A   1      42.693  28.487  29.079  1.00  0.00     0.049 A 
ATOM     38  N   UNL A   1      42.055  25.363  28.134  1.00  0.00    -0.248 NA
ATOM     39  C   UNL A   1      41.491  26.675  26.315  1.00  0.00     0.031 C 
ATOM     40  C   UNL A   1      42.673  29.819  29.693  1.00  0.00     0.029 A 
ATOM     41  N   UNL A   1      44.030  28.219  29.016  1.00  0.00    -0.354 N 
ATOM     42  C   UNL A   1      42.208  24.619  26.970  1.00  0.00     0.074 A 
ATOM     43  C   UNL A   1      41.603  25.401  25.928  1.00  0.00     0.031 C 
ATOM     44  C   UNL A   1      43.925  30.330  29.727  1.00  0.00     0.029 A 
ATOM     45  C   UNL A   1      44.862  29.307  29.295  1.00  0.00     0.049 A 
ATOM     46  H   UNL A   1      44.381  27.326  28.794  1.00  0.00     0.167 HD
ATOM     47  C   UNL A   1      43.089  23.581  26.926  1.00  0.00     0.034 A 
ATOM     48  C   UNL A   1      46.219  29.379  29.178  1.00  0.00     0.034 A 
ATOM     49  C   UNL A   1      43.479  23.189  28.267  1.00  0.00     0.049 A 
ATOM     50  C   UNL A   1      46.717  27.982  29.211  1.00  0.00     0.074 A 
ATOM     51  C   UNL A   1      42.794  22.784  29.398  1.00  0.00     0.029 A 
ATOM     52  N   UNL A   1      44.722  23.586  28.713  1.00  0.00    -0.354 N 
ATOM     53  N   UNL A   1      46.612  27.217  30.264  1.00  0.00    -0.248 NA
ATOM     54  C   UNL A   1      46.844  27.274  27.946  1.00  0.00     0.031 C 
ATOM     55  C   UNL A   1      43.457  23.438  30.479  1.00  0.00     0.029 A 
ATOM     56  C   UNL A   1      44.571  24.111  29.973  1.00  0.00     0.049 A 
ATOM     57  H   UNL A   1      45.568  23.508  28.216  1.00  0.00     0.167 HD
ATOM     58  C   UNL A   1      46.195  25.990  29.773  1.00  0.00     0.074 A 
ATOM     59  C   UNL A   1      46.452  26.055  28.333  1.00  0.00     0.031 C 
ATOM     60  C   UNL A   1      45.414  25.157  30.525  1.00  0.00     0.034 A 
BRANCH  47  61
ATOM     61  C   UNL A   1      43.928  23.208  25.719  1.00  0.00     0.023 A 
ATOM     62  C   UNL A   1      43.916  21.852  25.337  1.00  0.00     0.031 A 
ATOM     63  C   UNL A   1      44.947  23.996  25.138  1.00  0.00     0.131 A 
ATOM     64  C   UNL A   1      44.949  21.311  24.554  1.00  0.00     0.055 A 
ATOM     65  C   UNL A   1      45.934  23.467  24.301  1.00  0.00     0.041 A 
ATOM     66  F   UNL A   1      45.110  25.296  25.407  1.00  0.00    -0.206 F 
ATOM     67  C   UNL A   1      45.963  22.110  24.036  1.00  0.00     0.022 A 
BRANCH  64  68
ATOM     68  S   UNL A   1      45.047  19.512  24.396  1.00  0.00     0.124 S 
ATOM     69  O   UNL A   1      46.459  19.275  24.680  1.00  0.00    -0.237 OA
ATOM     70  O   UNL A   1      44.100  19.071  25.414  1.00  0.00    -0.237 OA
ATOM     71  O   UNL A   1      44.637  19.272  23.015  1.00  0.00    -0.744 OA
ENDBRANCH  64  68
ENDBRANCH  47  61
BRANCH  48  72
ATOM     72  C   UNL A   1      47.041  30.539  28.708  1.00  0.00     0.023 A 
ATOM     73  C   UNL A   1      48.194  31.021  29.373  1.00  0.00     0.031 A 
ATOM     74  C   UNL A   1      46.812  31.045  27.408  1.00  0.00     0.131 A 
ATOM     75  C   UNL A   1      49.048  31.964  28.739  1.00  0.00     0.055 A 
ATOM     76  C   UNL A   1      47.657  31.970  26.788  1.00  0.00     0.041 A 
ATOM     77  F   UNL A   1      45.797  30.589  26.656  1.00  0.00    -0.206 F 
ATOM     78  C   UNL A   1      48.784  32.429  27.449  1.00  0.00     0.022 A 
BRANCH  75  79
ATOM     79  S   UNL A   1      50.569  32.569  29.557  1.00  0.00     0.124 S 
ATOM     80  O   UNL A   1      51.442  31.403  29.504  1.00  0.00    -0.237 OA
ATOM     81  O   UNL A   1      50.944  33.702  28.719  1.00  0.00    -0.237 OA
ATOM     82  O   UNL A   1      50.115  32.930  30.902  1.00  0.00    -0.744 OA
ENDBRANCH  75  79
ENDBRANCH  48  72
BRANCH  60  83
ATOM     83  C   UNL A   1      45.272  25.439  32.009  1.00  0.00     0.023 A 
ATOM     84  C   UNL A   1      46.156  24.995  33.021  1.00  0.00     0.031 A 
ATOM     85  C   UNL A   1      44.231  26.305  32.389  1.00  0.00     0.131 A 
ATOM     86  C   UNL A   1      45.967  25.414  34.355  1.00  0.00     0.055 A 
ATOM     87  C   UNL A   1      44.062  26.735  33.703  1.00  0.00     0.041 A 
ATOM     88  F   UNL A   1      43.371  26.779  31.472  1.00  0.00    -0.206 F 
ATOM     89  C   UNL A   1      44.926  26.286  34.694  1.00  0.00     0.022 A 
BRANCH  86  90
ATOM     90  S   UNL A   1      47.053  24.814  35.691  1.00  0.00     0.124 S 
ATOM     91  O   UNL A   1      46.211  23.873  36.420  1.00  0.00    -0.237 OA
ATOM     92  O   UNL A   1      48.171  24.233  34.954  1.00  0.00    -0.237 OA
ATOM     93  O   UNL A   1      47.386  26.033  36.432  1.00  0.00    -0.744 OA
ENDBRANCH  86  90
ENDBRANCH  60  83
ENDBRANCH  34  35
ENDBRANCH  26  29
ENDBRANCH  24  25
ENDBRANCH  23  24
ENDBRANCH  22  23
ENDBRANCH   1  22
TORSDOF 21
ENDMDL
