MODEL 1
REMARK VINA RESULT:     -11.3      0.000      0.000
REMARK SMILES O=C(C[C@@H]1C(=O)NC(=S)N1c1ccccc1)NCCCCCCNC(=O)c1ccc(-c2c3nc(c(-c4cc(S(=O)(=O)[O-])ccc4F)c4ccc([nH]4)c(-c4cc(S(=O)(=O)[O-])ccc4F)c4nc(c(-c5cc(S(=O)(=O)[O-])ccc5F)c5ccc2[nH]5)C=C4)C=C3)cc1
REMARK SMILES IDX 21 1 20 2 19 3 18 4 17 5 1 6 2 7 3 9 4 10 5 11 10 12 6 13
REMARK SMILES IDX 7 14 8 15 9 17 11 18 12 19 16 20 13 21 15 22 14 23 22 24
REMARK SMILES IDX 23 25 24 26 25 27 26 29 27 30 28 31 89 32 29 33 88 34 30 35
REMARK SMILES IDX 31 36 32 37 82 38 33 39 87 40 81 41 83 42 34 43 86 44 80 45
REMARK SMILES IDX 79 46 35 48 67 49 47 50 66 51 48 52 51 53 65 54 84 55 49 56
REMARK SMILES IDX 50 57 64 59 85 60 52 61 36 62 37 63 45 64 38 65 44 66 46 67
REMARK SMILES IDX 43 68 39 69 40 70 41 71 42 72 68 73 69 74 77 75 70 76 76 77
REMARK SMILES IDX 78 78 75 79 71 80 72 81 73 82 74 83 53 84 54 85 62 86 55 87
REMARK SMILES IDX 61 88 63 89 60 90 56 91 57 92 58 93 59 94
REMARK H PARENT 17 8 7 16 24 28 83 47 51 58
REMARK Flexibility Score: inf
ROOT
ATOM      1  C   UNL A   1      35.365  20.547  25.050  1.00  0.00     0.002 C 
ENDROOT
BRANCH   1   2
ATOM      2  C   UNL A   1      33.898  20.888  24.773  1.00  0.00     0.002 C 
BRANCH   2   3
ATOM      3  C   UNL A   1      33.118  21.452  25.968  1.00  0.00     0.021 C 
BRANCH   3   4
ATOM      4  C   UNL A   1      31.659  21.804  25.672  1.00  0.00     0.116 C 
BRANCH   4   5
ATOM      5  N   UNL A   1      31.468  23.241  25.631  1.00  0.00    -0.356 N 
ATOM      6  O   UNL A   1      29.961  23.327  27.358  1.00  0.00    -0.275 OA
ATOM      7  C   UNL A   1      30.610  23.895  26.485  1.00  0.00     0.222 C 
ATOM      8  H   UNL A   1      31.972  23.768  24.970  1.00  0.00     0.163 HD
BRANCH   7   9
ATOM      9  C   UNL A   1      30.402  25.360  26.176  1.00  0.00     0.135 C 
BRANCH   9  10
ATOM     10  C   UNL A   1      31.703  26.150  26.159  1.00  0.00     0.188 C 
ATOM     11  C   UNL A   1      31.455  27.531  26.769  1.00  0.00     0.249 C 
ATOM     12  N   UNL A   1      32.208  26.548  24.836  1.00  0.00    -0.306 N 
ATOM     13  O   UNL A   1      31.007  27.757  27.883  1.00  0.00    -0.272 OA
ATOM     14  N   UNL A   1      31.829  28.488  25.882  1.00  0.00    -0.301 N 
ATOM     15  C   UNL A   1      32.305  27.942  24.733  1.00  0.00     0.180 C 
ATOM     16  H   UNL A   1      31.762  29.455  26.052  1.00  0.00     0.172 HD
ATOM     17  S   UNL A   1      32.835  28.887  23.473  1.00  0.00    -0.040 S 
BRANCH  12  18
ATOM     18  C   UNL A   1      32.859  25.614  23.992  1.00  0.00     0.044 A 
ATOM     19  C   UNL A   1      32.235  25.143  22.831  1.00  0.00     0.026 A 
ATOM     20  C   UNL A   1      34.131  25.132  24.315  1.00  0.00     0.026 A 
ATOM     21  C   UNL A   1      32.881  24.216  22.005  1.00  0.00     0.002 A 
ATOM     22  C   UNL A   1      34.776  24.207  23.491  1.00  0.00     0.002 A 
ATOM     23  C   UNL A   1      34.151  23.751  22.334  1.00  0.00     0.000 A 
ENDBRANCH  12  18
ENDBRANCH   9  10
ENDBRANCH   7   9
ENDBRANCH   4   5
ENDBRANCH   3   4
ENDBRANCH   2   3
ENDBRANCH   1   2
BRANCH   1  24
ATOM     24  C   UNL A   1      36.383  21.491  24.407  1.00  0.00     0.021 C 
BRANCH  24  25
ATOM     25  C   UNL A   1      37.392  22.101  25.376  1.00  0.00     0.116 C 
BRANCH  25  26
ATOM     26  N   UNL A   1      38.382  21.135  25.822  1.00  0.00    -0.352 N 
ATOM     27  C   UNL A   1      39.618  21.347  26.385  1.00  0.00     0.251 C 
ATOM     28  H   UNL A   1      38.130  20.190  25.704  1.00  0.00     0.163 HD
ATOM     29  O   UNL A   1      40.392  20.403  26.514  1.00  0.00    -0.269 OA
BRANCH  27  30
ATOM     30  C   UNL A   1      40.020  22.709  26.808  1.00  0.00     0.039 A 
ATOM     31  C   UNL A   1      40.897  22.848  27.886  1.00  0.00     0.014 A 
ATOM     32  C   UNL A   1      39.528  23.844  26.158  1.00  0.00     0.014 A 
ATOM     33  C   UNL A   1      41.323  24.122  28.274  1.00  0.00     0.010 A 
ATOM     34  C   UNL A   1      40.016  25.105  26.495  1.00  0.00     0.010 A 
ATOM     35  C   UNL A   1      40.914  25.262  27.563  1.00  0.00    -0.014 A 
BRANCH  35  36
ATOM     36  C   UNL A   1      41.398  26.619  27.937  1.00  0.00     0.031 A 
ATOM     37  C   UNL A   1      42.822  27.019  27.654  1.00  0.00     0.074 A 
ATOM     38  C   UNL A   1      40.568  27.479  28.562  1.00  0.00     0.049 A 
ATOM     39  N   UNL A   1      43.447  28.128  27.955  1.00  0.00    -0.248 NA
ATOM     40  C   UNL A   1      43.661  26.026  26.965  1.00  0.00     0.031 C 
ATOM     41  C   UNL A   1      39.176  27.199  28.923  1.00  0.00     0.029 A 
ATOM     42  N   UNL A   1      40.772  28.760  29.011  1.00  0.00    -0.354 N 
ATOM     43  C   UNL A   1      44.749  27.970  27.490  1.00  0.00     0.074 A 
ATOM     44  C   UNL A   1      44.841  26.626  26.961  1.00  0.00     0.031 C 
ATOM     45  C   UNL A   1      38.646  28.283  29.510  1.00  0.00     0.029 A 
ATOM     46  C   UNL A   1      39.669  29.319  29.617  1.00  0.00     0.049 A 
ATOM     47  H   UNL A   1      41.627  29.236  28.908  1.00  0.00     0.167 HD
ATOM     48  C   UNL A   1      45.764  28.870  27.474  1.00  0.00     0.034 A 
ATOM     49  C   UNL A   1      39.504  30.521  30.205  1.00  0.00     0.034 A 
ATOM     50  C   UNL A   1      45.659  30.207  28.007  1.00  0.00     0.049 A 
ATOM     51  C   UNL A   1      40.664  31.488  30.220  1.00  0.00     0.074 A 
ATOM     52  C   UNL A   1      46.618  31.205  28.031  1.00  0.00     0.029 A 
ATOM     53  N   UNL A   1      44.526  30.735  28.617  1.00  0.00    -0.354 N 
ATOM     54  N   UNL A   1      41.878  31.333  29.743  1.00  0.00    -0.248 NA
ATOM     55  C   UNL A   1      40.425  32.798  30.838  1.00  0.00     0.031 C 
ATOM     56  C   UNL A   1      46.092  32.307  28.712  1.00  0.00     0.029 A 
ATOM     57  C   UNL A   1      44.773  32.034  29.036  1.00  0.00     0.049 A 
ATOM     58  H   UNL A   1      43.674  30.257  28.733  1.00  0.00     0.167 HD
ATOM     59  C   UNL A   1      42.531  32.544  29.966  1.00  0.00     0.074 A 
ATOM     60  C   UNL A   1      41.570  33.421  30.602  1.00  0.00     0.031 C 
ATOM     61  C   UNL A   1      43.806  32.900  29.669  1.00  0.00     0.034 A 
BRANCH  48  62
ATOM     62  C   UNL A   1      47.075  28.426  26.870  1.00  0.00     0.023 A 
ATOM     63  C   UNL A   1      47.244  28.320  25.477  1.00  0.00     0.031 A 
ATOM     64  C   UNL A   1      48.166  28.085  27.689  1.00  0.00     0.131 A 
ATOM     65  C   UNL A   1      48.440  27.812  24.951  1.00  0.00     0.055 A 
ATOM     66  C   UNL A   1      49.386  27.664  27.154  1.00  0.00     0.041 A 
ATOM     67  F   UNL A   1      48.062  28.143  29.027  1.00  0.00    -0.206 F 
ATOM     68  C   UNL A   1      49.523  27.510  25.778  1.00  0.00     0.022 A 
BRANCH  65  69
ATOM     69  S   UNL A   1      48.504  27.410  23.184  1.00  0.00     0.124 S 
ATOM     70  O   UNL A   1      49.811  27.943  22.808  1.00  0.00    -0.237 OA
ATOM     71  O   UNL A   1      48.383  25.956  23.186  1.00  0.00    -0.237 OA
ATOM     72  O   UNL A   1      47.362  28.131  22.625  1.00  0.00    -0.744 OA
ENDBRANCH  65  69
ENDBRANCH  48  62
BRANCH  49  73
ATOM     73  C   UNL A   1      38.206  30.885  30.847  1.00  0.00     0.023 A 
ATOM     74  C   UNL A   1      37.197  31.543  30.122  1.00  0.00     0.031 A 
ATOM     75  C   UNL A   1      37.982  30.649  32.215  1.00  0.00     0.131 A 
ATOM     76  C   UNL A   1      36.047  32.003  30.782  1.00  0.00     0.055 A 
ATOM     77  C   UNL A   1      36.804  31.048  32.852  1.00  0.00     0.041 A 
ATOM     78  F   UNL A   1      38.909  30.024  32.957  1.00  0.00    -0.206 F 
ATOM     79  C   UNL A   1      35.837  31.747  32.138  1.00  0.00     0.022 A 
BRANCH  76  80
ATOM     80  S   UNL A   1      34.887  33.058  29.868  1.00  0.00     0.124 S 
ATOM     81  O   UNL A   1      35.791  34.003  29.225  1.00  0.00    -0.237 OA
ATOM     82  O   UNL A   1      34.232  32.095  28.989  1.00  0.00    -0.237 OA
ATOM     83  O   UNL A   1      34.040  33.619  30.918  1.00  0.00    -0.744 OA
ENDBRANCH  76  80
ENDBRANCH  49  73
BRANCH  61  84
ATOM     84  C   UNL A   1      44.211  34.326  29.971  1.00  0.00     0.023 A 
ATOM     85  C   UNL A   1      44.064  35.358  29.027  1.00  0.00     0.031 A 
ATOM     86  C   UNL A   1      44.777  34.648  31.217  1.00  0.00     0.131 A 
ATOM     87  C   UNL A   1      44.543  36.645  29.318  1.00  0.00     0.055 A 
ATOM     88  C   UNL A   1      45.186  35.946  31.527  1.00  0.00     0.041 A 
ATOM     89  F   UNL A   1      44.947  33.704  32.157  1.00  0.00    -0.206 F 
ATOM     90  C   UNL A   1      45.086  36.950  30.569  1.00  0.00     0.022 A 
BRANCH  87  91
ATOM     91  S   UNL A   1      44.560  37.886  27.996  1.00  0.00     0.124 S 
ATOM     92  O   UNL A   1      45.437  37.267  27.008  1.00  0.00    -0.237 OA
ATOM     93  O   UNL A   1      43.150  37.972  27.632  1.00  0.00    -0.237 OA
ATOM     94  O   UNL A   1      45.104  39.076  28.649  1.00  0.00    -0.744 OA
ENDBRANCH  87  91
ENDBRANCH  61  84
ENDBRANCH  35  36
ENDBRANCH  27  30
ENDBRANCH  25  26
ENDBRANCH  24  25
ENDBRANCH   1  24
TORSDOF 18
ENDMDL
MODEL 2
REMARK VINA RESULT:     -11.2      4.482      9.503
REMARK SMILES O=C(C[C@@H]1C(=O)NC(=S)N1c1ccccc1)NCCCCCCNC(=O)c1ccc(-c2c3nc(c(-c4cc(S(=O)(=O)[O-])ccc4F)c4ccc([nH]4)c(-c4cc(S(=O)(=O)[O-])ccc4F)c4nc(c(-c5cc(S(=O)(=O)[O-])ccc5F)c5ccc2[nH]5)C=C4)C=C3)cc1
REMARK SMILES IDX 21 1 20 2 19 3 18 4 17 5 1 6 2 7 3 9 4 10 5 11 10 12 6 13
REMARK SMILES IDX 7 14 8 15 9 17 11 18 12 19 16 20 13 21 15 22 14 23 22 24
REMARK SMILES IDX 23 25 24 26 25 27 26 29 27 30 28 31 89 32 29 33 88 34 30 35
REMARK SMILES IDX 31 36 32 37 82 38 33 39 87 40 81 41 83 42 34 43 86 44 80 45
REMARK SMILES IDX 79 46 35 48 67 49 47 50 66 51 48 52 51 53 65 54 84 55 49 56
REMARK SMILES IDX 50 57 64 59 85 60 52 61 36 62 37 63 45 64 38 65 44 66 46 67
REMARK SMILES IDX 43 68 39 69 40 70 41 71 42 72 68 73 69 74 77 75 70 76 76 77
REMARK SMILES IDX 78 78 75 79 71 80 72 81 73 82 74 83 53 84 54 85 62 86 55 87
REMARK SMILES IDX 61 88 63 89 60 90 56 91 57 92 58 93 59 94
REMARK H PARENT 17 8 7 16 24 28 83 47 51 58
REMARK Flexibility Score: inf
ROOT
ATOM      1  C   UNL A   1      31.650  28.641  25.000  1.00  0.00     0.002 C 
ENDROOT
BRANCH   1   2
ATOM      2  C   UNL A   1      30.856  28.461  23.704  1.00  0.00     0.002 C 
BRANCH   2   3
ATOM      3  C   UNL A   1      30.923  27.059  23.082  1.00  0.00     0.021 C 
BRANCH   3   4
ATOM      4  C   UNL A   1      31.136  25.924  24.085  1.00  0.00     0.116 C 
BRANCH   4   5
ATOM      5  N   UNL A   1      31.980  24.886  23.523  1.00  0.00    -0.356 N 
ATOM      6  O   UNL A   1      33.913  25.575  24.546  1.00  0.00    -0.275 OA
ATOM      7  C   UNL A   1      33.326  24.803  23.795  1.00  0.00     0.222 C 
ATOM      8  H   UNL A   1      31.574  24.216  22.926  1.00  0.00     0.163 HD
BRANCH   7   9
ATOM      9  C   UNL A   1      34.074  23.773  22.980  1.00  0.00     0.135 C 
BRANCH   9  10
ATOM     10  C   UNL A   1      34.138  22.413  23.660  1.00  0.00     0.188 C 
ATOM     11  C   UNL A   1      32.716  21.884  23.852  1.00  0.00     0.249 C 
ATOM     12  N   UNL A   1      34.599  22.403  25.057  1.00  0.00    -0.306 N 
ATOM     13  O   UNL A   1      31.884  21.716  22.972  1.00  0.00    -0.272 OA
ATOM     14  N   UNL A   1      32.511  21.607  25.164  1.00  0.00    -0.301 N 
ATOM     15  C   UNL A   1      33.617  21.878  25.907  1.00  0.00     0.180 C 
ATOM     16  H   UNL A   1      31.669  21.255  25.531  1.00  0.00     0.172 HD
ATOM     17  S   UNL A   1      33.645  21.629  27.549  1.00  0.00    -0.040 S 
BRANCH  12  18
ATOM     18  C   UNL A   1      35.975  22.535  25.372  1.00  0.00     0.044 A 
ATOM     19  C   UNL A   1      36.855  21.462  25.192  1.00  0.00     0.026 A 
ATOM     20  C   UNL A   1      36.473  23.735  25.887  1.00  0.00     0.026 A 
ATOM     21  C   UNL A   1      38.211  21.596  25.510  1.00  0.00     0.002 A 
ATOM     22  C   UNL A   1      37.826  23.869  26.206  1.00  0.00     0.002 A 
ATOM     23  C   UNL A   1      38.696  22.800  26.015  1.00  0.00     0.000 A 
ENDBRANCH  12  18
ENDBRANCH   9  10
ENDBRANCH   7   9
ENDBRANCH   4   5
ENDBRANCH   3   4
ENDBRANCH   2   3
ENDBRANCH   1   2
BRANCH   1  24
ATOM     24  C   UNL A   1      33.155  28.851  24.816  1.00  0.00     0.021 C 
BRANCH  24  25
ATOM     25  C   UNL A   1      33.946  28.995  26.113  1.00  0.00     0.116 C 
BRANCH  25  26
ATOM     26  N   UNL A   1      33.776  30.306  26.719  1.00  0.00    -0.352 N 
ATOM     27  C   UNL A   1      34.518  30.916  27.702  1.00  0.00     0.251 C 
ATOM     28  H   UNL A   1      33.019  30.833  26.375  1.00  0.00     0.163 HD
ATOM     29  O   UNL A   1      34.099  31.946  28.222  1.00  0.00    -0.269 OA
BRANCH  27  30
ATOM     30  C   UNL A   1      35.799  30.319  28.148  1.00  0.00     0.039 A 
ATOM     31  C   UNL A   1      36.921  30.441  27.325  1.00  0.00     0.014 A 
ATOM     32  C   UNL A   1      35.895  29.631  29.361  1.00  0.00     0.014 A 
ATOM     33  C   UNL A   1      38.149  29.922  27.745  1.00  0.00     0.010 A 
ATOM     34  C   UNL A   1      37.136  29.187  29.813  1.00  0.00     0.010 A 
ATOM     35  C   UNL A   1      38.278  29.319  29.007  1.00  0.00    -0.014 A 
BRANCH  35  36
ATOM     36  C   UNL A   1      39.591  28.806  29.486  1.00  0.00     0.031 A 
ATOM     37  C   UNL A   1      40.334  29.531  30.578  1.00  0.00     0.074 A 
ATOM     38  C   UNL A   1      40.131  27.710  28.916  1.00  0.00     0.049 A 
ATOM     39  N   UNL A   1      41.512  29.277  31.088  1.00  0.00    -0.248 NA
ATOM     40  C   UNL A   1      39.675  30.715  31.150  1.00  0.00     0.031 C 
ATOM     41  C   UNL A   1      39.527  26.939  27.828  1.00  0.00     0.029 A 
ATOM     42  N   UNL A   1      41.312  27.055  29.167  1.00  0.00    -0.354 N 
ATOM     43  C   UNL A   1      41.733  30.265  32.043  1.00  0.00     0.074 A 
ATOM     44  C   UNL A   1      40.602  31.166  31.980  1.00  0.00     0.031 C 
ATOM     45  C   UNL A   1      40.326  25.903  27.525  1.00  0.00     0.029 A 
ATOM     46  C   UNL A   1      41.524  25.961  28.358  1.00  0.00     0.049 A 
ATOM     47  H   UNL A   1      41.948  27.340  29.861  1.00  0.00     0.167 HD
ATOM     48  C   UNL A   1      42.765  30.391  32.915  1.00  0.00     0.034 A 
ATOM     49  C   UNL A   1      42.568  25.111  28.284  1.00  0.00     0.034 A 
ATOM     50  C   UNL A   1      43.888  29.486  32.966  1.00  0.00     0.049 A 
ATOM     51  C   UNL A   1      43.728  25.302  29.231  1.00  0.00     0.074 A 
ATOM     52  C   UNL A   1      44.980  29.512  33.817  1.00  0.00     0.029 A 
ATOM     53  N   UNL A   1      44.068  28.392  32.127  1.00  0.00    -0.354 N 
ATOM     54  N   UNL A   1      43.904  26.222  30.152  1.00  0.00    -0.248 NA
ATOM     55  C   UNL A   1      44.824  24.329  29.138  1.00  0.00     0.031 C 
ATOM     56  C   UNL A   1      45.850  28.480  33.451  1.00  0.00     0.029 A 
ATOM     57  C   UNL A   1      45.262  27.752  32.429  1.00  0.00     0.049 A 
ATOM     58  H   UNL A   1      43.440  28.112  31.424  1.00  0.00     0.167 HD
ATOM     59  C   UNL A   1      45.109  25.909  30.776  1.00  0.00     0.074 A 
ATOM     60  C   UNL A   1      45.606  24.708  30.138  1.00  0.00     0.031 C 
ATOM     61  C   UNL A   1      45.747  26.554  31.786  1.00  0.00     0.034 A 
BRANCH  48  62
ATOM     62  C   UNL A   1      42.725  31.559  33.873  1.00  0.00     0.023 A 
ATOM     63  C   UNL A   1      42.161  31.438  35.156  1.00  0.00     0.031 A 
ATOM     64  C   UNL A   1      43.235  32.814  33.498  1.00  0.00     0.131 A 
ATOM     65  C   UNL A   1      42.050  32.564  35.984  1.00  0.00     0.055 A 
ATOM     66  C   UNL A   1      43.202  33.912  34.362  1.00  0.00     0.041 A 
ATOM     67  F   UNL A   1      43.766  33.001  32.278  1.00  0.00    -0.206 F 
ATOM     68  C   UNL A   1      42.593  33.794  35.607  1.00  0.00     0.022 A 
BRANCH  65  69
ATOM     69  S   UNL A   1      41.053  32.433  37.493  1.00  0.00     0.124 S 
ATOM     70  O   UNL A   1      39.837  31.800  36.988  1.00  0.00    -0.237 OA
ATOM     71  O   UNL A   1      41.892  31.609  38.355  1.00  0.00    -0.237 OA
ATOM     72  O   UNL A   1      40.892  33.822  37.919  1.00  0.00    -0.744 OA
ENDBRANCH  65  69
ENDBRANCH  48  62
BRANCH  49  73
ATOM     73  C   UNL A   1      42.587  24.011  27.274  1.00  0.00     0.023 A 
ATOM     74  C   UNL A   1      41.981  22.772  27.538  1.00  0.00     0.031 A 
ATOM     75  C   UNL A   1      43.276  24.157  26.057  1.00  0.00     0.131 A 
ATOM     76  C   UNL A   1      42.137  21.708  26.636  1.00  0.00     0.055 A 
ATOM     77  C   UNL A   1      43.369  23.117  25.130  1.00  0.00     0.041 A 
ATOM     78  F   UNL A   1      43.874  25.319  25.749  1.00  0.00    -0.206 F 
ATOM     79  C   UNL A   1      42.814  21.877  25.427  1.00  0.00     0.022 A 
BRANCH  76  80
ATOM     80  S   UNL A   1      41.552  20.062  27.126  1.00  0.00     0.124 S 
ATOM     81  O   UNL A   1      41.057  19.535  25.861  1.00  0.00    -0.237 OA
ATOM     82  O   UNL A   1      42.771  19.450  27.645  1.00  0.00    -0.237 OA
ATOM     83  O   UNL A   1      40.527  20.350  28.127  1.00  0.00    -0.744 OA
ENDBRANCH  76  80
ENDBRANCH  49  73
BRANCH  61  84
ATOM     84  C   UNL A   1      47.020  25.927  32.308  1.00  0.00     0.023 A 
ATOM     85  C   UNL A   1      48.267  26.156  31.700  1.00  0.00     0.031 A 
ATOM     86  C   UNL A   1      46.977  25.065  33.419  1.00  0.00     0.131 A 
ATOM     87  C   UNL A   1      49.405  25.476  32.161  1.00  0.00     0.055 A 
ATOM     88  C   UNL A   1      48.125  24.448  33.918  1.00  0.00     0.041 A 
ATOM     89  F   UNL A   1      45.814  24.805  34.039  1.00  0.00    -0.206 F 
ATOM     90  C   UNL A   1      49.346  24.638  33.278  1.00  0.00     0.022 A 
BRANCH  87  91
ATOM     91  S   UNL A   1      50.942  25.605  31.206  1.00  0.00     0.124 S 
ATOM     92  O   UNL A   1      50.611  24.861  29.996  1.00  0.00    -0.237 OA
ATOM     93  O   UNL A   1      51.090  27.048  31.048  1.00  0.00    -0.237 OA
ATOM     94  O   UNL A   1      51.938  24.972  32.071  1.00  0.00    -0.744 OA
ENDBRANCH  87  91
ENDBRANCH  61  84
ENDBRANCH  35  36
ENDBRANCH  27  30
ENDBRANCH  25  26
ENDBRANCH  24  25
ENDBRANCH   1  24
TORSDOF 18
ENDMDL
MODEL 3
REMARK VINA RESULT:     -11.2      2.040      2.669
REMARK SMILES O=C(C[C@@H]1C(=O)NC(=S)N1c1ccccc1)NCCCCCCNC(=O)c1ccc(-c2c3nc(c(-c4cc(S(=O)(=O)[O-])ccc4F)c4ccc([nH]4)c(-c4cc(S(=O)(=O)[O-])ccc4F)c4nc(c(-c5cc(S(=O)(=O)[O-])ccc5F)c5ccc2[nH]5)C=C4)C=C3)cc1
REMARK SMILES IDX 21 1 20 2 19 3 18 4 17 5 1 6 2 7 3 9 4 10 5 11 10 12 6 13
REMARK SMILES IDX 7 14 8 15 9 17 11 18 12 19 16 20 13 21 15 22 14 23 22 24
REMARK SMILES IDX 23 25 24 26 25 27 26 29 27 30 28 31 89 32 29 33 88 34 30 35
REMARK SMILES IDX 31 36 32 37 82 38 33 39 87 40 81 41 83 42 34 43 86 44 80 45
REMARK SMILES IDX 79 46 35 48 67 49 47 50 66 51 48 52 51 53 65 54 84 55 49 56
REMARK SMILES IDX 50 57 64 59 85 60 52 61 36 62 37 63 45 64 38 65 44 66 46 67
REMARK SMILES IDX 43 68 39 69 40 70 41 71 42 72 68 73 69 74 77 75 70 76 76 77
REMARK SMILES IDX 78 78 75 79 71 80 72 81 73 82 74 83 53 84 54 85 62 86 55 87
REMARK SMILES IDX 61 88 63 89 60 90 56 91 57 92 58 93 59 94
REMARK H PARENT 17 8 7 16 24 28 83 47 51 58
REMARK Flexibility Score: inf
ROOT
ATOM      1  C   UNL A   1      35.408  22.348  23.713  1.00  0.00     0.002 C 
ENDROOT
BRANCH   1   2
ATOM      2  C   UNL A   1      34.021  21.825  24.099  1.00  0.00     0.002 C 
BRANCH   2   3
ATOM      3  C   UNL A   1      32.883  22.220  23.149  1.00  0.00     0.021 C 
BRANCH   3   4
ATOM      4  C   UNL A   1      33.271  23.233  22.070  1.00  0.00     0.116 C 
BRANCH   4   5
ATOM      5  N   UNL A   1      33.188  24.590  22.576  1.00  0.00    -0.356 N 
ATOM      6  O   UNL A   1      33.016  25.597  20.523  1.00  0.00    -0.275 OA
ATOM      7  C   UNL A   1      33.077  25.681  21.745  1.00  0.00     0.222 C 
ATOM      8  H   UNL A   1      33.210  24.735  23.550  1.00  0.00     0.163 HD
BRANCH   7   9
ATOM      9  C   UNL A   1      33.189  27.019  22.439  1.00  0.00     0.135 C 
BRANCH   9  10
ATOM     10  C   UNL A   1      31.947  27.372  23.247  1.00  0.00     0.188 C 
ATOM     11  C   UNL A   1      31.692  28.876  23.137  1.00  0.00     0.249 C 
ATOM     12  N   UNL A   1      32.061  27.242  24.707  1.00  0.00    -0.306 N 
ATOM     13  O   UNL A   1      31.540  29.508  22.103  1.00  0.00    -0.272 OA
ATOM     14  N   UNL A   1      31.642  29.415  24.381  1.00  0.00    -0.301 N 
ATOM     15  C   UNL A   1      31.830  28.471  25.341  1.00  0.00     0.180 C 
ATOM     16  H   UNL A   1      31.489  30.370  24.565  1.00  0.00     0.172 HD
ATOM     17  S   UNL A   1      31.817  28.855  26.957  1.00  0.00    -0.040 S 
BRANCH  12  18
ATOM     18  C   UNL A   1      32.008  25.972  25.334  1.00  0.00     0.044 A 
ATOM     19  C   UNL A   1      30.836  25.208  25.304  1.00  0.00     0.026 A 
ATOM     20  C   UNL A   1      33.123  25.467  26.008  1.00  0.00     0.026 A 
ATOM     21  C   UNL A   1      30.788  23.957  25.929  1.00  0.00     0.002 A 
ATOM     22  C   UNL A   1      33.076  24.218  26.633  1.00  0.00     0.002 A 
ATOM     23  C   UNL A   1      31.909  23.462  26.591  1.00  0.00     0.000 A 
ENDBRANCH  12  18
ENDBRANCH   9  10
ENDBRANCH   7   9
ENDBRANCH   4   5
ENDBRANCH   3   4
ENDBRANCH   2   3
ENDBRANCH   1   2
BRANCH   1  24
ATOM     24  C   UNL A   1      35.998  23.390  24.666  1.00  0.00     0.021 C 
BRANCH  24  25
ATOM     25  C   UNL A   1      36.371  22.858  26.046  1.00  0.00     0.116 C 
BRANCH  25  26
ATOM     26  N   UNL A   1      37.341  21.777  25.976  1.00  0.00    -0.352 N 
ATOM     27  C   UNL A   1      38.710  21.825  26.089  1.00  0.00     0.251 C 
ATOM     28  H   UNL A   1      36.963  20.881  25.825  1.00  0.00     0.163 HD
ATOM     29  O   UNL A   1      39.374  20.831  25.805  1.00  0.00    -0.269 OA
BRANCH  27  30
ATOM     30  C   UNL A   1      39.379  23.072  26.526  1.00  0.00     0.039 A 
ATOM     31  C   UNL A   1      39.198  24.234  25.772  1.00  0.00     0.014 A 
ATOM     32  C   UNL A   1      40.193  23.099  27.663  1.00  0.00     0.014 A 
ATOM     33  C   UNL A   1      39.786  25.432  26.190  1.00  0.00     0.010 A 
ATOM     34  C   UNL A   1      40.710  24.309  28.121  1.00  0.00     0.010 A 
ATOM     35  C   UNL A   1      40.520  25.490  27.386  1.00  0.00    -0.014 A 
BRANCH  35  36
ATOM     36  C   UNL A   1      41.111  26.769  27.867  1.00  0.00     0.031 A 
ATOM     37  C   UNL A   1      42.573  27.056  27.648  1.00  0.00     0.074 A 
ATOM     38  C   UNL A   1      40.341  27.656  28.530  1.00  0.00     0.049 A 
ATOM     39  N   UNL A   1      43.284  28.081  28.042  1.00  0.00    -0.248 NA
ATOM     40  C   UNL A   1      43.342  26.040  26.913  1.00  0.00     0.031 C 
ATOM     41  C   UNL A   1      38.920  27.480  28.835  1.00  0.00     0.029 A 
ATOM     42  N   UNL A   1      40.644  28.880  29.072  1.00  0.00    -0.354 N 
ATOM     43  C   UNL A   1      44.581  27.838  27.600  1.00  0.00     0.074 A 
ATOM     44  C   UNL A   1      44.570  26.530  26.980  1.00  0.00     0.031 C 
ATOM     45  C   UNL A   1      38.470  28.566  29.484  1.00  0.00     0.029 A 
ATOM     46  C   UNL A   1      39.577  29.495  29.689  1.00  0.00     0.049 A 
ATOM     47  H   UNL A   1      41.541  29.283  29.025  1.00  0.00     0.167 HD
ATOM     48  C   UNL A   1      45.672  28.641  27.673  1.00  0.00     0.034 A 
ATOM     49  C   UNL A   1      39.501  30.665  30.356  1.00  0.00     0.034 A 
ATOM     50  C   UNL A   1      45.669  29.943  28.296  1.00  0.00     0.049 A 
ATOM     51  C   UNL A   1      40.741  31.519  30.468  1.00  0.00     0.074 A 
ATOM     52  C   UNL A   1      46.712  30.846  28.414  1.00  0.00     0.029 A 
ATOM     53  N   UNL A   1      44.570  30.529  28.913  1.00  0.00    -0.354 N 
ATOM     54  N   UNL A   1      41.951  31.287  30.012  1.00  0.00    -0.248 NA
ATOM     55  C   UNL A   1      40.600  32.801  31.170  1.00  0.00     0.031 C 
ATOM     56  C   UNL A   1      46.265  31.943  29.157  1.00  0.00     0.029 A 
ATOM     57  C   UNL A   1      44.918  31.769  29.429  1.00  0.00     0.049 A 
ATOM     58  H   UNL A   1      43.675  30.123  28.973  1.00  0.00     0.167 HD
ATOM     59  C   UNL A   1      42.701  32.416  30.335  1.00  0.00     0.074 A 
ATOM     60  C   UNL A   1      41.802  33.331  31.007  1.00  0.00     0.031 C 
ATOM     61  C   UNL A   1      44.012  32.674  30.097  1.00  0.00     0.034 A 
BRANCH  48  62
ATOM     62  C   UNL A   1      46.957  28.122  27.072  1.00  0.00     0.023 A 
ATOM     63  C   UNL A   1      47.190  28.168  25.685  1.00  0.00     0.031 A 
ATOM     64  C   UNL A   1      47.955  27.557  27.885  1.00  0.00     0.131 A 
ATOM     65  C   UNL A   1      48.349  27.590  25.149  1.00  0.00     0.055 A 
ATOM     66  C   UNL A   1      49.148  27.063  27.353  1.00  0.00     0.041 A 
ATOM     67  F   UNL A   1      47.783  27.464  29.214  1.00  0.00    -0.206 F 
ATOM     68  C   UNL A   1      49.344  27.063  25.976  1.00  0.00     0.022 A 
BRANCH  65  69
ATOM     69  S   UNL A   1      48.467  27.400  23.349  1.00  0.00     0.124 S 
ATOM     70  O   UNL A   1      48.528  25.947  23.210  1.00  0.00    -0.237 OA
ATOM     71  O   UNL A   1      47.241  28.036  22.883  1.00  0.00    -0.237 OA
ATOM     72  O   UNL A   1      49.704  28.103  23.010  1.00  0.00    -0.744 OA
ENDBRANCH  65  69
ENDBRANCH  48  62
BRANCH  49  73
ATOM     73  C   UNL A   1      38.220  31.100  30.988  1.00  0.00     0.023 A 
ATOM     74  C   UNL A   1      37.205  31.707  30.230  1.00  0.00     0.031 A 
ATOM     75  C   UNL A   1      38.022  30.986  32.376  1.00  0.00     0.131 A 
ATOM     76  C   UNL A   1      36.075  32.239  30.869  1.00  0.00     0.055 A 
ATOM     77  C   UNL A   1      36.863  31.454  32.999  1.00  0.00     0.041 A 
ATOM     78  F   UNL A   1      38.956  30.414  33.151  1.00  0.00    -0.206 F 
ATOM     79  C   UNL A   1      35.889  32.103  32.246  1.00  0.00     0.022 A 
BRANCH  76  80
ATOM     80  S   UNL A   1      34.910  33.227  29.890  1.00  0.00     0.124 S 
ATOM     81  O   UNL A   1      34.084  33.827  30.931  1.00  0.00    -0.237 OA
ATOM     82  O   UNL A   1      35.805  34.133  29.178  1.00  0.00    -0.237 OA
ATOM     83  O   UNL A   1      34.239  32.232  29.056  1.00  0.00    -0.744 OA
ENDBRANCH  76  80
ENDBRANCH  49  73
BRANCH  61  84
ATOM     84  C   UNL A   1      44.532  34.033  30.507  1.00  0.00     0.023 A 
ATOM     85  C   UNL A   1      45.165  34.247  31.744  1.00  0.00     0.031 A 
ATOM     86  C   UNL A   1      44.367  35.138  29.652  1.00  0.00     0.131 A 
ATOM     87  C   UNL A   1      45.544  35.545  32.121  1.00  0.00     0.055 A 
ATOM     88  C   UNL A   1      44.811  36.414  30.003  1.00  0.00     0.041 A 
ATOM     89  F   UNL A   1      43.766  34.997  28.460  1.00  0.00    -0.206 F 
ATOM     90  C   UNL A   1      45.387  36.627  31.251  1.00  0.00     0.022 A 
BRANCH  87  91
ATOM     91  S   UNL A   1      46.132  35.822  33.815  1.00  0.00     0.124 S 
ATOM     92  O   UNL A   1      45.255  34.949  34.588  1.00  0.00    -0.237 OA
ATOM     93  O   UNL A   1      47.529  35.411  33.730  1.00  0.00    -0.237 OA
ATOM     94  O   UNL A   1      45.919  37.255  34.022  1.00  0.00    -0.744 OA
ENDBRANCH  87  91
ENDBRANCH  61  84
ENDBRANCH  35  36
ENDBRANCH  27  30
ENDBRANCH  25  26
ENDBRANCH  24  25
ENDBRANCH   1  24
TORSDOF 18
ENDMDL
