MODEL 1
REMARK VINA RESULT:     -10.5      0.000      0.000
REMARK SMILES CCCC[C@@H](C(=O)NCCCCCCNC(=O)c1ccc(-c2c3nc(c(-c4cc(S(=O)(=O)[O-])ccc4F)c4ccc([nH]4)c(-c4cc(S(=O)(=O)[O-])ccc4F)c4nc(c(-c5cc(S(=O)(=O)[O-])ccc5F)c5ccc2[nH]5)C=C4)C=C3)cc1)[C@@H](O)c1cccc(C(F)(F)F)c1
REMARK SMILES IDX 11 1 10 2 9 3 8 4 6 5 7 6 5 8 4 9 3 10 2 11 1 12 81 13 82 14
REMARK SMILES IDX 83 16 84 17 92 18 85 19 87 20 86 21 88 22 89 23 90 24 91 25
REMARK SMILES IDX 12 26 13 27 14 28 15 29 16 30 17 32 18 33 19 34 80 35 20 36
REMARK SMILES IDX 79 37 21 38 22 39 23 40 73 41 24 42 78 43 72 44 74 45 25 46
REMARK SMILES IDX 77 47 71 48 70 49 26 51 58 52 38 53 57 54 39 55 42 56 56 57
REMARK SMILES IDX 75 58 40 59 41 60 55 62 76 63 43 64 27 65 28 66 36 67 29 68
REMARK SMILES IDX 35 69 37 70 34 71 30 72 31 73 32 74 33 75 59 76 60 77 68 78
REMARK SMILES IDX 61 79 67 80 69 81 66 82 62 83 63 84 64 85 65 86 44 87 45 88
REMARK SMILES IDX 53 89 46 90 52 91 54 92 51 93 47 94 48 95 49 96 50 97
REMARK H PARENT 8 7 82 15 15 31 74 50 42 61
REMARK Flexibility Score: inf
ROOT
ATOM      1  C   UNL A   1      34.251  24.869  25.881  1.00  0.00     0.002 C 
ENDROOT
BRANCH   1   2
ATOM      2  C   UNL A   1      34.088  26.378  26.074  1.00  0.00     0.021 C 
BRANCH   2   3
ATOM      3  C   UNL A   1      33.077  27.014  25.113  1.00  0.00     0.116 C 
BRANCH   3   4
ATOM      4  N   UNL A   1      33.731  27.290  23.849  1.00  0.00    -0.356 N 
ATOM      5  C   UNL A   1      33.255  27.209  22.578  1.00  0.00     0.226 C 
ATOM      6  O   UNL A   1      34.098  27.139  21.677  1.00  0.00    -0.275 OA
ATOM      7  H   UNL A   1      34.668  27.582  23.923  1.00  0.00     0.163 HD
BRANCH   5   8
ATOM      8  C   UNL A   1      31.754  27.250  22.268  1.00  0.00     0.111 C 
BRANCH   8   9
ATOM      9  C   UNL A   1      30.941  27.523  23.564  1.00  0.00     0.016 C 
BRANCH   9  10
ATOM     10  C   UNL A   1      29.412  27.492  23.460  1.00  0.00     0.001 C 
BRANCH  10  11
ATOM     11  C   UNL A   1      28.751  28.803  23.025  1.00  0.00    -0.003 C 
ATOM     12  C   UNL A   1      29.706  29.756  22.323  1.00  0.00     0.004 C 
ENDBRANCH  10  11
ENDBRANCH   9  10
ENDBRANCH   8   9
BRANCH   8  13
ATOM     13  C   UNL A   1      31.387  25.850  21.662  1.00  0.00     0.157 C 
BRANCH  13  14
ATOM     14  O   UNL A   1      32.064  25.636  20.414  1.00  0.00    -0.388 OA
ATOM     15  H   UNL A   1      31.412  25.598  19.696  1.00  0.00     0.211 HD
ENDBRANCH  13  14
BRANCH  13  16
ATOM     16  C   UNL A   1      31.689  24.661  22.574  1.00  0.00    -0.018 A 
ATOM     17  C   UNL A   1      32.709  23.753  22.249  1.00  0.00     0.006 A 
ATOM     18  C   UNL A   1      31.019  24.484  23.799  1.00  0.00     0.019 A 
ATOM     19  C   UNL A   1      33.040  22.700  23.105  1.00  0.00     0.001 A 
ATOM     20  C   UNL A   1      31.366  23.451  24.688  1.00  0.00     0.056 A 
ATOM     21  C   UNL A   1      32.374  22.552  24.320  1.00  0.00     0.013 A 
BRANCH  20  22
ATOM     22  C   UNL A   1      30.689  23.316  26.028  1.00  0.00     0.416 C 
ATOM     23  F   UNL A   1      30.056  22.120  26.178  1.00  0.00    -0.166 F 
ATOM     24  F   UNL A   1      31.572  23.398  27.065  1.00  0.00    -0.166 F 
ATOM     25  F   UNL A   1      29.748  24.270  26.274  1.00  0.00    -0.166 F 
ENDBRANCH  20  22
ENDBRANCH  13  16
ENDBRANCH   8  13
ENDBRANCH   5   8
ENDBRANCH   3   4
ENDBRANCH   2   3
ENDBRANCH   1   2
BRANCH   1  26
ATOM     26  C   UNL A   1      35.612  24.451  25.318  1.00  0.00     0.002 C 
BRANCH  26  27
ATOM     27  C   UNL A   1      36.034  23.007  25.618  1.00  0.00     0.021 C 
BRANCH  27  28
ATOM     28  C   UNL A   1      37.209  22.484  24.793  1.00  0.00     0.116 C 
BRANCH  28  29
ATOM     29  N   UNL A   1      37.945  21.448  25.495  1.00  0.00    -0.352 N 
ATOM     30  C   UNL A   1      39.098  21.532  26.235  1.00  0.00     0.251 C 
ATOM     31  H   UNL A   1      37.558  20.545  25.430  1.00  0.00     0.163 HD
ATOM     32  O   UNL A   1      39.685  20.500  26.547  1.00  0.00    -0.269 OA
BRANCH  30  33
ATOM     33  C   UNL A   1      39.638  22.847  26.646  1.00  0.00     0.039 A 
ATOM     34  C   UNL A   1      40.510  22.901  27.738  1.00  0.00     0.014 A 
ATOM     35  C   UNL A   1      39.254  24.027  26.002  1.00  0.00     0.014 A 
ATOM     36  C   UNL A   1      41.029  24.129  28.154  1.00  0.00     0.010 A 
ATOM     37  C   UNL A   1      39.821  25.245  26.379  1.00  0.00     0.010 A 
ATOM     38  C   UNL A   1      40.708  25.309  27.464  1.00  0.00    -0.014 A 
BRANCH  38  39
ATOM     39  C   UNL A   1      41.295  26.611  27.878  1.00  0.00     0.031 A 
ATOM     40  C   UNL A   1      42.719  26.952  27.525  1.00  0.00     0.074 A 
ATOM     41  C   UNL A   1      40.553  27.470  28.604  1.00  0.00     0.049 A 
ATOM     42  N   UNL A   1      43.406  28.028  27.809  1.00  0.00    -0.248 NA
ATOM     43  C   UNL A   1      43.475  25.936  26.779  1.00  0.00     0.031 C 
ATOM     44  C   UNL A   1      39.179  27.228  29.051  1.00  0.00     0.029 A 
ATOM     45  N   UNL A   1      40.848  28.715  29.099  1.00  0.00    -0.354 N 
ATOM     46  C   UNL A   1      44.678  27.818  27.286  1.00  0.00     0.074 A 
ATOM     47  C   UNL A   1      44.679  26.485  26.718  1.00  0.00     0.031 C 
ATOM     48  C   UNL A   1      38.743  28.299  29.732  1.00  0.00     0.029 A 
ATOM     49  C   UNL A   1      39.813  29.290  29.800  1.00  0.00     0.049 A 
ATOM     50  H   UNL A   1      41.718  29.157  28.964  1.00  0.00     0.167 HD
ATOM     51  C   UNL A   1      45.739  28.663  27.263  1.00  0.00     0.034 A 
ATOM     52  C   UNL A   1      39.736  30.480  30.429  1.00  0.00     0.034 A 
ATOM     53  C   UNL A   1      45.717  29.994  27.822  1.00  0.00     0.049 A 
ATOM     54  C   UNL A   1      40.923  31.407  30.380  1.00  0.00     0.074 A 
ATOM     55  C   UNL A   1      46.711  30.957  27.801  1.00  0.00     0.029 A 
ATOM     56  N   UNL A   1      44.647  30.549  28.514  1.00  0.00    -0.354 N 
ATOM     57  N   UNL A   1      42.096  31.217  29.824  1.00  0.00    -0.248 NA
ATOM     58  C   UNL A   1      40.765  32.715  31.027  1.00  0.00     0.031 C 
ATOM     59  C   UNL A   1      46.267  32.067  28.530  1.00  0.00     0.029 A 
ATOM     60  C   UNL A   1      44.968  31.828  28.947  1.00  0.00     0.049 A 
ATOM     61  H   UNL A   1      43.786  30.100  28.673  1.00  0.00     0.167 HD
ATOM     62  C   UNL A   1      42.809  32.394  30.035  1.00  0.00     0.074 A 
ATOM     63  C   UNL A   1      41.923  33.293  30.747  1.00  0.00     0.031 C 
ATOM     64  C   UNL A   1      44.081  32.705  29.673  1.00  0.00     0.034 A 
BRANCH  51  65
ATOM     65  C   UNL A   1      47.017  28.161  26.633  1.00  0.00     0.023 A 
ATOM     66  C   UNL A   1      47.221  28.198  25.242  1.00  0.00     0.031 A 
ATOM     67  C   UNL A   1      48.038  27.616  27.433  1.00  0.00     0.131 A 
ATOM     68  C   UNL A   1      48.382  27.635  24.688  1.00  0.00     0.055 A 
ATOM     69  C   UNL A   1      49.226  27.129  26.880  1.00  0.00     0.041 A 
ATOM     70  F   UNL A   1      47.895  27.536  28.765  1.00  0.00    -0.206 F 
ATOM     71  C   UNL A   1      49.396  27.123  25.500  1.00  0.00     0.022 A 
BRANCH  68  72
ATOM     72  S   UNL A   1      48.484  27.458  22.886  1.00  0.00     0.124 S 
ATOM     73  O   UNL A   1      49.806  28.016  22.610  1.00  0.00    -0.237 OA
ATOM     74  O   UNL A   1      48.347  26.018  22.701  1.00  0.00    -0.237 OA
ATOM     75  O   UNL A   1      47.363  28.259  22.398  1.00  0.00    -0.744 OA
ENDBRANCH  68  72
ENDBRANCH  51  65
BRANCH  52  76
ATOM     76  C   UNL A   1      38.496  30.866  31.161  1.00  0.00     0.023 A 
ATOM     77  C   UNL A   1      37.437  31.510  30.502  1.00  0.00     0.031 A 
ATOM     78  C   UNL A   1      38.369  30.632  32.541  1.00  0.00     0.131 A 
ATOM     79  C   UNL A   1      36.317  31.941  31.232  1.00  0.00     0.055 A 
ATOM     80  C   UNL A   1      37.232  31.016  33.254  1.00  0.00     0.041 A 
ATOM     81  F   UNL A   1      39.349  30.011  33.217  1.00  0.00    -0.206 F 
ATOM     82  C   UNL A   1      36.204  31.688  32.601  1.00  0.00     0.022 A 
BRANCH  79  83
ATOM     83  S   UNL A   1      35.045  32.912  30.378  1.00  0.00     0.124 S 
ATOM     84  O   UNL A   1      35.799  34.088  29.958  1.00  0.00    -0.237 OA
ATOM     85  O   UNL A   1      34.633  32.000  29.316  1.00  0.00    -0.237 OA
ATOM     86  O   UNL A   1      34.044  33.148  31.416  1.00  0.00    -0.744 OA
ENDBRANCH  79  83
ENDBRANCH  52  76
BRANCH  64  87
ATOM     87  C   UNL A   1      44.564  34.092  30.022  1.00  0.00     0.023 A 
ATOM     88  C   UNL A   1      44.375  35.179  29.152  1.00  0.00     0.031 A 
ATOM     89  C   UNL A   1      45.256  34.320  31.225  1.00  0.00     0.131 A 
ATOM     90  C   UNL A   1      44.932  36.429  29.462  1.00  0.00     0.055 A 
ATOM     91  C   UNL A   1      45.753  35.581  31.559  1.00  0.00     0.041 A 
ATOM     92  F   UNL A   1      45.466  33.318  32.094  1.00  0.00    -0.206 F 
ATOM     93  C   UNL A   1      45.607  36.640  30.668  1.00  0.00     0.022 A 
BRANCH  90  94
ATOM     94  S   UNL A   1      44.859  37.747  28.219  1.00  0.00     0.124 S 
ATOM     95  O   UNL A   1      44.865  36.989  26.971  1.00  0.00    -0.237 OA
ATOM     96  O   UNL A   1      43.608  38.420  28.550  1.00  0.00    -0.237 OA
ATOM     97  O   UNL A   1      46.069  38.527  28.474  1.00  0.00    -0.744 OA
ENDBRANCH  90  94
ENDBRANCH  64  87
ENDBRANCH  38  39
ENDBRANCH  30  33
ENDBRANCH  28  29
ENDBRANCH  27  28
ENDBRANCH  26  27
ENDBRANCH   1  26
TORSDOF 23
ENDMDL
MODEL 2
REMARK VINA RESULT:     -10.2      3.018      8.578
REMARK SMILES CCCC[C@@H](C(=O)NCCCCCCNC(=O)c1ccc(-c2c3nc(c(-c4cc(S(=O)(=O)[O-])ccc4F)c4ccc([nH]4)c(-c4cc(S(=O)(=O)[O-])ccc4F)c4nc(c(-c5cc(S(=O)(=O)[O-])ccc5F)c5ccc2[nH]5)C=C4)C=C3)cc1)[C@@H](O)c1cccc(C(F)(F)F)c1
REMARK SMILES IDX 11 1 10 2 9 3 8 4 6 5 7 6 5 8 4 9 3 10 2 11 1 12 81 13 82 14
REMARK SMILES IDX 83 16 84 17 92 18 85 19 87 20 86 21 88 22 89 23 90 24 91 25
REMARK SMILES IDX 12 26 13 27 14 28 15 29 16 30 17 32 18 33 19 34 80 35 20 36
REMARK SMILES IDX 79 37 21 38 22 39 23 40 73 41 24 42 78 43 72 44 74 45 25 46
REMARK SMILES IDX 77 47 71 48 70 49 26 51 58 52 38 53 57 54 39 55 42 56 56 57
REMARK SMILES IDX 75 58 40 59 41 60 55 62 76 63 43 64 27 65 28 66 36 67 29 68
REMARK SMILES IDX 35 69 37 70 34 71 30 72 31 73 32 74 33 75 59 76 60 77 68 78
REMARK SMILES IDX 61 79 67 80 69 81 66 82 62 83 63 84 64 85 65 86 44 87 45 88
REMARK SMILES IDX 53 89 46 90 52 91 54 92 51 93 47 94 48 95 49 96 50 97
REMARK H PARENT 8 7 82 15 15 31 74 50 42 61
REMARK Flexibility Score: inf
ROOT
ATOM      1  C   UNL A   1      39.417  21.604  25.888  1.00  0.00     0.002 C 
ENDROOT
BRANCH   1   2
ATOM      2  C   UNL A   1      39.287  23.019  26.458  1.00  0.00     0.021 C 
BRANCH   2   3
ATOM      3  C   UNL A   1      37.955  23.696  26.119  1.00  0.00     0.116 C 
BRANCH   3   4
ATOM      4  N   UNL A   1      37.661  23.493  24.715  1.00  0.00    -0.356 N 
ATOM      5  C   UNL A   1      36.469  23.464  24.061  1.00  0.00     0.226 C 
ATOM      6  O   UNL A   1      36.461  22.917  22.953  1.00  0.00    -0.275 OA
ATOM      7  H   UNL A   1      38.451  23.354  24.142  1.00  0.00     0.163 HD
BRANCH   5   8
ATOM      8  C   UNL A   1      35.208  24.115  24.643  1.00  0.00     0.111 C 
BRANCH   8   9
ATOM      9  C   UNL A   1      34.257  23.030  25.221  1.00  0.00     0.016 C 
BRANCH   9  10
ATOM     10  C   UNL A   1      33.732  23.237  26.646  1.00  0.00     0.001 C 
BRANCH  10  11
ATOM     11  C   UNL A   1      32.228  23.022  26.836  1.00  0.00    -0.003 C 
ATOM     12  C   UNL A   1      31.462  22.931  25.526  1.00  0.00     0.004 C 
ENDBRANCH  10  11
ENDBRANCH   9  10
ENDBRANCH   8   9
BRANCH   8  13
ATOM     13  C   UNL A   1      34.523  24.889  23.463  1.00  0.00     0.157 C 
BRANCH  13  14
ATOM     14  O   UNL A   1      33.974  23.977  22.500  1.00  0.00    -0.388 OA
ATOM     15  H   UNL A   1      33.131  24.326  22.168  1.00  0.00     0.211 HD
ENDBRANCH  13  14
BRANCH  13  16
ATOM     16  C   UNL A   1      33.413  25.850  23.890  1.00  0.00    -0.018 A 
ATOM     17  C   UNL A   1      32.115  25.715  23.374  1.00  0.00     0.006 A 
ATOM     18  C   UNL A   1      33.631  26.838  24.868  1.00  0.00     0.019 A 
ATOM     19  C   UNL A   1      31.076  26.545  23.804  1.00  0.00     0.001 A 
ATOM     20  C   UNL A   1      32.588  27.656  25.337  1.00  0.00     0.056 A 
ATOM     21  C   UNL A   1      31.311  27.507  24.783  1.00  0.00     0.013 A 
BRANCH  20  22
ATOM     22  C   UNL A   1      32.820  28.662  26.436  1.00  0.00     0.416 C 
ATOM     23  F   UNL A   1      33.794  29.563  26.124  1.00  0.00    -0.166 F 
ATOM     24  F   UNL A   1      31.706  29.402  26.705  1.00  0.00    -0.166 F 
ATOM     25  F   UNL A   1      33.189  28.110  27.626  1.00  0.00    -0.166 F 
ENDBRANCH  20  22
ENDBRANCH  13  16
ENDBRANCH   8  13
ENDBRANCH   5   8
ENDBRANCH   3   4
ENDBRANCH   2   3
ENDBRANCH   1   2
BRANCH   1  26
ATOM     26  C   UNL A   1      40.255  20.654  26.748  1.00  0.00     0.002 C 
BRANCH  26  27
ATOM     27  C   UNL A   1      41.076  19.615  25.974  1.00  0.00     0.021 C 
BRANCH  27  28
ATOM     28  C   UNL A   1      42.539  19.491  26.397  1.00  0.00     0.116 C 
BRANCH  28  29
ATOM     29  N   UNL A   1      43.411  19.239  25.263  1.00  0.00    -0.352 N 
ATOM     30  C   UNL A   1      44.170  20.110  24.523  1.00  0.00     0.251 C 
ATOM     31  H   UNL A   1      43.465  18.297  24.981  1.00  0.00     0.163 HD
ATOM     32  O   UNL A   1      44.650  19.729  23.459  1.00  0.00    -0.269 OA
BRANCH  30  33
ATOM     33  C   UNL A   1      44.403  21.495  24.990  1.00  0.00     0.039 A 
ATOM     34  C   UNL A   1      45.113  21.690  26.178  1.00  0.00     0.014 A 
ATOM     35  C   UNL A   1      43.883  22.594  24.299  1.00  0.00     0.014 A 
ATOM     36  C   UNL A   1      45.340  22.986  26.648  1.00  0.00     0.010 A 
ATOM     37  C   UNL A   1      44.163  23.889  24.736  1.00  0.00     0.010 A 
ATOM     38  C   UNL A   1      44.887  24.098  25.920  1.00  0.00    -0.014 A 
BRANCH  38  39
ATOM     39  C   UNL A   1      45.167  25.479  26.395  1.00  0.00     0.031 A 
ATOM     40  C   UNL A   1      44.060  26.330  26.959  1.00  0.00     0.074 A 
ATOM     41  C   UNL A   1      46.414  25.977  26.283  1.00  0.00     0.049 A 
ATOM     42  N   UNL A   1      44.108  27.557  27.409  1.00  0.00    -0.248 NA
ATOM     43  C   UNL A   1      42.719  25.729  26.994  1.00  0.00     0.031 C 
ATOM     44  C   UNL A   1      47.557  25.265  25.706  1.00  0.00     0.029 A 
ATOM     45  N   UNL A   1      46.930  27.196  26.643  1.00  0.00    -0.354 N 
ATOM     46  C   UNL A   1      42.805  27.882  27.773  1.00  0.00     0.074 A 
ATOM     47  C   UNL A   1      41.982  26.739  27.436  1.00  0.00     0.031 C 
ATOM     48  C   UNL A   1      48.644  26.051  25.772  1.00  0.00     0.029 A 
ATOM     49  C   UNL A   1      48.271  27.331  26.367  1.00  0.00     0.049 A 
ATOM     50  H   UNL A   1      46.392  27.906  27.063  1.00  0.00     0.167 HD
ATOM     51  C   UNL A   1      42.342  29.018  28.353  1.00  0.00     0.034 A 
ATOM     52  C   UNL A   1      49.106  28.371  26.566  1.00  0.00     0.034 A 
ATOM     53  C   UNL A   1      43.178  30.143  28.695  1.00  0.00     0.049 A 
ATOM     54  C   UNL A   1      48.571  29.618  27.221  1.00  0.00     0.074 A 
ATOM     55  C   UNL A   1      42.827  31.317  29.340  1.00  0.00     0.029 A 
ATOM     56  N   UNL A   1      44.536  30.241  28.412  1.00  0.00    -0.354 N 
ATOM     57  N   UNL A   1      47.348  29.882  27.619  1.00  0.00    -0.248 NA
ATOM     58  C   UNL A   1      49.535  30.696  27.472  1.00  0.00     0.031 C 
ATOM     59  C   UNL A   1      43.953  32.146  29.391  1.00  0.00     0.029 A 
ATOM     60  C   UNL A   1      45.028  31.464  28.844  1.00  0.00     0.049 A 
ATOM     61  H   UNL A   1      45.070  29.543  27.970  1.00  0.00     0.167 HD
ATOM     62  C   UNL A   1      47.402  31.151  28.189  1.00  0.00     0.074 A 
ATOM     63  C   UNL A   1      48.782  31.584  28.105  1.00  0.00     0.031 C 
ATOM     64  C   UNL A   1      46.403  31.891  28.734  1.00  0.00     0.034 A 
BRANCH  51  65
ATOM     65  C   UNL A   1      40.859  29.103  28.629  1.00  0.00     0.023 A 
ATOM     66  C   UNL A   1      40.341  28.998  29.932  1.00  0.00     0.031 A 
ATOM     67  C   UNL A   1      39.946  29.272  27.572  1.00  0.00     0.131 A 
ATOM     68  C   UNL A   1      38.952  28.988  30.137  1.00  0.00     0.055 A 
ATOM     69  C   UNL A   1      38.568  29.341  27.791  1.00  0.00     0.041 A 
ATOM     70  F   UNL A   1      40.378  29.360  26.303  1.00  0.00    -0.206 F 
ATOM     71  C   UNL A   1      38.063  29.184  29.078  1.00  0.00     0.022 A 
BRANCH  68  72
ATOM     72  S   UNL A   1      38.322  28.580  31.788  1.00  0.00     0.124 S 
ATOM     73  O   UNL A   1      36.934  29.026  31.692  1.00  0.00    -0.237 OA
ATOM     74  O   UNL A   1      38.527  27.137  31.856  1.00  0.00    -0.237 OA
ATOM     75  O   UNL A   1      39.164  29.372  32.683  1.00  0.00    -0.744 OA
ENDBRANCH  68  72
ENDBRANCH  51  65
BRANCH  52  76
ATOM     76  C   UNL A   1      50.532  28.285  26.140  1.00  0.00     0.023 A 
ATOM     77  C   UNL A   1      50.916  28.603  24.828  1.00  0.00     0.031 A 
ATOM     78  C   UNL A   1      51.525  27.844  27.031  1.00  0.00     0.131 A 
ATOM     79  C   UNL A   1      52.251  28.431  24.429  1.00  0.00     0.055 A 
ATOM     80  C   UNL A   1      52.862  27.723  26.644  1.00  0.00     0.041 A 
ATOM     81  F   UNL A   1      51.213  27.536  28.300  1.00  0.00    -0.206 F 
ATOM     82  C   UNL A   1      53.228  28.003  25.332  1.00  0.00     0.022 A 
BRANCH  79  83
ATOM     83  S   UNL A   1      52.679  28.696  22.687  1.00  0.00     0.124 S 
ATOM     84  O   UNL A   1      51.450  28.289  22.013  1.00  0.00    -0.237 OA
ATOM     85  O   UNL A   1      52.980  30.124  22.665  1.00  0.00    -0.237 OA
ATOM     86  O   UNL A   1      53.826  27.816  22.480  1.00  0.00    -0.744 OA
ENDBRANCH  79  83
ENDBRANCH  52  76
BRANCH  64  87
ATOM     87  C   UNL A   1      46.789  33.234  29.306  1.00  0.00     0.023 A 
ATOM     88  C   UNL A   1      46.772  34.401  28.522  1.00  0.00     0.031 A 
ATOM     89  C   UNL A   1      47.215  33.340  30.642  1.00  0.00     0.131 A 
ATOM     90  C   UNL A   1      47.239  35.610  29.059  1.00  0.00     0.055 A 
ATOM     91  C   UNL A   1      47.618  34.559  31.189  1.00  0.00     0.041 A 
ATOM     92  F   UNL A   1      47.252  32.258  31.436  1.00  0.00    -0.206 F 
ATOM     93  C   UNL A   1      47.648  35.700  30.393  1.00  0.00     0.022 A 
BRANCH  90  94
ATOM     94  S   UNL A   1      47.410  37.042  27.958  1.00  0.00     0.124 S 
ATOM     95  O   UNL A   1      47.684  36.406  26.673  1.00  0.00    -0.237 OA
ATOM     96  O   UNL A   1      46.109  37.689  28.084  1.00  0.00    -0.237 OA
ATOM     97  O   UNL A   1      48.530  37.785  28.533  1.00  0.00    -0.744 OA
ENDBRANCH  90  94
ENDBRANCH  64  87
ENDBRANCH  38  39
ENDBRANCH  30  33
ENDBRANCH  28  29
ENDBRANCH  27  28
ENDBRANCH  26  27
ENDBRANCH   1  26
TORSDOF 23
ENDMDL
MODEL 3
REMARK VINA RESULT:     -10.1      5.987     11.032
REMARK SMILES CCCC[C@@H](C(=O)NCCCCCCNC(=O)c1ccc(-c2c3nc(c(-c4cc(S(=O)(=O)[O-])ccc4F)c4ccc([nH]4)c(-c4cc(S(=O)(=O)[O-])ccc4F)c4nc(c(-c5cc(S(=O)(=O)[O-])ccc5F)c5ccc2[nH]5)C=C4)C=C3)cc1)[C@@H](O)c1cccc(C(F)(F)F)c1
REMARK SMILES IDX 11 1 10 2 9 3 8 4 6 5 7 6 5 8 4 9 3 10 2 11 1 12 81 13 82 14
REMARK SMILES IDX 83 16 84 17 92 18 85 19 87 20 86 21 88 22 89 23 90 24 91 25
REMARK SMILES IDX 12 26 13 27 14 28 15 29 16 30 17 32 18 33 19 34 80 35 20 36
REMARK SMILES IDX 79 37 21 38 22 39 23 40 73 41 24 42 78 43 72 44 74 45 25 46
REMARK SMILES IDX 77 47 71 48 70 49 26 51 58 52 38 53 57 54 39 55 42 56 56 57
REMARK SMILES IDX 75 58 40 59 41 60 55 62 76 63 43 64 27 65 28 66 36 67 29 68
REMARK SMILES IDX 35 69 37 70 34 71 30 72 31 73 32 74 33 75 59 76 60 77 68 78
REMARK SMILES IDX 61 79 67 80 69 81 66 82 62 83 63 84 64 85 65 86 44 87 45 88
REMARK SMILES IDX 53 89 46 90 52 91 54 92 51 93 47 94 48 95 49 96 50 97
REMARK H PARENT 8 7 82 15 15 31 74 50 42 61
REMARK Flexibility Score: inf
ROOT
ATOM      1  C   UNL A   1      49.283  27.081  25.063  1.00  0.00     0.002 C 
ENDROOT
BRANCH   1   2
ATOM      2  C   UNL A   1      48.006  27.511  24.337  1.00  0.00     0.021 C 
BRANCH   2   3
ATOM      3  C   UNL A   1      46.769  26.698  24.736  1.00  0.00     0.116 C 
BRANCH   3   4
ATOM      4  N   UNL A   1      47.194  25.431  25.297  1.00  0.00    -0.356 N 
ATOM      5  C   UNL A   1      46.746  24.761  26.392  1.00  0.00     0.226 C 
ATOM      6  O   UNL A   1      47.503  23.905  26.863  1.00  0.00    -0.275 OA
ATOM      7  H   UNL A   1      47.923  24.985  24.808  1.00  0.00     0.163 HD
BRANCH   5   8
ATOM      8  C   UNL A   1      45.357  25.017  26.989  1.00  0.00     0.111 C 
BRANCH   8   9
ATOM      9  C   UNL A   1      45.156  24.167  28.275  1.00  0.00     0.016 C 
BRANCH   9  10
ATOM     10  C   UNL A   1      44.549  24.867  29.497  1.00  0.00     0.001 C 
BRANCH  10  11
ATOM     11  C   UNL A   1      44.106  26.317  29.279  1.00  0.00    -0.003 C 
ATOM     12  C   UNL A   1      42.646  26.559  29.626  1.00  0.00     0.004 C 
ENDBRANCH  10  11
ENDBRANCH   9  10
ENDBRANCH   8   9
BRANCH   8  13
ATOM     13  C   UNL A   1      44.318  24.616  25.886  1.00  0.00     0.157 C 
BRANCH  13  14
ATOM     14  O   UNL A   1      44.184  23.189  25.798  1.00  0.00    -0.388 OA
ATOM     15  H   UNL A   1      44.908  22.829  25.260  1.00  0.00     0.211 HD
ENDBRANCH  13  14
BRANCH  13  16
ATOM     16  C   UNL A   1      42.922  25.211  26.076  1.00  0.00    -0.018 A 
ATOM     17  C   UNL A   1      41.836  24.388  26.414  1.00  0.00     0.006 A 
ATOM     18  C   UNL A   1      42.697  26.598  26.004  1.00  0.00     0.019 A 
ATOM     19  C   UNL A   1      40.570  24.926  26.656  1.00  0.00     0.001 A 
ATOM     20  C   UNL A   1      41.437  27.157  26.281  1.00  0.00     0.056 A 
ATOM     21  C   UNL A   1      40.372  26.304  26.593  1.00  0.00     0.013 A 
BRANCH  20  22
ATOM     22  C   UNL A   1      41.228  28.650  26.270  1.00  0.00     0.416 C 
ATOM     23  F   UNL A   1      41.892  29.281  27.278  1.00  0.00    -0.166 F 
ATOM     24  F   UNL A   1      41.674  29.228  25.116  1.00  0.00    -0.166 F 
ATOM     25  F   UNL A   1      39.924  29.029  26.388  1.00  0.00    -0.166 F 
ENDBRANCH  20  22
ENDBRANCH  13  16
ENDBRANCH   8  13
ENDBRANCH   5   8
ENDBRANCH   3   4
ENDBRANCH   2   3
ENDBRANCH   1   2
BRANCH   1  26
ATOM     26  C   UNL A   1      50.550  27.163  24.208  1.00  0.00     0.002 C 
BRANCH  26  27
ATOM     27  C   UNL A   1      51.792  26.491  24.805  1.00  0.00     0.021 C 
BRANCH  27  28
ATOM     28  C   UNL A   1      52.699  27.406  25.629  1.00  0.00     0.116 C 
BRANCH  28  29
ATOM     29  N   UNL A   1      53.434  26.670  26.642  1.00  0.00    -0.352 N 
ATOM     30  C   UNL A   1      53.133  26.446  27.962  1.00  0.00     0.251 C 
ATOM     31  H   UNL A   1      54.280  26.270  26.334  1.00  0.00     0.163 HD
ATOM     32  O   UNL A   1      54.003  26.000  28.706  1.00  0.00    -0.269 OA
BRANCH  30  33
ATOM     33  C   UNL A   1      51.784  26.746  28.492  1.00  0.00     0.039 A 
ATOM     34  C   UNL A   1      51.627  27.850  29.334  1.00  0.00     0.014 A 
ATOM     35  C   UNL A   1      50.690  25.922  28.210  1.00  0.00     0.014 A 
ATOM     36  C   UNL A   1      50.368  28.153  29.856  1.00  0.00     0.010 A 
ATOM     37  C   UNL A   1      49.421  26.261  28.682  1.00  0.00     0.010 A 
ATOM     38  C   UNL A   1      49.249  27.375  29.517  1.00  0.00    -0.014 A 
BRANCH  38  39
ATOM     39  C   UNL A   1      47.899  27.723  30.035  1.00  0.00     0.031 A 
ATOM     40  C   UNL A   1      47.129  28.875  29.447  1.00  0.00     0.074 A 
ATOM     41  C   UNL A   1      47.385  27.020  31.064  1.00  0.00     0.049 A 
ATOM     42  N   UNL A   1      45.950  29.336  29.775  1.00  0.00    -0.248 NA
ATOM     43  C   UNL A   1      47.787  29.623  28.365  1.00  0.00     0.031 C 
ATOM     44  C   UNL A   1      48.059  25.916  31.751  1.00  0.00     0.029 A 
ATOM     45  N   UNL A   1      46.182  27.130  31.715  1.00  0.00    -0.354 N 
ATOM     46  C   UNL A   1      45.725  30.432  28.949  1.00  0.00     0.074 A 
ATOM     47  C   UNL A   1      46.918  30.599  28.145  1.00  0.00     0.031 C 
ATOM     48  C   UNL A   1      47.252  25.436  32.710  1.00  0.00     0.029 A 
ATOM     49  C   UNL A   1      46.017  26.215  32.729  1.00  0.00     0.049 A 
ATOM     50  H   UNL A   1      45.500  27.800  31.477  1.00  0.00     0.167 HD
ATOM     51  C   UNL A   1      44.620  31.214  28.856  1.00  0.00     0.034 A 
ATOM     52  C   UNL A   1      44.990  26.027  33.580  1.00  0.00     0.034 A 
ATOM     53  C   UNL A   1      43.432  31.025  29.655  1.00  0.00     0.049 A 
ATOM     54  C   UNL A   1      43.768  26.900  33.450  1.00  0.00     0.074 A 
ATOM     55  C   UNL A   1      42.235  31.717  29.601  1.00  0.00     0.029 A 
ATOM     56  N   UNL A   1      43.295  30.079  30.664  1.00  0.00    -0.354 N 
ATOM     57  N   UNL A   1      43.547  27.892  32.618  1.00  0.00    -0.248 NA
ATOM     58  C   UNL A   1      42.653  26.613  34.359  1.00  0.00     0.031 C 
ATOM     59  C   UNL A   1      41.399  31.233  30.614  1.00  0.00     0.029 A 
ATOM     60  C   UNL A   1      42.046  30.189  31.257  1.00  0.00     0.049 A 
ATOM     61  H   UNL A   1      43.985  29.426  30.921  1.00  0.00     0.167 HD
ATOM     62  C   UNL A   1      42.255  28.332  32.891  1.00  0.00     0.074 A 
ATOM     63  C   UNL A   1      41.741  27.481  33.945  1.00  0.00     0.031 C 
ATOM     64  C   UNL A   1      41.554  29.346  32.322  1.00  0.00     0.034 A 
BRANCH  51  65
ATOM     65  C   UNL A   1      44.657  32.357  27.869  1.00  0.00     0.023 A 
ATOM     66  C   UNL A   1      45.088  33.643  28.241  1.00  0.00     0.031 A 
ATOM     67  C   UNL A   1      44.234  32.165  26.540  1.00  0.00     0.131 A 
ATOM     68  C   UNL A   1      45.019  34.700  27.320  1.00  0.00     0.055 A 
ATOM     69  C   UNL A   1      44.243  33.205  25.606  1.00  0.00     0.041 A 
ATOM     70  F   UNL A   1      43.794  30.965  26.130  1.00  0.00    -0.206 F 
ATOM     71  C   UNL A   1      44.622  34.484  25.998  1.00  0.00     0.022 A 
BRANCH  68  72
ATOM     72  S   UNL A   1      45.324  36.387  27.912  1.00  0.00     0.124 S 
ATOM     73  O   UNL A   1      44.099  37.070  27.499  1.00  0.00    -0.237 OA
ATOM     74  O   UNL A   1      45.493  36.193  29.347  1.00  0.00    -0.237 OA
ATOM     75  O   UNL A   1      46.529  36.792  27.190  1.00  0.00    -0.744 OA
ENDBRANCH  68  72
ENDBRANCH  51  65
BRANCH  52  76
ATOM     76  C   UNL A   1      45.066  24.974  34.633  1.00  0.00     0.023 A 
ATOM     77  C   UNL A   1      45.546  25.270  35.919  1.00  0.00     0.031 A 
ATOM     78  C   UNL A   1      44.695  23.648  34.356  1.00  0.00     0.131 A 
ATOM     79  C   UNL A   1      45.689  24.243  36.865  1.00  0.00     0.055 A 
ATOM     80  C   UNL A   1      44.791  22.639  35.316  1.00  0.00     0.041 A 
ATOM     81  F   UNL A   1      44.220  23.314  33.145  1.00  0.00    -0.206 F 
ATOM     82  C   UNL A   1      45.304  22.932  36.575  1.00  0.00     0.022 A 
BRANCH  79  83
ATOM     83  S   UNL A   1      46.465  24.631  38.458  1.00  0.00     0.124 S 
ATOM     84  O   UNL A   1      47.760  23.973  38.328  1.00  0.00    -0.237 OA
ATOM     85  O   UNL A   1      46.480  26.090  38.437  1.00  0.00    -0.237 OA
ATOM     86  O   UNL A   1      45.555  24.033  39.433  1.00  0.00    -0.744 OA
ENDBRANCH  79  83
ENDBRANCH  52  76
BRANCH  64  87
ATOM     87  C   UNL A   1      40.145  29.560  32.819  1.00  0.00     0.023 A 
ATOM     88  C   UNL A   1      39.870  30.388  33.921  1.00  0.00     0.031 A 
ATOM     89  C   UNL A   1      39.068  28.896  32.205  1.00  0.00     0.131 A 
ATOM     90  C   UNL A   1      38.561  30.476  34.419  1.00  0.00     0.055 A 
ATOM     91  C   UNL A   1      37.758  29.039  32.666  1.00  0.00     0.041 A 
ATOM     92  F   UNL A   1      39.273  28.093  31.149  1.00  0.00    -0.206 F 
ATOM     93  C   UNL A   1      37.501  29.819  33.789  1.00  0.00     0.022 A 
BRANCH  90  94
ATOM     94  S   UNL A   1      38.280  31.375  35.970  1.00  0.00     0.124 S 
ATOM     95  O   UNL A   1      37.878  30.302  36.874  1.00  0.00    -0.237 OA
ATOM     96  O   UNL A   1      39.588  31.969  36.228  1.00  0.00    -0.237 OA
ATOM     97  O   UNL A   1      37.224  32.326  35.629  1.00  0.00    -0.744 OA
ENDBRANCH  90  94
ENDBRANCH  64  87
ENDBRANCH  38  39
ENDBRANCH  30  33
ENDBRANCH  28  29
ENDBRANCH  27  28
ENDBRANCH  26  27
ENDBRANCH   1  26
TORSDOF 23
ENDMDL
