MODEL 1
REMARK VINA RESULT:     -11.7      0.000      0.000
REMARK SMILES C[C@@H](C(=O)NCCCCCCNC(=O)c1ccc(-c2c3nc(c(-c4cc(S(=O)(=O)[O-])ccc4F)c4ccc([nH]4)c(-c4cc(S(=O)(=O)[O-])ccc4F)c4nc(c(-c5cc(S(=O)(=O)[O-])ccc5F)c5ccc2[nH]5)C=C4)C=C3)cc1)c1ccc(-c2ccccc2)c(F)c1
REMARK SMILES IDX 9 1 8 2 7 3 6 4 5 5 3 6 4 7 2 9 1 10 78 11 79 12 90 13 80 14
REMARK SMILES IDX 88 15 81 16 89 17 82 18 83 19 87 20 84 21 86 22 85 23 10 24
REMARK SMILES IDX 11 25 12 26 13 27 14 29 15 30 16 31 77 32 17 33 76 34 18 35
REMARK SMILES IDX 19 36 20 37 70 38 21 39 75 40 69 41 71 42 22 43 74 44 68 45
REMARK SMILES IDX 67 46 23 48 55 49 35 50 54 51 36 52 39 53 53 54 72 55 37 56
REMARK SMILES IDX 38 57 52 59 73 60 40 61 24 62 25 63 33 64 26 65 32 66 34 67
REMARK SMILES IDX 31 68 27 69 28 70 29 71 30 72 56 73 57 74 65 75 58 76 64 77
REMARK SMILES IDX 66 78 63 79 59 80 60 81 61 82 62 83 41 84 42 85 50 86 43 87
REMARK SMILES IDX 49 88 51 89 48 90 44 91 45 92 46 93 47 94
REMARK H PARENT 5 8 12 28 71 47 39 58
REMARK Flexibility Score: inf
ROOT
ATOM      1  C   UNL A   1      32.178  29.614  25.651  1.00  0.00     0.002 C 
ENDROOT
BRANCH   1   2
ATOM      2  C   UNL A   1      32.188  28.239  26.327  1.00  0.00     0.002 C 
BRANCH   2   3
ATOM      3  C   UNL A   1      33.485  27.436  26.144  1.00  0.00     0.021 C 
BRANCH   3   4
ATOM      4  C   UNL A   1      33.284  25.919  26.138  1.00  0.00     0.116 C 
BRANCH   4   5
ATOM      5  N   UNL A   1      33.632  25.373  24.843  1.00  0.00    -0.356 N 
ATOM      6  C   UNL A   1      32.849  24.815  23.880  1.00  0.00     0.227 C 
ATOM      7  O   UNL A   1      33.443  24.291  22.935  1.00  0.00    -0.274 OA
ATOM      8  H   UNL A   1      34.592  25.411  24.624  1.00  0.00     0.163 HD
BRANCH   6   9
ATOM      9  C   UNL A   1      31.313  24.902  23.980  1.00  0.00     0.105 C 
ATOM     10  C   UNL A   1      30.589  23.837  23.151  1.00  0.00     0.023 C 
BRANCH   9  11
ATOM     11  C   UNL A   1      30.774  26.271  23.575  1.00  0.00    -0.033 A 
ATOM     12  C   UNL A   1      29.454  26.639  23.875  1.00  0.00     0.005 A 
ATOM     13  C   UNL A   1      31.595  27.205  22.932  1.00  0.00     0.044 A 
ATOM     14  C   UNL A   1      28.962  27.896  23.525  1.00  0.00     0.012 A 
ATOM     15  C   UNL A   1      31.097  28.465  22.593  1.00  0.00     0.131 A 
ATOM     16  C   UNL A   1      29.777  28.840  22.882  1.00  0.00     0.017 A 
ATOM     17  F   UNL A   1      31.927  29.328  21.988  1.00  0.00    -0.206 F 
BRANCH  16  18
ATOM     18  C   UNL A   1      29.230  30.160  22.533  1.00  0.00    -0.015 A 
ATOM     19  C   UNL A   1      29.140  31.175  23.503  1.00  0.00     0.009 A 
ATOM     20  C   UNL A   1      28.739  30.431  21.247  1.00  0.00     0.009 A 
ATOM     21  C   UNL A   1      28.567  32.412  23.201  1.00  0.00     0.001 A 
ATOM     22  C   UNL A   1      28.164  31.668  20.945  1.00  0.00     0.001 A 
ATOM     23  C   UNL A   1      28.074  32.656  21.922  1.00  0.00     0.000 A 
ENDBRANCH  16  18
ENDBRANCH   9  11
ENDBRANCH   6   9
ENDBRANCH   4   5
ENDBRANCH   3   4
ENDBRANCH   2   3
ENDBRANCH   1   2
BRANCH   1  24
ATOM     24  C   UNL A   1      31.815  30.779  26.573  1.00  0.00     0.021 C 
BRANCH  24  25
ATOM     25  C   UNL A   1      33.015  31.536  27.138  1.00  0.00     0.116 C 
BRANCH  25  26
ATOM     26  N   UNL A   1      32.728  32.950  27.323  1.00  0.00    -0.352 N 
ATOM     27  C   UNL A   1      33.285  33.841  28.208  1.00  0.00     0.251 C 
ATOM     28  H   UNL A   1      32.035  33.321  26.730  1.00  0.00     0.163 HD
ATOM     29  O   UNL A   1      32.768  34.943  28.373  1.00  0.00    -0.269 OA
BRANCH  27  30
ATOM     30  C   UNL A   1      34.486  33.456  28.980  1.00  0.00     0.039 A 
ATOM     31  C   UNL A   1      34.334  32.649  30.109  1.00  0.00     0.014 A 
ATOM     32  C   UNL A   1      35.759  33.870  28.576  1.00  0.00     0.014 A 
ATOM     33  C   UNL A   1      35.467  32.186  30.784  1.00  0.00     0.010 A 
ATOM     34  C   UNL A   1      36.888  33.354  29.209  1.00  0.00     0.010 A 
ATOM     35  C   UNL A   1      36.754  32.489  30.307  1.00  0.00    -0.014 A 
BRANCH  35  36
ATOM     36  C   UNL A   1      37.963  31.859  30.903  1.00  0.00     0.031 A 
ATOM     37  C   UNL A   1      38.724  30.802  30.150  1.00  0.00     0.074 A 
ATOM     38  C   UNL A   1      38.321  32.190  32.160  1.00  0.00     0.049 A 
ATOM     39  N   UNL A   1      39.745  30.086  30.544  1.00  0.00    -0.248 NA
ATOM     40  C   UNL A   1      38.268  30.497  28.785  1.00  0.00     0.031 C 
ATOM     41  C   UNL A   1      37.634  33.174  33.002  1.00  0.00     0.029 A 
ATOM     42  N   UNL A   1      39.337  31.730  32.962  1.00  0.00    -0.354 N 
ATOM     43  C   UNL A   1      40.046  29.235  29.486  1.00  0.00     0.074 A 
ATOM     44  C   UNL A   1      39.076  29.501  28.445  1.00  0.00     0.031 C 
ATOM     45  C   UNL A   1      38.255  33.251  34.190  1.00  0.00     0.029 A 
ATOM     46  C   UNL A   1      39.345  32.283  34.224  1.00  0.00     0.049 A 
ATOM     47  H   UNL A   1      39.999  31.065  32.663  1.00  0.00     0.167 HD
ATOM     48  C   UNL A   1      41.046  28.325  29.394  1.00  0.00     0.034 A 
ATOM     49  C   UNL A   1      40.119  32.021  35.297  1.00  0.00     0.034 A 
ATOM     50  C   UNL A   1      42.016  28.088  30.435  1.00  0.00     0.049 A 
ATOM     51  C   UNL A   1      41.198  30.971  35.172  1.00  0.00     0.074 A 
ATOM     52  C   UNL A   1      43.124  27.258  30.401  1.00  0.00     0.029 A 
ATOM     53  N   UNL A   1      41.986  28.657  31.700  1.00  0.00    -0.354 N 
ATOM     54  N   UNL A   1      41.524  30.243  34.128  1.00  0.00    -0.248 NA
ATOM     55  C   UNL A   1      42.014  30.709  36.364  1.00  0.00     0.031 C 
ATOM     56  C   UNL A   1      43.709  27.257  31.671  1.00  0.00     0.029 A 
ATOM     57  C   UNL A   1      43.020  28.150  32.473  1.00  0.00     0.049 A 
ATOM     58  H   UNL A   1      41.327  29.322  32.006  1.00  0.00     0.167 HD
ATOM     59  C   UNL A   1      42.597  29.456  34.537  1.00  0.00     0.074 A 
ATOM     60  C   UNL A   1      42.882  29.820  35.908  1.00  0.00     0.031 C 
ATOM     61  C   UNL A   1      43.283  28.512  33.845  1.00  0.00     0.034 A 
BRANCH  48  62
ATOM     62  C   UNL A   1      41.135  27.487  28.144  1.00  0.00     0.023 A 
ATOM     63  C   UNL A   1      40.681  26.157  28.101  1.00  0.00     0.031 A 
ATOM     64  C   UNL A   1      41.637  28.050  26.957  1.00  0.00     0.131 A 
ATOM     65  C   UNL A   1      40.770  25.427  26.907  1.00  0.00     0.055 A 
ATOM     66  C   UNL A   1      41.661  27.340  25.755  1.00  0.00     0.041 A 
ATOM     67  F   UNL A   1      42.104  29.310  26.944  1.00  0.00    -0.206 F 
ATOM     68  C   UNL A   1      41.231  26.018  25.727  1.00  0.00     0.022 A 
BRANCH  65  69
ATOM     69  S   UNL A   1      40.354  23.662  26.933  1.00  0.00     0.124 S 
ATOM     70  O   UNL A   1      40.540  23.336  28.345  1.00  0.00    -0.237 OA
ATOM     71  O   UNL A   1      38.978  23.654  26.452  1.00  0.00    -0.237 OA
ATOM     72  O   UNL A   1      41.336  23.065  26.028  1.00  0.00    -0.744 OA
ENDBRANCH  65  69
ENDBRANCH  48  62
BRANCH  49  73
ATOM     73  C   UNL A   1      39.882  32.708  36.602  1.00  0.00     0.023 A 
ATOM     74  C   UNL A   1      38.917  32.235  37.505  1.00  0.00     0.031 A 
ATOM     75  C   UNL A   1      40.552  33.903  36.924  1.00  0.00     0.131 A 
ATOM     76  C   UNL A   1      38.596  32.989  38.645  1.00  0.00     0.055 A 
ATOM     77  C   UNL A   1      40.281  34.610  38.098  1.00  0.00     0.041 A 
ATOM     78  F   UNL A   1      41.484  34.406  36.098  1.00  0.00    -0.206 F 
ATOM     79  C   UNL A   1      39.282  34.164  38.956  1.00  0.00     0.022 A 
BRANCH  76  80
ATOM     80  S   UNL A   1      37.164  32.485  39.640  1.00  0.00     0.124 S 
ATOM     81  O   UNL A   1      36.082  32.576  38.667  1.00  0.00    -0.237 OA
ATOM     82  O   UNL A   1      37.544  31.138  40.053  1.00  0.00    -0.237 OA
ATOM     83  O   UNL A   1      37.128  33.479  40.710  1.00  0.00    -0.744 OA
ENDBRANCH  76  80
ENDBRANCH  49  73
BRANCH  61  84
ATOM     84  C   UNL A   1      44.422  27.828  34.560  1.00  0.00     0.023 A 
ATOM     85  C   UNL A   1      44.240  26.609  35.236  1.00  0.00     0.031 A 
ATOM     86  C   UNL A   1      45.706  28.403  34.566  1.00  0.00     0.131 A 
ATOM     87  C   UNL A   1      45.309  26.031  35.934  1.00  0.00     0.055 A 
ATOM     88  C   UNL A   1      46.781  27.789  35.209  1.00  0.00     0.041 A 
ATOM     89  F   UNL A   1      45.937  29.569  33.941  1.00  0.00    -0.206 F 
ATOM     90  C   UNL A   1      46.584  26.602  35.908  1.00  0.00     0.022 A 
BRANCH  87  91
ATOM     91  S   UNL A   1      44.991  24.562  36.950  1.00  0.00     0.124 S 
ATOM     92  O   UNL A   1      44.314  23.681  36.005  1.00  0.00    -0.237 OA
ATOM     93  O   UNL A   1      46.336  24.158  37.346  1.00  0.00    -0.237 OA
ATOM     94  O   UNL A   1      44.155  25.071  38.036  1.00  0.00    -0.744 OA
ENDBRANCH  87  91
ENDBRANCH  61  84
ENDBRANCH  35  36
ENDBRANCH  27  30
ENDBRANCH  25  26
ENDBRANCH  24  25
ENDBRANCH   1  24
TORSDOF 18
ENDMDL
MODEL 2
REMARK VINA RESULT:     -11.6      1.941      2.302
REMARK SMILES C[C@@H](C(=O)NCCCCCCNC(=O)c1ccc(-c2c3nc(c(-c4cc(S(=O)(=O)[O-])ccc4F)c4ccc([nH]4)c(-c4cc(S(=O)(=O)[O-])ccc4F)c4nc(c(-c5cc(S(=O)(=O)[O-])ccc5F)c5ccc2[nH]5)C=C4)C=C3)cc1)c1ccc(-c2ccccc2)c(F)c1
REMARK SMILES IDX 9 1 8 2 7 3 6 4 5 5 3 6 4 7 2 9 1 10 78 11 79 12 90 13 80 14
REMARK SMILES IDX 88 15 81 16 89 17 82 18 83 19 87 20 84 21 86 22 85 23 10 24
REMARK SMILES IDX 11 25 12 26 13 27 14 29 15 30 16 31 77 32 17 33 76 34 18 35
REMARK SMILES IDX 19 36 20 37 70 38 21 39 75 40 69 41 71 42 22 43 74 44 68 45
REMARK SMILES IDX 67 46 23 48 55 49 35 50 54 51 36 52 39 53 53 54 72 55 37 56
REMARK SMILES IDX 38 57 52 59 73 60 40 61 24 62 25 63 33 64 26 65 32 66 34 67
REMARK SMILES IDX 31 68 27 69 28 70 29 71 30 72 56 73 57 74 65 75 58 76 64 77
REMARK SMILES IDX 66 78 63 79 59 80 60 81 61 82 62 83 41 84 42 85 50 86 43 87
REMARK SMILES IDX 49 88 51 89 48 90 44 91 45 92 46 93 47 94
REMARK H PARENT 5 8 12 28 71 47 39 58
REMARK Flexibility Score: inf
ROOT
ATOM      1  C   UNL A   1      32.156  30.017  25.849  1.00  0.00     0.002 C 
ENDROOT
BRANCH   1   2
ATOM      2  C   UNL A   1      32.817  28.787  26.476  1.00  0.00     0.002 C 
BRANCH   2   3
ATOM      3  C   UNL A   1      31.856  27.829  27.196  1.00  0.00     0.021 C 
BRANCH   3   4
ATOM      4  C   UNL A   1      31.771  26.438  26.562  1.00  0.00     0.116 C 
BRANCH   4   5
ATOM      5  N   UNL A   1      32.998  26.131  25.859  1.00  0.00    -0.356 N 
ATOM      6  C   UNL A   1      33.198  25.570  24.635  1.00  0.00     0.227 C 
ATOM      7  O   UNL A   1      34.364  25.284  24.354  1.00  0.00    -0.274 OA
ATOM      8  H   UNL A   1      33.822  26.366  26.345  1.00  0.00     0.163 HD
BRANCH   6   9
ATOM      9  C   UNL A   1      32.013  25.370  23.669  1.00  0.00     0.105 C 
ATOM     10  C   UNL A   1      32.418  24.735  22.335  1.00  0.00     0.023 C 
BRANCH   9  11
ATOM     11  C   UNL A   1      31.270  26.669  23.373  1.00  0.00    -0.033 A 
ATOM     12  C   UNL A   1      31.955  27.789  22.878  1.00  0.00     0.005 A 
ATOM     13  C   UNL A   1      29.885  26.762  23.550  1.00  0.00     0.044 A 
ATOM     14  C   UNL A   1      31.279  28.974  22.586  1.00  0.00     0.012 A 
ATOM     15  C   UNL A   1      29.214  27.950  23.247  1.00  0.00     0.131 A 
ATOM     16  C   UNL A   1      29.891  29.077  22.759  1.00  0.00     0.017 A 
ATOM     17  F   UNL A   1      27.884  27.983  23.423  1.00  0.00    -0.206 F 
BRANCH  16  18
ATOM     18  C   UNL A   1      29.206  30.338  22.435  1.00  0.00    -0.015 A 
ATOM     19  C   UNL A   1      28.665  30.548  21.154  1.00  0.00     0.009 A 
ATOM     20  C   UNL A   1      29.114  31.380  23.369  1.00  0.00     0.009 A 
ATOM     21  C   UNL A   1      28.067  31.763  20.814  1.00  0.00     0.001 A 
ATOM     22  C   UNL A   1      28.517  32.597  23.030  1.00  0.00     0.001 A 
ATOM     23  C   UNL A   1      27.998  32.789  21.752  1.00  0.00     0.000 A 
ENDBRANCH  16  18
ENDBRANCH   9  11
ENDBRANCH   6   9
ENDBRANCH   4   5
ENDBRANCH   3   4
ENDBRANCH   2   3
ENDBRANCH   1   2
BRANCH   1  24
ATOM     24  C   UNL A   1      31.839  31.146  26.831  1.00  0.00     0.021 C 
BRANCH  24  25
ATOM     25  C   UNL A   1      33.054  31.951  27.285  1.00  0.00     0.116 C 
BRANCH  25  26
ATOM     26  N   UNL A   1      32.733  33.355  27.487  1.00  0.00    -0.352 N 
ATOM     27  C   UNL A   1      33.234  34.237  28.413  1.00  0.00     0.251 C 
ATOM     28  H   UNL A   1      32.060  33.726  26.872  1.00  0.00     0.163 HD
ATOM     29  O   UNL A   1      32.690  35.326  28.577  1.00  0.00    -0.269 OA
BRANCH  27  30
ATOM     30  C   UNL A   1      34.408  33.857  29.229  1.00  0.00     0.039 A 
ATOM     31  C   UNL A   1      34.220  33.038  30.344  1.00  0.00     0.014 A 
ATOM     32  C   UNL A   1      35.692  34.288  28.881  1.00  0.00     0.014 A 
ATOM     33  C   UNL A   1      35.329  32.580  31.059  1.00  0.00     0.010 A 
ATOM     34  C   UNL A   1      36.799  33.777  29.553  1.00  0.00     0.010 A 
ATOM     35  C   UNL A   1      36.631  32.901  30.637  1.00  0.00    -0.014 A 
BRANCH  35  36
ATOM     36  C   UNL A   1      37.822  32.277  31.275  1.00  0.00     0.031 A 
ATOM     37  C   UNL A   1      38.543  31.141  30.602  1.00  0.00     0.074 A 
ATOM     38  C   UNL A   1      38.199  32.692  32.502  1.00  0.00     0.049 A 
ATOM     39  N   UNL A   1      39.542  30.423  31.047  1.00  0.00    -0.248 NA
ATOM     40  C   UNL A   1      38.069  30.748  29.266  1.00  0.00     0.031 C 
ATOM     41  C   UNL A   1      37.550  33.760  33.269  1.00  0.00     0.029 A 
ATOM     42  N   UNL A   1      39.204  32.260  33.334  1.00  0.00    -0.354 N 
ATOM     43  C   UNL A   1      39.808  29.485  30.056  1.00  0.00     0.074 A 
ATOM     44  C   UNL A   1      38.841  29.702  29.002  1.00  0.00     0.031 C 
ATOM     45  C   UNL A   1      38.180  33.906  34.445  1.00  0.00     0.029 A 
ATOM     46  C   UNL A   1      39.237  32.908  34.549  1.00  0.00     0.049 A 
ATOM     47  H   UNL A   1      39.841  31.552  33.083  1.00  0.00     0.167 HD
ATOM     48  C   UNL A   1      40.776  28.536  30.030  1.00  0.00     0.034 A 
ATOM     49  C   UNL A   1      40.008  32.701  35.636  1.00  0.00     0.034 A 
ATOM     50  C   UNL A   1      41.744  28.347  31.083  1.00  0.00     0.049 A 
ATOM     51  C   UNL A   1      41.051  31.610  35.588  1.00  0.00     0.074 A 
ATOM     52  C   UNL A   1      42.823  27.480  31.109  1.00  0.00     0.029 A 
ATOM     53  N   UNL A   1      41.740  29.012  32.301  1.00  0.00    -0.354 N 
ATOM     54  N   UNL A   1      41.346  30.794  34.603  1.00  0.00    -0.248 NA
ATOM     55  C   UNL A   1      41.866  31.412  36.794  1.00  0.00     0.031 C 
ATOM     56  C   UNL A   1      43.416  27.556  32.373  1.00  0.00     0.029 A 
ATOM     57  C   UNL A   1      42.762  28.531  33.107  1.00  0.00     0.049 A 
ATOM     58  H   UNL A   1      41.106  29.720  32.557  1.00  0.00     0.167 HD
ATOM     59  C   UNL A   1      42.395  30.004  35.067  1.00  0.00     0.074 A 
ATOM     60  C   UNL A   1      42.700  30.462  36.405  1.00  0.00     0.031 C 
ATOM     61  C   UNL A   1      43.045  28.987  34.446  1.00  0.00     0.034 A 
BRANCH  48  62
ATOM     62  C   UNL A   1      40.830  27.603  28.848  1.00  0.00     0.023 A 
ATOM     63  C   UNL A   1      41.786  27.744  27.828  1.00  0.00     0.031 A 
ATOM     64  C   UNL A   1      39.936  26.519  28.769  1.00  0.00     0.131 A 
ATOM     65  C   UNL A   1      41.805  26.836  26.758  1.00  0.00     0.055 A 
ATOM     66  C   UNL A   1      40.003  25.581  27.737  1.00  0.00     0.041 A 
ATOM     67  F   UNL A   1      38.987  26.347  29.704  1.00  0.00    -0.206 F 
ATOM     68  C   UNL A   1      40.938  25.741  26.721  1.00  0.00     0.022 A 
BRANCH  65  69
ATOM     69  S   UNL A   1      42.924  27.154  25.367  1.00  0.00     0.124 S 
ATOM     70  O   UNL A   1      44.164  27.498  26.058  1.00  0.00    -0.237 OA
ATOM     71  O   UNL A   1      42.919  25.880  24.660  1.00  0.00    -0.237 OA
ATOM     72  O   UNL A   1      42.284  28.263  24.660  1.00  0.00    -0.744 OA
ENDBRANCH  65  69
ENDBRANCH  48  62
BRANCH  49  73
ATOM     73  C   UNL A   1      39.803  33.494  36.886  1.00  0.00     0.023 A 
ATOM     74  C   UNL A   1      39.121  32.949  37.986  1.00  0.00     0.031 A 
ATOM     75  C   UNL A   1      40.203  34.841  36.965  1.00  0.00     0.131 A 
ATOM     76  C   UNL A   1      38.794  33.764  39.081  1.00  0.00     0.055 A 
ATOM     77  C   UNL A   1      39.941  35.626  38.089  1.00  0.00     0.041 A 
ATOM     78  F   UNL A   1      40.857  35.418  35.944  1.00  0.00    -0.206 F 
ATOM     79  C   UNL A   1      39.214  35.093  39.148  1.00  0.00     0.022 A 
BRANCH  76  80
ATOM     80  S   UNL A   1      37.685  33.098  40.354  1.00  0.00     0.124 S 
ATOM     81  O   UNL A   1      36.477  32.831  39.582  1.00  0.00    -0.237 OA
ATOM     82  O   UNL A   1      38.424  31.928  40.815  1.00  0.00    -0.237 OA
ATOM     83  O   UNL A   1      37.582  34.190  41.318  1.00  0.00    -0.744 OA
ENDBRANCH  76  80
ENDBRANCH  49  73
BRANCH  61  84
ATOM     84  C   UNL A   1      44.165  28.322  35.207  1.00  0.00     0.023 A 
ATOM     85  C   UNL A   1      45.461  28.867  35.233  1.00  0.00     0.031 A 
ATOM     86  C   UNL A   1      43.934  27.129  35.915  1.00  0.00     0.131 A 
ATOM     87  C   UNL A   1      46.488  28.192  35.908  1.00  0.00     0.055 A 
ATOM     88  C   UNL A   1      44.947  26.497  36.638  1.00  0.00     0.041 A 
ATOM     89  F   UNL A   1      42.717  26.561  35.921  1.00  0.00    -0.206 F 
ATOM     90  C   UNL A   1      46.236  27.022  36.628  1.00  0.00     0.022 A 
BRANCH  87  91
ATOM     91  S   UNL A   1      48.184  28.821  35.761  1.00  0.00     0.124 S 
ATOM     92  O   UNL A   1      48.861  27.713  35.098  1.00  0.00    -0.237 OA
ATOM     93  O   UNL A   1      48.002  30.028  34.961  1.00  0.00    -0.237 OA
ATOM     94  O   UNL A   1      48.584  29.055  37.148  1.00  0.00    -0.744 OA
ENDBRANCH  87  91
ENDBRANCH  61  84
ENDBRANCH  35  36
ENDBRANCH  27  30
ENDBRANCH  25  26
ENDBRANCH  24  25
ENDBRANCH   1  24
TORSDOF 18
ENDMDL
MODEL 3
REMARK VINA RESULT:     -11.6      6.443     11.693
REMARK SMILES C[C@@H](C(=O)NCCCCCCNC(=O)c1ccc(-c2c3nc(c(-c4cc(S(=O)(=O)[O-])ccc4F)c4ccc([nH]4)c(-c4cc(S(=O)(=O)[O-])ccc4F)c4nc(c(-c5cc(S(=O)(=O)[O-])ccc5F)c5ccc2[nH]5)C=C4)C=C3)cc1)c1ccc(-c2ccccc2)c(F)c1
REMARK SMILES IDX 9 1 8 2 7 3 6 4 5 5 3 6 4 7 2 9 1 10 78 11 79 12 90 13 80 14
REMARK SMILES IDX 88 15 81 16 89 17 82 18 83 19 87 20 84 21 86 22 85 23 10 24
REMARK SMILES IDX 11 25 12 26 13 27 14 29 15 30 16 31 77 32 17 33 76 34 18 35
REMARK SMILES IDX 19 36 20 37 70 38 21 39 75 40 69 41 71 42 22 43 74 44 68 45
REMARK SMILES IDX 67 46 23 48 55 49 35 50 54 51 36 52 39 53 53 54 72 55 37 56
REMARK SMILES IDX 38 57 52 59 73 60 40 61 24 62 25 63 33 64 26 65 32 66 34 67
REMARK SMILES IDX 31 68 27 69 28 70 29 71 30 72 56 73 57 74 65 75 58 76 64 77
REMARK SMILES IDX 66 78 63 79 59 80 60 81 61 82 62 83 41 84 42 85 50 86 43 87
REMARK SMILES IDX 49 88 51 89 48 90 44 91 45 92 46 93 47 94
REMARK H PARENT 5 8 12 28 71 47 39 58
REMARK Flexibility Score: inf
ROOT
ATOM      1  C   UNL A   1      36.584  21.680  25.121  1.00  0.00     0.002 C 
ENDROOT
BRANCH   1   2
ATOM      2  C   UNL A   1      36.801  22.939  24.276  1.00  0.00     0.002 C 
BRANCH   2   3
ATOM      3  C   UNL A   1      35.551  23.457  23.549  1.00  0.00     0.021 C 
BRANCH   3   4
ATOM      4  C   UNL A   1      34.842  24.607  24.268  1.00  0.00     0.116 C 
BRANCH   4   5
ATOM      5  N   UNL A   1      33.751  25.106  23.460  1.00  0.00    -0.356 N 
ATOM      6  C   UNL A   1      32.414  24.862  23.534  1.00  0.00     0.227 C 
ATOM      7  O   UNL A   1      31.729  25.308  22.609  1.00  0.00    -0.274 OA
ATOM      8  H   UNL A   1      34.018  25.721  22.739  1.00  0.00     0.163 HD
BRANCH   6   9
ATOM      9  C   UNL A   1      31.826  24.114  24.748  1.00  0.00     0.105 C 
ATOM     10  C   UNL A   1      32.198  24.749  26.091  1.00  0.00     0.023 C 
BRANCH   9  11
ATOM     11  C   UNL A   1      32.232  22.644  24.785  1.00  0.00    -0.033 A 
ATOM     12  C   UNL A   1      32.770  22.079  25.951  1.00  0.00     0.005 A 
ATOM     13  C   UNL A   1      32.041  21.817  23.672  1.00  0.00     0.044 A 
ATOM     14  C   UNL A   1      33.125  20.731  25.998  1.00  0.00     0.012 A 
ATOM     15  C   UNL A   1      32.391  20.466  23.730  1.00  0.00     0.131 A 
ATOM     16  C   UNL A   1      32.936  19.893  24.889  1.00  0.00     0.017 A 
ATOM     17  F   UNL A   1      32.177  19.713  22.640  1.00  0.00    -0.206 F 
BRANCH  16  18
ATOM     18  C   UNL A   1      33.313  18.474  24.973  1.00  0.00    -0.015 A 
ATOM     19  C   UNL A   1      34.437  17.991  24.280  1.00  0.00     0.009 A 
ATOM     20  C   UNL A   1      32.542  17.555  25.702  1.00  0.00     0.009 A 
ATOM     21  C   UNL A   1      34.770  16.635  24.301  1.00  0.00     0.001 A 
ATOM     22  C   UNL A   1      32.875  16.198  25.723  1.00  0.00     0.001 A 
ATOM     23  C   UNL A   1      33.985  15.738  25.020  1.00  0.00     0.000 A 
ENDBRANCH  16  18
ENDBRANCH   9  11
ENDBRANCH   6   9
ENDBRANCH   4   5
ENDBRANCH   3   4
ENDBRANCH   2   3
ENDBRANCH   1   2
BRANCH   1  24
ATOM     24  C   UNL A   1      37.683  20.623  24.992  1.00  0.00     0.021 C 
BRANCH  24  25
ATOM     25  C   UNL A   1      38.932  20.905  25.822  1.00  0.00     0.116 C 
BRANCH  25  26
ATOM     26  N   UNL A   1      39.803  19.742  25.906  1.00  0.00    -0.352 N 
ATOM     27  C   UNL A   1      41.166  19.687  26.065  1.00  0.00     0.251 C 
ATOM     28  H   UNL A   1      39.350  18.871  25.839  1.00  0.00     0.163 HD
ATOM     29  O   UNL A   1      41.759  18.624  25.898  1.00  0.00    -0.269 OA
BRANCH  27  30
ATOM     30  C   UNL A   1      41.916  20.915  26.407  1.00  0.00     0.039 A 
ATOM     31  C   UNL A   1      42.312  21.774  25.380  1.00  0.00     0.014 A 
ATOM     32  C   UNL A   1      42.206  21.229  27.739  1.00  0.00     0.014 A 
ATOM     33  C   UNL A   1      42.922  22.991  25.695  1.00  0.00     0.010 A 
ATOM     34  C   UNL A   1      42.753  22.471  28.054  1.00  0.00     0.010 A 
ATOM     35  C   UNL A   1      43.098  23.374  27.036  1.00  0.00    -0.014 A 
BRANCH  35  36
ATOM     36  C   UNL A   1      43.578  24.737  27.389  1.00  0.00     0.031 A 
ATOM     37  C   UNL A   1      42.620  25.774  27.909  1.00  0.00     0.074 A 
ATOM     38  C   UNL A   1      44.870  25.056  27.162  1.00  0.00     0.049 A 
ATOM     39  N   UNL A   1      42.843  27.033  28.186  1.00  0.00    -0.248 NA
ATOM     40  C   UNL A   1      41.230  25.348  28.127  1.00  0.00     0.031 C 
ATOM     41  C   UNL A   1      45.882  24.142  26.624  1.00  0.00     0.029 A 
ATOM     42  N   UNL A   1      45.555  26.234  27.336  1.00  0.00    -0.354 N 
ATOM     43  C   UNL A   1      41.621  27.555  28.596  1.00  0.00     0.074 A 
ATOM     44  C   UNL A   1      40.653  26.484  28.498  1.00  0.00     0.031 C 
ATOM     45  C   UNL A   1      47.054  24.789  26.525  1.00  0.00     0.029 A 
ATOM     46  C   UNL A   1      46.871  26.177  26.932  1.00  0.00     0.049 A 
ATOM     47  H   UNL A   1      45.142  27.045  27.713  1.00  0.00     0.167 HD
ATOM     48  C   UNL A   1      41.340  28.811  29.023  1.00  0.00     0.034 A 
ATOM     49  C   UNL A   1      47.815  27.138  26.868  1.00  0.00     0.034 A 
ATOM     50  C   UNL A   1      42.323  29.861  29.133  1.00  0.00     0.049 A 
ATOM     51  C   UNL A   1      47.457  28.536  27.313  1.00  0.00     0.074 A 
ATOM     52  C   UNL A   1      42.160  31.136  29.646  1.00  0.00     0.029 A 
ATOM     53  N   UNL A   1      43.640  29.771  28.706  1.00  0.00    -0.354 N 
ATOM     54  N   UNL A   1      46.317  28.985  27.787  1.00  0.00    -0.248 NA
ATOM     55  C   UNL A   1      48.510  29.556  27.221  1.00  0.00     0.031 C 
ATOM     56  C   UNL A   1      43.350  31.844  29.447  1.00  0.00     0.029 A 
ATOM     57  C   UNL A   1      44.283  30.986  28.889  1.00  0.00     0.049 A 
ATOM     58  H   UNL A   1      44.058  28.963  28.328  1.00  0.00     0.167 HD
ATOM     59  C   UNL A   1      46.528  30.332  28.067  1.00  0.00     0.074 A 
ATOM     60  C   UNL A   1      47.908  30.614  27.740  1.00  0.00     0.031 C 
ATOM     61  C   UNL A   1      45.657  31.257  28.545  1.00  0.00     0.034 A 
BRANCH  48  62
ATOM     62  C   UNL A   1      39.912  29.142  29.375  1.00  0.00     0.023 A 
ATOM     63  C   UNL A   1      39.480  29.260  30.707  1.00  0.00     0.031 A 
ATOM     64  C   UNL A   1      38.979  29.396  28.354  1.00  0.00     0.131 A 
ATOM     65  C   UNL A   1      38.144  29.590  30.981  1.00  0.00     0.055 A 
ATOM     66  C   UNL A   1      37.668  29.788  28.633  1.00  0.00     0.041 A 
ATOM     67  F   UNL A   1      39.331  29.277  27.063  1.00  0.00    -0.206 F 
ATOM     68  C   UNL A   1      37.243  29.882  29.953  1.00  0.00     0.022 A 
BRANCH  65  69
ATOM     69  S   UNL A   1      37.573  29.549  32.702  1.00  0.00     0.124 S 
ATOM     70  O   UNL A   1      38.658  30.244  33.390  1.00  0.00    -0.237 OA
ATOM     71  O   UNL A   1      36.303  30.260  32.630  1.00  0.00    -0.237 OA
ATOM     72  O   UNL A   1      37.472  28.120  32.995  1.00  0.00    -0.744 OA
ENDBRANCH  65  69
ENDBRANCH  48  62
BRANCH  49  73
ATOM     73  C   UNL A   1      49.171  26.847  26.314  1.00  0.00     0.023 A 
ATOM     74  C   UNL A   1      49.560  27.334  25.055  1.00  0.00     0.031 A 
ATOM     75  C   UNL A   1      50.065  25.999  26.993  1.00  0.00     0.131 A 
ATOM     76  C   UNL A   1      50.771  26.911  24.484  1.00  0.00     0.055 A 
ATOM     77  C   UNL A   1      51.302  25.641  26.452  1.00  0.00     0.041 A 
ATOM     78  F   UNL A   1      49.748  25.499  28.198  1.00  0.00    -0.206 F 
ATOM     79  C   UNL A   1      51.652  26.082  25.180  1.00  0.00     0.022 A 
BRANCH  76  80
ATOM     80  S   UNL A   1      51.109  27.347  22.755  1.00  0.00     0.124 S 
ATOM     81  O   UNL A   1      50.021  26.667  22.061  1.00  0.00    -0.237 OA
ATOM     82  O   UNL A   1      51.037  28.804  22.792  1.00  0.00    -0.237 OA
ATOM     83  O   UNL A   1      52.441  26.794  22.521  1.00  0.00    -0.744 OA
ENDBRANCH  76  80
ENDBRANCH  49  73
BRANCH  61  84
ATOM     84  C   UNL A   1      46.189  32.652  28.763  1.00  0.00     0.023 A 
ATOM     85  C   UNL A   1      46.050  33.653  27.786  1.00  0.00     0.031 A 
ATOM     86  C   UNL A   1      46.844  32.985  29.963  1.00  0.00     0.131 A 
ATOM     87  C   UNL A   1      46.603  34.922  28.002  1.00  0.00     0.055 A 
ATOM     88  C   UNL A   1      47.335  34.269  30.198  1.00  0.00     0.041 A 
ATOM     89  F   UNL A   1      47.009  32.067  30.929  1.00  0.00    -0.206 F 
ATOM     90  C   UNL A   1      47.228  35.244  29.210  1.00  0.00     0.022 A 
BRANCH  87  91
ATOM     91  S   UNL A   1      46.572  36.127  26.646  1.00  0.00     0.124 S 
ATOM     92  O   UNL A   1      45.182  36.569  26.667  1.00  0.00    -0.237 OA
ATOM     93  O   UNL A   1      47.559  37.111  27.079  1.00  0.00    -0.237 OA
ATOM     94  O   UNL A   1      46.957  35.339  25.477  1.00  0.00    -0.744 OA
ENDBRANCH  87  91
ENDBRANCH  61  84
ENDBRANCH  35  36
ENDBRANCH  27  30
ENDBRANCH  25  26
ENDBRANCH  24  25
ENDBRANCH   1  24
TORSDOF 18
ENDMDL
