MODEL 1
REMARK VINA RESULT:     -11.7      0.000      0.000
REMARK SMILES CC[C@](O)(C(=O)NCCCCCCNC(=O)c1ccc(-c2c3nc(c(-c4cc(S(=O)(=O)[O-])ccc4F)c4ccc([nH]4)c(-c4cc(S(=O)(=O)[O-])ccc4F)c4nc(c(-c5cc(S(=O)(=O)[O-])ccc5F)c5ccc2[nH]5)C=C4)C=C3)cc1)[C@@H](C)c1ccc2c(c1)OCCO2
REMARK SMILES IDX 11 1 10 2 9 3 8 4 7 5 5 6 6 7 3 9 2 10 1 11 80 12 81 13
REMARK SMILES IDX 82 14 83 15 87 16 84 17 86 18 85 19 88 20 91 21 89 22 90 23
REMARK SMILES IDX 4 24 12 26 13 27 14 28 15 29 16 31 17 32 18 33 79 34 19 35
REMARK SMILES IDX 78 36 20 37 21 38 22 39 72 40 23 41 77 42 71 43 73 44 24 45
REMARK SMILES IDX 76 46 70 47 69 48 25 50 57 51 37 52 56 53 38 54 41 55 55 56
REMARK SMILES IDX 74 57 39 58 40 59 54 61 75 62 42 63 26 64 27 65 35 66 28 67
REMARK SMILES IDX 34 68 36 69 33 70 29 71 30 72 31 73 32 74 58 75 59 76 67 77
REMARK SMILES IDX 60 78 66 79 68 80 65 81 61 82 62 83 63 84 64 85 43 86 44 87
REMARK SMILES IDX 52 88 45 89 51 90 53 91 50 92 46 93 47 94 48 95 49 96
REMARK H PARENT 7 8 4 25 14 30 73 49 41 60
REMARK Flexibility Score: inf
ROOT
ATOM      1  C   UNL A   1      36.736  22.819  23.626  1.00  0.00     0.002 C 
ENDROOT
BRANCH   1   2
ATOM      2  C   UNL A   1      35.488  23.692  23.450  1.00  0.00     0.002 C 
BRANCH   2   3
ATOM      3  C   UNL A   1      35.010  24.366  24.736  1.00  0.00     0.021 C 
BRANCH   3   4
ATOM      4  C   UNL A   1      33.699  25.127  24.555  1.00  0.00     0.116 C 
BRANCH   4   5
ATOM      5  N   UNL A   1      32.872  25.121  25.758  1.00  0.00    -0.354 N 
ATOM      6  C   UNL A   1      31.996  24.158  26.218  1.00  0.00     0.252 C 
ATOM      7  O   UNL A   1      31.461  24.329  27.313  1.00  0.00    -0.272 OA
ATOM      8  H   UNL A   1      32.950  25.923  26.324  1.00  0.00     0.163 HD
BRANCH   6   9
ATOM      9  C   UNL A   1      31.793  22.874  25.366  1.00  0.00     0.149 C 
BRANCH   9  10
ATOM     10  C   UNL A   1      31.507  23.390  23.918  1.00  0.00     0.043 C 
ATOM     11  C   UNL A   1      30.282  24.259  23.670  1.00  0.00     0.007 C 
ENDBRANCH   9  10
BRANCH   9  12
ATOM     12  C   UNL A   1      33.013  21.878  25.389  1.00  0.00     0.058 C 
ATOM     13  C   UNL A   1      33.511  21.547  26.811  1.00  0.00     0.016 C 
BRANCH  12  14
ATOM     14  C   UNL A   1      32.703  20.523  24.734  1.00  0.00    -0.038 A 
ATOM     15  C   UNL A   1      32.418  20.384  23.365  1.00  0.00     0.008 A 
ATOM     16  C   UNL A   1      32.816  19.352  25.490  1.00  0.00     0.054 A 
ATOM     17  C   UNL A   1      32.377  19.106  22.776  1.00  0.00     0.051 A 
ATOM     18  C   UNL A   1      32.692  18.106  24.940  1.00  0.00     0.161 A 
ATOM     19  C   UNL A   1      32.600  17.981  23.568  1.00  0.00     0.161 A 
ATOM     20  O   UNL A   1      32.855  17.060  25.798  1.00  0.00    -0.486 OA
ATOM     21  O   UNL A   1      32.958  16.779  23.003  1.00  0.00    -0.486 OA
ATOM     22  C   UNL A   1      33.694  16.056  25.236  1.00  0.00     0.271 C 
ATOM     23  C   UNL A   1      34.088  16.320  23.781  1.00  0.00     0.271 C 
ENDBRANCH  12  14
ENDBRANCH   9  12
BRANCH   9  24
ATOM     24  O   UNL A   1      30.677  22.257  26.033  1.00  0.00    -0.379 OA
ATOM     25  H   UNL A   1      31.004  21.627  26.694  1.00  0.00     0.212 HD
ENDBRANCH   9  24
ENDBRANCH   6   9
ENDBRANCH   4   5
ENDBRANCH   3   4
ENDBRANCH   2   3
ENDBRANCH   1   2
BRANCH   1  26
ATOM     26  C   UNL A   1      36.487  21.474  24.319  1.00  0.00     0.021 C 
BRANCH  26  27
ATOM     27  C   UNL A   1      36.960  21.424  25.767  1.00  0.00     0.116 C 
BRANCH  27  28
ATOM     28  N   UNL A   1      38.037  20.463  25.939  1.00  0.00    -0.352 N 
ATOM     29  C   UNL A   1      39.369  20.681  26.154  1.00  0.00     0.251 C 
ATOM     30  H   UNL A   1      37.766  19.517  25.895  1.00  0.00     0.163 HD
ATOM     31  O   UNL A   1      40.168  19.750  26.009  1.00  0.00    -0.269 OA
BRANCH  29  32
ATOM     32  C   UNL A   1      39.849  22.022  26.539  1.00  0.00     0.039 A 
ATOM     33  C   UNL A   1      40.841  22.130  27.516  1.00  0.00     0.014 A 
ATOM     34  C   UNL A   1      39.312  23.171  25.951  1.00  0.00     0.014 A 
ATOM     35  C   UNL A   1      41.333  23.389  27.860  1.00  0.00     0.010 A 
ATOM     36  C   UNL A   1      39.859  24.419  26.240  1.00  0.00     0.010 A 
ATOM     37  C   UNL A   1      40.874  24.542  27.200  1.00  0.00    -0.014 A 
BRANCH  37  38
ATOM     38  C   UNL A   1      41.458  25.875  27.500  1.00  0.00     0.031 A 
ATOM     39  C   UNL A   1      42.821  26.242  26.981  1.00  0.00     0.074 A 
ATOM     40  C   UNL A   1      40.769  26.737  28.274  1.00  0.00     0.049 A 
ATOM     41  N   UNL A   1      43.509  27.340  27.171  1.00  0.00    -0.248 NA
ATOM     42  C   UNL A   1      43.514  25.236  26.162  1.00  0.00     0.031 C 
ATOM     43  C   UNL A   1      39.454  26.475  28.865  1.00  0.00     0.029 A 
ATOM     44  N   UNL A   1      41.073  28.005  28.699  1.00  0.00    -0.354 N 
ATOM     45  C   UNL A   1      44.712  27.158  26.497  1.00  0.00     0.074 A 
ATOM     46  C   UNL A   1      44.685  25.818  25.950  1.00  0.00     0.031 C 
ATOM     47  C   UNL A   1      39.053  27.560  29.546  1.00  0.00     0.029 A 
ATOM     48  C   UNL A   1      40.100  28.574  29.489  1.00  0.00     0.049 A 
ATOM     49  H   UNL A   1      41.911  28.467  28.462  1.00  0.00     0.167 HD
ATOM     50  C   UNL A   1      45.731  28.036  26.330  1.00  0.00     0.034 A 
ATOM     51  C   UNL A   1      40.060  29.772  30.107  1.00  0.00     0.034 A 
ATOM     52  C   UNL A   1      45.738  29.370  26.880  1.00  0.00     0.049 A 
ATOM     53  C   UNL A   1      41.228  30.712  29.938  1.00  0.00     0.074 A 
ATOM     54  C   UNL A   1      46.701  30.355  26.734  1.00  0.00     0.029 A 
ATOM     55  N   UNL A   1      44.743  29.907  27.686  1.00  0.00    -0.354 N 
ATOM     56  N   UNL A   1      42.334  30.542  29.251  1.00  0.00    -0.248 NA
ATOM     57  C   UNL A   1      41.133  32.012  30.616  1.00  0.00     0.031 C 
ATOM     58  C   UNL A   1      46.325  31.455  27.512  1.00  0.00     0.029 A 
ATOM     59  C   UNL A   1      45.086  31.193  28.074  1.00  0.00     0.049 A 
ATOM     60  H   UNL A   1      43.915  29.441  27.945  1.00  0.00     0.167 HD
ATOM     61  C   UNL A   1      43.052  31.728  29.391  1.00  0.00     0.074 A 
ATOM     62  C   UNL A   1      42.240  32.609  30.203  1.00  0.00     0.031 C 
ATOM     63  C   UNL A   1      44.271  32.059  28.895  1.00  0.00     0.034 A 
BRANCH  50  64
ATOM     64  C   UNL A   1      46.930  27.572  25.538  1.00  0.00     0.023 A 
ATOM     65  C   UNL A   1      47.133  27.969  24.204  1.00  0.00     0.031 A 
ATOM     66  C   UNL A   1      47.887  26.724  26.123  1.00  0.00     0.131 A 
ATOM     67  C   UNL A   1      48.229  27.471  23.483  1.00  0.00     0.055 A 
ATOM     68  C   UNL A   1      49.019  26.296  25.425  1.00  0.00     0.041 A 
ATOM     69  F   UNL A   1      47.738  26.293  27.385  1.00  0.00    -0.206 F 
ATOM     70  C   UNL A   1      49.188  26.660  24.092  1.00  0.00     0.022 A 
BRANCH  67  71
ATOM     71  S   UNL A   1      48.313  27.794  21.700  1.00  0.00     0.124 S 
ATOM     72  O   UNL A   1      49.335  28.836  21.637  1.00  0.00    -0.237 OA
ATOM     73  O   UNL A   1      48.693  26.493  21.161  1.00  0.00    -0.237 OA
ATOM     74  O   UNL A   1      46.961  28.237  21.369  1.00  0.00    -0.744 OA
ENDBRANCH  67  71
ENDBRANCH  50  64
BRANCH  51  75
ATOM     75  C   UNL A   1      38.895  30.152  30.958  1.00  0.00     0.023 A 
ATOM     76  C   UNL A   1      37.863  30.962  30.455  1.00  0.00     0.031 A 
ATOM     77  C   UNL A   1      38.829  29.772  32.311  1.00  0.00     0.131 A 
ATOM     78  C   UNL A   1      36.850  31.419  31.311  1.00  0.00     0.055 A 
ATOM     79  C   UNL A   1      37.782  30.174  33.142  1.00  0.00     0.041 A 
ATOM     80  F   UNL A   1      39.786  28.997  32.846  1.00  0.00    -0.206 F 
ATOM     81  C   UNL A   1      36.793  31.018  32.647  1.00  0.00     0.022 A 
BRANCH  78  82
ATOM     82  S   UNL A   1      35.673  32.648  30.681  1.00  0.00     0.124 S 
ATOM     83  O   UNL A   1      35.572  32.268  29.278  1.00  0.00    -0.237 OA
ATOM     84  O   UNL A   1      34.497  32.389  31.504  1.00  0.00    -0.237 OA
ATOM     85  O   UNL A   1      36.344  33.922  30.937  1.00  0.00    -0.744 OA
ENDBRANCH  78  82
ENDBRANCH  51  75
BRANCH  63  86
ATOM     86  C   UNL A   1      44.774  33.453  29.187  1.00  0.00     0.023 A 
ATOM     87  C   UNL A   1      44.322  34.570  28.463  1.00  0.00     0.031 A 
ATOM     88  C   UNL A   1      45.738  33.663  30.189  1.00  0.00     0.131 A 
ATOM     89  C   UNL A   1      44.884  35.833  28.701  1.00  0.00     0.055 A 
ATOM     90  C   UNL A   1      46.242  34.934  30.470  1.00  0.00     0.041 A 
ATOM     91  F   UNL A   1      46.210  32.634  30.911  1.00  0.00    -0.206 F 
ATOM     92  C   UNL A   1      45.828  36.025  29.713  1.00  0.00     0.022 A 
BRANCH  89  93
ATOM     93  S   UNL A   1      44.452  37.200  27.590  1.00  0.00     0.124 S 
ATOM     94  O   UNL A   1      45.755  37.577  27.052  1.00  0.00    -0.237 OA
ATOM     95  O   UNL A   1      43.535  36.562  26.651  1.00  0.00    -0.237 OA
ATOM     96  O   UNL A   1      43.840  38.186  28.480  1.00  0.00    -0.744 OA
ENDBRANCH  89  93
ENDBRANCH  63  86
ENDBRANCH  37  38
ENDBRANCH  29  32
ENDBRANCH  27  28
ENDBRANCH  26  27
ENDBRANCH   1  26
TORSDOF 20
ENDMDL
MODEL 2
REMARK VINA RESULT:     -11.2      2.094      7.901
REMARK SMILES CC[C@](O)(C(=O)NCCCCCCNC(=O)c1ccc(-c2c3nc(c(-c4cc(S(=O)(=O)[O-])ccc4F)c4ccc([nH]4)c(-c4cc(S(=O)(=O)[O-])ccc4F)c4nc(c(-c5cc(S(=O)(=O)[O-])ccc5F)c5ccc2[nH]5)C=C4)C=C3)cc1)[C@@H](C)c1ccc2c(c1)OCCO2
REMARK SMILES IDX 11 1 10 2 9 3 8 4 7 5 5 6 6 7 3 9 2 10 1 11 80 12 81 13
REMARK SMILES IDX 82 14 83 15 87 16 84 17 86 18 85 19 88 20 91 21 89 22 90 23
REMARK SMILES IDX 4 24 12 26 13 27 14 28 15 29 16 31 17 32 18 33 79 34 19 35
REMARK SMILES IDX 78 36 20 37 21 38 22 39 72 40 23 41 77 42 71 43 73 44 24 45
REMARK SMILES IDX 76 46 70 47 69 48 25 50 57 51 37 52 56 53 38 54 41 55 55 56
REMARK SMILES IDX 74 57 39 58 40 59 54 61 75 62 42 63 26 64 27 65 35 66 28 67
REMARK SMILES IDX 34 68 36 69 33 70 29 71 30 72 31 73 32 74 58 75 59 76 67 77
REMARK SMILES IDX 60 78 66 79 68 80 65 81 61 82 62 83 63 84 64 85 43 86 44 87
REMARK SMILES IDX 52 88 45 89 51 90 53 91 50 92 46 93 47 94 48 95 49 96
REMARK H PARENT 7 8 4 25 14 30 73 49 41 60
REMARK Flexibility Score: inf
ROOT
ATOM      1  C   UNL A   1      37.951  21.386  24.999  1.00  0.00     0.002 C 
ENDROOT
BRANCH   1   2
ATOM      2  C   UNL A   1      38.256  22.392  26.114  1.00  0.00     0.002 C 
BRANCH   2   3
ATOM      3  C   UNL A   1      37.697  23.792  25.863  1.00  0.00     0.021 C 
BRANCH   3   4
ATOM      4  C   UNL A   1      36.634  23.818  24.767  1.00  0.00     0.116 C 
BRANCH   4   5
ATOM      5  N   UNL A   1      35.376  24.411  25.214  1.00  0.00    -0.354 N 
ATOM      6  C   UNL A   1      34.142  23.819  25.397  1.00  0.00     0.252 C 
ATOM      7  O   UNL A   1      33.231  24.501  25.866  1.00  0.00    -0.272 OA
ATOM      8  H   UNL A   1      35.415  25.374  25.413  1.00  0.00     0.163 HD
BRANCH   6   9
ATOM      9  C   UNL A   1      33.990  22.307  25.075  1.00  0.00     0.149 C 
BRANCH   9  10
ATOM     10  C   UNL A   1      34.591  21.566  26.314  1.00  0.00     0.043 C 
ATOM     11  C   UNL A   1      33.985  21.813  27.688  1.00  0.00     0.007 C 
ENDBRANCH   9  10
BRANCH   9  12
ATOM     12  C   UNL A   1      32.509  21.848  24.796  1.00  0.00     0.058 C 
ATOM     13  C   UNL A   1      31.792  22.696  23.726  1.00  0.00     0.016 C 
BRANCH  12  14
ATOM     14  C   UNL A   1      32.406  20.394  24.309  1.00  0.00    -0.038 A 
ATOM     15  C   UNL A   1      32.243  20.052  22.956  1.00  0.00     0.008 A 
ATOM     16  C   UNL A   1      32.596  19.349  25.219  1.00  0.00     0.054 A 
ATOM     17  C   UNL A   1      32.394  18.715  22.540  1.00  0.00     0.051 A 
ATOM     18  C   UNL A   1      32.657  18.038  24.833  1.00  0.00     0.161 A 
ATOM     19  C   UNL A   1      32.684  17.734  23.486  1.00  0.00     0.161 A 
ATOM     20  O   UNL A   1      32.873  17.136  25.829  1.00  0.00    -0.486 OA
ATOM     21  O   UNL A   1      33.218  16.524  23.108  1.00  0.00    -0.486 OA
ATOM     22  C   UNL A   1      33.862  16.181  25.457  1.00  0.00     0.271 C 
ATOM     23  C   UNL A   1      34.332  16.308  24.006  1.00  0.00     0.271 C 
ENDBRANCH  12  14
ENDBRANCH   9  12
BRANCH   9  24
ATOM     24  O   UNL A   1      34.749  22.191  23.858  1.00  0.00    -0.379 OA
ATOM     25  H   UNL A   1      34.142  22.143  23.102  1.00  0.00     0.212 HD
ENDBRANCH   9  24
ENDBRANCH   6   9
ENDBRANCH   4   5
ENDBRANCH   3   4
ENDBRANCH   2   3
ENDBRANCH   1   2
BRANCH   1  26
ATOM     26  C   UNL A   1      38.695  20.050  25.117  1.00  0.00     0.021 C 
BRANCH  26  27
ATOM     27  C   UNL A   1      39.537  19.917  26.380  1.00  0.00     0.116 C 
BRANCH  27  28
ATOM     28  N   UNL A   1      40.749  19.155  26.130  1.00  0.00    -0.352 N 
ATOM     29  C   UNL A   1      42.027  19.597  25.927  1.00  0.00     0.251 C 
ATOM     30  H   UNL A   1      40.633  18.178  26.103  1.00  0.00     0.163 HD
ATOM     31  O   UNL A   1      42.872  18.822  25.468  1.00  0.00    -0.269 OA
BRANCH  29  32
ATOM     32  C   UNL A   1      42.387  20.993  26.240  1.00  0.00     0.039 A 
ATOM     33  C   UNL A   1      42.716  21.328  27.555  1.00  0.00     0.014 A 
ATOM     34  C   UNL A   1      42.387  21.974  25.243  1.00  0.00     0.014 A 
ATOM     35  C   UNL A   1      43.099  22.635  27.857  1.00  0.00     0.010 A 
ATOM     36  C   UNL A   1      42.843  23.258  25.532  1.00  0.00     0.010 A 
ATOM     37  C   UNL A   1      43.201  23.603  26.843  1.00  0.00    -0.014 A 
BRANCH  37  38
ATOM     38  C   UNL A   1      43.694  24.973  27.145  1.00  0.00     0.031 A 
ATOM     39  C   UNL A   1      42.767  26.001  27.732  1.00  0.00     0.074 A 
ATOM     40  C   UNL A   1      44.969  25.295  26.849  1.00  0.00     0.049 A 
ATOM     41  N   UNL A   1      43.004  27.255  28.026  1.00  0.00    -0.248 NA
ATOM     42  C   UNL A   1      41.386  25.574  28.005  1.00  0.00     0.031 C 
ATOM     43  C   UNL A   1      45.948  24.390  26.241  1.00  0.00     0.029 A 
ATOM     44  N   UNL A   1      45.663  26.465  27.017  1.00  0.00    -0.354 N 
ATOM     45  C   UNL A   1      41.807  27.765  28.515  1.00  0.00     0.074 A 
ATOM     46  C   UNL A   1      40.829  26.702  28.418  1.00  0.00     0.031 C 
ATOM     47  C   UNL A   1      47.122  25.030  26.119  1.00  0.00     0.029 A 
ATOM     48  C   UNL A   1      46.969  26.402  26.587  1.00  0.00     0.049 A 
ATOM     49  H   UNL A   1      45.264  27.277  27.409  1.00  0.00     0.167 HD
ATOM     50  C   UNL A   1      41.555  28.997  29.023  1.00  0.00     0.034 A 
ATOM     51  C   UNL A   1      47.931  27.347  26.560  1.00  0.00     0.034 A 
ATOM     52  C   UNL A   1      42.544  30.043  29.116  1.00  0.00     0.049 A 
ATOM     53  C   UNL A   1      47.609  28.722  27.092  1.00  0.00     0.074 A 
ATOM     54  C   UNL A   1      42.406  31.312  29.653  1.00  0.00     0.029 A 
ATOM     55  N   UNL A   1      43.852  29.949  28.658  1.00  0.00    -0.354 N 
ATOM     56  N   UNL A   1      46.485  29.169  27.602  1.00  0.00    -0.248 NA
ATOM     57  C   UNL A   1      48.692  29.713  27.058  1.00  0.00     0.031 C 
ATOM     58  C   UNL A   1      43.602  32.008  29.450  1.00  0.00     0.029 A 
ATOM     59  C   UNL A   1      44.518  31.148  28.866  1.00  0.00     0.049 A 
ATOM     60  H   UNL A   1      44.248  29.148  28.244  1.00  0.00     0.167 HD
ATOM     61  C   UNL A   1      46.739  30.487  27.977  1.00  0.00     0.074 A 
ATOM     62  C   UNL A   1      48.126  30.748  27.660  1.00  0.00     0.031 C 
ATOM     63  C   UNL A   1      45.901  31.399  28.534  1.00  0.00     0.034 A 
BRANCH  50  64
ATOM     64  C   UNL A   1      40.150  29.285  29.495  1.00  0.00     0.023 A 
ATOM     65  C   UNL A   1      39.832  29.368  30.863  1.00  0.00     0.031 A 
ATOM     66  C   UNL A   1      39.111  29.481  28.567  1.00  0.00     0.131 A 
ATOM     67  C   UNL A   1      38.505  29.580  31.263  1.00  0.00     0.055 A 
ATOM     68  C   UNL A   1      37.806  29.771  28.971  1.00  0.00     0.041 A 
ATOM     69  F   UNL A   1      39.346  29.391  27.250  1.00  0.00    -0.206 F 
ATOM     70  C   UNL A   1      37.494  29.809  30.328  1.00  0.00     0.022 A 
BRANCH  67  71
ATOM     71  S   UNL A   1      38.094  29.422  33.023  1.00  0.00     0.124 S 
ATOM     72  O   UNL A   1      37.416  28.128  33.053  1.00  0.00    -0.237 OA
ATOM     73  O   UNL A   1      39.406  29.471  33.658  1.00  0.00    -0.237 OA
ATOM     74  O   UNL A   1      37.233  30.575  33.278  1.00  0.00    -0.744 OA
ENDBRANCH  67  71
ENDBRANCH  50  64
BRANCH  51  75
ATOM     75  C   UNL A   1      49.280  27.046  25.997  1.00  0.00     0.023 A 
ATOM     76  C   UNL A   1      49.656  27.512  24.727  1.00  0.00     0.031 A 
ATOM     77  C   UNL A   1      50.189  26.227  26.690  1.00  0.00     0.131 A 
ATOM     78  C   UNL A   1      50.874  27.103  24.162  1.00  0.00     0.055 A 
ATOM     79  C   UNL A   1      51.430  25.878  26.153  1.00  0.00     0.041 A 
ATOM     80  F   UNL A   1      49.885  25.753  27.910  1.00  0.00    -0.206 F 
ATOM     81  C   UNL A   1      51.770  26.302  24.873  1.00  0.00     0.022 A 
BRANCH  78  82
ATOM     82  S   UNL A   1      51.215  27.534  22.433  1.00  0.00     0.124 S 
ATOM     83  O   UNL A   1      52.597  27.098  22.288  1.00  0.00    -0.237 OA
ATOM     84  O   UNL A   1      50.214  26.745  21.723  1.00  0.00    -0.237 OA
ATOM     85  O   UNL A   1      51.007  28.981  22.397  1.00  0.00    -0.744 OA
ENDBRANCH  78  82
ENDBRANCH  51  75
BRANCH  63  86
ATOM     86  C   UNL A   1      46.487  32.750  28.870  1.00  0.00     0.023 A 
ATOM     87  C   UNL A   1      46.422  33.829  27.972  1.00  0.00     0.031 A 
ATOM     88  C   UNL A   1      47.142  32.953  30.098  1.00  0.00     0.131 A 
ATOM     89  C   UNL A   1      47.062  35.038  28.283  1.00  0.00     0.055 A 
ATOM     90  C   UNL A   1      47.715  34.180  30.432  1.00  0.00     0.041 A 
ATOM     91  F   UNL A   1      47.238  31.957  30.994  1.00  0.00    -0.206 F 
ATOM     92  C   UNL A   1      47.692  35.226  29.516  1.00  0.00     0.022 A 
BRANCH  89  93
ATOM     93  S   UNL A   1      47.162  36.322  27.006  1.00  0.00     0.124 S 
ATOM     94  O   UNL A   1      45.934  36.095  26.251  1.00  0.00    -0.237 OA
ATOM     95  O   UNL A   1      47.205  37.547  27.798  1.00  0.00    -0.237 OA
ATOM     96  O   UNL A   1      48.398  36.002  26.292  1.00  0.00    -0.744 OA
ENDBRANCH  89  93
ENDBRANCH  63  86
ENDBRANCH  37  38
ENDBRANCH  29  32
ENDBRANCH  27  28
ENDBRANCH  26  27
ENDBRANCH   1  26
TORSDOF 20
ENDMDL
MODEL 3
REMARK VINA RESULT:     -11.1      2.665      3.170
REMARK SMILES CC[C@](O)(C(=O)NCCCCCCNC(=O)c1ccc(-c2c3nc(c(-c4cc(S(=O)(=O)[O-])ccc4F)c4ccc([nH]4)c(-c4cc(S(=O)(=O)[O-])ccc4F)c4nc(c(-c5cc(S(=O)(=O)[O-])ccc5F)c5ccc2[nH]5)C=C4)C=C3)cc1)[C@@H](C)c1ccc2c(c1)OCCO2
REMARK SMILES IDX 11 1 10 2 9 3 8 4 7 5 5 6 6 7 3 9 2 10 1 11 80 12 81 13
REMARK SMILES IDX 82 14 83 15 87 16 84 17 86 18 85 19 88 20 91 21 89 22 90 23
REMARK SMILES IDX 4 24 12 26 13 27 14 28 15 29 16 31 17 32 18 33 79 34 19 35
REMARK SMILES IDX 78 36 20 37 21 38 22 39 72 40 23 41 77 42 71 43 73 44 24 45
REMARK SMILES IDX 76 46 70 47 69 48 25 50 57 51 37 52 56 53 38 54 41 55 55 56
REMARK SMILES IDX 74 57 39 58 40 59 54 61 75 62 42 63 26 64 27 65 35 66 28 67
REMARK SMILES IDX 34 68 36 69 33 70 29 71 30 72 31 73 32 74 58 75 59 76 67 77
REMARK SMILES IDX 60 78 66 79 68 80 65 81 61 82 62 83 63 84 64 85 43 86 44 87
REMARK SMILES IDX 52 88 45 89 51 90 53 91 50 92 46 93 47 94 48 95 49 96
REMARK H PARENT 7 8 4 25 14 30 73 49 41 60
REMARK Flexibility Score: inf
ROOT
ATOM      1  C   UNL A   1      36.681  23.020  23.810  1.00  0.00     0.002 C 
ENDROOT
BRANCH   1   2
ATOM      2  C   UNL A   1      35.309  23.689  23.672  1.00  0.00     0.002 C 
BRANCH   2   3
ATOM      3  C   UNL A   1      34.914  24.557  24.867  1.00  0.00     0.021 C 
BRANCH   3   4
ATOM      4  C   UNL A   1      33.522  25.167  24.720  1.00  0.00     0.116 C 
BRANCH   4   5
ATOM      5  N   UNL A   1      32.709  25.015  25.925  1.00  0.00    -0.354 N 
ATOM      6  C   UNL A   1      31.901  23.964  26.312  1.00  0.00     0.252 C 
ATOM      7  O   UNL A   1      31.368  24.014  27.420  1.00  0.00    -0.272 OA
ATOM      8  H   UNL A   1      32.742  25.773  26.551  1.00  0.00     0.163 HD
BRANCH   6   9
ATOM      9  C   UNL A   1      31.770  22.741  25.363  1.00  0.00     0.149 C 
BRANCH   9  10
ATOM     10  C   UNL A   1      31.519  23.353  23.945  1.00  0.00     0.043 C 
ATOM     11  C   UNL A   1      30.240  24.140  23.696  1.00  0.00     0.007 C 
ENDBRANCH   9  10
BRANCH   9  12
ATOM     12  C   UNL A   1      33.021  21.783  25.360  1.00  0.00     0.058 C 
ATOM     13  C   UNL A   1      33.574  21.489  26.769  1.00  0.00     0.016 C 
BRANCH  12  14
ATOM     14  C   UNL A   1      32.732  20.410  24.734  1.00  0.00    -0.038 A 
ATOM     15  C   UNL A   1      32.412  20.242  23.376  1.00  0.00     0.008 A 
ATOM     16  C   UNL A   1      32.901  19.254  25.503  1.00  0.00     0.054 A 
ATOM     17  C   UNL A   1      32.393  18.954  22.807  1.00  0.00     0.051 A 
ATOM     18  C   UNL A   1      32.798  17.997  24.975  1.00  0.00     0.161 A 
ATOM     19  C   UNL A   1      32.671  17.849  23.608  1.00  0.00     0.161 A 
ATOM     20  O   UNL A   1      33.015  16.970  25.843  1.00  0.00    -0.486 OA
ATOM     21  O   UNL A   1      33.047  16.649  23.051  1.00  0.00    -0.486 OA
ATOM     22  C   UNL A   1      33.867  15.981  25.273  1.00  0.00     0.271 C 
ATOM     23  C   UNL A   1      34.212  16.234  23.803  1.00  0.00     0.271 C 
ENDBRANCH  12  14
ENDBRANCH   9  12
BRANCH   9  24
ATOM     24  O   UNL A   1      30.652  22.044  25.941  1.00  0.00    -0.379 OA
ATOM     25  H   UNL A   1      30.562  21.173  25.522  1.00  0.00     0.212 HD
ENDBRANCH   9  24
ENDBRANCH   6   9
ENDBRANCH   4   5
ENDBRANCH   3   4
ENDBRANCH   2   3
ENDBRANCH   1   2
BRANCH   1  26
ATOM     26  C   UNL A   1      36.900  22.269  25.129  1.00  0.00     0.021 C 
BRANCH  26  27
ATOM     27  C   UNL A   1      37.991  22.865  26.010  1.00  0.00     0.116 C 
BRANCH  27  28
ATOM     28  N   UNL A   1      39.085  21.928  26.205  1.00  0.00    -0.352 N 
ATOM     29  C   UNL A   1      40.400  22.173  26.487  1.00  0.00     0.251 C 
ATOM     30  H   UNL A   1      38.843  20.977  26.121  1.00  0.00     0.163 HD
ATOM     31  O   UNL A   1      41.229  21.268  26.354  1.00  0.00    -0.269 OA
BRANCH  29  32
ATOM     32  C   UNL A   1      40.824  23.514  26.933  1.00  0.00     0.039 A 
ATOM     33  C   UNL A   1      40.851  24.557  26.005  1.00  0.00     0.014 A 
ATOM     34  C   UNL A   1      41.209  23.741  28.258  1.00  0.00     0.014 A 
ATOM     35  C   UNL A   1      41.210  25.840  26.421  1.00  0.00     0.010 A 
ATOM     36  C   UNL A   1      41.492  25.035  28.686  1.00  0.00     0.010 A 
ATOM     37  C   UNL A   1      41.498  26.098  27.772  1.00  0.00    -0.014 A 
BRANCH  37  38
ATOM     38  C   UNL A   1      41.794  27.479  28.236  1.00  0.00     0.031 A 
ATOM     39  C   UNL A   1      43.213  27.975  28.289  1.00  0.00     0.074 A 
ATOM     40  C   UNL A   1      40.782  28.268  28.648  1.00  0.00     0.049 A 
ATOM     41  N   UNL A   1      43.669  29.131  28.700  1.00  0.00    -0.248 NA
ATOM     42  C   UNL A   1      44.260  27.044  27.841  1.00  0.00     0.031 C 
ATOM     43  C   UNL A   1      39.369  27.879  28.679  1.00  0.00     0.029 A 
ATOM     44  N   UNL A   1      40.778  29.556  29.119  1.00  0.00    -0.354 N 
ATOM     45  C   UNL A   1      45.052  29.067  28.563  1.00  0.00     0.074 A 
ATOM     46  C   UNL A   1      45.362  27.734  28.092  1.00  0.00     0.031 C 
ATOM     47  C   UNL A   1      38.636  28.918  29.111  1.00  0.00     0.029 A 
ATOM     48  C   UNL A   1      39.525  30.025  29.441  1.00  0.00     0.049 A 
ATOM     49  H   UNL A   1      41.597  30.095  29.218  1.00  0.00     0.167 HD
ATOM     50  C   UNL A   1      45.971  30.038  28.786  1.00  0.00     0.034 A 
ATOM     51  C   UNL A   1      39.137  31.210  29.956  1.00  0.00     0.034 A 
ATOM     52  C   UNL A   1      45.642  31.363  29.252  1.00  0.00     0.049 A 
ATOM     53  C   UNL A   1      40.189  32.257  30.233  1.00  0.00     0.074 A 
ATOM     54  C   UNL A   1      46.492  32.435  29.468  1.00  0.00     0.029 A 
ATOM     55  N   UNL A   1      44.365  31.799  29.582  1.00  0.00    -0.354 N 
ATOM     56  N   UNL A   1      41.487  32.195  30.046  1.00  0.00    -0.248 NA
ATOM     57  C   UNL A   1      39.718  33.537  30.778  1.00  0.00     0.031 C 
ATOM     58  C   UNL A   1      45.742  33.489  30.000  1.00  0.00     0.029 A 
ATOM     59  C   UNL A   1      44.410  33.109  30.034  1.00  0.00     0.049 A 
ATOM     60  H   UNL A   1      43.547  31.256  29.506  1.00  0.00     0.167 HD
ATOM     61  C   UNL A   1      41.982  33.443  30.422  1.00  0.00     0.074 A 
ATOM     62  C   UNL A   1      40.840  34.238  30.818  1.00  0.00     0.031 C 
ATOM     63  C   UNL A   1      43.264  33.890  30.438  1.00  0.00     0.034 A 
BRANCH  50  64
ATOM     64  C   UNL A   1      47.422  29.694  28.547  1.00  0.00     0.023 A 
ATOM     65  C   UNL A   1      48.215  29.099  29.545  1.00  0.00     0.031 A 
ATOM     66  C   UNL A   1      48.024  29.962  27.304  1.00  0.00     0.131 A 
ATOM     67  C   UNL A   1      49.574  28.847  29.304  1.00  0.00     0.055 A 
ATOM     68  C   UNL A   1      49.356  29.635  27.044  1.00  0.00     0.041 A 
ATOM     69  F   UNL A   1      47.326  30.549  26.320  1.00  0.00    -0.206 F 
ATOM     70  C   UNL A   1      50.144  29.085  28.052  1.00  0.00     0.022 A 
BRANCH  67  71
ATOM     71  S   UNL A   1      50.618  28.324  30.692  1.00  0.00     0.124 S 
ATOM     72  O   UNL A   1      51.952  28.393  30.100  1.00  0.00    -0.237 OA
ATOM     73  O   UNL A   1      50.317  29.327  31.708  1.00  0.00    -0.237 OA
ATOM     74  O   UNL A   1      50.143  26.974  30.988  1.00  0.00    -0.744 OA
ENDBRANCH  67  71
ENDBRANCH  50  64
BRANCH  51  75
ATOM     75  C   UNL A   1      37.702  31.474  30.264  1.00  0.00     0.023 A 
ATOM     76  C   UNL A   1      36.830  31.974  29.284  1.00  0.00     0.031 A 
ATOM     77  C   UNL A   1      37.195  31.299  31.565  1.00  0.00     0.131 A 
ATOM     78  C   UNL A   1      35.522  32.344  29.631  1.00  0.00     0.055 A 
ATOM     79  C   UNL A   1      35.872  31.603  31.890  1.00  0.00     0.041 A 
ATOM     80  F   UNL A   1      37.982  30.822  32.543  1.00  0.00    -0.206 F 
ATOM     81  C   UNL A   1      35.031  32.147  30.925  1.00  0.00     0.022 A 
BRANCH  78  82
ATOM     82  S   UNL A   1      34.507  33.201  28.396  1.00  0.00     0.124 S 
ATOM     83  O   UNL A   1      35.521  33.721  27.489  1.00  0.00    -0.237 OA
ATOM     84  O   UNL A   1      33.678  32.117  27.881  1.00  0.00    -0.237 OA
ATOM     85  O   UNL A   1      33.795  34.208  29.183  1.00  0.00    -0.744 OA
ENDBRANCH  78  82
ENDBRANCH  51  75
BRANCH  63  86
ATOM     86  C   UNL A   1      43.483  35.322  30.862  1.00  0.00     0.023 A 
ATOM     87  C   UNL A   1      43.459  36.380  29.937  1.00  0.00     0.031 A 
ATOM     88  C   UNL A   1      43.745  35.631  32.209  1.00  0.00     0.131 A 
ATOM     89  C   UNL A   1      43.763  37.684  30.356  1.00  0.00     0.055 A 
ATOM     90  C   UNL A   1      43.976  36.940  32.632  1.00  0.00     0.041 A 
ATOM     91  F   UNL A   1      43.785  34.661  33.137  1.00  0.00    -0.206 F 
ATOM     92  C   UNL A   1      44.003  37.974  31.702  1.00  0.00     0.022 A 
BRANCH  89  93
ATOM     93  S   UNL A   1      43.956  38.978  29.100  1.00  0.00     0.124 S 
ATOM     94  O   UNL A   1      44.732  39.984  29.818  1.00  0.00    -0.237 OA
ATOM     95  O   UNL A   1      44.660  38.274  28.032  1.00  0.00    -0.237 OA
ATOM     96  O   UNL A   1      42.581  39.362  28.787  1.00  0.00    -0.744 OA
ENDBRANCH  89  93
ENDBRANCH  63  86
ENDBRANCH  37  38
ENDBRANCH  29  32
ENDBRANCH  27  28
ENDBRANCH  26  27
ENDBRANCH   1  26
TORSDOF 20
ENDMDL
