MODEL 1
REMARK VINA RESULT:     -10.8      0.000      0.000
REMARK SMILES C[NH+](C)CC[NH2+][C@@H](C(=O)NCCCCCCNC(=O)c1ccc(-c2c3nc(c(-c4cc(S(=O)(=O)[O-])ccc4F)c4ccc([nH]4)c(-c4cc(S(=O)(=O)[O-])ccc4F)c4nc(c(-c5cc(S(=O)(=O)[O-])ccc5F)c5ccc2[nH]5)C=C4)C=C3)cc1)c1cccc(C2CC2)c1
REMARK SMILES IDX 13 1 12 2 11 3 10 4 8 5 9 6 7 8 6 9 5 12 4 13 2 14 1 15 3 16
REMARK SMILES IDX 83 18 84 19 91 20 85 21 87 22 86 23 88 24 89 25 90 26 14 27
REMARK SMILES IDX 15 28 16 29 17 30 18 31 19 33 20 34 21 35 82 36 22 37 81 38
REMARK SMILES IDX 23 39 24 40 25 41 75 42 26 43 80 44 74 45 76 46 27 47 79 48
REMARK SMILES IDX 73 49 72 50 28 52 60 53 40 54 59 55 41 56 44 57 58 58 77 59
REMARK SMILES IDX 42 60 43 61 57 63 78 64 45 65 29 66 30 67 38 68 31 69 37 70
REMARK SMILES IDX 39 71 36 72 32 73 33 74 34 75 35 76 61 77 62 78 70 79 63 80
REMARK SMILES IDX 69 81 71 82 68 83 64 84 65 85 66 86 67 87 46 88 47 89 55 90
REMARK SMILES IDX 48 91 54 92 56 93 53 94 49 95 50 96 51 97 52 98
REMARK H PARENT 10 7 6 10 6 11 2 17 17 32 76 51 44 62
REMARK Flexibility Score: inf
ROOT
ATOM      1  C   UNL A   1      32.449  29.406  27.149  1.00  0.00     0.002 C 
ENDROOT
BRANCH   1   2
ATOM      2  C   UNL A   1      33.862  28.923  26.824  1.00  0.00     0.021 C 
BRANCH   2   3
ATOM      3  C   UNL A   1      33.937  27.587  26.062  1.00  0.00     0.116 C 
BRANCH   3   4
ATOM      4  N   UNL A   1      33.560  27.804  24.678  1.00  0.00    -0.351 N 
ATOM      5  C   UNL A   1      32.766  27.050  23.857  1.00  0.00     0.283 C 
ATOM      6  O   UNL A   1      33.068  27.085  22.658  1.00  0.00    -0.268 OA
ATOM      7  H   UNL A   1      33.931  28.618  24.266  1.00  0.00     0.163 HD
BRANCH   5   8
ATOM      8  C   UNL A   1      31.525  26.239  24.395  1.00  0.00     0.304 C 
BRANCH   8   9
ATOM      9  N   UNL A   1      31.405  24.888  23.786  1.00  0.00    -0.328 N 
ATOM     10  H   UNL A   1      30.554  24.457  24.146  1.00  0.00     0.347 HD
ATOM     11  H   UNL A   1      31.397  25.037  22.777  1.00  0.00     0.347 HD
BRANCH   9  12
ATOM     12  C   UNL A   1      32.509  23.981  24.043  1.00  0.00     0.323 C 
BRANCH  12  13
ATOM     13  C   UNL A   1      32.659  23.483  25.501  1.00  0.00     0.323 C 
BRANCH  13  14
ATOM     14  N   UNL A   1      33.611  22.397  25.797  1.00  0.00    -0.335 N 
ATOM     15  C   UNL A   1      34.319  21.875  24.638  1.00  0.00     0.332 C 
ATOM     16  C   UNL A   1      34.516  22.665  26.907  1.00  0.00     0.332 C 
ATOM     17  H   UNL A   1      32.993  21.648  26.111  1.00  0.00     0.347 HD
ENDBRANCH  13  14
ENDBRANCH  12  13
ENDBRANCH   9  12
ENDBRANCH   8   9
BRANCH   8  18
ATOM     18  C   UNL A   1      30.243  27.025  24.042  1.00  0.00     0.019 A 
ATOM     19  C   UNL A   1      29.001  26.365  23.985  1.00  0.00     0.010 A 
ATOM     20  C   UNL A   1      30.283  28.390  23.704  1.00  0.00     0.014 A 
ATOM     21  C   UNL A   1      27.845  27.034  23.607  1.00  0.00     0.001 A 
ATOM     22  C   UNL A   1      29.126  29.093  23.300  1.00  0.00    -0.044 A 
ATOM     23  C   UNL A   1      27.914  28.379  23.267  1.00  0.00     0.004 A 
BRANCH  22  24
ATOM     24  C   UNL A   1      29.114  30.549  22.874  1.00  0.00     0.019 C 
ATOM     25  C   UNL A   1      27.900  31.437  22.922  1.00  0.00     0.009 C 
ATOM     26  C   UNL A   1      28.987  31.609  23.943  1.00  0.00     0.009 C 
ENDBRANCH  22  24
ENDBRANCH   8  18
ENDBRANCH   5   8
ENDBRANCH   3   4
ENDBRANCH   2   3
ENDBRANCH   1   2
BRANCH   1  27
ATOM     27  C   UNL A   1      31.899  30.447  26.181  1.00  0.00     0.002 C 
BRANCH  27  28
ATOM     28  C   UNL A   1      31.651  31.825  26.798  1.00  0.00     0.021 C 
BRANCH  28  29
ATOM     29  C   UNL A   1      32.886  32.474  27.416  1.00  0.00     0.116 C 
BRANCH  29  30
ATOM     30  N   UNL A   1      32.684  33.897  27.637  1.00  0.00    -0.352 N 
ATOM     31  C   UNL A   1      33.221  34.692  28.621  1.00  0.00     0.251 C 
ATOM     32  H   UNL A   1      32.086  34.349  27.000  1.00  0.00     0.163 HD
ATOM     33  O   UNL A   1      32.744  35.794  28.856  1.00  0.00    -0.269 OA
BRANCH  31  34
ATOM     34  C   UNL A   1      34.376  34.187  29.394  1.00  0.00     0.039 A 
ATOM     35  C   UNL A   1      34.155  33.422  30.539  1.00  0.00     0.014 A 
ATOM     36  C   UNL A   1      35.678  34.459  28.962  1.00  0.00     0.014 A 
ATOM     37  C   UNL A   1      35.246  32.883  31.226  1.00  0.00     0.010 A 
ATOM     38  C   UNL A   1      36.757  33.860  29.604  1.00  0.00     0.010 A 
ATOM     39  C   UNL A   1      36.553  33.072  30.747  1.00  0.00    -0.014 A 
BRANCH  39  40
ATOM     40  C   UNL A   1      37.730  32.482  31.438  1.00  0.00     0.031 A 
ATOM     41  C   UNL A   1      38.497  31.367  30.774  1.00  0.00     0.074 A 
ATOM     42  C   UNL A   1      38.064  32.894  32.679  1.00  0.00     0.049 A 
ATOM     43  N   UNL A   1      39.471  30.637  31.249  1.00  0.00    -0.248 NA
ATOM     44  C   UNL A   1      38.092  31.009  29.405  1.00  0.00     0.031 C 
ATOM     45  C   UNL A   1      37.382  33.950  33.431  1.00  0.00     0.029 A 
ATOM     46  N   UNL A   1      39.049  32.465  33.534  1.00  0.00    -0.354 N 
ATOM     47  C   UNL A   1      39.779  29.719  30.250  1.00  0.00     0.074 A 
ATOM     48  C   UNL A   1      38.856  29.954  29.162  1.00  0.00     0.031 C 
ATOM     49  C   UNL A   1      37.981  34.099  34.624  1.00  0.00     0.029 A 
ATOM     50  C   UNL A   1      39.050  33.112  34.750  1.00  0.00     0.049 A 
ATOM     51  H   UNL A   1      39.696  31.761  33.299  1.00  0.00     0.167 HD
ATOM     52  C   UNL A   1      40.754  28.778  30.237  1.00  0.00     0.034 A 
ATOM     53  C   UNL A   1      39.809  32.916  35.848  1.00  0.00     0.034 A 
ATOM     54  C   UNL A   1      41.683  28.576  31.320  1.00  0.00     0.049 A 
ATOM     55  C   UNL A   1      40.866  31.836  35.816  1.00  0.00     0.074 A 
ATOM     56  C   UNL A   1      42.751  27.696  31.381  1.00  0.00     0.029 A 
ATOM     57  N   UNL A   1      41.656  29.253  32.531  1.00  0.00    -0.354 N 
ATOM     58  N   UNL A   1      41.177  31.012  34.840  1.00  0.00    -0.248 NA
ATOM     59  C   UNL A   1      41.682  31.663  37.026  1.00  0.00     0.031 C 
ATOM     60  C   UNL A   1      43.316  27.783  32.656  1.00  0.00     0.029 A 
ATOM     61  C   UNL A   1      42.665  28.784  33.359  1.00  0.00     0.049 A 
ATOM     62  H   UNL A   1      41.015  29.962  32.768  1.00  0.00     0.167 HD
ATOM     63  C   UNL A   1      42.256  30.263  35.306  1.00  0.00     0.074 A 
ATOM     64  C   UNL A   1      42.546  30.736  36.642  1.00  0.00     0.031 C 
ATOM     65  C   UNL A   1      42.951  29.278  34.683  1.00  0.00     0.034 A 
BRANCH  52  66
ATOM     66  C   UNL A   1      40.852  27.874  29.033  1.00  0.00     0.023 A 
ATOM     67  C   UNL A   1      41.815  28.072  28.031  1.00  0.00     0.031 A 
ATOM     68  C   UNL A   1      39.978  26.779  28.902  1.00  0.00     0.131 A 
ATOM     69  C   UNL A   1      41.853  27.217  26.919  1.00  0.00     0.055 A 
ATOM     70  C   UNL A   1      40.069  25.888  27.833  1.00  0.00     0.041 A 
ATOM     71  F   UNL A   1      39.021  26.555  29.818  1.00  0.00    -0.206 F 
ATOM     72  C   UNL A   1      41.006  26.109  26.828  1.00  0.00     0.022 A 
BRANCH  69  73
ATOM     73  S   UNL A   1      42.953  27.633  25.539  1.00  0.00     0.124 S 
ATOM     74  O   UNL A   1      42.069  28.423  24.686  1.00  0.00    -0.237 OA
ATOM     75  O   UNL A   1      44.025  28.368  26.201  1.00  0.00    -0.237 OA
ATOM     76  O   UNL A   1      43.332  26.330  24.997  1.00  0.00    -0.744 OA
ENDBRANCH  69  73
ENDBRANCH  52  66
BRANCH  53  77
ATOM     77  C   UNL A   1      39.599  33.725  37.086  1.00  0.00     0.023 A 
ATOM     78  C   UNL A   1      38.947  33.178  38.203  1.00  0.00     0.031 A 
ATOM     79  C   UNL A   1      39.957  35.085  37.139  1.00  0.00     0.131 A 
ATOM     80  C   UNL A   1      38.602  34.000  39.287  1.00  0.00     0.055 A 
ATOM     81  C   UNL A   1      39.679  35.881  38.252  1.00  0.00     0.041 A 
ATOM     82  F   UNL A   1      40.582  35.665  36.102  1.00  0.00    -0.206 F 
ATOM     83  C   UNL A   1      38.977  35.344  39.327  1.00  0.00     0.022 A 
BRANCH  80  84
ATOM     84  S   UNL A   1      37.523  33.321  40.579  1.00  0.00     0.124 S 
ATOM     85  O   UNL A   1      38.355  32.253  41.125  1.00  0.00    -0.237 OA
ATOM     86  O   UNL A   1      37.318  34.481  41.441  1.00  0.00    -0.237 OA
ATOM     87  O   UNL A   1      36.344  32.879  39.837  1.00  0.00    -0.744 OA
ENDBRANCH  80  84
ENDBRANCH  53  77
BRANCH  65  88
ATOM     88  C   UNL A   1      44.143  28.700  35.407  1.00  0.00     0.023 A 
ATOM     89  C   UNL A   1      44.024  27.628  36.308  1.00  0.00     0.031 A 
ATOM     90  C   UNL A   1      45.425  29.231  35.175  1.00  0.00     0.131 A 
ATOM     91  C   UNL A   1      45.162  27.151  36.978  1.00  0.00     0.055 A 
ATOM     92  C   UNL A   1      46.560  28.709  35.793  1.00  0.00     0.041 A 
ATOM     93  F   UNL A   1      45.597  30.257  34.327  1.00  0.00    -0.206 F 
ATOM     94  C   UNL A   1      46.431  27.671  36.710  1.00  0.00     0.022 A 
BRANCH  91  95
ATOM     95  S   UNL A   1      44.951  25.895  38.268  1.00  0.00     0.124 S 
ATOM     96  O   UNL A   1      44.392  26.677  39.366  1.00  0.00    -0.237 OA
ATOM     97  O   UNL A   1      44.042  24.946  37.635  1.00  0.00    -0.237 OA
ATOM     98  O   UNL A   1      46.308  25.397  38.488  1.00  0.00    -0.744 OA
ENDBRANCH  91  95
ENDBRANCH  65  88
ENDBRANCH  39  40
ENDBRANCH  31  34
ENDBRANCH  29  30
ENDBRANCH  28  29
ENDBRANCH  27  28
ENDBRANCH   1  27
TORSDOF 22
ENDMDL
MODEL 2
REMARK VINA RESULT:     -10.5      5.282      8.432
REMARK SMILES C[NH+](C)CC[NH2+][C@@H](C(=O)NCCCCCCNC(=O)c1ccc(-c2c3nc(c(-c4cc(S(=O)(=O)[O-])ccc4F)c4ccc([nH]4)c(-c4cc(S(=O)(=O)[O-])ccc4F)c4nc(c(-c5cc(S(=O)(=O)[O-])ccc5F)c5ccc2[nH]5)C=C4)C=C3)cc1)c1cccc(C2CC2)c1
REMARK SMILES IDX 13 1 12 2 11 3 10 4 8 5 9 6 7 8 6 9 5 12 4 13 2 14 1 15 3 16
REMARK SMILES IDX 83 18 84 19 91 20 85 21 87 22 86 23 88 24 89 25 90 26 14 27
REMARK SMILES IDX 15 28 16 29 17 30 18 31 19 33 20 34 21 35 82 36 22 37 81 38
REMARK SMILES IDX 23 39 24 40 25 41 75 42 26 43 80 44 74 45 76 46 27 47 79 48
REMARK SMILES IDX 73 49 72 50 28 52 60 53 40 54 59 55 41 56 44 57 58 58 77 59
REMARK SMILES IDX 42 60 43 61 57 63 78 64 45 65 29 66 30 67 38 68 31 69 37 70
REMARK SMILES IDX 39 71 36 72 32 73 33 74 34 75 35 76 61 77 62 78 70 79 63 80
REMARK SMILES IDX 69 81 71 82 68 83 64 84 65 85 66 86 67 87 46 88 47 89 55 90
REMARK SMILES IDX 48 91 54 92 56 93 53 94 49 95 50 96 51 97 52 98
REMARK H PARENT 10 7 6 10 6 11 2 17 17 32 76 51 44 62
REMARK Flexibility Score: inf
ROOT
ATOM      1  C   UNL A   1      33.292  22.603  24.814  1.00  0.00     0.002 C 
ENDROOT
BRANCH   1   2
ATOM      2  C   UNL A   1      33.327  22.230  23.333  1.00  0.00     0.021 C 
BRANCH   2   3
ATOM      3  C   UNL A   1      32.432  23.088  22.420  1.00  0.00     0.116 C 
BRANCH   3   4
ATOM      4  N   UNL A   1      33.160  24.277  22.017  1.00  0.00    -0.351 N 
ATOM      5  C   UNL A   1      32.697  25.526  21.707  1.00  0.00     0.283 C 
ATOM      6  O   UNL A   1      33.364  26.138  20.863  1.00  0.00    -0.268 OA
ATOM      7  H   UNL A   1      34.137  24.168  21.959  1.00  0.00     0.163 HD
BRANCH   5   8
ATOM      8  C   UNL A   1      31.436  26.157  22.411  1.00  0.00     0.304 C 
BRANCH   8   9
ATOM      9  N   UNL A   1      31.206  27.576  22.031  1.00  0.00    -0.328 N 
ATOM     10  H   UNL A   1      31.926  28.142  22.479  1.00  0.00     0.347 HD
ATOM     11  H   UNL A   1      31.238  27.600  21.011  1.00  0.00     0.347 HD
BRANCH   9  12
ATOM     12  C   UNL A   1      29.913  28.125  22.398  1.00  0.00     0.323 C 
BRANCH  12  13
ATOM     13  C   UNL A   1      29.936  29.378  23.308  1.00  0.00     0.323 C 
BRANCH  13  14
ATOM     14  N   UNL A   1      28.961  30.457  23.073  1.00  0.00    -0.335 N 
ATOM     15  C   UNL A   1      27.576  30.019  22.989  1.00  0.00     0.332 C 
ATOM     16  C   UNL A   1      29.109  31.614  23.947  1.00  0.00     0.332 C 
ATOM     17  H   UNL A   1      29.213  30.776  22.136  1.00  0.00     0.347 HD
ENDBRANCH  13  14
ENDBRANCH  12  13
ENDBRANCH   9  12
ENDBRANCH   8   9
BRANCH   8  18
ATOM     18  C   UNL A   1      31.663  26.115  23.939  1.00  0.00     0.019 A 
ATOM     19  C   UNL A   1      30.822  25.337  24.759  1.00  0.00     0.010 A 
ATOM     20  C   UNL A   1      32.656  26.894  24.559  1.00  0.00     0.014 A 
ATOM     21  C   UNL A   1      30.964  25.334  26.139  1.00  0.00     0.001 A 
ATOM     22  C   UNL A   1      32.814  26.923  25.964  1.00  0.00    -0.044 A 
ATOM     23  C   UNL A   1      31.946  26.121  26.728  1.00  0.00     0.004 A 
BRANCH  22  24
ATOM     24  C   UNL A   1      33.830  27.781  26.694  1.00  0.00     0.019 C 
ATOM     25  C   UNL A   1      34.378  29.079  26.167  1.00  0.00     0.009 C 
ATOM     26  C   UNL A   1      33.371  29.096  27.279  1.00  0.00     0.009 C 
ENDBRANCH  22  24
ENDBRANCH   8  18
ENDBRANCH   5   8
ENDBRANCH   3   4
ENDBRANCH   2   3
ENDBRANCH   1   2
BRANCH   1  27
ATOM     27  C   UNL A   1      34.448  23.486  25.269  1.00  0.00     0.002 C 
BRANCH  27  28
ATOM     28  C   UNL A   1      35.709  23.381  24.408  1.00  0.00     0.021 C 
BRANCH  28  29
ATOM     29  C   UNL A   1      36.988  23.845  25.098  1.00  0.00     0.116 C 
BRANCH  29  30
ATOM     30  N   UNL A   1      37.712  22.728  25.683  1.00  0.00    -0.352 N 
ATOM     31  C   UNL A   1      38.908  22.747  26.359  1.00  0.00     0.251 C 
ATOM     32  H   UNL A   1      37.290  21.844  25.582  1.00  0.00     0.163 HD
ATOM     33  O   UNL A   1      39.533  21.710  26.540  1.00  0.00    -0.269 OA
BRANCH  31  34
ATOM     34  C   UNL A   1      39.428  24.040  26.851  1.00  0.00     0.039 A 
ATOM     35  C   UNL A   1      40.095  24.893  25.971  1.00  0.00     0.014 A 
ATOM     36  C   UNL A   1      39.230  24.410  28.186  1.00  0.00     0.014 A 
ATOM     37  C   UNL A   1      40.519  26.147  26.419  1.00  0.00     0.010 A 
ATOM     38  C   UNL A   1      39.587  25.686  28.607  1.00  0.00     0.010 A 
ATOM     39  C   UNL A   1      40.242  26.565  27.731  1.00  0.00    -0.014 A 
BRANCH  39  40
ATOM     40  C   UNL A   1      40.652  27.907  28.225  1.00  0.00     0.031 A 
ATOM     41  C   UNL A   1      42.116  28.222  28.388  1.00  0.00     0.074 A 
ATOM     42  C   UNL A   1      39.716  28.807  28.591  1.00  0.00     0.049 A 
ATOM     43  N   UNL A   1      42.681  29.277  28.913  1.00  0.00    -0.248 NA
ATOM     44  C   UNL A   1      43.068  27.199  27.925  1.00  0.00     0.031 C 
ATOM     45  C   UNL A   1      38.268  28.607  28.499  1.00  0.00     0.029 A 
ATOM     46  N   UNL A   1      39.840  30.065  29.129  1.00  0.00    -0.354 N 
ATOM     47  C   UNL A   1      44.051  29.036  28.866  1.00  0.00     0.074 A 
ATOM     48  C   UNL A   1      44.228  27.715  28.306  1.00  0.00     0.031 C 
ATOM     49  C   UNL A   1      37.641  29.709  28.945  1.00  0.00     0.029 A 
ATOM     50  C   UNL A   1      38.635  30.670  29.412  1.00  0.00     0.049 A 
ATOM     51  H   UNL A   1      40.710  30.494  29.297  1.00  0.00     0.167 HD
ATOM     52  C   UNL A   1      45.066  29.851  29.242  1.00  0.00     0.034 A 
ATOM     53  C   UNL A   1      38.365  31.854  30.000  1.00  0.00     0.034 A 
ATOM     54  C   UNL A   1      44.871  31.177  29.774  1.00  0.00     0.049 A 
ATOM     55  C   UNL A   1      39.518  32.726  30.440  1.00  0.00     0.074 A 
ATOM     56  C   UNL A   1      45.832  32.110  30.122  1.00  0.00     0.029 A 
ATOM     57  N   UNL A   1      43.639  31.756  30.039  1.00  0.00    -0.354 N 
ATOM     58  N   UNL A   1      40.809  32.503  30.339  1.00  0.00    -0.248 NA
ATOM     59  C   UNL A   1      39.182  34.014  31.064  1.00  0.00     0.031 C 
ATOM     60  C   UNL A   1      45.184  33.218  30.675  1.00  0.00     0.029 A 
ATOM     61  C   UNL A   1      43.817  33.019  30.583  1.00  0.00     0.049 A 
ATOM     62  H   UNL A   1      42.767  31.333  29.868  1.00  0.00     0.167 HD
ATOM     63  C   UNL A   1      41.432  33.645  30.839  1.00  0.00     0.074 A 
ATOM     64  C   UNL A   1      40.379  34.555  31.234  1.00  0.00     0.031 C 
ATOM     65  C   UNL A   1      42.755  33.921  30.956  1.00  0.00     0.034 A 
BRANCH  52  66
ATOM     66  C   UNL A   1      46.476  29.328  29.123  1.00  0.00     0.023 A 
ATOM     67  C   UNL A   1      47.136  29.243  27.886  1.00  0.00     0.031 A 
ATOM     68  C   UNL A   1      47.179  28.932  30.275  1.00  0.00     0.131 A 
ATOM     69  C   UNL A   1      48.441  28.731  27.824  1.00  0.00     0.055 A 
ATOM     70  C   UNL A   1      48.503  28.495  30.216  1.00  0.00     0.041 A 
ATOM     71  F   UNL A   1      46.591  28.970  31.482  1.00  0.00    -0.206 F 
ATOM     72  C   UNL A   1      49.139  28.384  28.983  1.00  0.00     0.022 A 
BRANCH  69  73
ATOM     73  S   UNL A   1      49.176  28.422  26.195  1.00  0.00     0.124 S 
ATOM     74  O   UNL A   1      49.618  27.037  26.330  1.00  0.00    -0.237 OA
ATOM     75  O   UNL A   1      48.053  28.650  25.294  1.00  0.00    -0.237 OA
ATOM     76  O   UNL A   1      50.252  29.408  26.112  1.00  0.00    -0.744 OA
ENDBRANCH  69  73
ENDBRANCH  52  66
BRANCH  53  77
ATOM     77  C   UNL A   1      36.957  32.290  30.243  1.00  0.00     0.023 A 
ATOM     78  C   UNL A   1      36.221  32.944  29.240  1.00  0.00     0.031 A 
ATOM     79  C   UNL A   1      36.357  32.149  31.507  1.00  0.00     0.131 A 
ATOM     80  C   UNL A   1      34.968  33.501  29.540  1.00  0.00     0.055 A 
ATOM     81  C   UNL A   1      35.078  32.640  31.779  1.00  0.00     0.041 A 
ATOM     82  F   UNL A   1      37.010  31.534  32.506  1.00  0.00    -0.206 F 
ATOM     83  C   UNL A   1      34.384  33.340  30.797  1.00  0.00     0.022 A 
BRANCH  80  84
ATOM     84  S   UNL A   1      34.179  34.570  28.303  1.00  0.00     0.124 S 
ATOM     85  O   UNL A   1      32.871  33.940  28.162  1.00  0.00    -0.237 OA
ATOM     86  O   UNL A   1      34.200  35.868  28.969  1.00  0.00    -0.237 OA
ATOM     87  O   UNL A   1      35.060  34.451  27.142  1.00  0.00    -0.744 OA
ENDBRANCH  80  84
ENDBRANCH  53  77
BRANCH  65  88
ATOM     88  C   UNL A   1      43.140  35.292  31.457  1.00  0.00     0.023 A 
ATOM     89  C   UNL A   1      43.430  36.354  30.585  1.00  0.00     0.031 A 
ATOM     90  C   UNL A   1      43.202  35.537  32.842  1.00  0.00     0.131 A 
ATOM     91  C   UNL A   1      43.814  37.600  31.106  1.00  0.00     0.055 A 
ATOM     92  C   UNL A   1      43.519  36.794  33.353  1.00  0.00     0.041 A 
ATOM     93  F   UNL A   1      42.938  34.557  33.722  1.00  0.00    -0.206 F 
ATOM     94  C   UNL A   1      43.840  37.832  32.484  1.00  0.00     0.022 A 
BRANCH  91  95
ATOM     95  S   UNL A   1      44.360  38.894  29.959  1.00  0.00     0.124 S 
ATOM     96  O   UNL A   1      43.487  38.670  28.810  1.00  0.00    -0.237 OA
ATOM     97  O   UNL A   1      44.110  40.113  30.720  1.00  0.00    -0.237 OA
ATOM     98  O   UNL A   1      45.771  38.582  29.736  1.00  0.00    -0.744 OA
ENDBRANCH  91  95
ENDBRANCH  65  88
ENDBRANCH  39  40
ENDBRANCH  31  34
ENDBRANCH  29  30
ENDBRANCH  28  29
ENDBRANCH  27  28
ENDBRANCH   1  27
TORSDOF 22
ENDMDL
MODEL 3
REMARK VINA RESULT:     -10.4      1.846      3.891
REMARK SMILES C[NH+](C)CC[NH2+][C@@H](C(=O)NCCCCCCNC(=O)c1ccc(-c2c3nc(c(-c4cc(S(=O)(=O)[O-])ccc4F)c4ccc([nH]4)c(-c4cc(S(=O)(=O)[O-])ccc4F)c4nc(c(-c5cc(S(=O)(=O)[O-])ccc5F)c5ccc2[nH]5)C=C4)C=C3)cc1)c1cccc(C2CC2)c1
REMARK SMILES IDX 13 1 12 2 11 3 10 4 8 5 9 6 7 8 6 9 5 12 4 13 2 14 1 15 3 16
REMARK SMILES IDX 83 18 84 19 91 20 85 21 87 22 86 23 88 24 89 25 90 26 14 27
REMARK SMILES IDX 15 28 16 29 17 30 18 31 19 33 20 34 21 35 82 36 22 37 81 38
REMARK SMILES IDX 23 39 24 40 25 41 75 42 26 43 80 44 74 45 76 46 27 47 79 48
REMARK SMILES IDX 73 49 72 50 28 52 60 53 40 54 59 55 41 56 44 57 58 58 77 59
REMARK SMILES IDX 42 60 43 61 57 63 78 64 45 65 29 66 30 67 38 68 31 69 37 70
REMARK SMILES IDX 39 71 36 72 32 73 33 74 34 75 35 76 61 77 62 78 70 79 63 80
REMARK SMILES IDX 69 81 71 82 68 83 64 84 65 85 66 86 67 87 46 88 47 89 55 90
REMARK SMILES IDX 48 91 54 92 56 93 53 94 49 95 50 96 51 97 52 98
REMARK H PARENT 10 7 6 10 6 11 2 17 17 32 76 51 44 62
REMARK Flexibility Score: inf
ROOT
ATOM      1  C   UNL A   1      32.729  29.637  26.208  1.00  0.00     0.002 C 
ENDROOT
BRANCH   1   2
ATOM      2  C   UNL A   1      32.912  28.310  26.943  1.00  0.00     0.021 C 
BRANCH   2   3
ATOM      3  C   UNL A   1      33.306  27.117  26.053  1.00  0.00     0.116 C 
BRANCH   3   4
ATOM      4  N   UNL A   1      32.369  26.030  26.267  1.00  0.00    -0.351 N 
ATOM      5  C   UNL A   1      31.944  25.056  25.406  1.00  0.00     0.283 C 
ATOM      6  O   UNL A   1      30.786  24.663  25.590  1.00  0.00    -0.268 OA
ATOM      7  H   UNL A   1      31.980  25.987  27.171  1.00  0.00     0.163 HD
BRANCH   5   8
ATOM      8  C   UNL A   1      32.880  24.445  24.294  1.00  0.00     0.304 C 
BRANCH   8   9
ATOM      9  N   UNL A   1      32.179  24.216  23.004  1.00  0.00    -0.328 N 
ATOM     10  H   UNL A   1      32.145  23.210  22.840  1.00  0.00     0.347 HD
ATOM     11  H   UNL A   1      31.260  24.648  23.105  1.00  0.00     0.347 HD
BRANCH   9  12
ATOM     12  C   UNL A   1      32.782  24.838  21.839  1.00  0.00     0.323 C 
BRANCH  12  13
ATOM     13  C   UNL A   1      31.983  25.994  21.190  1.00  0.00     0.323 C 
BRANCH  13  14
ATOM     14  N   UNL A   1      31.962  27.313  21.848  1.00  0.00    -0.335 N 
ATOM     15  C   UNL A   1      30.875  27.505  22.794  1.00  0.00     0.332 C 
ATOM     16  C   UNL A   1      33.241  27.738  22.403  1.00  0.00     0.332 C 
ATOM     17  H   UNL A   1      31.771  27.941  21.066  1.00  0.00     0.347 HD
ENDBRANCH  13  14
ENDBRANCH  12  13
ENDBRANCH   9  12
ENDBRANCH   8   9
BRANCH   8  18
ATOM     18  C   UNL A   1      33.396  23.078  24.794  1.00  0.00     0.019 A 
ATOM     19  C   UNL A   1      34.426  23.017  25.754  1.00  0.00     0.010 A 
ATOM     20  C   UNL A   1      32.912  21.868  24.266  1.00  0.00     0.014 A 
ATOM     21  C   UNL A   1      34.952  21.802  26.171  1.00  0.00     0.001 A 
ATOM     22  C   UNL A   1      33.439  20.617  24.660  1.00  0.00    -0.044 A 
ATOM     23  C   UNL A   1      34.463  20.621  25.625  1.00  0.00     0.004 A 
BRANCH  22  24
ATOM     24  C   UNL A   1      32.996  19.283  24.090  1.00  0.00     0.019 C 
ATOM     25  C   UNL A   1      33.814  18.021  24.148  1.00  0.00     0.009 C 
ATOM     26  C   UNL A   1      32.627  18.178  25.052  1.00  0.00     0.009 C 
ENDBRANCH  22  24
ENDBRANCH   8  18
ENDBRANCH   5   8
ENDBRANCH   3   4
ENDBRANCH   2   3
ENDBRANCH   1   2
BRANCH   1  27
ATOM     27  C   UNL A   1      31.509  30.438  26.648  1.00  0.00     0.002 C 
BRANCH  27  28
ATOM     28  C   UNL A   1      31.662  31.955  26.518  1.00  0.00     0.021 C 
BRANCH  28  29
ATOM     29  C   UNL A   1      32.787  32.553  27.359  1.00  0.00     0.116 C 
BRANCH  29  30
ATOM     30  N   UNL A   1      32.582  33.975  27.586  1.00  0.00    -0.352 N 
ATOM     31  C   UNL A   1      33.120  34.767  28.572  1.00  0.00     0.251 C 
ATOM     32  H   UNL A   1      31.980  34.428  26.953  1.00  0.00     0.163 HD
ATOM     33  O   UNL A   1      32.641  35.866  28.813  1.00  0.00    -0.269 OA
BRANCH  31  34
ATOM     34  C   UNL A   1      34.280  34.261  29.338  1.00  0.00     0.039 A 
ATOM     35  C   UNL A   1      34.066  33.557  30.523  1.00  0.00     0.014 A 
ATOM     36  C   UNL A   1      35.578  34.473  28.861  1.00  0.00     0.014 A 
ATOM     37  C   UNL A   1      35.158  33.015  31.207  1.00  0.00     0.010 A 
ATOM     38  C   UNL A   1      36.654  33.869  29.503  1.00  0.00     0.010 A 
ATOM     39  C   UNL A   1      36.456  33.141  30.687  1.00  0.00    -0.014 A 
BRANCH  39  40
ATOM     40  C   UNL A   1      37.633  32.546  31.374  1.00  0.00     0.031 A 
ATOM     41  C   UNL A   1      38.376  31.409  30.722  1.00  0.00     0.074 A 
ATOM     42  C   UNL A   1      37.987  32.975  32.604  1.00  0.00     0.049 A 
ATOM     43  N   UNL A   1      39.346  30.674  31.199  1.00  0.00    -0.248 NA
ATOM     44  C   UNL A   1      37.951  31.034  29.363  1.00  0.00     0.031 C 
ATOM     45  C   UNL A   1      37.329  34.053  33.345  1.00  0.00     0.029 A 
ATOM     46  N   UNL A   1      38.976  32.547  33.456  1.00  0.00    -0.354 N 
ATOM     47  C   UNL A   1      39.630  29.734  30.212  1.00  0.00     0.074 A 
ATOM     48  C   UNL A   1      38.698  29.964  29.130  1.00  0.00     0.031 C 
ATOM     49  C   UNL A   1      37.944  34.214  34.529  1.00  0.00     0.029 A 
ATOM     50  C   UNL A   1      38.999  33.214  34.660  1.00  0.00     0.049 A 
ATOM     51  H   UNL A   1      39.609  31.829  33.226  1.00  0.00     0.167 HD
ATOM     52  C   UNL A   1      40.590  28.779  30.205  1.00  0.00     0.034 A 
ATOM     53  C   UNL A   1      39.768  33.026  35.752  1.00  0.00     0.034 A 
ATOM     54  C   UNL A   1      41.529  28.583  31.281  1.00  0.00     0.049 A 
ATOM     55  C   UNL A   1      40.810  31.931  35.727  1.00  0.00     0.074 A 
ATOM     56  C   UNL A   1      42.585  27.689  31.345  1.00  0.00     0.029 A 
ATOM     57  N   UNL A   1      41.526  29.281  32.480  1.00  0.00    -0.354 N 
ATOM     58  N   UNL A   1      41.098  31.086  34.763  1.00  0.00    -0.248 NA
ATOM     59  C   UNL A   1      41.637  31.767  36.932  1.00  0.00     0.031 C 
ATOM     60  C   UNL A   1      43.166  27.790  32.612  1.00  0.00     0.029 A 
ATOM     61  C   UNL A   1      42.537  28.812  33.304  1.00  0.00     0.049 A 
ATOM     62  H   UNL A   1      40.898  30.003  32.711  1.00  0.00     0.167 HD
ATOM     63  C   UNL A   1      42.172  30.330  35.230  1.00  0.00     0.074 A 
ATOM     64  C   UNL A   1      42.483  30.821  36.554  1.00  0.00     0.031 C 
ATOM     65  C   UNL A   1      42.845  29.324  34.616  1.00  0.00     0.034 A 
BRANCH  52  66
ATOM     66  C   UNL A   1      40.662  27.854  29.015  1.00  0.00     0.023 A 
ATOM     67  C   UNL A   1      41.589  28.046  27.978  1.00  0.00     0.031 A 
ATOM     68  C   UNL A   1      39.801  26.744  28.935  1.00  0.00     0.131 A 
ATOM     69  C   UNL A   1      41.603  27.169  26.882  1.00  0.00     0.055 A 
ATOM     70  C   UNL A   1      39.870  25.833  27.880  1.00  0.00     0.041 A 
ATOM     71  F   UNL A   1      38.879  26.524  29.886  1.00  0.00    -0.206 F 
ATOM     72  C   UNL A   1      40.770  26.048  26.840  1.00  0.00     0.022 A 
BRANCH  69  73
ATOM     73  S   UNL A   1      42.650  27.575  25.459  1.00  0.00     0.124 S 
ATOM     74  O   UNL A   1      42.051  28.825  24.999  1.00  0.00    -0.237 OA
ATOM     75  O   UNL A   1      43.973  27.684  26.061  1.00  0.00    -0.237 OA
ATOM     76  O   UNL A   1      42.465  26.436  24.561  1.00  0.00    -0.744 OA
ENDBRANCH  69  73
ENDBRANCH  52  66
BRANCH  53  77
ATOM     77  C   UNL A   1      39.583  33.860  36.979  1.00  0.00     0.023 A 
ATOM     78  C   UNL A   1      40.429  34.950  37.243  1.00  0.00     0.031 A 
ATOM     79  C   UNL A   1      38.625  33.524  37.952  1.00  0.00     0.131 A 
ATOM     80  C   UNL A   1      40.354  35.612  38.479  1.00  0.00     0.055 A 
ATOM     81  C   UNL A   1      38.504  34.234  39.148  1.00  0.00     0.041 A 
ATOM     82  F   UNL A   1      37.789  32.492  37.756  1.00  0.00    -0.206 F 
ATOM     83  C   UNL A   1      39.388  35.272  39.427  1.00  0.00     0.022 A 
BRANCH  80  84
ATOM     84  S   UNL A   1      41.640  36.826  38.889  1.00  0.00     0.124 S 
ATOM     85  O   UNL A   1      42.463  36.076  39.831  1.00  0.00    -0.237 OA
ATOM     86  O   UNL A   1      42.234  37.087  37.582  1.00  0.00    -0.237 OA
ATOM     87  O   UNL A   1      40.885  37.937  39.464  1.00  0.00    -0.744 OA
ENDBRANCH  80  84
ENDBRANCH  53  77
BRANCH  65  88
ATOM     88  C   UNL A   1      44.037  28.742  35.337  1.00  0.00     0.023 A 
ATOM     89  C   UNL A   1      43.917  27.674  36.242  1.00  0.00     0.031 A 
ATOM     90  C   UNL A   1      45.321  29.265  35.097  1.00  0.00     0.131 A 
ATOM     91  C   UNL A   1      45.054  27.192  36.908  1.00  0.00     0.055 A 
ATOM     92  C   UNL A   1      46.456  28.739  35.713  1.00  0.00     0.041 A 
ATOM     93  F   UNL A   1      45.495  30.288  34.245  1.00  0.00    -0.206 F 
ATOM     94  C   UNL A   1      46.325  27.704  36.633  1.00  0.00     0.022 A 
BRANCH  91  95
ATOM     95  S   UNL A   1      44.842  25.941  38.202  1.00  0.00     0.124 S 
ATOM     96  O   UNL A   1      43.590  26.358  38.826  1.00  0.00    -0.237 OA
ATOM     97  O   UNL A   1      44.789  24.702  37.435  1.00  0.00    -0.237 OA
ATOM     98  O   UNL A   1      46.033  26.102  39.035  1.00  0.00    -0.744 OA
ENDBRANCH  91  95
ENDBRANCH  65  88
ENDBRANCH  39  40
ENDBRANCH  31  34
ENDBRANCH  29  30
ENDBRANCH  28  29
ENDBRANCH  27  28
ENDBRANCH   1  27
TORSDOF 22
ENDMDL
