MODEL 1
REMARK VINA RESULT:     -10.3      0.000      0.000
REMARK SMILES CC(C)(C)[N@H+](CCC(=O)Nc1ccccc1F)CC(=O)NCCCCCCNC(=O)c1ccc(-c2c3nc(c(-c4cc(S(=O)(=O)[O-])ccc4F)c4ccc([nH]4)c(-c4cc(S(=O)(=O)[O-])ccc4F)c4nc(c(-c5cc(S(=O)(=O)[O-])ccc5F)c5ccc2[nH]5)C=C4)C=C3)cc1
REMARK SMILES IDX 23 1 22 2 21 3 19 4 20 5 18 7 5 8 2 10 1 11 3 12 4 13 6 14
REMARK SMILES IDX 7 15 8 16 9 17 10 18 11 20 12 21 16 22 13 23 15 24 17 25
REMARK SMILES IDX 14 26 24 27 25 28 26 29 27 30 28 31 29 32 30 34 31 35 32 36
REMARK SMILES IDX 93 37 33 38 92 39 34 40 35 41 36 42 86 43 37 44 91 45 85 46
REMARK SMILES IDX 87 47 38 48 90 49 84 50 83 51 39 53 71 54 51 55 70 56 52 57
REMARK SMILES IDX 55 58 69 59 88 60 53 61 54 62 68 64 89 65 56 66 40 67 41 68
REMARK SMILES IDX 49 69 42 70 48 71 50 72 47 73 43 74 44 75 45 76 46 77 72 78
REMARK SMILES IDX 73 79 81 80 74 81 80 82 82 83 79 84 75 85 76 86 77 87 78 88
REMARK SMILES IDX 57 89 58 90 66 91 59 92 65 93 67 94 64 95 60 96 61 97 62 98
REMARK SMILES IDX 63 99
REMARK H PARENT 21 6 5 9 10 19 28 33 87 52 55 63
REMARK Flexibility Score: inf
ROOT
ATOM      1  C   UNL A   1      30.485  29.712  23.802  1.00  0.00     0.021 C 
ENDROOT
BRANCH   1   2
ATOM      2  C   UNL A   1      30.023  28.654  22.811  1.00  0.00     0.116 C 
BRANCH   2   3
ATOM      3  N   UNL A   1      28.917  27.894  23.347  1.00  0.00    -0.351 N 
ATOM      4  C   UNL A   1      28.916  26.646  23.890  1.00  0.00     0.275 C 
ATOM      5  O   UNL A   1      27.816  26.139  24.141  1.00  0.00    -0.269 OA
ATOM      6  H   UNL A   1      28.041  28.342  23.314  1.00  0.00     0.163 HD
BRANCH   4   7
ATOM      7  C   UNL A   1      30.195  26.003  24.419  1.00  0.00     0.363 C 
BRANCH   7   8
ATOM      8  N   UNL A   1      30.285  24.526  24.525  1.00  0.00    -0.323 N 
ATOM      9  H   UNL A   1      29.387  24.138  24.233  1.00  0.00     0.349 HD
BRANCH   8  10
ATOM     10  C   UNL A   1      30.531  24.089  25.966  1.00  0.00     0.090 C 
ATOM     11  C   UNL A   1      29.283  24.317  26.863  1.00  0.00     0.078 C 
ATOM     12  C   UNL A   1      31.663  24.934  26.596  1.00  0.00     0.078 C 
ATOM     13  C   UNL A   1      30.903  22.586  26.138  1.00  0.00     0.078 C 
ENDBRANCH   8  10
BRANCH   8  14
ATOM     14  C   UNL A   1      31.341  23.983  23.610  1.00  0.00     0.273 C 
BRANCH  14  15
ATOM     15  C   UNL A   1      32.149  24.833  22.592  1.00  0.00     0.161 C 
BRANCH  15  16
ATOM     16  C   UNL A   1      33.354  25.721  22.919  1.00  0.00     0.230 C 
ATOM     17  O   UNL A   1      33.398  26.864  22.441  1.00  0.00    -0.275 OA
ATOM     18  N   UNL A   1      34.384  25.385  23.748  1.00  0.00    -0.323 N 
ATOM     19  H   UNL A   1      35.023  26.113  23.929  1.00  0.00     0.170 HD
BRANCH  18  20
ATOM     20  C   UNL A   1      34.679  24.173  24.383  1.00  0.00     0.077 A 
ATOM     21  C   UNL A   1      34.746  24.176  25.784  1.00  0.00     0.029 A 
ATOM     22  C   UNL A   1      34.831  22.971  23.698  1.00  0.00     0.146 A 
ATOM     23  C   UNL A   1      34.820  22.966  26.479  1.00  0.00     0.002 A 
ATOM     24  C   UNL A   1      34.947  21.769  24.386  1.00  0.00     0.041 A 
ATOM     25  F   UNL A   1      34.845  22.952  22.358  1.00  0.00    -0.205 F 
ATOM     26  C   UNL A   1      34.911  21.763  25.780  1.00  0.00     0.003 A 
ENDBRANCH  18  20
ENDBRANCH  15  16
ENDBRANCH  14  15
ENDBRANCH   8  14
ENDBRANCH   7   8
ENDBRANCH   4   7
ENDBRANCH   2   3
ENDBRANCH   1   2
BRANCH   1  27
ATOM     27  C   UNL A   1      31.764  29.301  24.534  1.00  0.00     0.002 C 
BRANCH  27  28
ATOM     28  C   UNL A   1      31.522  28.715  25.929  1.00  0.00     0.002 C 
BRANCH  28  29
ATOM     29  C   UNL A   1      32.796  28.450  26.738  1.00  0.00     0.021 C 
BRANCH  29  30
ATOM     30  C   UNL A   1      34.004  29.261  26.275  1.00  0.00     0.116 C 
BRANCH  30  31
ATOM     31  N   UNL A   1      33.844  30.666  26.616  1.00  0.00    -0.352 N 
ATOM     32  C   UNL A   1      34.437  31.372  27.628  1.00  0.00     0.251 C 
ATOM     33  H   UNL A   1      33.229  31.177  26.043  1.00  0.00     0.163 HD
ATOM     34  O   UNL A   1      33.948  32.426  28.016  1.00  0.00    -0.269 OA
BRANCH  32  35
ATOM     35  C   UNL A   1      35.679  30.849  28.224  1.00  0.00     0.039 A 
ATOM     36  C   UNL A   1      35.614  29.749  29.078  1.00  0.00     0.014 A 
ATOM     37  C   UNL A   1      36.901  31.474  27.952  1.00  0.00     0.014 A 
ATOM     38  C   UNL A   1      36.789  29.259  29.643  1.00  0.00     0.010 A 
ATOM     39  C   UNL A   1      38.078  30.940  28.457  1.00  0.00     0.010 A 
ATOM     40  C   UNL A   1      38.028  29.841  29.325  1.00  0.00    -0.014 A 
BRANCH  40  41
ATOM     41  C   UNL A   1      39.278  29.312  29.915  1.00  0.00     0.031 A 
ATOM     42  C   UNL A   1      39.795  29.870  31.209  1.00  0.00     0.074 A 
ATOM     43  C   UNL A   1      39.939  28.333  29.270  1.00  0.00     0.049 A 
ATOM     44  N   UNL A   1      40.842  29.504  31.902  1.00  0.00    -0.248 NA
ATOM     45  C   UNL A   1      39.057  31.003  31.791  1.00  0.00     0.031 C 
ATOM     46  C   UNL A   1      39.541  27.758  27.982  1.00  0.00     0.029 A 
ATOM     47  N   UNL A   1      41.067  27.634  29.611  1.00  0.00    -0.354 N 
ATOM     48  C   UNL A   1      40.887  30.359  32.996  1.00  0.00     0.074 A 
ATOM     49  C   UNL A   1      39.805  31.303  32.842  1.00  0.00     0.031 C 
ATOM     50  C   UNL A   1      40.376  26.755  27.673  1.00  0.00     0.029 A 
ATOM     51  C   UNL A   1      41.390  26.642  28.717  1.00  0.00     0.049 A 
ATOM     52  H   UNL A   1      41.596  27.825  30.420  1.00  0.00     0.167 HD
ATOM     53  C   UNL A   1      41.742  30.336  34.047  1.00  0.00     0.034 A 
ATOM     54  C   UNL A   1      42.385  25.734  28.740  1.00  0.00     0.034 A 
ATOM     55  C   UNL A   1      42.803  29.372  34.183  1.00  0.00     0.049 A 
ATOM     56  C   UNL A   1      43.331  25.732  29.908  1.00  0.00     0.074 A 
ATOM     57  C   UNL A   1      43.692  29.214  35.230  1.00  0.00     0.029 A 
ATOM     58  N   UNL A   1      43.125  28.406  33.237  1.00  0.00    -0.354 N 
ATOM     59  N   UNL A   1      43.342  26.523  30.956  1.00  0.00    -0.248 NA
ATOM     60  C   UNL A   1      44.396  24.723  29.903  1.00  0.00     0.031 C 
ATOM     61  C   UNL A   1      44.593  28.203  34.887  1.00  0.00     0.029 A 
ATOM     62  C   UNL A   1      44.221  27.674  33.661  1.00  0.00     0.049 A 
ATOM     63  H   UNL A   1      42.644  28.263  32.390  1.00  0.00     0.167 HD
ATOM     64  C   UNL A   1      44.402  26.094  31.746  1.00  0.00     0.074 A 
ATOM     65  C   UNL A   1      45.010  24.975  31.052  1.00  0.00     0.031 C 
ATOM     66  C   UNL A   1      44.822  26.575  32.943  1.00  0.00     0.034 A 
BRANCH  53  67
ATOM     67  C   UNL A   1      41.574  31.391  35.110  1.00  0.00     0.023 A 
ATOM     68  C   UNL A   1      40.466  31.399  35.976  1.00  0.00     0.031 A 
ATOM     69  C   UNL A   1      42.537  32.404  35.264  1.00  0.00     0.131 A 
ATOM     70  C   UNL A   1      40.318  32.430  36.915  1.00  0.00     0.055 A 
ATOM     71  C   UNL A   1      42.421  33.386  36.249  1.00  0.00     0.041 A 
ATOM     72  F   UNL A   1      43.606  32.458  34.452  1.00  0.00    -0.206 F 
ATOM     73  C   UNL A   1      41.301  33.410  37.075  1.00  0.00     0.022 A 
BRANCH  70  74
ATOM     74  S   UNL A   1      38.772  32.534  37.858  1.00  0.00     0.124 S 
ATOM     75  O   UNL A   1      39.265  32.543  39.232  1.00  0.00    -0.237 OA
ATOM     76  O   UNL A   1      38.193  33.784  37.379  1.00  0.00    -0.237 OA
ATOM     77  O   UNL A   1      38.051  31.324  37.468  1.00  0.00    -0.744 OA
ENDBRANCH  70  74
ENDBRANCH  53  67
BRANCH  54  78
ATOM     78  C   UNL A   1      42.502  24.755  27.628  1.00  0.00     0.023 A 
ATOM     79  C   UNL A   1      41.756  23.567  27.628  1.00  0.00     0.031 A 
ATOM     80  C   UNL A   1      43.303  25.036  26.507  1.00  0.00     0.131 A 
ATOM     81  C   UNL A   1      41.827  22.700  26.526  1.00  0.00     0.055 A 
ATOM     82  C   UNL A   1      43.346  24.187  25.400  1.00  0.00     0.041 A 
ATOM     83  F   UNL A   1      44.018  26.171  26.453  1.00  0.00    -0.206 F 
ATOM     84  C   UNL A   1      42.604  23.010  25.407  1.00  0.00     0.022 A 
BRANCH  81  85
ATOM     85  S   UNL A   1      40.876  21.155  26.565  1.00  0.00     0.124 S 
ATOM     86  O   UNL A   1      41.737  20.257  25.803  1.00  0.00    -0.237 OA
ATOM     87  O   UNL A   1      40.778  20.890  27.997  1.00  0.00    -0.237 OA
ATOM     88  O   UNL A   1      39.618  21.514  25.915  1.00  0.00    -0.744 OA
ENDBRANCH  81  85
ENDBRANCH  54  78
BRANCH  66  89
ATOM     89  C   UNL A   1      45.986  25.885  33.603  1.00  0.00     0.023 A 
ATOM     90  C   UNL A   1      45.802  24.761  34.424  1.00  0.00     0.031 A 
ATOM     91  C   UNL A   1      47.298  26.308  33.328  1.00  0.00     0.131 A 
ATOM     92  C   UNL A   1      46.922  24.100  34.953  1.00  0.00     0.055 A 
ATOM     93  C   UNL A   1      48.406  25.622  33.821  1.00  0.00     0.041 A 
ATOM     94  F   UNL A   1      47.520  27.375  32.543  1.00  0.00    -0.206 F 
ATOM     95  C   UNL A   1      48.221  24.511  34.640  1.00  0.00     0.022 A 
BRANCH  92  96
ATOM     96  S   UNL A   1      46.660  22.694  36.067  1.00  0.00     0.124 S 
ATOM     97  O   UNL A   1      45.208  22.550  36.033  1.00  0.00    -0.237 OA
ATOM     98  O   UNL A   1      47.422  21.631  35.421  1.00  0.00    -0.237 OA
ATOM     99  O   UNL A   1      47.207  23.159  37.340  1.00  0.00    -0.744 OA
ENDBRANCH  92  96
ENDBRANCH  66  89
ENDBRANCH  40  41
ENDBRANCH  32  35
ENDBRANCH  30  31
ENDBRANCH  29  30
ENDBRANCH  28  29
ENDBRANCH  27  28
ENDBRANCH   1  27
TORSDOF 22
ENDMDL
MODEL 2
REMARK VINA RESULT:     -10.1      1.852      2.483
REMARK SMILES CC(C)(C)[N@H+](CCC(=O)Nc1ccccc1F)CC(=O)NCCCCCCNC(=O)c1ccc(-c2c3nc(c(-c4cc(S(=O)(=O)[O-])ccc4F)c4ccc([nH]4)c(-c4cc(S(=O)(=O)[O-])ccc4F)c4nc(c(-c5cc(S(=O)(=O)[O-])ccc5F)c5ccc2[nH]5)C=C4)C=C3)cc1
REMARK SMILES IDX 23 1 22 2 21 3 19 4 20 5 18 7 5 8 2 10 1 11 3 12 4 13 6 14
REMARK SMILES IDX 7 15 8 16 9 17 10 18 11 20 12 21 16 22 13 23 15 24 17 25
REMARK SMILES IDX 14 26 24 27 25 28 26 29 27 30 28 31 29 32 30 34 31 35 32 36
REMARK SMILES IDX 93 37 33 38 92 39 34 40 35 41 36 42 86 43 37 44 91 45 85 46
REMARK SMILES IDX 87 47 38 48 90 49 84 50 83 51 39 53 71 54 51 55 70 56 52 57
REMARK SMILES IDX 55 58 69 59 88 60 53 61 54 62 68 64 89 65 56 66 40 67 41 68
REMARK SMILES IDX 49 69 42 70 48 71 50 72 47 73 43 74 44 75 45 76 46 77 72 78
REMARK SMILES IDX 73 79 81 80 74 81 80 82 82 83 79 84 75 85 76 86 77 87 78 88
REMARK SMILES IDX 57 89 58 90 66 91 59 92 65 93 67 94 64 95 60 96 61 97 62 98
REMARK SMILES IDX 63 99
REMARK H PARENT 21 6 5 9 10 19 28 33 87 52 55 63
REMARK Flexibility Score: inf
ROOT
ATOM      1  C   UNL A   1      31.647  28.768  22.567  1.00  0.00     0.021 C 
ENDROOT
BRANCH   1   2
ATOM      2  C   UNL A   1      31.056  27.378  22.377  1.00  0.00     0.116 C 
BRANCH   2   3
ATOM      3  N   UNL A   1      31.672  26.704  21.257  1.00  0.00    -0.351 N 
ATOM      4  C   UNL A   1      32.413  25.562  21.244  1.00  0.00     0.275 C 
ATOM      5  O   UNL A   1      32.968  25.260  20.181  1.00  0.00    -0.269 OA
ATOM      6  H   UNL A   1      31.537  27.132  20.380  1.00  0.00     0.163 HD
BRANCH   4   7
ATOM      7  C   UNL A   1      32.350  24.555  22.389  1.00  0.00     0.363 C 
BRANCH   7   8
ATOM      8  N   UNL A   1      33.059  23.258  22.266  1.00  0.00    -0.323 N 
ATOM      9  H   UNL A   1      33.185  23.066  21.272  1.00  0.00     0.349 HD
BRANCH   8  10
ATOM     10  C   UNL A   1      32.233  22.118  22.856  1.00  0.00     0.090 C 
ATOM     11  C   UNL A   1      33.059  21.255  23.849  1.00  0.00     0.078 C 
ATOM     12  C   UNL A   1      31.776  21.153  21.736  1.00  0.00     0.078 C 
ATOM     13  C   UNL A   1      30.966  22.570  23.643  1.00  0.00     0.078 C 
ENDBRANCH   8  10
BRANCH   8  14
ATOM     14  C   UNL A   1      34.416  23.323  22.899  1.00  0.00     0.273 C 
BRANCH  14  15
ATOM     15  C   UNL A   1      34.829  24.338  23.999  1.00  0.00     0.161 C 
BRANCH  15  16
ATOM     16  C   UNL A   1      34.653  24.147  25.510  1.00  0.00     0.230 C 
ATOM     17  O   UNL A   1      33.930  24.941  26.129  1.00  0.00    -0.275 OA
ATOM     18  N   UNL A   1      35.189  23.133  26.248  1.00  0.00    -0.323 N 
ATOM     19  H   UNL A   1      34.891  23.103  27.186  1.00  0.00     0.170 HD
BRANCH  18  20
ATOM     20  C   UNL A   1      36.094  22.128  25.886  1.00  0.00     0.077 A 
ATOM     21  C   UNL A   1      35.568  20.866  25.574  1.00  0.00     0.029 A 
ATOM     22  C   UNL A   1      37.462  22.346  25.753  1.00  0.00     0.146 A 
ATOM     23  C   UNL A   1      36.390  19.892  25.001  1.00  0.00     0.002 A 
ATOM     24  C   UNL A   1      38.291  21.365  25.223  1.00  0.00     0.041 A 
ATOM     25  F   UNL A   1      38.000  23.520  26.114  1.00  0.00    -0.205 F 
ATOM     26  C   UNL A   1      37.750  20.146  24.817  1.00  0.00     0.003 A 
ENDBRANCH  18  20
ENDBRANCH  15  16
ENDBRANCH  14  15
ENDBRANCH   8  14
ENDBRANCH   7   8
ENDBRANCH   4   7
ENDBRANCH   2   3
ENDBRANCH   1   2
BRANCH   1  27
ATOM     27  C   UNL A   1      32.264  28.949  23.954  1.00  0.00     0.002 C 
BRANCH  27  28
ATOM     28  C   UNL A   1      31.387  28.434  25.099  1.00  0.00     0.002 C 
BRANCH  28  29
ATOM     29  C   UNL A   1      32.077  28.403  26.467  1.00  0.00     0.021 C 
BRANCH  29  30
ATOM     30  C   UNL A   1      33.418  29.131  26.500  1.00  0.00     0.116 C 
BRANCH  30  31
ATOM     31  N   UNL A   1      33.223  30.570  26.581  1.00  0.00    -0.352 N 
ATOM     32  C   UNL A   1      33.809  31.465  27.435  1.00  0.00     0.251 C 
ATOM     33  H   UNL A   1      32.586  30.951  25.936  1.00  0.00     0.163 HD
ATOM     34  O   UNL A   1      33.295  32.559  27.632  1.00  0.00    -0.269 OA
BRANCH  32  35
ATOM     35  C   UNL A   1      35.074  31.092  28.093  1.00  0.00     0.039 A 
ATOM     36  C   UNL A   1      36.145  31.984  28.067  1.00  0.00     0.014 A 
ATOM     37  C   UNL A   1      35.197  29.842  28.711  1.00  0.00     0.014 A 
ATOM     38  C   UNL A   1      37.340  31.628  28.686  1.00  0.00     0.010 A 
ATOM     39  C   UNL A   1      36.364  29.520  29.391  1.00  0.00     0.010 A 
ATOM     40  C   UNL A   1      37.452  30.402  29.364  1.00  0.00    -0.014 A 
BRANCH  40  41
ATOM     41  C   UNL A   1      38.718  30.030  30.034  1.00  0.00     0.031 A 
ATOM     42  C   UNL A   1      39.008  30.521  31.423  1.00  0.00     0.074 A 
ATOM     43  C   UNL A   1      39.600  29.255  29.376  1.00  0.00     0.049 A 
ATOM     44  N   UNL A   1      40.037  30.263  32.187  1.00  0.00    -0.248 NA
ATOM     45  C   UNL A   1      38.029  31.442  32.024  1.00  0.00     0.031 C 
ATOM     46  C   UNL A   1      39.429  28.767  28.004  1.00  0.00     0.029 A 
ATOM     47  N   UNL A   1      40.799  28.723  29.771  1.00  0.00    -0.354 N 
ATOM     48  C   UNL A   1      39.829  30.988  33.355  1.00  0.00     0.074 A 
ATOM     49  C   UNL A   1      38.613  31.746  33.173  1.00  0.00     0.031 C 
ATOM     50  C   UNL A   1      40.455  27.960  27.695  1.00  0.00     0.029 A 
ATOM     51  C   UNL A   1      41.374  27.905  28.828  1.00  0.00     0.049 A 
ATOM     52  H   UNL A   1      41.210  28.911  30.646  1.00  0.00     0.167 HD
ATOM     53  C   UNL A   1      40.576  30.994  34.485  1.00  0.00     0.034 A 
ATOM     54  C   UNL A   1      42.510  27.182  28.874  1.00  0.00     0.034 A 
ATOM     55  C   UNL A   1      41.776  30.214  34.645  1.00  0.00     0.049 A 
ATOM     56  C   UNL A   1      43.332  27.211  30.132  1.00  0.00     0.074 A 
ATOM     57  C   UNL A   1      42.581  30.094  35.763  1.00  0.00     0.029 A 
ATOM     58  N   UNL A   1      42.350  29.427  33.653  1.00  0.00    -0.354 N 
ATOM     59  N   UNL A   1      43.106  27.872  31.244  1.00  0.00    -0.248 NA
ATOM     60  C   UNL A   1      44.557  26.403  30.148  1.00  0.00     0.031 C 
ATOM     61  C   UNL A   1      43.676  29.294  35.427  1.00  0.00     0.029 A 
ATOM     62  C   UNL A   1      43.516  28.849  34.124  1.00  0.00     0.049 A 
ATOM     63  H   UNL A   1      41.980  29.299  32.750  1.00  0.00     0.167 HD
ATOM     64  C   UNL A   1      44.150  27.544  32.101  1.00  0.00     0.074 A 
ATOM     65  C   UNL A   1      45.009  26.628  31.376  1.00  0.00     0.031 C 
ATOM     66  C   UNL A   1      44.368  27.954  33.376  1.00  0.00     0.034 A 
BRANCH  53  67
ATOM     67  C   UNL A   1      40.126  31.881  35.618  1.00  0.00     0.023 A 
ATOM     68  C   UNL A   1      39.157  31.462  36.546  1.00  0.00     0.031 A 
ATOM     69  C   UNL A   1      40.675  33.165  35.774  1.00  0.00     0.131 A 
ATOM     70  C   UNL A   1      38.725  32.338  37.552  1.00  0.00     0.055 A 
ATOM     71  C   UNL A   1      40.294  34.007  36.821  1.00  0.00     0.041 A 
ATOM     72  F   UNL A   1      41.590  33.628  34.906  1.00  0.00    -0.206 F 
ATOM     73  C   UNL A   1      39.305  33.599  37.711  1.00  0.00     0.022 A 
BRANCH  70  74
ATOM     74  S   UNL A   1      37.319  31.849  38.588  1.00  0.00     0.124 S 
ATOM     75  O   UNL A   1      37.082  30.480  38.134  1.00  0.00    -0.237 OA
ATOM     76  O   UNL A   1      37.855  31.990  39.937  1.00  0.00    -0.237 OA
ATOM     77  O   UNL A   1      36.277  32.808  38.228  1.00  0.00    -0.744 OA
ENDBRANCH  70  74
ENDBRANCH  53  67
BRANCH  54  78
ATOM     78  C   UNL A   1      42.900  26.365  27.695  1.00  0.00     0.023 A 
ATOM     79  C   UNL A   1      42.531  25.016  27.594  1.00  0.00     0.031 A 
ATOM     80  C   UNL A   1      43.580  26.951  26.611  1.00  0.00     0.131 A 
ATOM     81  C   UNL A   1      42.845  24.293  26.433  1.00  0.00     0.055 A 
ATOM     82  C   UNL A   1      43.862  26.237  25.446  1.00  0.00     0.041 A 
ATOM     83  F   UNL A   1      43.935  28.245  26.654  1.00  0.00    -0.206 F 
ATOM     84  C   UNL A   1      43.494  24.898  25.353  1.00  0.00     0.022 A 
BRANCH  81  85
ATOM     85  S   UNL A   1      42.383  22.540  26.341  1.00  0.00     0.124 S 
ATOM     86  O   UNL A   1      43.158  21.971  27.437  1.00  0.00    -0.237 OA
ATOM     87  O   UNL A   1      40.938  22.593  26.535  1.00  0.00    -0.237 OA
ATOM     88  O   UNL A   1      42.813  22.146  25.001  1.00  0.00    -0.744 OA
ENDBRANCH  81  85
ENDBRANCH  54  78
BRANCH  66  89
ATOM     89  C   UNL A   1      45.572  27.402  34.090  1.00  0.00     0.023 A 
ATOM     90  C   UNL A   1      45.514  26.190  34.798  1.00  0.00     0.031 A 
ATOM     91  C   UNL A   1      46.811  28.056  33.981  1.00  0.00     0.131 A 
ATOM     92  C   UNL A   1      46.680  25.673  35.381  1.00  0.00     0.055 A 
ATOM     93  C   UNL A   1      47.975  27.515  34.525  1.00  0.00     0.041 A 
ATOM     94  F   UNL A   1      46.914  29.214  33.309  1.00  0.00    -0.206 F 
ATOM     95  C   UNL A   1      47.913  26.316  35.231  1.00  0.00     0.022 A 
BRANCH  92  96
ATOM     96  S   UNL A   1      46.569  24.144  36.348  1.00  0.00     0.124 S 
ATOM     97  O   UNL A   1      45.165  24.143  36.748  1.00  0.00    -0.237 OA
ATOM     98  O   UNL A   1      46.956  23.124  35.378  1.00  0.00    -0.237 OA
ATOM     99  O   UNL A   1      47.524  24.355  37.434  1.00  0.00    -0.744 OA
ENDBRANCH  92  96
ENDBRANCH  66  89
ENDBRANCH  40  41
ENDBRANCH  32  35
ENDBRANCH  30  31
ENDBRANCH  29  30
ENDBRANCH  28  29
ENDBRANCH  27  28
ENDBRANCH   1  27
TORSDOF 22
ENDMDL
MODEL 3
REMARK VINA RESULT:     -10.0      1.761      2.089
REMARK SMILES CC(C)(C)[N@H+](CCC(=O)Nc1ccccc1F)CC(=O)NCCCCCCNC(=O)c1ccc(-c2c3nc(c(-c4cc(S(=O)(=O)[O-])ccc4F)c4ccc([nH]4)c(-c4cc(S(=O)(=O)[O-])ccc4F)c4nc(c(-c5cc(S(=O)(=O)[O-])ccc5F)c5ccc2[nH]5)C=C4)C=C3)cc1
REMARK SMILES IDX 23 1 22 2 21 3 19 4 20 5 18 7 5 8 2 10 1 11 3 12 4 13 6 14
REMARK SMILES IDX 7 15 8 16 9 17 10 18 11 20 12 21 16 22 13 23 15 24 17 25
REMARK SMILES IDX 14 26 24 27 25 28 26 29 27 30 28 31 29 32 30 34 31 35 32 36
REMARK SMILES IDX 93 37 33 38 92 39 34 40 35 41 36 42 86 43 37 44 91 45 85 46
REMARK SMILES IDX 87 47 38 48 90 49 84 50 83 51 39 53 71 54 51 55 70 56 52 57
REMARK SMILES IDX 55 58 69 59 88 60 53 61 54 62 68 64 89 65 56 66 40 67 41 68
REMARK SMILES IDX 49 69 42 70 48 71 50 72 47 73 43 74 44 75 45 76 46 77 72 78
REMARK SMILES IDX 73 79 81 80 74 81 80 82 82 83 79 84 75 85 76 86 77 87 78 88
REMARK SMILES IDX 57 89 58 90 66 91 59 92 65 93 67 94 64 95 60 96 61 97 62 98
REMARK SMILES IDX 63 99
REMARK H PARENT 21 6 5 9 10 19 28 33 87 52 55 63
REMARK Flexibility Score: inf
ROOT
ATOM      1  C   UNL A   1      30.946  29.657  24.262  1.00  0.00     0.021 C 
ENDROOT
BRANCH   1   2
ATOM      2  C   UNL A   1      30.932  28.427  23.365  1.00  0.00     0.116 C 
BRANCH   2   3
ATOM      3  N   UNL A   1      29.730  27.653  23.569  1.00  0.00    -0.351 N 
ATOM      4  C   UNL A   1      29.601  26.336  23.889  1.00  0.00     0.275 C 
ATOM      5  O   UNL A   1      28.461  25.856  23.860  1.00  0.00    -0.269 OA
ATOM      6  H   UNL A   1      28.885  28.148  23.463  1.00  0.00     0.163 HD
BRANCH   4   7
ATOM      7  C   UNL A   1      30.749  25.549  24.514  1.00  0.00     0.363 C 
BRANCH   7   8
ATOM      8  N   UNL A   1      30.631  24.078  24.671  1.00  0.00    -0.323 N 
ATOM      9  H   UNL A   1      29.649  23.830  24.546  1.00  0.00     0.349 HD
BRANCH   8  10
ATOM     10  C   UNL A   1      31.045  23.636  26.071  1.00  0.00     0.090 C 
ATOM     11  C   UNL A   1      29.833  23.134  26.904  1.00  0.00     0.078 C 
ATOM     12  C   UNL A   1      31.631  24.832  26.858  1.00  0.00     0.078 C 
ATOM     13  C   UNL A   1      32.090  22.481  26.110  1.00  0.00     0.078 C 
ENDBRANCH   8  10
BRANCH   8  14
ATOM     14  C   UNL A   1      31.426  23.359  23.623  1.00  0.00     0.273 C 
BRANCH  14  15
ATOM     15  C   UNL A   1      31.882  23.985  22.277  1.00  0.00     0.161 C 
BRANCH  15  16
ATOM     16  C   UNL A   1      32.848  25.164  22.116  1.00  0.00     0.230 C 
ATOM     17  O   UNL A   1      32.540  26.085  21.345  1.00  0.00    -0.275 OA
ATOM     18  N   UNL A   1      34.019  25.327  22.796  1.00  0.00    -0.323 N 
ATOM     19  H   UNL A   1      34.466  26.193  22.647  1.00  0.00     0.170 HD
BRANCH  18  20
ATOM     20  C   UNL A   1      34.689  24.463  23.670  1.00  0.00     0.077 A 
ATOM     21  C   UNL A   1      35.243  23.295  23.126  1.00  0.00     0.029 A 
ATOM     22  C   UNL A   1      34.889  24.746  25.018  1.00  0.00     0.146 A 
ATOM     23  C   UNL A   1      36.103  22.509  23.897  1.00  0.00     0.002 A 
ATOM     24  C   UNL A   1      35.709  23.942  25.800  1.00  0.00     0.041 A 
ATOM     25  F   UNL A   1      34.309  25.816  25.579  1.00  0.00    -0.205 F 
ATOM     26  C   UNL A   1      36.343  22.838  25.232  1.00  0.00     0.003 A 
ENDBRANCH  18  20
ENDBRANCH  15  16
ENDBRANCH  14  15
ENDBRANCH   8  14
ENDBRANCH   7   8
ENDBRANCH   4   7
ENDBRANCH   2   3
ENDBRANCH   1   2
BRANCH   1  27
ATOM     27  C   UNL A   1      32.178  29.702  25.166  1.00  0.00     0.002 C 
BRANCH  27  28
ATOM     28  C   UNL A   1      32.024  28.910  26.469  1.00  0.00     0.002 C 
BRANCH  28  29
ATOM     29  C   UNL A   1      33.343  28.590  27.180  1.00  0.00     0.021 C 
BRANCH  29  30
ATOM     30  C   UNL A   1      34.490  29.523  26.806  1.00  0.00     0.116 C 
BRANCH  30  31
ATOM     31  N   UNL A   1      34.295  30.842  27.389  1.00  0.00    -0.352 N 
ATOM     32  C   UNL A   1      34.898  31.387  28.489  1.00  0.00     0.251 C 
ATOM     33  H   UNL A   1      33.643  31.419  26.930  1.00  0.00     0.163 HD
ATOM     34  O   UNL A   1      34.386  32.339  29.067  1.00  0.00    -0.269 OA
BRANCH  32  35
ATOM     35  C   UNL A   1      36.177  30.820  28.951  1.00  0.00     0.039 A 
ATOM     36  C   UNL A   1      36.166  29.729  29.818  1.00  0.00     0.014 A 
ATOM     37  C   UNL A   1      37.385  31.396  28.539  1.00  0.00     0.014 A 
ATOM     38  C   UNL A   1      37.376  29.197  30.255  1.00  0.00     0.010 A 
ATOM     39  C   UNL A   1      38.589  30.819  28.917  1.00  0.00     0.010 A 
ATOM     40  C   UNL A   1      38.594  29.729  29.796  1.00  0.00    -0.014 A 
BRANCH  40  41
ATOM     41  C   UNL A   1      39.880  29.155  30.251  1.00  0.00     0.031 A 
ATOM     42  C   UNL A   1      40.543  29.681  31.490  1.00  0.00     0.074 A 
ATOM     43  C   UNL A   1      40.442  28.165  29.532  1.00  0.00     0.049 A 
ATOM     44  N   UNL A   1      41.643  29.276  32.069  1.00  0.00    -0.248 NA
ATOM     45  C   UNL A   1      39.904  30.829  32.155  1.00  0.00     0.031 C 
ATOM     46  C   UNL A   1      39.897  27.618  28.287  1.00  0.00     0.029 A 
ATOM     47  N   UNL A   1      41.576  27.428  29.750  1.00  0.00    -0.354 N 
ATOM     48  C   UNL A   1      41.827  30.116  33.161  1.00  0.00     0.074 A 
ATOM     49  C   UNL A   1      40.764  31.094  33.127  1.00  0.00     0.031 C 
ATOM     50  C   UNL A   1      40.664  26.595  27.885  1.00  0.00     0.029 A 
ATOM     51  C   UNL A   1      41.775  26.438  28.818  1.00  0.00     0.049 A 
ATOM     52  H   UNL A   1      42.190  27.594  30.502  1.00  0.00     0.167 HD
ATOM     53  C   UNL A   1      42.783  30.054  34.118  1.00  0.00     0.034 A 
ATOM     54  C   UNL A   1      42.739  25.501  28.732  1.00  0.00     0.034 A 
ATOM     55  C   UNL A   1      43.822  29.057  34.136  1.00  0.00     0.049 A 
ATOM     56  C   UNL A   1      43.798  25.456  29.797  1.00  0.00     0.074 A 
ATOM     57  C   UNL A   1      44.808  28.860  35.086  1.00  0.00     0.029 A 
ATOM     58  N   UNL A   1      44.015  28.094  33.153  1.00  0.00    -0.354 N 
ATOM     59  N   UNL A   1      43.941  26.233  30.845  1.00  0.00    -0.248 NA
ATOM     60  C   UNL A   1      44.825  24.415  29.673  1.00  0.00     0.031 C 
ATOM     61  C   UNL A   1      45.637  27.826  34.643  1.00  0.00     0.029 A 
ATOM     62  C   UNL A   1      45.125  27.324  33.457  1.00  0.00     0.049 A 
ATOM     63  H   UNL A   1      43.446  27.976  32.359  1.00  0.00     0.167 HD
ATOM     64  C   UNL A   1      45.061  25.763  31.519  1.00  0.00     0.074 A 
ATOM     65  C   UNL A   1      45.561  24.635  30.756  1.00  0.00     0.031 C 
ATOM     66  C   UNL A   1      45.617  26.216  32.671  1.00  0.00     0.034 A 
BRANCH  53  67
ATOM     67  C   UNL A   1      42.757  31.101  35.203  1.00  0.00     0.023 A 
ATOM     68  C   UNL A   1      43.555  32.256  35.137  1.00  0.00     0.031 A 
ATOM     69  C   UNL A   1      41.920  30.942  36.321  1.00  0.00     0.131 A 
ATOM     70  C   UNL A   1      43.543  33.177  36.194  1.00  0.00     0.055 A 
ATOM     71  C   UNL A   1      41.858  31.898  37.336  1.00  0.00     0.041 A 
ATOM     72  F   UNL A   1      41.150  29.848  36.448  1.00  0.00    -0.206 F 
ATOM     73  C   UNL A   1      42.680  33.019  37.282  1.00  0.00     0.022 A 
BRANCH  70  74
ATOM     74  S   UNL A   1      44.746  34.535  36.179  1.00  0.00     0.124 S 
ATOM     75  O   UNL A   1      44.531  35.104  34.851  1.00  0.00    -0.237 OA
ATOM     76  O   UNL A   1      44.310  35.356  37.304  1.00  0.00    -0.237 OA
ATOM     77  O   UNL A   1      46.028  33.858  36.361  1.00  0.00    -0.744 OA
ENDBRANCH  70  74
ENDBRANCH  53  67
BRANCH  54  78
ATOM     78  C   UNL A   1      42.711  24.532  27.604  1.00  0.00     0.023 A 
ATOM     79  C   UNL A   1      41.888  23.396  27.646  1.00  0.00     0.031 A 
ATOM     80  C   UNL A   1      43.449  24.776  26.432  1.00  0.00     0.131 A 
ATOM     81  C   UNL A   1      41.824  22.542  26.533  1.00  0.00     0.055 A 
ATOM     82  C   UNL A   1      43.357  23.942  25.317  1.00  0.00     0.041 A 
ATOM     83  F   UNL A   1      44.234  25.861  26.339  1.00  0.00    -0.206 F 
ATOM     84  C   UNL A   1      42.540  22.816  25.364  1.00  0.00     0.022 A 
BRANCH  81  85
ATOM     85  S   UNL A   1      40.775  21.064  26.623  1.00  0.00     0.124 S 
ATOM     86  O   UNL A   1      40.776  20.788  28.055  1.00  0.00    -0.237 OA
ATOM     87  O   UNL A   1      39.517  21.545  26.062  1.00  0.00    -0.237 OA
ATOM     88  O   UNL A   1      41.488  20.091  25.799  1.00  0.00    -0.744 OA
ENDBRANCH  81  85
ENDBRANCH  54  78
BRANCH  66  89
ATOM     89  C   UNL A   1      46.819  25.484  33.202  1.00  0.00     0.023 A 
ATOM     90  C   UNL A   1      46.686  24.334  33.997  1.00  0.00     0.031 A 
ATOM     91  C   UNL A   1      48.110  25.894  32.827  1.00  0.00     0.131 A 
ATOM     92  C   UNL A   1      47.833  23.637  34.404  1.00  0.00     0.055 A 
ATOM     93  C   UNL A   1      49.244  25.172  33.197  1.00  0.00     0.041 A 
ATOM     94  F   UNL A   1      48.285  26.984  32.062  1.00  0.00    -0.206 F 
ATOM     95  C   UNL A   1      49.108  24.036  33.991  1.00  0.00     0.022 A 
BRANCH  92  96
ATOM     96  S   UNL A   1      47.642  22.196  35.488  1.00  0.00     0.124 S 
ATOM     97  O   UNL A   1      49.029  21.820  35.736  1.00  0.00    -0.237 OA
ATOM     98  O   UNL A   1      46.917  22.751  36.627  1.00  0.00    -0.237 OA
ATOM     99  O   UNL A   1      46.879  21.253  34.673  1.00  0.00    -0.744 OA
ENDBRANCH  92  96
ENDBRANCH  66  89
ENDBRANCH  40  41
ENDBRANCH  32  35
ENDBRANCH  30  31
ENDBRANCH  29  30
ENDBRANCH  28  29
ENDBRANCH  27  28
ENDBRANCH   1  27
TORSDOF 22
ENDMDL
