MODEL 1
REMARK VINA RESULT:     -12.6      0.000      0.000
REMARK SMILES Cc1ccc(S(=O)(=O)Nc2cc(C(=O)NCCCCCCNC(=O)c3ccc(-c4c5nc(c(-c6cc(S(=O)(=O)[O-])ccc6F)c6ccc([nH]6)c(-c6cc(S(=O)(=O)[O-])ccc6F)c6nc(c(-c7cc(S(=O)(=O)[O-])ccc7F)c7ccc4[nH]7)C=C6)C=C5)cc3)ccc2C)c(Br)c1
REMARK SMILES IDX 18 1 17 2 16 3 15 4 13 5 14 6 12 8 10 9 11 10 90 11 89 12
REMARK SMILES IDX 91 13 88 14 9 15 6 17 7 18 8 19 5 20 1 21 2 22 3 23 94 24
REMARK SMILES IDX 4 25 92 26 93 27 19 28 20 29 21 30 22 31 23 32 24 34 25 35
REMARK SMILES IDX 26 36 87 37 27 38 86 39 28 40 29 41 30 42 80 43 31 44 85 45
REMARK SMILES IDX 79 46 81 47 32 48 84 49 78 50 77 51 33 53 65 54 45 55 64 56
REMARK SMILES IDX 46 57 49 58 63 59 82 60 47 61 48 62 62 64 83 65 50 66 34 67
REMARK SMILES IDX 35 68 43 69 36 70 42 71 44 72 41 73 37 74 38 75 39 76 40 77
REMARK SMILES IDX 66 78 67 79 75 80 68 81 74 82 76 83 73 84 69 85 70 86 71 87
REMARK SMILES IDX 72 88 51 89 52 90 60 91 53 92 59 93 61 94 58 95 54 96 55 97
REMARK SMILES IDX 56 98 57 99
REMARK H PARENT 15 7 9 16 22 33 81 52 49 63
REMARK Flexibility Score: inf
ROOT
ATOM      1  C   UNL A   1      32.472  28.885  27.292  1.00  0.00     0.002 C 
ENDROOT
BRANCH   1   2
ATOM      2  C   UNL A   1      31.465  28.695  26.149  1.00  0.00     0.021 C 
BRANCH   2   3
ATOM      3  C   UNL A   1      31.660  29.679  24.998  1.00  0.00     0.116 C 
BRANCH   3   4
ATOM      4  N   UNL A   1      30.585  29.569  24.029  1.00  0.00    -0.352 N 
ATOM      5  C   UNL A   1      30.174  28.590  23.167  1.00  0.00     0.251 C 
ATOM      6  O   UNL A   1      29.148  28.803  22.516  1.00  0.00    -0.269 OA
ATOM      7  H   UNL A   1      30.028  30.380  23.983  1.00  0.00     0.163 HD
BRANCH   5   8
ATOM      8  C   UNL A   1      30.828  27.256  23.032  1.00  0.00     0.041 A 
ATOM      9  C   UNL A   1      31.075  24.894  23.480  1.00  0.00     0.053 A 
ATOM     10  C   UNL A   1      30.600  26.155  23.859  1.00  0.00     0.040 A 
ATOM     11  C   UNL A   1      32.033  24.768  22.460  1.00  0.00    -0.027 A 
ATOM     12  C   UNL A   1      32.355  25.896  21.702  1.00  0.00     0.006 A 
ATOM     13  C   UNL A   1      32.721  23.470  22.132  1.00  0.00     0.046 C 
ATOM     14  C   UNL A   1      31.726  27.113  21.959  1.00  0.00     0.014 A 
BRANCH   9  15
ATOM     15  N   UNL A   1      30.654  23.692  24.131  1.00  0.00    -0.279 N 
ATOM     16  H   UNL A   1      29.910  23.182  23.740  1.00  0.00     0.180 HD
BRANCH  15  17
ATOM     17  S   UNL A   1      31.385  23.106  25.552  1.00  0.00     0.263 S 
ATOM     18  O   UNL A   1      30.690  21.848  25.767  1.00  0.00    -0.201 OA
ATOM     19  O   UNL A   1      31.301  24.178  26.516  1.00  0.00    -0.201 OA
BRANCH  17  20
ATOM     20  C   UNL A   1      33.109  22.707  25.366  1.00  0.00     0.101 A 
ATOM     21  C   UNL A   1      37.295  21.702  25.751  1.00  0.00     0.044 C 
ATOM     22  C   UNL A   1      35.849  22.052  25.555  1.00  0.00    -0.050 A 
ATOM     23  C   UNL A   1      34.908  21.079  25.207  1.00  0.00     0.005 A 
ATOM     24  C   UNL A   1      35.426  23.378  25.681  1.00  0.00     0.020 A 
ATOM     25  C   UNL A   1      33.551  21.410  25.082  1.00  0.00     0.024 A 
ATOM     26  C   UNL A   1      34.066  23.709  25.592  1.00  0.00     0.038 A 
ATOM     27  Br  UNL A   1      33.667  25.565  25.733  1.00  0.00    -0.049 Br
ENDBRANCH  17  20
ENDBRANCH  15  17
ENDBRANCH   9  15
ENDBRANCH   5   8
ENDBRANCH   3   4
ENDBRANCH   2   3
ENDBRANCH   1   2
BRANCH   1  28
ATOM     28  C   UNL A   1      33.678  29.792  26.983  1.00  0.00     0.002 C 
BRANCH  28  29
ATOM     29  C   UNL A   1      33.659  31.180  27.627  1.00  0.00     0.021 C 
BRANCH  29  30
ATOM     30  C   UNL A   1      35.046  31.751  27.889  1.00  0.00     0.116 C 
BRANCH  30  31
ATOM     31  N   UNL A   1      35.337  32.010  29.292  1.00  0.00    -0.352 N 
ATOM     32  C   UNL A   1      36.078  31.251  30.184  1.00  0.00     0.251 C 
ATOM     33  H   UNL A   1      34.954  32.841  29.658  1.00  0.00     0.163 HD
ATOM     34  O   UNL A   1      36.146  31.548  31.364  1.00  0.00    -0.269 OA
BRANCH  32  35
ATOM     35  C   UNL A   1      36.913  30.144  29.651  1.00  0.00     0.039 A 
ATOM     36  C   UNL A   1      37.089  29.027  30.477  1.00  0.00     0.014 A 
ATOM     37  C   UNL A   1      37.694  30.307  28.510  1.00  0.00     0.014 A 
ATOM     38  C   UNL A   1      38.203  28.213  30.298  1.00  0.00     0.010 A 
ATOM     39  C   UNL A   1      38.849  29.561  28.387  1.00  0.00     0.010 A 
ATOM     40  C   UNL A   1      39.135  28.559  29.320  1.00  0.00    -0.014 A 
BRANCH  40  41
ATOM     41  C   UNL A   1      40.484  28.008  29.285  1.00  0.00     0.031 A 
ATOM     42  C   UNL A   1      40.723  26.644  28.782  1.00  0.00     0.074 A 
ATOM     43  C   UNL A   1      41.527  28.766  29.688  1.00  0.00     0.049 A 
ATOM     44  N   UNL A   1      41.712  25.896  29.136  1.00  0.00    -0.248 NA
ATOM     45  C   UNL A   1      39.811  25.991  27.852  1.00  0.00     0.031 C 
ATOM     46  C   UNL A   1      42.948  28.482  29.522  1.00  0.00     0.029 A 
ATOM     47  N   UNL A   1      41.487  29.850  30.561  1.00  0.00    -0.354 N 
ATOM     48  C   UNL A   1      41.741  24.812  28.289  1.00  0.00     0.074 A 
ATOM     49  C   UNL A   1      40.492  24.878  27.564  1.00  0.00     0.031 C 
ATOM     50  C   UNL A   1      43.637  29.176  30.442  1.00  0.00     0.029 A 
ATOM     51  C   UNL A   1      42.672  29.821  31.314  1.00  0.00     0.049 A 
ATOM     52  H   UNL A   1      40.763  30.513  30.636  1.00  0.00     0.167 HD
ATOM     53  C   UNL A   1      42.881  24.067  28.190  1.00  0.00     0.034 A 
ATOM     54  C   UNL A   1      42.631  29.695  32.673  1.00  0.00     0.034 A 
ATOM     55  C   UNL A   1      43.905  24.529  29.131  1.00  0.00     0.049 A 
ATOM     56  C   UNL A   1      43.303  28.437  33.179  1.00  0.00     0.074 A 
ATOM     57  C   UNL A   1      45.029  25.324  28.977  1.00  0.00     0.029 A 
ATOM     58  N   UNL A   1      43.691  24.416  30.501  1.00  0.00    -0.354 N 
ATOM     59  N   UNL A   1      43.606  27.413  32.428  1.00  0.00    -0.248 NA
ATOM     60  C   UNL A   1      43.682  28.235  34.573  1.00  0.00     0.031 C 
ATOM     61  C   UNL A   1      45.446  25.749  30.264  1.00  0.00     0.029 A 
ATOM     62  C   UNL A   1      44.601  25.184  31.204  1.00  0.00     0.049 A 
ATOM     63  H   UNL A   1      42.988  23.865  30.914  1.00  0.00     0.167 HD
ATOM     64  C   UNL A   1      44.187  26.432  33.194  1.00  0.00     0.074 A 
ATOM     65  C   UNL A   1      44.235  27.010  34.527  1.00  0.00     0.031 C 
ATOM     66  C   UNL A   1      44.576  25.233  32.661  1.00  0.00     0.034 A 
BRANCH  53  67
ATOM     67  C   UNL A   1      43.185  23.148  27.023  1.00  0.00     0.023 A 
ATOM     68  C   UNL A   1      42.774  21.798  27.079  1.00  0.00     0.031 A 
ATOM     69  C   UNL A   1      43.911  23.500  25.869  1.00  0.00     0.131 A 
ATOM     70  C   UNL A   1      43.182  20.859  26.112  1.00  0.00     0.055 A 
ATOM     71  C   UNL A   1      44.373  22.557  24.939  1.00  0.00     0.041 A 
ATOM     72  F   UNL A   1      44.154  24.779  25.553  1.00  0.00    -0.206 F 
ATOM     73  C   UNL A   1      44.023  21.223  25.067  1.00  0.00     0.022 A 
BRANCH  70  74
ATOM     74  S   UNL A   1      42.588  19.148  26.233  1.00  0.00     0.124 S 
ATOM     75  O   UNL A   1      41.408  19.168  25.377  1.00  0.00    -0.237 OA
ATOM     76  O   UNL A   1      43.733  18.389  25.743  1.00  0.00    -0.237 OA
ATOM     77  O   UNL A   1      42.310  18.987  27.661  1.00  0.00    -0.744 OA
ENDBRANCH  70  74
ENDBRANCH  53  67
BRANCH  54  78
ATOM     78  C   UNL A   1      41.445  30.362  33.282  1.00  0.00     0.023 A 
ATOM     79  C   UNL A   1      41.478  31.772  33.374  1.00  0.00     0.031 A 
ATOM     80  C   UNL A   1      40.197  29.728  33.365  1.00  0.00     0.131 A 
ATOM     81  C   UNL A   1      40.286  32.511  33.375  1.00  0.00     0.055 A 
ATOM     82  C   UNL A   1      39.010  30.470  33.428  1.00  0.00     0.041 A 
ATOM     83  F   UNL A   1      40.098  28.397  33.250  1.00  0.00    -0.206 F 
ATOM     84  C   UNL A   1      39.048  31.866  33.386  1.00  0.00     0.022 A 
BRANCH  81  85
ATOM     85  S   UNL A   1      40.363  34.304  33.085  1.00  0.00     0.124 S 
ATOM     86  O   UNL A   1      39.551  34.455  31.884  1.00  0.00    -0.237 OA
ATOM     87  O   UNL A   1      39.794  34.861  34.312  1.00  0.00    -0.237 OA
ATOM     88  O   UNL A   1      41.792  34.560  32.916  1.00  0.00    -0.744 OA
ENDBRANCH  81  85
ENDBRANCH  54  78
BRANCH  66  89
ATOM     89  C   UNL A   1      45.062  24.026  33.443  1.00  0.00     0.023 A 
ATOM     90  C   UNL A   1      46.369  23.891  33.934  1.00  0.00     0.031 A 
ATOM     91  C   UNL A   1      44.172  22.975  33.786  1.00  0.00     0.131 A 
ATOM     92  C   UNL A   1      46.773  22.738  34.633  1.00  0.00     0.055 A 
ATOM     93  C   UNL A   1      44.554  21.868  34.552  1.00  0.00     0.041 A 
ATOM     94  F   UNL A   1      42.890  22.978  33.399  1.00  0.00    -0.206 F 
ATOM     95  C   UNL A   1      45.868  21.734  34.966  1.00  0.00     0.022 A 
BRANCH  92  96
ATOM     96  S   UNL A   1      48.529  22.551  35.039  1.00  0.00     0.124 S 
ATOM     97  O   UNL A   1      49.126  23.668  34.312  1.00  0.00    -0.237 OA
ATOM     98  O   UNL A   1      48.530  22.668  36.493  1.00  0.00    -0.237 OA
ATOM     99  O   UNL A   1      48.865  21.225  34.521  1.00  0.00    -0.744 OA
ENDBRANCH  92  96
ENDBRANCH  66  89
ENDBRANCH  40  41
ENDBRANCH  32  35
ENDBRANCH  30  31
ENDBRANCH  29  30
ENDBRANCH  28  29
ENDBRANCH   1  28
TORSDOF 19
ENDMDL
MODEL 2
REMARK VINA RESULT:     -12.6      4.034     10.588
REMARK SMILES Cc1ccc(S(=O)(=O)Nc2cc(C(=O)NCCCCCCNC(=O)c3ccc(-c4c5nc(c(-c6cc(S(=O)(=O)[O-])ccc6F)c6ccc([nH]6)c(-c6cc(S(=O)(=O)[O-])ccc6F)c6nc(c(-c7cc(S(=O)(=O)[O-])ccc7F)c7ccc4[nH]7)C=C6)C=C5)cc3)ccc2C)c(Br)c1
REMARK SMILES IDX 18 1 17 2 16 3 15 4 13 5 14 6 12 8 10 9 11 10 90 11 89 12
REMARK SMILES IDX 91 13 88 14 9 15 6 17 7 18 8 19 5 20 1 21 2 22 3 23 94 24
REMARK SMILES IDX 4 25 92 26 93 27 19 28 20 29 21 30 22 31 23 32 24 34 25 35
REMARK SMILES IDX 26 36 87 37 27 38 86 39 28 40 29 41 30 42 80 43 31 44 85 45
REMARK SMILES IDX 79 46 81 47 32 48 84 49 78 50 77 51 33 53 65 54 45 55 64 56
REMARK SMILES IDX 46 57 49 58 63 59 82 60 47 61 48 62 62 64 83 65 50 66 34 67
REMARK SMILES IDX 35 68 43 69 36 70 42 71 44 72 41 73 37 74 38 75 39 76 40 77
REMARK SMILES IDX 66 78 67 79 75 80 68 81 74 82 76 83 73 84 69 85 70 86 71 87
REMARK SMILES IDX 72 88 51 89 52 90 60 91 53 92 59 93 61 94 58 95 54 96 55 97
REMARK SMILES IDX 56 98 57 99
REMARK H PARENT 15 7 9 16 22 33 81 52 49 63
REMARK Flexibility Score: inf
ROOT
ATOM      1  C   UNL A   1      36.060  21.308  25.092  1.00  0.00     0.002 C 
ENDROOT
BRANCH   1   2
ATOM      2  C   UNL A   1      34.760  21.408  25.902  1.00  0.00     0.021 C 
BRANCH   2   3
ATOM      3  C   UNL A   1      33.754  20.307  25.575  1.00  0.00     0.116 C 
BRANCH   3   4
ATOM      4  N   UNL A   1      33.157  20.516  24.268  1.00  0.00    -0.352 N 
ATOM      5  C   UNL A   1      32.486  21.554  23.682  1.00  0.00     0.251 C 
ATOM      6  O   UNL A   1      32.168  21.425  22.497  1.00  0.00    -0.269 OA
ATOM      7  H   UNL A   1      33.260  19.739  23.672  1.00  0.00     0.163 HD
BRANCH   5   8
ATOM      8  C   UNL A   1      32.195  22.856  24.349  1.00  0.00     0.041 A 
ATOM      9  C   UNL A   1      32.356  25.252  24.617  1.00  0.00     0.053 A 
ATOM     10  C   UNL A   1      32.882  24.051  24.127  1.00  0.00     0.040 A 
ATOM     11  C   UNL A   1      31.336  25.246  25.582  1.00  0.00    -0.027 A 
ATOM     12  C   UNL A   1      30.722  24.032  25.898  1.00  0.00     0.006 A 
ATOM     13  C   UNL A   1      30.858  26.488  26.284  1.00  0.00     0.046 C 
ATOM     14  C   UNL A   1      31.119  22.861  25.255  1.00  0.00     0.014 A 
BRANCH   9  15
ATOM     15  N   UNL A   1      32.855  26.528  24.204  1.00  0.00    -0.279 N 
ATOM     16  H   UNL A   1      33.574  26.944  24.732  1.00  0.00     0.180 HD
BRANCH  15  17
ATOM     17  S   UNL A   1      32.262  27.356  22.841  1.00  0.00     0.263 S 
ATOM     18  O   UNL A   1      31.778  26.273  22.001  1.00  0.00    -0.201 OA
ATOM     19  O   UNL A   1      33.334  28.219  22.401  1.00  0.00    -0.201 OA
BRANCH  17  20
ATOM     20  C   UNL A   1      30.861  28.398  23.182  1.00  0.00     0.101 A 
ATOM     21  C   UNL A   1      27.824  31.459  23.476  1.00  0.00     0.044 C 
ATOM     22  C   UNL A   1      28.846  30.361  23.415  1.00  0.00    -0.050 A 
ATOM     23  C   UNL A   1      28.644  29.226  22.626  1.00  0.00     0.005 A 
ATOM     24  C   UNL A   1      30.009  30.444  24.184  1.00  0.00     0.020 A 
ATOM     25  C   UNL A   1      29.631  28.234  22.535  1.00  0.00     0.024 A 
ATOM     26  C   UNL A   1      31.015  29.474  24.070  1.00  0.00     0.038 A 
ATOM     27  Br  UNL A   1      32.508  29.708  25.227  1.00  0.00    -0.049 Br
ENDBRANCH  17  20
ENDBRANCH  15  17
ENDBRANCH   9  15
ENDBRANCH   5   8
ENDBRANCH   3   4
ENDBRANCH   2   3
ENDBRANCH   1   2
BRANCH   1  28
ATOM     28  C   UNL A   1      37.100  22.414  25.348  1.00  0.00     0.002 C 
BRANCH  28  29
ATOM     29  C   UNL A   1      38.541  21.947  25.563  1.00  0.00     0.021 C 
BRANCH  29  30
ATOM     30  C   UNL A   1      39.248  22.657  26.710  1.00  0.00     0.116 C 
BRANCH  30  31
ATOM     31  N   UNL A   1      40.651  22.957  26.460  1.00  0.00    -0.352 N 
ATOM     32  C   UNL A   1      41.278  24.191  26.376  1.00  0.00     0.251 C 
ATOM     33  H   UNL A   1      41.236  22.174  26.334  1.00  0.00     0.163 HD
ATOM     34  O   UNL A   1      42.450  24.285  26.055  1.00  0.00    -0.269 OA
BRANCH  32  35
ATOM     35  C   UNL A   1      40.536  25.395  26.828  1.00  0.00     0.039 A 
ATOM     36  C   UNL A   1      40.800  26.594  26.152  1.00  0.00     0.014 A 
ATOM     37  C   UNL A   1      39.817  25.402  28.020  1.00  0.00     0.014 A 
ATOM     38  C   UNL A   1      40.561  27.806  26.792  1.00  0.00     0.010 A 
ATOM     39  C   UNL A   1      39.666  26.597  28.696  1.00  0.00     0.010 A 
ATOM     40  C   UNL A   1      40.100  27.790  28.108  1.00  0.00    -0.014 A 
BRANCH  40  41
ATOM     41  C   UNL A   1      40.160  28.956  28.980  1.00  0.00     0.031 A 
ATOM     42  C   UNL A   1      39.083  29.961  28.960  1.00  0.00     0.074 A 
ATOM     43  C   UNL A   1      41.195  29.099  29.835  1.00  0.00     0.049 A 
ATOM     44  N   UNL A   1      39.234  31.202  29.279  1.00  0.00    -0.248 NA
ATOM     45  C   UNL A   1      37.731  29.640  28.522  1.00  0.00     0.031 C 
ATOM     46  C   UNL A   1      41.321  30.061  30.925  1.00  0.00     0.029 A 
ATOM     47  N   UNL A   1      42.464  28.539  29.716  1.00  0.00    -0.354 N 
ATOM     48  C   UNL A   1      37.982  31.765  29.376  1.00  0.00     0.074 A 
ATOM     49  C   UNL A   1      37.090  30.774  28.817  1.00  0.00     0.031 C 
ATOM     50  C   UNL A   1      42.623  30.223  31.210  1.00  0.00     0.029 A 
ATOM     51  C   UNL A   1      43.381  29.474  30.223  1.00  0.00     0.049 A 
ATOM     52  H   UNL A   1      42.678  27.653  29.345  1.00  0.00     0.167 HD
ATOM     53  C   UNL A   1      37.825  32.940  30.054  1.00  0.00     0.034 A 
ATOM     54  C   UNL A   1      44.362  29.991  29.427  1.00  0.00     0.034 A 
ATOM     55  C   UNL A   1      39.112  33.473  30.507  1.00  0.00     0.049 A 
ATOM     56  C   UNL A   1      44.259  31.490  29.244  1.00  0.00     0.074 A 
ATOM     57  C   UNL A   1      39.756  33.452  31.734  1.00  0.00     0.029 A 
ATOM     58  N   UNL A   1      40.059  33.886  29.575  1.00  0.00    -0.354 N 
ATOM     59  N   UNL A   1      43.194  32.192  29.523  1.00  0.00    -0.248 NA
ATOM     60  C   UNL A   1      45.347  32.312  28.727  1.00  0.00     0.031 C 
ATOM     61  C   UNL A   1      41.118  33.785  31.520  1.00  0.00     0.029 A 
ATOM     62  C   UNL A   1      41.296  34.044  30.172  1.00  0.00     0.049 A 
ATOM     63  H   UNL A   1      39.874  34.043  28.621  1.00  0.00     0.167 HD
ATOM     64  C   UNL A   1      43.421  33.514  29.227  1.00  0.00     0.074 A 
ATOM     65  C   UNL A   1      44.796  33.538  28.756  1.00  0.00     0.031 C 
ATOM     66  C   UNL A   1      42.456  34.469  29.396  1.00  0.00     0.034 A 
BRANCH  53  67
ATOM     67  C   UNL A   1      36.492  33.427  30.591  1.00  0.00     0.023 A 
ATOM     68  C   UNL A   1      35.606  34.108  29.728  1.00  0.00     0.031 A 
ATOM     69  C   UNL A   1      36.056  33.317  31.925  1.00  0.00     0.131 A 
ATOM     70  C   UNL A   1      34.442  34.737  30.209  1.00  0.00     0.055 A 
ATOM     71  C   UNL A   1      34.933  33.995  32.420  1.00  0.00     0.041 A 
ATOM     72  F   UNL A   1      36.658  32.498  32.797  1.00  0.00    -0.206 F 
ATOM     73  C   UNL A   1      34.126  34.726  31.563  1.00  0.00     0.022 A 
BRANCH  70  74
ATOM     74  S   UNL A   1      33.333  35.566  29.036  1.00  0.00     0.124 S 
ATOM     75  O   UNL A   1      32.542  36.425  29.910  1.00  0.00    -0.237 OA
ATOM     76  O   UNL A   1      34.273  36.237  28.145  1.00  0.00    -0.237 OA
ATOM     77  O   UNL A   1      32.594  34.459  28.429  1.00  0.00    -0.744 OA
ENDBRANCH  70  74
ENDBRANCH  53  67
BRANCH  54  78
ATOM     78  C   UNL A   1      44.863  29.015  28.417  1.00  0.00     0.023 A 
ATOM     79  C   UNL A   1      45.664  27.953  28.891  1.00  0.00     0.031 A 
ATOM     80  C   UNL A   1      44.256  28.869  27.162  1.00  0.00     0.131 A 
ATOM     81  C   UNL A   1      45.705  26.732  28.202  1.00  0.00     0.055 A 
ATOM     82  C   UNL A   1      44.350  27.668  26.446  1.00  0.00     0.041 A 
ATOM     83  F   UNL A   1      43.457  29.828  26.672  1.00  0.00    -0.206 F 
ATOM     84  C   UNL A   1      45.037  26.578  26.987  1.00  0.00     0.022 A 
BRANCH  81  85
ATOM     85  S   UNL A   1      46.404  25.275  29.036  1.00  0.00     0.124 S 
ATOM     86  O   UNL A   1      45.551  24.201  28.540  1.00  0.00    -0.237 OA
ATOM     87  O   UNL A   1      47.788  25.258  28.565  1.00  0.00    -0.237 OA
ATOM     88  O   UNL A   1      46.256  25.592  30.456  1.00  0.00    -0.744 OA
ENDBRANCH  81  85
ENDBRANCH  54  78
BRANCH  66  89
ATOM     89  C   UNL A   1      42.542  35.914  28.940  1.00  0.00     0.023 A 
ATOM     90  C   UNL A   1      43.257  36.906  29.628  1.00  0.00     0.031 A 
ATOM     91  C   UNL A   1      41.945  36.330  27.722  1.00  0.00     0.131 A 
ATOM     92  C   UNL A   1      43.283  38.238  29.172  1.00  0.00     0.055 A 
ATOM     93  C   UNL A   1      42.043  37.636  27.228  1.00  0.00     0.041 A 
ATOM     94  F   UNL A   1      41.246  35.486  26.952  1.00  0.00    -0.206 F 
ATOM     95  C   UNL A   1      42.700  38.606  27.964  1.00  0.00     0.022 A 
BRANCH  92  96
ATOM     96  S   UNL A   1      44.044  39.494  30.235  1.00  0.00     0.124 S 
ATOM     97  O   UNL A   1      44.785  40.297  29.268  1.00  0.00    -0.237 OA
ATOM     98  O   UNL A   1      42.883  40.141  30.837  1.00  0.00    -0.237 OA
ATOM     99  O   UNL A   1      44.869  38.715  31.157  1.00  0.00    -0.744 OA
ENDBRANCH  92  96
ENDBRANCH  66  89
ENDBRANCH  40  41
ENDBRANCH  32  35
ENDBRANCH  30  31
ENDBRANCH  29  30
ENDBRANCH  28  29
ENDBRANCH   1  28
TORSDOF 19
ENDMDL
MODEL 3
REMARK VINA RESULT:     -12.4      3.936     10.329
REMARK SMILES Cc1ccc(S(=O)(=O)Nc2cc(C(=O)NCCCCCCNC(=O)c3ccc(-c4c5nc(c(-c6cc(S(=O)(=O)[O-])ccc6F)c6ccc([nH]6)c(-c6cc(S(=O)(=O)[O-])ccc6F)c6nc(c(-c7cc(S(=O)(=O)[O-])ccc7F)c7ccc4[nH]7)C=C6)C=C5)cc3)ccc2C)c(Br)c1
REMARK SMILES IDX 18 1 17 2 16 3 15 4 13 5 14 6 12 8 10 9 11 10 90 11 89 12
REMARK SMILES IDX 91 13 88 14 9 15 6 17 7 18 8 19 5 20 1 21 2 22 3 23 94 24
REMARK SMILES IDX 4 25 92 26 93 27 19 28 20 29 21 30 22 31 23 32 24 34 25 35
REMARK SMILES IDX 26 36 87 37 27 38 86 39 28 40 29 41 30 42 80 43 31 44 85 45
REMARK SMILES IDX 79 46 81 47 32 48 84 49 78 50 77 51 33 53 65 54 45 55 64 56
REMARK SMILES IDX 46 57 49 58 63 59 82 60 47 61 48 62 62 64 83 65 50 66 34 67
REMARK SMILES IDX 35 68 43 69 36 70 42 71 44 72 41 73 37 74 38 75 39 76 40 77
REMARK SMILES IDX 66 78 67 79 75 80 68 81 74 82 76 83 73 84 69 85 70 86 71 87
REMARK SMILES IDX 72 88 51 89 52 90 60 91 53 92 59 93 61 94 58 95 54 96 55 97
REMARK SMILES IDX 56 98 57 99
REMARK H PARENT 15 7 9 16 22 33 81 52 49 63
REMARK Flexibility Score: inf
ROOT
ATOM      1  C   UNL A   1      36.216  22.508  25.842  1.00  0.00     0.002 C 
ENDROOT
BRANCH   1   2
ATOM      2  C   UNL A   1      35.076  23.535  25.880  1.00  0.00     0.021 C 
BRANCH   2   3
ATOM      3  C   UNL A   1      33.993  23.203  26.904  1.00  0.00     0.116 C 
BRANCH   3   4
ATOM      4  N   UNL A   1      33.166  22.100  26.450  1.00  0.00    -0.352 N 
ATOM      5  C   UNL A   1      32.438  21.857  25.319  1.00  0.00     0.251 C 
ATOM      6  O   UNL A   1      31.894  20.754  25.222  1.00  0.00    -0.269 OA
ATOM      7  H   UNL A   1      33.121  21.363  27.102  1.00  0.00     0.163 HD
BRANCH   5   8
ATOM      8  C   UNL A   1      32.333  22.796  24.165  1.00  0.00     0.041 A 
ATOM      9  C   UNL A   1      31.372  24.642  22.937  1.00  0.00     0.053 A 
ATOM     10  C   UNL A   1      31.246  23.630  23.895  1.00  0.00     0.040 A 
ATOM     11  C   UNL A   1      32.443  24.639  22.029  1.00  0.00    -0.027 A 
ATOM     12  C   UNL A   1      33.481  23.725  22.223  1.00  0.00     0.006 A 
ATOM     13  C   UNL A   1      32.537  25.585  20.862  1.00  0.00     0.046 C 
ATOM     14  C   UNL A   1      33.444  22.846  23.304  1.00  0.00     0.014 A 
BRANCH   9  15
ATOM     15  N   UNL A   1      30.406  25.689  22.802  1.00  0.00    -0.279 N 
ATOM     16  H   UNL A   1      29.927  25.779  21.948  1.00  0.00     0.180 HD
BRANCH  15  17
ATOM     17  S   UNL A   1      30.049  26.785  24.055  1.00  0.00     0.263 S 
ATOM     18  O   UNL A   1      29.213  25.992  24.938  1.00  0.00    -0.201 OA
ATOM     19  O   UNL A   1      29.538  27.973  23.411  1.00  0.00    -0.201 OA
BRANCH  17  20
ATOM     20  C   UNL A   1      31.468  27.280  25.008  1.00  0.00     0.101 A 
ATOM     21  C   UNL A   1      34.466  29.171  27.480  1.00  0.00     0.044 C 
ATOM     22  C   UNL A   1      33.464  28.465  26.614  1.00  0.00    -0.050 A 
ATOM     23  C   UNL A   1      32.650  27.452  27.125  1.00  0.00     0.005 A 
ATOM     24  C   UNL A   1      33.358  28.790  25.259  1.00  0.00     0.020 A 
ATOM     25  C   UNL A   1      31.679  26.840  26.319  1.00  0.00     0.024 A 
ATOM     26  C   UNL A   1      32.366  28.208  24.457  1.00  0.00     0.038 A 
ATOM     27  Br  UNL A   1      32.395  28.719  22.624  1.00  0.00    -0.049 Br
ENDBRANCH  17  20
ENDBRANCH  15  17
ENDBRANCH   9  15
ENDBRANCH   5   8
ENDBRANCH   3   4
ENDBRANCH   2   3
ENDBRANCH   1   2
BRANCH   1  28
ATOM     28  C   UNL A   1      37.640  23.086  25.730  1.00  0.00     0.002 C 
BRANCH  28  29
ATOM     29  C   UNL A   1      38.786  22.105  25.988  1.00  0.00     0.021 C 
BRANCH  29  30
ATOM     30  C   UNL A   1      39.761  22.573  27.061  1.00  0.00     0.116 C 
BRANCH  30  31
ATOM     31  N   UNL A   1      41.056  23.004  26.552  1.00  0.00    -0.352 N 
ATOM     32  C   UNL A   1      41.510  24.290  26.301  1.00  0.00     0.251 C 
ATOM     33  H   UNL A   1      41.698  22.282  26.361  1.00  0.00     0.163 HD
ATOM     34  O   UNL A   1      42.590  24.488  25.773  1.00  0.00    -0.269 OA
BRANCH  32  35
ATOM     35  C   UNL A   1      40.720  25.436  26.820  1.00  0.00     0.039 A 
ATOM     36  C   UNL A   1      40.823  26.645  26.122  1.00  0.00     0.014 A 
ATOM     37  C   UNL A   1      40.117  25.395  28.075  1.00  0.00     0.014 A 
ATOM     38  C   UNL A   1      40.549  27.840  26.781  1.00  0.00     0.010 A 
ATOM     39  C   UNL A   1      39.936  26.579  28.761  1.00  0.00     0.010 A 
ATOM     40  C   UNL A   1      40.217  27.798  28.135  1.00  0.00    -0.014 A 
BRANCH  40  41
ATOM     41  C   UNL A   1      40.265  28.972  28.997  1.00  0.00     0.031 A 
ATOM     42  C   UNL A   1      39.173  29.960  28.978  1.00  0.00     0.074 A 
ATOM     43  C   UNL A   1      41.306  29.138  29.843  1.00  0.00     0.049 A 
ATOM     44  N   UNL A   1      39.306  31.206  29.286  1.00  0.00    -0.248 NA
ATOM     45  C   UNL A   1      37.822  29.614  28.554  1.00  0.00     0.031 C 
ATOM     46  C   UNL A   1      41.425  30.111  30.924  1.00  0.00     0.029 A 
ATOM     47  N   UNL A   1      42.582  28.597  29.717  1.00  0.00    -0.354 N 
ATOM     48  C   UNL A   1      38.047  31.749  29.388  1.00  0.00     0.074 A 
ATOM     49  C   UNL A   1      37.166  30.740  28.845  1.00  0.00     0.031 C 
ATOM     50  C   UNL A   1      42.726  30.296  31.197  1.00  0.00     0.029 A 
ATOM     51  C   UNL A   1      43.488  29.551  30.210  1.00  0.00     0.049 A 
ATOM     52  H   UNL A   1      42.807  27.712  29.352  1.00  0.00     0.167 HD
ATOM     53  C   UNL A   1      37.876  32.927  30.058  1.00  0.00     0.034 A 
ATOM     54  C   UNL A   1      44.454  30.076  29.401  1.00  0.00     0.034 A 
ATOM     55  C   UNL A   1      39.159  33.484  30.496  1.00  0.00     0.049 A 
ATOM     56  C   UNL A   1      44.326  31.572  29.207  1.00  0.00     0.074 A 
ATOM     57  C   UNL A   1      39.813  33.483  31.717  1.00  0.00     0.029 A 
ATOM     58  N   UNL A   1      40.092  33.904  29.553  1.00  0.00    -0.354 N 
ATOM     59  N   UNL A   1      43.253  32.260  29.489  1.00  0.00    -0.248 NA
ATOM     60  C   UNL A   1      45.397  32.407  28.675  1.00  0.00     0.031 C 
ATOM     61  C   UNL A   1      41.168  33.836  31.490  1.00  0.00     0.029 A 
ATOM     62  C   UNL A   1      41.331  34.087  30.139  1.00  0.00     0.049 A 
ATOM     63  H   UNL A   1      39.897  34.051  28.599  1.00  0.00     0.167 HD
ATOM     64  C   UNL A   1      43.456  33.583  29.180  1.00  0.00     0.074 A 
ATOM     65  C   UNL A   1      44.827  33.624  28.698  1.00  0.00     0.031 C 
ATOM     66  C   UNL A   1      42.477  34.524  29.349  1.00  0.00     0.034 A 
BRANCH  53  67
ATOM     67  C   UNL A   1      36.541  33.398  30.602  1.00  0.00     0.023 A 
ATOM     68  C   UNL A   1      35.655  34.096  29.752  1.00  0.00     0.031 A 
ATOM     69  C   UNL A   1      36.100  33.255  31.931  1.00  0.00     0.131 A 
ATOM     70  C   UNL A   1      34.487  34.710  30.244  1.00  0.00     0.055 A 
ATOM     71  C   UNL A   1      34.974  33.919  32.439  1.00  0.00     0.041 A 
ATOM     72  F   UNL A   1      36.702  32.418  32.786  1.00  0.00    -0.206 F 
ATOM     73  C   UNL A   1      34.168  34.667  31.597  1.00  0.00     0.022 A 
BRANCH  70  74
ATOM     74  S   UNL A   1      33.380  35.564  29.087  1.00  0.00     0.124 S 
ATOM     75  O   UNL A   1      32.610  36.428  29.974  1.00  0.00    -0.237 OA
ATOM     76  O   UNL A   1      34.322  36.228  28.192  1.00  0.00    -0.237 OA
ATOM     77  O   UNL A   1      32.620  34.472  28.479  1.00  0.00    -0.744 OA
ENDBRANCH  70  74
ENDBRANCH  53  67
BRANCH  54  78
ATOM     78  C   UNL A   1      44.962  29.100  28.395  1.00  0.00     0.023 A 
ATOM     79  C   UNL A   1      45.838  28.094  28.860  1.00  0.00     0.031 A 
ATOM     80  C   UNL A   1      44.311  28.889  27.171  1.00  0.00     0.131 A 
ATOM     81  C   UNL A   1      45.913  26.859  28.201  1.00  0.00     0.055 A 
ATOM     82  C   UNL A   1      44.438  27.675  26.483  1.00  0.00     0.041 A 
ATOM     83  F   UNL A   1      43.443  29.792  26.694  1.00  0.00    -0.206 F 
ATOM     84  C   UNL A   1      45.203  26.637  27.021  1.00  0.00     0.022 A 
BRANCH  81  85
ATOM     85  S   UNL A   1      46.722  25.463  29.040  1.00  0.00     0.124 S 
ATOM     86  O   UNL A   1      45.795  25.183  30.130  1.00  0.00    -0.237 OA
ATOM     87  O   UNL A   1      46.796  24.447  27.991  1.00  0.00    -0.237 OA
ATOM     88  O   UNL A   1      48.017  26.010  29.439  1.00  0.00    -0.744 OA
ENDBRANCH  81  85
ENDBRANCH  54  78
BRANCH  66  89
ATOM     89  C   UNL A   1      42.537  35.967  28.881  1.00  0.00     0.023 A 
ATOM     90  C   UNL A   1      43.164  36.993  29.603  1.00  0.00     0.031 A 
ATOM     91  C   UNL A   1      42.008  36.345  27.620  1.00  0.00     0.131 A 
ATOM     92  C   UNL A   1      43.169  38.320  29.132  1.00  0.00     0.055 A 
ATOM     93  C   UNL A   1      42.087  37.648  27.117  1.00  0.00     0.041 A 
ATOM     94  F   UNL A   1      41.396  35.465  26.816  1.00  0.00    -0.206 F 
ATOM     95  C   UNL A   1      42.654  38.652  27.882  1.00  0.00     0.022 A 
BRANCH  92  96
ATOM     96  S   UNL A   1      43.805  39.617  30.227  1.00  0.00     0.124 S 
ATOM     97  O   UNL A   1      44.222  38.847  31.394  1.00  0.00    -0.237 OA
ATOM     98  O   UNL A   1      44.882  40.198  29.433  1.00  0.00    -0.237 OA
ATOM     99  O   UNL A   1      42.650  40.489  30.439  1.00  0.00    -0.744 OA
ENDBRANCH  92  96
ENDBRANCH  66  89
ENDBRANCH  40  41
ENDBRANCH  32  35
ENDBRANCH  30  31
ENDBRANCH  29  30
ENDBRANCH  28  29
ENDBRANCH   1  28
TORSDOF 19
ENDMDL
