MODEL 1
REMARK VINA RESULT:     -11.3      0.000      0.000
REMARK SMILES CCN(Cc1ccccn1)c1nc(C)cc(C)c1C(=O)NCCCCCCNC(=O)c1ccc(-c2c3nc(c(-c4cc(S(=O)(=O)[O-])ccc4F)c4ccc([nH]4)c(-c4cc(S(=O)(=O)[O-])ccc4F)c4nc(c(-c5cc(S(=O)(=O)[O-])ccc5F)c5ccc2[nH]5)C=C4)C=C3)cc1
REMARK SMILES IDX 24 1 23 2 22 3 21 4 19 5 20 6 18 8 11 9 12 10 13 11 16 12
REMARK SMILES IDX 14 13 15 14 17 15 3 16 2 17 1 18 4 19 5 20 6 21 10 22 7 23
REMARK SMILES IDX 9 24 8 25 25 26 26 27 27 28 28 29 29 30 30 32 31 33 32 34
REMARK SMILES IDX 93 35 33 36 92 37 34 38 35 39 36 40 86 41 37 42 91 43 85 44
REMARK SMILES IDX 87 45 38 46 90 47 84 48 83 49 39 51 71 52 51 53 70 54 52 55
REMARK SMILES IDX 55 56 69 57 88 58 53 59 54 60 68 62 89 63 56 64 40 65 41 66
REMARK SMILES IDX 49 67 42 68 48 69 50 70 47 71 43 72 44 73 45 74 46 75 72 76
REMARK SMILES IDX 73 77 81 78 74 79 80 80 82 81 79 82 75 83 76 84 77 85 78 86
REMARK SMILES IDX 57 87 58 88 66 89 59 90 65 91 67 92 64 93 60 94 61 95 62 96
REMARK SMILES IDX 63 97
REMARK H PARENT 21 7 28 31 87 50 55 61
REMARK Flexibility Score: inf
ROOT
ATOM      1  C   UNL A   1      36.464  22.189  25.733  1.00  0.00     0.002 C 
ENDROOT
BRANCH   1   2
ATOM      2  C   UNL A   1      36.577  23.715  25.749  1.00  0.00     0.021 C 
BRANCH   2   3
ATOM      3  C   UNL A   1      35.335  24.540  25.432  1.00  0.00     0.116 C 
BRANCH   3   4
ATOM      4  N   UNL A   1      34.896  24.560  24.056  1.00  0.00    -0.352 N 
ATOM      5  C   UNL A   1      33.614  24.428  23.547  1.00  0.00     0.255 C 
ATOM      6  O   UNL A   1      33.428  24.760  22.376  1.00  0.00    -0.269 OA
ATOM      7  H   UNL A   1      35.606  24.681  23.386  1.00  0.00     0.163 HD
BRANCH   5   8
ATOM      8  C   UNL A   1      32.479  23.892  24.356  1.00  0.00     0.085 A 
ATOM      9  C   UNL A   1      31.588  24.799  24.974  1.00  0.00     0.142 A 
ATOM     10  N   UNL A   1      30.596  24.354  25.788  1.00  0.00    -0.235 NA
ATOM     11  C   UNL A   1      30.483  23.050  26.087  1.00  0.00     0.040 A 
ATOM     12  C   UNL A   1      32.356  22.516  24.680  1.00  0.00    -0.033 A 
ATOM     13  C   UNL A   1      29.500  22.692  27.157  1.00  0.00     0.067 C 
ATOM     14  C   UNL A   1      31.322  22.106  25.534  1.00  0.00     0.028 A 
ATOM     15  C   UNL A   1      33.279  21.427  24.213  1.00  0.00     0.045 C 
BRANCH   9  16
ATOM     16  N   UNL A   1      31.662  26.182  24.875  1.00  0.00    -0.350 N 
BRANCH  16  17
ATOM     17  C   UNL A   1      31.343  26.824  23.607  1.00  0.00     0.115 C 
ATOM     18  C   UNL A   1      30.030  27.585  23.655  1.00  0.00     0.027 C 
ENDBRANCH  16  17
BRANCH  16  19
ATOM     19  C   UNL A   1      31.419  26.933  26.127  1.00  0.00     0.174 C 
BRANCH  19  20
ATOM     20  C   UNL A   1      32.422  28.025  26.519  1.00  0.00     0.060 A 
ATOM     21  C   UNL A   1      33.803  27.831  26.447  1.00  0.00     0.026 A 
ATOM     22  N   UNL A   1      31.899  29.202  26.966  1.00  0.00    -0.259 NA
ATOM     23  C   UNL A   1      34.663  28.885  26.752  1.00  0.00     0.004 A 
ATOM     24  C   UNL A   1      32.757  30.207  27.252  1.00  0.00     0.111 A 
ATOM     25  C   UNL A   1      34.133  30.102  27.153  1.00  0.00     0.020 A 
ENDBRANCH  19  20
ENDBRANCH  16  19
ENDBRANCH   9  16
ENDBRANCH   5   8
ENDBRANCH   3   4
ENDBRANCH   2   3
ENDBRANCH   1   2
BRANCH   1  26
ATOM     26  C   UNL A   1      37.031  21.419  24.535  1.00  0.00     0.002 C 
BRANCH  26  27
ATOM     27  C   UNL A   1      38.033  20.295  24.806  1.00  0.00     0.021 C 
BRANCH  27  28
ATOM     28  C   UNL A   1      39.041  20.520  25.927  1.00  0.00     0.116 C 
BRANCH  28  29
ATOM     29  N   UNL A   1      40.091  19.519  25.961  1.00  0.00    -0.352 N 
ATOM     30  C   UNL A   1      41.448  19.664  26.121  1.00  0.00     0.251 C 
ATOM     31  H   UNL A   1      39.783  18.591  25.852  1.00  0.00     0.163 HD
ATOM     32  O   UNL A   1      42.176  18.686  25.975  1.00  0.00    -0.269 OA
BRANCH  30  33
ATOM     33  C   UNL A   1      42.044  20.986  26.437  1.00  0.00     0.039 A 
ATOM     34  C   UNL A   1      42.396  21.832  25.381  1.00  0.00     0.014 A 
ATOM     35  C   UNL A   1      42.288  21.387  27.754  1.00  0.00     0.014 A 
ATOM     36  C   UNL A   1      42.931  23.098  25.644  1.00  0.00     0.010 A 
ATOM     37  C   UNL A   1      42.758  22.675  28.017  1.00  0.00     0.010 A 
ATOM     38  C   UNL A   1      43.085  23.546  26.966  1.00  0.00    -0.014 A 
BRANCH  38  39
ATOM     39  C   UNL A   1      43.581  24.919  27.263  1.00  0.00     0.031 A 
ATOM     40  C   UNL A   1      42.649  25.957  27.832  1.00  0.00     0.074 A 
ATOM     41  C   UNL A   1      44.856  25.247  26.964  1.00  0.00     0.049 A 
ATOM     42  N   UNL A   1      42.875  27.221  28.088  1.00  0.00    -0.248 NA
ATOM     43  C   UNL A   1      41.275  25.523  28.129  1.00  0.00     0.031 C 
ATOM     44  C   UNL A   1      45.846  24.338  26.380  1.00  0.00     0.029 A 
ATOM     45  N   UNL A   1      45.537  26.432  27.096  1.00  0.00    -0.354 N 
ATOM     46  C   UNL A   1      41.669  27.739  28.552  1.00  0.00     0.074 A 
ATOM     47  C   UNL A   1      40.705  26.660  28.504  1.00  0.00     0.031 C 
ATOM     48  C   UNL A   1      47.008  24.993  26.226  1.00  0.00     0.029 A 
ATOM     49  C   UNL A   1      46.838  26.379  26.649  1.00  0.00     0.049 A 
ATOM     50  H   UNL A   1      45.132  27.245  27.477  1.00  0.00     0.167 HD
ATOM     51  C   UNL A   1      41.398  28.993  28.989  1.00  0.00     0.034 A 
ATOM     52  C   UNL A   1      47.782  27.339  26.572  1.00  0.00     0.034 A 
ATOM     53  C   UNL A   1      42.380  30.049  29.061  1.00  0.00     0.049 A 
ATOM     54  C   UNL A   1      47.444  28.731  27.052  1.00  0.00     0.074 A 
ATOM     55  C   UNL A   1      42.229  31.328  29.571  1.00  0.00     0.029 A 
ATOM     56  N   UNL A   1      43.686  29.957  28.602  1.00  0.00    -0.354 N 
ATOM     57  N   UNL A   1      46.318  29.181  27.557  1.00  0.00    -0.248 NA
ATOM     58  C   UNL A   1      48.506  29.743  26.960  1.00  0.00     0.031 C 
ATOM     59  C   UNL A   1      43.416  32.031  29.347  1.00  0.00     0.029 A 
ATOM     60  C   UNL A   1      44.338  31.168  28.777  1.00  0.00     0.049 A 
ATOM     61  H   UNL A   1      44.092  29.150  28.210  1.00  0.00     0.167 HD
ATOM     62  C   UNL A   1      46.555  30.515  27.882  1.00  0.00     0.074 A 
ATOM     63  C   UNL A   1      47.932  30.790  27.531  1.00  0.00     0.031 C 
ATOM     64  C   UNL A   1      45.713  31.430  28.424  1.00  0.00     0.034 A 
BRANCH  51  65
ATOM     65  C   UNL A   1      39.979  29.311  29.396  1.00  0.00     0.023 A 
ATOM     66  C   UNL A   1      39.596  29.429  30.742  1.00  0.00     0.031 A 
ATOM     67  C   UNL A   1      38.997  29.525  28.410  1.00  0.00     0.131 A 
ATOM     68  C   UNL A   1      38.258  29.700  31.068  1.00  0.00     0.055 A 
ATOM     69  C   UNL A   1      37.684  29.867  28.740  1.00  0.00     0.041 A 
ATOM     70  F   UNL A   1      39.299  29.406  27.107  1.00  0.00    -0.206 F 
ATOM     71  C   UNL A   1      37.306  29.947  30.076  1.00  0.00     0.022 A 
BRANCH  68  72
ATOM     72  S   UNL A   1      37.754  29.621  32.808  1.00  0.00     0.124 S 
ATOM     73  O   UNL A   1      36.689  30.619  32.852  1.00  0.00    -0.237 OA
ATOM     74  O   UNL A   1      37.336  28.232  32.954  1.00  0.00    -0.237 OA
ATOM     75  O   UNL A   1      38.970  29.986  33.535  1.00  0.00    -0.744 OA
ENDBRANCH  68  72
ENDBRANCH  51  65
BRANCH  52  76
ATOM     76  C   UNL A   1      49.133  27.048  26.005  1.00  0.00     0.023 A 
ATOM     77  C   UNL A   1      49.474  27.454  24.706  1.00  0.00     0.031 A 
ATOM     78  C   UNL A   1      50.073  26.281  26.719  1.00  0.00     0.131 A 
ATOM     79  C   UNL A   1      50.684  27.032  24.132  1.00  0.00     0.055 A 
ATOM     80  C   UNL A   1      51.306  25.923  26.169  1.00  0.00     0.041 A 
ATOM     81  F   UNL A   1      49.804  25.863  27.966  1.00  0.00    -0.206 F 
ATOM     82  C   UNL A   1      51.608  26.281  24.860  1.00  0.00     0.022 A 
BRANCH  79  83
ATOM     83  S   UNL A   1      50.967  27.363  22.370  1.00  0.00     0.124 S 
ATOM     84  O   UNL A   1      49.799  26.740  21.760  1.00  0.00    -0.237 OA
ATOM     85  O   UNL A   1      51.008  28.821  22.340  1.00  0.00    -0.237 OA
ATOM     86  O   UNL A   1      52.242  26.699  22.102  1.00  0.00    -0.744 OA
ENDBRANCH  79  83
ENDBRANCH  52  76
BRANCH  64  87
ATOM     87  C   UNL A   1      46.280  32.796  28.725  1.00  0.00     0.023 A 
ATOM     88  C   UNL A   1      46.179  33.860  27.812  1.00  0.00     0.031 A 
ATOM     89  C   UNL A   1      46.946  33.031  29.943  1.00  0.00     0.131 A 
ATOM     90  C   UNL A   1      46.785  35.092  28.106  1.00  0.00     0.055 A 
ATOM     91  C   UNL A   1      47.489  34.277  30.257  1.00  0.00     0.041 A 
ATOM     92  F   UNL A   1      47.075  32.049  30.851  1.00  0.00    -0.206 F 
ATOM     93  C   UNL A   1      47.423  35.312  29.329  1.00  0.00     0.022 A 
BRANCH  90  94
ATOM     94  S   UNL A   1      46.812  36.376  26.823  1.00  0.00     0.124 S 
ATOM     95  O   UNL A   1      45.899  37.373  27.373  1.00  0.00    -0.237 OA
ATOM     96  O   UNL A   1      48.222  36.753  26.789  1.00  0.00    -0.237 OA
ATOM     97  O   UNL A   1      46.329  35.680  25.632  1.00  0.00    -0.744 OA
ENDBRANCH  90  94
ENDBRANCH  64  87
ENDBRANCH  38  39
ENDBRANCH  30  33
ENDBRANCH  28  29
ENDBRANCH  27  28
ENDBRANCH  26  27
ENDBRANCH   1  26
TORSDOF 20
ENDMDL
MODEL 2
REMARK VINA RESULT:     -11.3      1.467      3.576
REMARK SMILES CCN(Cc1ccccn1)c1nc(C)cc(C)c1C(=O)NCCCCCCNC(=O)c1ccc(-c2c3nc(c(-c4cc(S(=O)(=O)[O-])ccc4F)c4ccc([nH]4)c(-c4cc(S(=O)(=O)[O-])ccc4F)c4nc(c(-c5cc(S(=O)(=O)[O-])ccc5F)c5ccc2[nH]5)C=C4)C=C3)cc1
REMARK SMILES IDX 24 1 23 2 22 3 21 4 19 5 20 6 18 8 11 9 12 10 13 11 16 12
REMARK SMILES IDX 14 13 15 14 17 15 3 16 2 17 1 18 4 19 5 20 6 21 10 22 7 23
REMARK SMILES IDX 9 24 8 25 25 26 26 27 27 28 28 29 29 30 30 32 31 33 32 34
REMARK SMILES IDX 93 35 33 36 92 37 34 38 35 39 36 40 86 41 37 42 91 43 85 44
REMARK SMILES IDX 87 45 38 46 90 47 84 48 83 49 39 51 71 52 51 53 70 54 52 55
REMARK SMILES IDX 55 56 69 57 88 58 53 59 54 60 68 62 89 63 56 64 40 65 41 66
REMARK SMILES IDX 49 67 42 68 48 69 50 70 47 71 43 72 44 73 45 74 46 75 72 76
REMARK SMILES IDX 73 77 81 78 74 79 80 80 82 81 79 82 75 83 76 84 77 85 78 86
REMARK SMILES IDX 57 87 58 88 66 89 59 90 65 91 67 92 64 93 60 94 61 95 62 96
REMARK SMILES IDX 63 97
REMARK H PARENT 21 7 28 31 87 50 55 61
REMARK Flexibility Score: inf
ROOT
ATOM      1  C   UNL A   1      37.316  21.924  25.480  1.00  0.00     0.002 C 
ENDROOT
BRANCH   1   2
ATOM      2  C   UNL A   1      37.120  23.289  24.816  1.00  0.00     0.021 C 
BRANCH   2   3
ATOM      3  C   UNL A   1      35.700  23.798  24.602  1.00  0.00     0.116 C 
BRANCH   3   4
ATOM      4  N   UNL A   1      35.014  23.345  23.414  1.00  0.00    -0.352 N 
ATOM      5  C   UNL A   1      33.652  23.270  23.167  1.00  0.00     0.255 C 
ATOM      6  O   UNL A   1      33.292  23.129  21.998  1.00  0.00    -0.269 OA
ATOM      7  H   UNL A   1      35.594  23.046  22.677  1.00  0.00     0.163 HD
BRANCH   5   8
ATOM      8  C   UNL A   1      32.633  23.335  24.257  1.00  0.00     0.085 A 
ATOM      9  C   UNL A   1      32.553  22.271  25.185  1.00  0.00     0.142 A 
ATOM     10  N   UNL A   1      31.585  22.251  26.137  1.00  0.00    -0.235 NA
ATOM     11  C   UNL A   1      30.636  23.201  26.174  1.00  0.00     0.040 A 
ATOM     12  C   UNL A   1      31.625  24.332  24.300  1.00  0.00    -0.033 A 
ATOM     13  C   UNL A   1      29.497  22.970  27.119  1.00  0.00     0.067 C 
ATOM     14  C   UNL A   1      30.640  24.262  25.296  1.00  0.00     0.028 A 
ATOM     15  C   UNL A   1      31.482  25.468  23.328  1.00  0.00     0.045 C 
BRANCH   9  16
ATOM     16  N   UNL A   1      33.373  21.151  25.187  1.00  0.00    -0.350 N 
BRANCH  16  17
ATOM     17  C   UNL A   1      33.981  20.716  26.437  1.00  0.00     0.115 C 
ATOM     18  C   UNL A   1      34.247  21.871  27.386  1.00  0.00     0.027 C 
ENDBRANCH  16  17
BRANCH  16  19
ATOM     19  C   UNL A   1      33.079  20.133  24.153  1.00  0.00     0.174 C 
BRANCH  19  20
ATOM     20  C   UNL A   1      33.280  18.658  24.517  1.00  0.00     0.060 A 
ATOM     21  C   UNL A   1      34.444  17.959  24.191  1.00  0.00     0.026 A 
ATOM     22  N   UNL A   1      32.249  18.043  25.164  1.00  0.00    -0.259 NA
ATOM     23  C   UNL A   1      34.595  16.638  24.608  1.00  0.00     0.004 A 
ATOM     24  C   UNL A   1      32.425  16.761  25.559  1.00  0.00     0.111 A 
ATOM     25  C   UNL A   1      33.571  16.027  25.316  1.00  0.00     0.020 A 
ENDBRANCH  19  20
ENDBRANCH  16  19
ENDBRANCH   9  16
ENDBRANCH   5   8
ENDBRANCH   3   4
ENDBRANCH   2   3
ENDBRANCH   1   2
BRANCH   1  26
ATOM     26  C   UNL A   1      37.375  20.674  24.596  1.00  0.00     0.002 C 
BRANCH  26  27
ATOM     27  C   UNL A   1      38.352  19.561  24.980  1.00  0.00     0.021 C 
BRANCH  27  28
ATOM     28  C   UNL A   1      39.334  19.860  26.108  1.00  0.00     0.116 C 
BRANCH  28  29
ATOM     29  N   UNL A   1      40.544  19.063  26.038  1.00  0.00    -0.352 N 
ATOM     30  C   UNL A   1      41.863  19.447  26.093  1.00  0.00     0.251 C 
ATOM     31  H   UNL A   1      40.398  18.095  25.936  1.00  0.00     0.163 HD
ATOM     32  O   UNL A   1      42.738  18.616  25.870  1.00  0.00    -0.269 OA
BRANCH  30  33
ATOM     33  C   UNL A   1      42.238  20.852  26.386  1.00  0.00     0.039 A 
ATOM     34  C   UNL A   1      42.498  21.214  27.712  1.00  0.00     0.014 A 
ATOM     35  C   UNL A   1      42.306  21.821  25.380  1.00  0.00     0.014 A 
ATOM     36  C   UNL A   1      42.884  22.523  28.019  1.00  0.00     0.010 A 
ATOM     37  C   UNL A   1      42.756  23.108  25.678  1.00  0.00     0.010 A 
ATOM     38  C   UNL A   1      43.052  23.475  27.001  1.00  0.00    -0.014 A 
BRANCH  38  39
ATOM     39  C   UNL A   1      43.536  24.850  27.302  1.00  0.00     0.031 A 
ATOM     40  C   UNL A   1      42.590  25.885  27.855  1.00  0.00     0.074 A 
ATOM     41  C   UNL A   1      44.814  25.185  27.023  1.00  0.00     0.049 A 
ATOM     42  N   UNL A   1      42.804  27.150  28.112  1.00  0.00    -0.248 NA
ATOM     43  C   UNL A   1      41.213  25.444  28.131  1.00  0.00     0.031 C 
ATOM     44  C   UNL A   1      45.818  24.280  26.456  1.00  0.00     0.029 A 
ATOM     45  N   UNL A   1      45.487  26.374  27.164  1.00  0.00    -0.354 N 
ATOM     46  C   UNL A   1      41.589  27.663  28.557  1.00  0.00     0.074 A 
ATOM     47  C   UNL A   1      40.632  26.579  28.496  1.00  0.00     0.031 C 
ATOM     48  C   UNL A   1      46.979  24.941  26.320  1.00  0.00     0.029 A 
ATOM     49  C   UNL A   1      46.795  26.327  26.738  1.00  0.00     0.049 A 
ATOM     50  H   UNL A   1      45.071  27.186  27.537  1.00  0.00     0.167 HD
ATOM     51  C   UNL A   1      41.304  28.916  28.987  1.00  0.00     0.034 A 
ATOM     52  C   UNL A   1      47.735  27.292  26.674  1.00  0.00     0.034 A 
ATOM     53  C   UNL A   1      42.280  29.978  29.072  1.00  0.00     0.049 A 
ATOM     54  C   UNL A   1      47.381  28.683  27.146  1.00  0.00     0.074 A 
ATOM     55  C   UNL A   1      42.114  31.256  29.578  1.00  0.00     0.029 A 
ATOM     56  N   UNL A   1      43.594  29.891  28.635  1.00  0.00    -0.354 N 
ATOM     57  N   UNL A   1      46.245  29.128  27.632  1.00  0.00    -0.248 NA
ATOM     58  C   UNL A   1      48.440  29.700  27.070  1.00  0.00     0.031 C 
ATOM     59  C   UNL A   1      43.301  31.965  29.372  1.00  0.00     0.029 A 
ATOM     60  C   UNL A   1      44.236  31.107  28.818  1.00  0.00     0.049 A 
ATOM     61  H   UNL A   1      44.009  29.086  28.250  1.00  0.00     0.167 HD
ATOM     62  C   UNL A   1      46.470  30.463  27.959  1.00  0.00     0.074 A 
ATOM     63  C   UNL A   1      47.851  30.745  27.629  1.00  0.00     0.031 C 
ATOM     64  C   UNL A   1      45.615  31.375  28.487  1.00  0.00     0.034 A 
BRANCH  51  65
ATOM     65  C   UNL A   1      39.878  29.227  29.371  1.00  0.00     0.023 A 
ATOM     66  C   UNL A   1      39.477  29.365  30.710  1.00  0.00     0.031 A 
ATOM     67  C   UNL A   1      38.906  29.414  28.370  1.00  0.00     0.131 A 
ATOM     68  C   UNL A   1      38.133  29.628  31.015  1.00  0.00     0.055 A 
ATOM     69  C   UNL A   1      37.586  29.750  28.677  1.00  0.00     0.041 A 
ATOM     70  F   UNL A   1      39.226  29.276  27.073  1.00  0.00    -0.206 F 
ATOM     71  C   UNL A   1      37.191  29.848  30.008  1.00  0.00     0.022 A 
BRANCH  68  72
ATOM     72  S   UNL A   1      37.608  29.574  32.750  1.00  0.00     0.124 S 
ATOM     73  O   UNL A   1      38.741  30.205  33.421  1.00  0.00    -0.237 OA
ATOM     74  O   UNL A   1      36.368  30.342  32.729  1.00  0.00    -0.237 OA
ATOM     75  O   UNL A   1      37.451  28.145  33.017  1.00  0.00    -0.744 OA
ENDBRANCH  68  72
ENDBRANCH  51  65
BRANCH  52  76
ATOM     76  C   UNL A   1      49.096  27.007  26.129  1.00  0.00     0.023 A 
ATOM     77  C   UNL A   1      49.464  27.437  24.845  1.00  0.00     0.031 A 
ATOM     78  C   UNL A   1      50.019  26.223  26.846  1.00  0.00     0.131 A 
ATOM     79  C   UNL A   1      50.684  27.022  24.287  1.00  0.00     0.055 A 
ATOM     80  C   UNL A   1      51.261  25.871  26.315  1.00  0.00     0.041 A 
ATOM     81  F   UNL A   1      49.723  25.782  28.080  1.00  0.00    -0.206 F 
ATOM     82  C   UNL A   1      51.591  26.254  25.019  1.00  0.00     0.022 A 
BRANCH  79  83
ATOM     83  S   UNL A   1      51.005  27.387  22.539  1.00  0.00     0.124 S 
ATOM     84  O   UNL A   1      52.300  26.749  22.336  1.00  0.00    -0.237 OA
ATOM     85  O   UNL A   1      49.866  26.753  21.885  1.00  0.00    -0.237 OA
ATOM     86  O   UNL A   1      51.015  28.848  22.495  1.00  0.00    -0.744 OA
ENDBRANCH  79  83
ENDBRANCH  52  76
BRANCH  64  87
ATOM     87  C   UNL A   1      46.170  32.744  28.794  1.00  0.00     0.023 A 
ATOM     88  C   UNL A   1      46.105  33.799  27.866  1.00  0.00     0.031 A 
ATOM     89  C   UNL A   1      46.787  32.993  30.034  1.00  0.00     0.131 A 
ATOM     90  C   UNL A   1      46.699  35.033  28.169  1.00  0.00     0.055 A 
ATOM     91  C   UNL A   1      47.318  34.243  30.355  1.00  0.00     0.041 A 
ATOM     92  F   UNL A   1      46.880  32.022  30.958  1.00  0.00    -0.206 F 
ATOM     93  C   UNL A   1      47.288  35.267  29.413  1.00  0.00     0.022 A 
BRANCH  90  94
ATOM     94  S   UNL A   1      46.777  36.302  26.874  1.00  0.00     0.124 S 
ATOM     95  O   UNL A   1      47.986  37.035  27.240  1.00  0.00    -0.237 OA
ATOM     96  O   UNL A   1      46.862  35.502  25.657  1.00  0.00    -0.237 OA
ATOM     97  O   UNL A   1      45.528  37.041  27.043  1.00  0.00    -0.744 OA
ENDBRANCH  90  94
ENDBRANCH  64  87
ENDBRANCH  38  39
ENDBRANCH  30  33
ENDBRANCH  28  29
ENDBRANCH  27  28
ENDBRANCH  26  27
ENDBRANCH   1  26
TORSDOF 20
ENDMDL
MODEL 3
REMARK VINA RESULT:     -11.2      1.463      1.798
REMARK SMILES CCN(Cc1ccccn1)c1nc(C)cc(C)c1C(=O)NCCCCCCNC(=O)c1ccc(-c2c3nc(c(-c4cc(S(=O)(=O)[O-])ccc4F)c4ccc([nH]4)c(-c4cc(S(=O)(=O)[O-])ccc4F)c4nc(c(-c5cc(S(=O)(=O)[O-])ccc5F)c5ccc2[nH]5)C=C4)C=C3)cc1
REMARK SMILES IDX 24 1 23 2 22 3 21 4 19 5 20 6 18 8 11 9 12 10 13 11 16 12
REMARK SMILES IDX 14 13 15 14 17 15 3 16 2 17 1 18 4 19 5 20 6 21 10 22 7 23
REMARK SMILES IDX 9 24 8 25 25 26 26 27 27 28 28 29 29 30 30 32 31 33 32 34
REMARK SMILES IDX 93 35 33 36 92 37 34 38 35 39 36 40 86 41 37 42 91 43 85 44
REMARK SMILES IDX 87 45 38 46 90 47 84 48 83 49 39 51 71 52 51 53 70 54 52 55
REMARK SMILES IDX 55 56 69 57 88 58 53 59 54 60 68 62 89 63 56 64 40 65 41 66
REMARK SMILES IDX 49 67 42 68 48 69 50 70 47 71 43 72 44 73 45 74 46 75 72 76
REMARK SMILES IDX 73 77 81 78 74 79 80 80 82 81 79 82 75 83 76 84 77 85 78 86
REMARK SMILES IDX 57 87 58 88 66 89 59 90 65 91 67 92 64 93 60 94 61 95 62 96
REMARK SMILES IDX 63 97
REMARK H PARENT 21 7 28 31 87 50 55 61
REMARK Flexibility Score: inf
ROOT
ATOM      1  C   UNL A   1      36.726  21.857  25.772  1.00  0.00     0.002 C 
ENDROOT
BRANCH   1   2
ATOM      2  C   UNL A   1      36.972  23.180  25.043  1.00  0.00     0.021 C 
BRANCH   2   3
ATOM      3  C   UNL A   1      35.770  23.961  24.525  1.00  0.00     0.116 C 
BRANCH   3   4
ATOM      4  N   UNL A   1      35.257  23.587  23.227  1.00  0.00    -0.352 N 
ATOM      5  C   UNL A   1      33.943  23.401  22.828  1.00  0.00     0.255 C 
ATOM      6  O   UNL A   1      33.713  23.368  21.619  1.00  0.00    -0.269 OA
ATOM      7  H   UNL A   1      35.935  23.442  22.529  1.00  0.00     0.163 HD
BRANCH   5   8
ATOM      8  C   UNL A   1      32.824  23.228  23.803  1.00  0.00     0.085 A 
ATOM      9  C   UNL A   1      32.174  24.375  24.312  1.00  0.00     0.142 A 
ATOM     10  N   UNL A   1      31.212  24.264  25.264  1.00  0.00    -0.235 NA
ATOM     11  C   UNL A   1      30.907  23.071  25.799  1.00  0.00     0.040 A 
ATOM     12  C   UNL A   1      32.500  21.971  24.376  1.00  0.00    -0.033 A 
ATOM     13  C   UNL A   1      29.995  23.085  26.986  1.00  0.00     0.067 C 
ATOM     14  C   UNL A   1      31.506  21.909  25.364  1.00  0.00     0.028 A 
ATOM     15  C   UNL A   1      33.166  20.666  24.046  1.00  0.00     0.045 C 
BRANCH   9  16
ATOM     16  N   UNL A   1      32.475  25.685  23.961  1.00  0.00    -0.350 N 
BRANCH  16  17
ATOM     17  C   UNL A   1      31.498  26.465  23.214  1.00  0.00     0.115 C 
ATOM     18  C   UNL A   1      31.565  26.202  21.720  1.00  0.00     0.027 C 
ENDBRANCH  16  17
BRANCH  16  19
ATOM     19  C   UNL A   1      33.407  26.397  24.864  1.00  0.00     0.174 C 
BRANCH  19  20
ATOM     20  C   UNL A   1      32.870  27.598  25.651  1.00  0.00     0.060 A 
ATOM     21  C   UNL A   1      32.027  27.451  26.755  1.00  0.00     0.026 A 
ATOM     22  N   UNL A   1      33.241  28.833  25.209  1.00  0.00    -0.259 NA
ATOM     23  C   UNL A   1      31.627  28.578  27.471  1.00  0.00     0.004 A 
ATOM     24  C   UNL A   1      32.840  29.908  25.925  1.00  0.00     0.111 A 
ATOM     25  C   UNL A   1      32.049  29.832  27.057  1.00  0.00     0.020 A 
ENDBRANCH  19  20
ENDBRANCH  16  19
ENDBRANCH   9  16
ENDBRANCH   5   8
ENDBRANCH   3   4
ENDBRANCH   2   3
ENDBRANCH   1   2
BRANCH   1  26
ATOM     26  C   UNL A   1      36.755  20.554  24.965  1.00  0.00     0.002 C 
BRANCH  26  27
ATOM     27  C   UNL A   1      38.093  19.830  24.809  1.00  0.00     0.021 C 
BRANCH  27  28
ATOM     28  C   UNL A   1      39.224  20.255  25.739  1.00  0.00     0.116 C 
BRANCH  28  29
ATOM     29  N   UNL A   1      40.256  19.245  25.882  1.00  0.00    -0.352 N 
ATOM     30  C   UNL A   1      41.600  19.382  26.136  1.00  0.00     0.251 C 
ATOM     31  H   UNL A   1      39.946  18.317  25.781  1.00  0.00     0.163 HD
ATOM     32  O   UNL A   1      42.325  18.392  26.075  1.00  0.00    -0.269 OA
BRANCH  30  33
ATOM     33  C   UNL A   1      42.187  20.707  26.452  1.00  0.00     0.039 A 
ATOM     34  C   UNL A   1      42.545  21.551  25.395  1.00  0.00     0.014 A 
ATOM     35  C   UNL A   1      42.419  21.114  27.769  1.00  0.00     0.014 A 
ATOM     36  C   UNL A   1      43.073  22.820  25.658  1.00  0.00     0.010 A 
ATOM     37  C   UNL A   1      42.881  22.405  28.031  1.00  0.00     0.010 A 
ATOM     38  C   UNL A   1      43.213  23.274  26.980  1.00  0.00    -0.014 A 
BRANCH  38  39
ATOM     39  C   UNL A   1      43.701  24.650  27.275  1.00  0.00     0.031 A 
ATOM     40  C   UNL A   1      42.752  25.696  27.799  1.00  0.00     0.074 A 
ATOM     41  C   UNL A   1      44.986  24.973  27.015  1.00  0.00     0.049 A 
ATOM     42  N   UNL A   1      42.970  26.963  28.045  1.00  0.00    -0.248 NA
ATOM     43  C   UNL A   1      41.367  25.268  28.054  1.00  0.00     0.031 C 
ATOM     44  C   UNL A   1      45.993  24.055  26.476  1.00  0.00     0.029 A 
ATOM     45  N   UNL A   1      45.664  26.159  27.155  1.00  0.00    -0.354 N 
ATOM     46  C   UNL A   1      41.751  27.488  28.462  1.00  0.00     0.074 A 
ATOM     47  C   UNL A   1      40.787  26.410  28.396  1.00  0.00     0.031 C 
ATOM     48  C   UNL A   1      47.161  24.707  26.353  1.00  0.00     0.029 A 
ATOM     49  C   UNL A   1      46.979  26.099  26.753  1.00  0.00     0.049 A 
ATOM     50  H   UNL A   1      45.247  26.978  27.511  1.00  0.00     0.167 HD
ATOM     51  C   UNL A   1      41.466  28.748  28.873  1.00  0.00     0.034 A 
ATOM     52  C   UNL A   1      47.927  27.057  26.695  1.00  0.00     0.034 A 
ATOM     53  C   UNL A   1      42.447  29.805  28.964  1.00  0.00     0.049 A 
ATOM     54  C   UNL A   1      47.574  28.456  27.145  1.00  0.00     0.074 A 
ATOM     55  C   UNL A   1      42.280  31.090  29.452  1.00  0.00     0.029 A 
ATOM     56  N   UNL A   1      43.768  29.705  28.552  1.00  0.00    -0.354 N 
ATOM     57  N   UNL A   1      46.432  28.913  27.606  1.00  0.00    -0.248 NA
ATOM     58  C   UNL A   1      48.640  29.465  27.076  1.00  0.00     0.031 C 
ATOM     59  C   UNL A   1      43.476  31.789  29.259  1.00  0.00     0.029 A 
ATOM     60  C   UNL A   1      44.415  30.918  28.733  1.00  0.00     0.049 A 
ATOM     61  H   UNL A   1      44.185  28.893  28.183  1.00  0.00     0.167 HD
ATOM     62  C   UNL A   1      46.660  30.251  27.921  1.00  0.00     0.074 A 
ATOM     63  C   UNL A   1      48.048  30.520  27.613  1.00  0.00     0.031 C 
ATOM     64  C   UNL A   1      45.801  31.174  28.423  1.00  0.00     0.034 A 
BRANCH  51  65
ATOM     65  C   UNL A   1      40.035  29.073  29.227  1.00  0.00     0.023 A 
ATOM     66  C   UNL A   1      39.591  29.139  30.559  1.00  0.00     0.031 A 
ATOM     67  C   UNL A   1      39.104  29.346  28.208  1.00  0.00     0.131 A 
ATOM     68  C   UNL A   1      38.244  29.419  30.834  1.00  0.00     0.055 A 
ATOM     69  C   UNL A   1      37.782  29.697  28.492  1.00  0.00     0.041 A 
ATOM     70  F   UNL A   1      39.465  29.279  26.917  1.00  0.00    -0.206 F 
ATOM     71  C   UNL A   1      37.343  29.725  29.811  1.00  0.00     0.022 A 
BRANCH  68  72
ATOM     72  S   UNL A   1      37.657  29.273  32.544  1.00  0.00     0.124 S 
ATOM     73  O   UNL A   1      37.800  27.840  32.783  1.00  0.00    -0.237 OA
ATOM     74  O   UNL A   1      38.580  30.138  33.270  1.00  0.00    -0.237 OA
ATOM     75  O   UNL A   1      36.277  29.752  32.475  1.00  0.00    -0.744 OA
ENDBRANCH  68  72
ENDBRANCH  51  65
BRANCH  52  76
ATOM     76  C   UNL A   1      49.296  26.757  26.178  1.00  0.00     0.023 A 
ATOM     77  C   UNL A   1      49.710  27.223  24.921  1.00  0.00     0.031 A 
ATOM     78  C   UNL A   1      50.178  25.925  26.892  1.00  0.00     0.131 A 
ATOM     79  C   UNL A   1      50.936  26.797  24.383  1.00  0.00     0.055 A 
ATOM     80  C   UNL A   1      51.426  25.560  26.382  1.00  0.00     0.041 A 
ATOM     81  F   UNL A   1      49.836  25.448  28.099  1.00  0.00    -0.206 F 
ATOM     82  C   UNL A   1      51.802  25.981  25.111  1.00  0.00     0.022 A 
BRANCH  79  83
ATOM     83  S   UNL A   1      51.315  27.216  22.658  1.00  0.00     0.124 S 
ATOM     84  O   UNL A   1      51.485  28.662  22.735  1.00  0.00    -0.237 OA
ATOM     85  O   UNL A   1      52.525  26.437  22.418  1.00  0.00    -0.237 OA
ATOM     86  O   UNL A   1      50.129  26.764  21.932  1.00  0.00    -0.744 OA
ENDBRANCH  79  83
ENDBRANCH  52  76
BRANCH  64  87
ATOM     87  C   UNL A   1      46.360  32.543  28.725  1.00  0.00     0.023 A 
ATOM     88  C   UNL A   1      46.909  32.861  29.980  1.00  0.00     0.031 A 
ATOM     89  C   UNL A   1      46.331  33.549  27.742  1.00  0.00     0.131 A 
ATOM     90  C   UNL A   1      47.350  34.168  30.237  1.00  0.00     0.055 A 
ATOM     91  C   UNL A   1      46.832  34.829  27.983  1.00  0.00     0.041 A 
ATOM     92  F   UNL A   1      45.816  33.302  26.526  1.00  0.00    -0.206 F 
ATOM     93  C   UNL A   1      47.332  35.148  29.242  1.00  0.00     0.022 A 
BRANCH  90  94
ATOM     94  S   UNL A   1      47.861  34.598  31.925  1.00  0.00     0.124 S 
ATOM     95  O   UNL A   1      47.166  35.864  32.139  1.00  0.00    -0.237 OA
ATOM     96  O   UNL A   1      47.368  33.463  32.698  1.00  0.00    -0.237 OA
ATOM     97  O   UNL A   1      49.316  34.696  31.828  1.00  0.00    -0.744 OA
ENDBRANCH  90  94
ENDBRANCH  64  87
ENDBRANCH  38  39
ENDBRANCH  30  33
ENDBRANCH  28  29
ENDBRANCH  27  28
ENDBRANCH  26  27
ENDBRANCH   1  26
TORSDOF 20
ENDMDL
