MODEL 1
REMARK VINA RESULT:      -8.0      0.000      0.000
REMARK SMILES COc1ccc([C@H]2CC(c3ccc(S(C)(=O)=O)cc3)=NN2c2ccc(C(=O)NCCCCCCNC(=O)c3ccc(-c4c5nc(c(-c6cc(S(=O)(=O)[O-])ccc6F)c6ccc([nH]6)c(-c6cc(S(=O)(=O)[O-])ccc6F)c6nc(c(-c7cc(S(=O)(=O)[O-])ccc7F)c7ccc4[nH]7)C=C6)C=C5)cc3)cc2)cc1
REMARK SMILES IDX 31 1 30 2 29 3 28 4 26 5 27 6 25 8 22 9 23 10 102 11 24 12
REMARK SMILES IDX 101 13 21 14 7 15 8 16 9 17 20 18 6 19 3 20 4 21 104 22 5 23
REMARK SMILES IDX 103 24 2 25 1 26 10 27 11 28 19 29 12 30 18 31 13 32 14 33
REMARK SMILES IDX 15 34 16 35 17 36 32 37 33 38 34 39 35 40 36 41 37 43 38 44
REMARK SMILES IDX 39 45 100 46 40 47 99 48 41 49 42 50 43 51 93 52 44 53 98 54
REMARK SMILES IDX 92 55 94 56 45 57 97 58 91 59 90 60 46 62 78 63 58 64 77 65
REMARK SMILES IDX 59 66 62 67 76 68 95 69 60 70 61 71 75 73 96 74 63 75 47 76
REMARK SMILES IDX 48 77 56 78 49 79 55 80 57 81 54 82 50 83 51 84 52 85 53 86
REMARK SMILES IDX 79 87 80 88 88 89 81 90 87 91 89 92 86 93 82 94 83 95 84 96
REMARK SMILES IDX 85 97 64 98 65 99 73 100 66 101 72 102 74 103 71 104 67 105
REMARK SMILES IDX 68 106 69 107 70 108
REMARK H PARENT 28 7 35 42 94 61 62 72
REMARK Flexibility Score: inf
ROOT
ATOM      1  C   UNL A   1      35.411  33.287  32.659  1.00  0.00     0.002 C 
ENDROOT
BRANCH   1   2
ATOM      2  C   UNL A   1      35.841  33.253  34.134  1.00  0.00     0.021 C 
BRANCH   2   3
ATOM      3  C   UNL A   1      37.098  32.413  34.374  1.00  0.00     0.116 C 
BRANCH   3   4
ATOM      4  N   UNL A   1      37.059  31.224  33.543  1.00  0.00    -0.352 N 
ATOM      5  C   UNL A   1      37.963  30.224  33.303  1.00  0.00     0.251 C 
ATOM      6  O   UNL A   1      37.635  29.351  32.498  1.00  0.00    -0.269 OA
ATOM      7  H   UNL A   1      36.212  31.114  33.054  1.00  0.00     0.163 HD
BRANCH   5   8
ATOM      8  C   UNL A   1      39.272  30.105  34.007  1.00  0.00     0.039 A 
ATOM      9  C   UNL A   1      41.799  29.661  35.209  1.00  0.00     0.060 A 
ATOM     10  C   UNL A   1      41.549  29.257  33.895  1.00  0.00     0.029 A 
ATOM     11  C   UNL A   1      40.791  30.350  35.888  1.00  0.00     0.029 A 
ATOM     12  C   UNL A   1      40.298  29.453  33.308  1.00  0.00     0.016 A 
ATOM     13  C   UNL A   1      39.556  30.609  35.278  1.00  0.00     0.016 A 
BRANCH   9  14
ATOM     14  N   UNL A   1      43.025  29.387  35.790  1.00  0.00    -0.257 N 
ATOM     15  C   UNL A   1      43.268  28.307  36.745  1.00  0.00     0.144 C 
ATOM     16  C   UNL A   1      44.694  28.601  37.230  1.00  0.00     0.091 C 
ATOM     17  C   UNL A   1      44.957  29.885  36.499  1.00  0.00     0.071 C 
ATOM     18  N   UNL A   1      44.024  30.301  35.704  1.00  0.00    -0.176 NA
BRANCH  15  19
ATOM     19  C   UNL A   1      43.152  26.940  36.087  1.00  0.00    -0.023 A 
ATOM     20  C   UNL A   1      42.941  24.421  34.840  1.00  0.00     0.118 A 
ATOM     21  C   UNL A   1      43.960  25.303  34.481  1.00  0.00     0.047 A 
ATOM     22  C   UNL A   1      42.047  24.776  35.848  1.00  0.00     0.047 A 
ATOM     23  C   UNL A   1      44.061  26.557  35.089  1.00  0.00     0.010 A 
ATOM     24  C   UNL A   1      42.152  26.027  36.465  1.00  0.00     0.010 A 
BRANCH  20  25
ATOM     25  O   UNL A   1      42.938  23.215  34.195  1.00  0.00    -0.497 OA
ATOM     26  C   UNL A   1      44.059  22.387  34.491  1.00  0.00     0.278 C 
ENDBRANCH  20  25
ENDBRANCH  15  19
BRANCH  17  27
ATOM     27  C   UNL A   1      46.198  30.630  36.713  1.00  0.00    -0.002 A 
ATOM     28  C   UNL A   1      46.202  31.682  37.634  1.00  0.00     0.011 A 
ATOM     29  C   UNL A   1      47.342  30.304  35.981  1.00  0.00     0.011 A 
ATOM     30  C   UNL A   1      47.373  32.411  37.841  1.00  0.00     0.021 A 
ATOM     31  C   UNL A   1      48.508  31.048  36.169  1.00  0.00     0.021 A 
ATOM     32  C   UNL A   1      48.515  32.098  37.095  1.00  0.00     0.067 A 
BRANCH  32  33
ATOM     33  S   UNL A   1      49.998  33.046  37.348  1.00  0.00     0.175 S 
ATOM     34  C   UNL A   1      51.296  31.835  37.343  1.00  0.00     0.163 C 
ATOM     35  O   UNL A   1      50.159  33.897  36.186  1.00  0.00    -0.224 OA
ATOM     36  O   UNL A   1      49.937  33.609  38.685  1.00  0.00    -0.224 OA
ENDBRANCH  32  33
ENDBRANCH  17  27
ENDBRANCH   9  14
ENDBRANCH   5   8
ENDBRANCH   3   4
ENDBRANCH   2   3
ENDBRANCH   1   2
BRANCH   1  37
ATOM     37  C   UNL A   1      35.064  34.682  32.123  1.00  0.00     0.002 C 
BRANCH  37  38
ATOM     38  C   UNL A   1      33.674  34.805  31.493  1.00  0.00     0.021 C 
BRANCH  38  39
ATOM     39  C   UNL A   1      33.665  35.437  30.104  1.00  0.00     0.116 C 
BRANCH  39  40
ATOM     40  N   UNL A   1      32.977  34.596  29.137  1.00  0.00    -0.352 N 
ATOM     41  C   UNL A   1      33.475  33.568  28.374  1.00  0.00     0.251 C 
ATOM     42  H   UNL A   1      32.020  34.791  29.013  1.00  0.00     0.163 HD
ATOM     43  O   UNL A   1      32.815  33.125  27.439  1.00  0.00    -0.269 OA
BRANCH  41  44
ATOM     44  C   UNL A   1      34.813  33.015  28.674  1.00  0.00     0.039 A 
ATOM     45  C   UNL A   1      35.945  33.656  28.165  1.00  0.00     0.014 A 
ATOM     46  C   UNL A   1      34.947  31.863  29.456  1.00  0.00     0.014 A 
ATOM     47  C   UNL A   1      37.216  33.184  28.499  1.00  0.00     0.010 A 
ATOM     48  C   UNL A   1      36.217  31.429  29.835  1.00  0.00     0.010 A 
ATOM     49  C   UNL A   1      37.363  32.090  29.367  1.00  0.00    -0.014 A 
BRANCH  49  50
ATOM     50  C   UNL A   1      38.704  31.629  29.812  1.00  0.00     0.031 A 
ATOM     51  C   UNL A   1      39.464  32.410  30.848  1.00  0.00     0.074 A 
ATOM     52  C   UNL A   1      39.261  30.547  29.232  1.00  0.00     0.049 A 
ATOM     53  N   UNL A   1      40.687  32.239  31.280  1.00  0.00    -0.248 NA
ATOM     54  C   UNL A   1      38.763  33.549  31.461  1.00  0.00     0.031 C 
ATOM     55  C   UNL A   1      38.630  29.724  28.198  1.00  0.00     0.029 A 
ATOM     56  N   UNL A   1      40.490  29.961  29.416  1.00  0.00    -0.354 N 
ATOM     57  C   UNL A   1      40.904  33.245  32.216  1.00  0.00     0.074 A 
ATOM     58  C   UNL A   1      39.704  34.057  32.243  1.00  0.00     0.031 C 
ATOM     59  C   UNL A   1      39.472  28.738  27.845  1.00  0.00     0.029 A 
ATOM     60  C   UNL A   1      40.719  28.885  28.588  1.00  0.00     0.049 A 
ATOM     61  H   UNL A   1      41.145  30.282  30.076  1.00  0.00     0.167 HD
ATOM     62  C   UNL A   1      41.992  33.458  32.995  1.00  0.00     0.034 A 
ATOM     63  C   UNL A   1      41.816  28.118  28.430  1.00  0.00     0.034 A 
ATOM     64  C   UNL A   1      43.178  32.638  32.963  1.00  0.00     0.049 A 
ATOM     65  C   UNL A   1      43.034  28.409  29.274  1.00  0.00     0.074 A 
ATOM     66  C   UNL A   1      44.324  32.747  33.731  1.00  0.00     0.029 A 
ATOM     67  N   UNL A   1      43.373  31.557  32.112  1.00  0.00    -0.354 N 
ATOM     68  N   UNL A   1      43.207  29.346  30.178  1.00  0.00    -0.248 NA
ATOM     69  C   UNL A   1      44.200  27.536  29.083  1.00  0.00     0.031 C 
ATOM     70  C   UNL A   1      45.234  31.772  33.307  1.00  0.00     0.029 A 
ATOM     71  C   UNL A   1      44.631  31.009  32.320  1.00  0.00     0.049 A 
ATOM     72  H   UNL A   1      42.716  31.228  31.458  1.00  0.00     0.167 HD
ATOM     73  C   UNL A   1      44.491  29.153  30.681  1.00  0.00     0.074 A 
ATOM     74  C   UNL A   1      45.038  28.001  29.996  1.00  0.00     0.031 C 
ATOM     75  C   UNL A   1      45.161  29.864  31.623  1.00  0.00     0.034 A 
BRANCH  62  76
ATOM     76  C   UNL A   1      41.952  34.632  33.943  1.00  0.00     0.023 A 
ATOM     77  C   UNL A   1      41.327  34.538  35.199  1.00  0.00     0.031 A 
ATOM     78  C   UNL A   1      42.548  35.855  33.591  1.00  0.00     0.131 A 
ATOM     79  C   UNL A   1      41.263  35.663  36.033  1.00  0.00     0.055 A 
ATOM     80  C   UNL A   1      42.544  36.950  34.457  1.00  0.00     0.041 A 
ATOM     81  F   UNL A   1      43.142  36.008  32.398  1.00  0.00    -0.206 F 
ATOM     82  C   UNL A   1      41.888  36.861  35.683  1.00  0.00     0.022 A 
BRANCH  79  83
ATOM     83  S   UNL A   1      40.256  35.568  37.539  1.00  0.00     0.124 S 
ATOM     84  O   UNL A   1      39.164  34.700  37.107  1.00  0.00    -0.237 OA
ATOM     85  O   UNL A   1      41.185  34.994  38.504  1.00  0.00    -0.237 OA
ATOM     86  O   UNL A   1      39.879  36.958  37.787  1.00  0.00    -0.744 OA
ENDBRANCH  79  83
ENDBRANCH  62  76
BRANCH  63  87
ATOM     87  C   UNL A   1      41.845  27.026  27.414  1.00  0.00     0.023 A 
ATOM     88  C   UNL A   1      41.492  25.711  27.756  1.00  0.00     0.031 A 
ATOM     89  C   UNL A   1      42.300  27.265  26.104  1.00  0.00     0.131 A 
ATOM     90  C   UNL A   1      41.663  24.675  26.825  1.00  0.00     0.055 A 
ATOM     91  C   UNL A   1      42.408  26.241  25.162  1.00  0.00     0.041 A 
ATOM     92  F   UNL A   1      42.650  28.503  25.721  1.00  0.00    -0.206 F 
ATOM     93  C   UNL A   1      42.106  24.932  25.526  1.00  0.00     0.022 A 
BRANCH  90  94
ATOM     94  S   UNL A   1      41.416  22.965  27.376  1.00  0.00     0.124 S 
ATOM     95  O   UNL A   1      39.964  22.903  27.511  1.00  0.00    -0.237 OA
ATOM     96  O   UNL A   1      41.990  22.207  26.271  1.00  0.00    -0.237 OA
ATOM     97  O   UNL A   1      42.162  22.901  28.630  1.00  0.00    -0.744 OA
ENDBRANCH  90  94
ENDBRANCH  63  87
BRANCH  75  98
ATOM     98  C   UNL A   1      46.542  29.383  31.988  1.00  0.00     0.023 A 
ATOM     99  C   UNL A   1      46.738  28.240  32.781  1.00  0.00     0.031 A 
ATOM    100  C   UNL A   1      47.677  30.085  31.543  1.00  0.00     0.131 A 
ATOM    101  C   UNL A   1      48.037  27.861  33.149  1.00  0.00     0.055 A 
ATOM    102  C   UNL A   1      48.969  29.670  31.866  1.00  0.00     0.041 A 
ATOM    103  F   UNL A   1      47.545  31.184  30.782  1.00  0.00    -0.206 F 
ATOM    104  C   UNL A   1      49.154  28.559  32.683  1.00  0.00     0.022 A 
BRANCH 101 105
ATOM    105  S   UNL A   1      48.245  26.482  34.309  1.00  0.00     0.124 S 
ATOM    106  O   UNL A   1      49.687  26.262  34.264  1.00  0.00    -0.237 OA
ATOM    107  O   UNL A   1      47.725  27.039  35.554  1.00  0.00    -0.237 OA
ATOM    108  O   UNL A   1      47.436  25.415  33.723  1.00  0.00    -0.744 OA
ENDBRANCH 101 105
ENDBRANCH  75  98
ENDBRANCH  49  50
ENDBRANCH  41  44
ENDBRANCH  39  40
ENDBRANCH  38  39
ENDBRANCH  37  38
ENDBRANCH   1  37
TORSDOF 21
ENDMDL
MODEL 2
REMARK VINA RESULT:      -7.5      6.698     13.143
REMARK SMILES COc1ccc([C@H]2CC(c3ccc(S(C)(=O)=O)cc3)=NN2c2ccc(C(=O)NCCCCCCNC(=O)c3ccc(-c4c5nc(c(-c6cc(S(=O)(=O)[O-])ccc6F)c6ccc([nH]6)c(-c6cc(S(=O)(=O)[O-])ccc6F)c6nc(c(-c7cc(S(=O)(=O)[O-])ccc7F)c7ccc4[nH]7)C=C6)C=C5)cc3)cc2)cc1
REMARK SMILES IDX 31 1 30 2 29 3 28 4 26 5 27 6 25 8 22 9 23 10 102 11 24 12
REMARK SMILES IDX 101 13 21 14 7 15 8 16 9 17 20 18 6 19 3 20 4 21 104 22 5 23
REMARK SMILES IDX 103 24 2 25 1 26 10 27 11 28 19 29 12 30 18 31 13 32 14 33
REMARK SMILES IDX 15 34 16 35 17 36 32 37 33 38 34 39 35 40 36 41 37 43 38 44
REMARK SMILES IDX 39 45 100 46 40 47 99 48 41 49 42 50 43 51 93 52 44 53 98 54
REMARK SMILES IDX 92 55 94 56 45 57 97 58 91 59 90 60 46 62 78 63 58 64 77 65
REMARK SMILES IDX 59 66 62 67 76 68 95 69 60 70 61 71 75 73 96 74 63 75 47 76
REMARK SMILES IDX 48 77 56 78 49 79 55 80 57 81 54 82 50 83 51 84 52 85 53 86
REMARK SMILES IDX 79 87 80 88 88 89 81 90 87 91 89 92 86 93 82 94 83 95 84 96
REMARK SMILES IDX 85 97 64 98 65 99 73 100 66 101 72 102 74 103 71 104 67 105
REMARK SMILES IDX 68 106 69 107 70 108
REMARK H PARENT 28 7 35 42 94 61 62 72
REMARK Flexibility Score: inf
ROOT
ATOM      1  C   UNL A   1      40.046  27.929  27.677  1.00  0.00     0.002 C 
ENDROOT
BRANCH   1   2
ATOM      2  C   UNL A   1      40.373  26.519  27.160  1.00  0.00     0.021 C 
BRANCH   2   3
ATOM      3  C   UNL A   1      39.270  25.501  27.454  1.00  0.00     0.116 C 
BRANCH   3   4
ATOM      4  N   UNL A   1      39.665  24.195  26.962  1.00  0.00    -0.352 N 
ATOM      5  C   UNL A   1      38.991  23.205  26.298  1.00  0.00     0.251 C 
ATOM      6  O   UNL A   1      39.614  22.172  26.044  1.00  0.00    -0.269 OA
ATOM      7  H   UNL A   1      40.608  23.976  27.141  1.00  0.00     0.163 HD
BRANCH   5   8
ATOM      8  C   UNL A   1      37.586  23.340  25.815  1.00  0.00     0.039 A 
ATOM      9  C   UNL A   1      35.015  23.634  24.661  1.00  0.00     0.060 A 
ATOM     10  C   UNL A   1      36.072  23.088  23.928  1.00  0.00     0.029 A 
ATOM     11  C   UNL A   1      35.246  23.966  25.998  1.00  0.00     0.029 A 
ATOM     12  C   UNL A   1      37.346  22.964  24.486  1.00  0.00     0.016 A 
ATOM     13  C   UNL A   1      36.506  23.779  26.583  1.00  0.00     0.016 A 
BRANCH   9  14
ATOM     14  N   UNL A   1      33.783  23.813  24.059  1.00  0.00    -0.257 N 
ATOM     15  C   UNL A   1      33.231  22.943  23.021  1.00  0.00     0.144 C 
ATOM     16  C   UNL A   1      31.988  23.716  22.560  1.00  0.00     0.091 C 
ATOM     17  C   UNL A   1      32.132  24.959  23.390  1.00  0.00     0.071 C 
ATOM     18  N   UNL A   1      33.127  24.991  24.216  1.00  0.00    -0.176 NA
BRANCH  15  19
ATOM     19  C   UNL A   1      32.884  21.567  23.569  1.00  0.00    -0.023 A 
ATOM     20  C   UNL A   1      32.216  19.017  24.567  1.00  0.00     0.118 A 
ATOM     21  C   UNL A   1      32.164  19.274  23.197  1.00  0.00     0.047 A 
ATOM     22  C   UNL A   1      32.635  20.018  25.440  1.00  0.00     0.047 A 
ATOM     23  C   UNL A   1      32.484  20.541  22.700  1.00  0.00     0.010 A 
ATOM     24  C   UNL A   1      32.965  21.283  24.944  1.00  0.00     0.010 A 
BRANCH  20  25
ATOM     25  O   UNL A   1      31.896  17.743  24.950  1.00  0.00    -0.497 OA
ATOM     26  C   UNL A   1      32.948  16.798  24.783  1.00  0.00     0.278 C 
ENDBRANCH  20  25
ENDBRANCH  15  19
BRANCH  17  27
ATOM     27  C   UNL A   1      31.201  26.077  23.234  1.00  0.00    -0.002 A 
ATOM     28  C   UNL A   1      29.916  25.964  23.773  1.00  0.00     0.011 A 
ATOM     29  C   UNL A   1      31.593  27.218  22.531  1.00  0.00     0.011 A 
ATOM     30  C   UNL A   1      29.012  27.014  23.622  1.00  0.00     0.021 A 
ATOM     31  C   UNL A   1      30.682  28.260  22.359  1.00  0.00     0.021 A 
ATOM     32  C   UNL A   1      29.397  28.151  22.902  1.00  0.00     0.067 A 
BRANCH  32  33
ATOM     33  S   UNL A   1      28.231  29.478  22.694  1.00  0.00     0.175 S 
ATOM     34  C   UNL A   1      28.966  30.843  23.559  1.00  0.00     0.163 C 
ATOM     35  O   UNL A   1      28.198  29.793  21.281  1.00  0.00    -0.224 OA
ATOM     36  O   UNL A   1      27.021  29.115  23.409  1.00  0.00    -0.224 OA
ENDBRANCH  32  33
ENDBRANCH  17  27
ENDBRANCH   9  14
ENDBRANCH   5   8
ENDBRANCH   3   4
ENDBRANCH   2   3
ENDBRANCH   1   2
BRANCH   1  37
ATOM     37  C   UNL A   1      38.925  27.986  28.722  1.00  0.00     0.002 C 
BRANCH  37  38
ATOM     38  C   UNL A   1      37.763  28.922  28.375  1.00  0.00     0.021 C 
BRANCH  38  39
ATOM     39  C   UNL A   1      37.349  29.860  29.505  1.00  0.00     0.116 C 
BRANCH  39  40
ATOM     40  N   UNL A   1      37.041  29.127  30.723  1.00  0.00    -0.352 N 
ATOM     41  C   UNL A   1      37.653  29.192  31.951  1.00  0.00     0.251 C 
ATOM     42  H   UNL A   1      36.287  28.497  30.658  1.00  0.00     0.163 HD
ATOM     43  O   UNL A   1      37.420  28.334  32.797  1.00  0.00    -0.269 OA
BRANCH  41  44
ATOM     44  C   UNL A   1      38.605  30.286  32.238  1.00  0.00     0.039 A 
ATOM     45  C   UNL A   1      38.110  31.561  32.523  1.00  0.00     0.014 A 
ATOM     46  C   UNL A   1      39.983  30.052  32.225  1.00  0.00     0.014 A 
ATOM     47  C   UNL A   1      38.996  32.586  32.865  1.00  0.00     0.010 A 
ATOM     48  C   UNL A   1      40.860  31.060  32.622  1.00  0.00     0.010 A 
ATOM     49  C   UNL A   1      40.375  32.334  32.954  1.00  0.00    -0.014 A 
BRANCH  49  50
ATOM     50  C   UNL A   1      41.325  33.383  33.407  1.00  0.00     0.031 A 
ATOM     51  C   UNL A   1      41.501  33.658  34.875  1.00  0.00     0.074 A 
ATOM     52  C   UNL A   1      41.976  34.131  32.493  1.00  0.00     0.049 A 
ATOM     53  N   UNL A   1      42.189  34.603  35.463  1.00  0.00    -0.248 NA
ATOM     54  C   UNL A   1      40.789  32.765  35.803  1.00  0.00     0.031 C 
ATOM     55  C   UNL A   1      41.866  33.973  31.041  1.00  0.00     0.029 A 
ATOM     56  N   UNL A   1      42.846  35.182  32.646  1.00  0.00    -0.354 N 
ATOM     57  C   UNL A   1      41.995  34.420  36.828  1.00  0.00     0.074 A 
ATOM     58  C   UNL A   1      41.077  33.310  36.977  1.00  0.00     0.031 C 
ATOM     59  C   UNL A   1      42.644  34.888  30.439  1.00  0.00     0.029 A 
ATOM     60  C   UNL A   1      43.268  35.729  31.455  1.00  0.00     0.049 A 
ATOM     61  H   UNL A   1      43.139  35.514  33.525  1.00  0.00     0.167 HD
ATOM     62  C   UNL A   1      42.549  35.101  37.862  1.00  0.00     0.034 A 
ATOM     63  C   UNL A   1      44.050  36.799  31.210  1.00  0.00     0.034 A 
ATOM     64  C   UNL A   1      43.467  36.201  37.700  1.00  0.00     0.049 A 
ATOM     65  C   UNL A   1      44.613  37.571  32.379  1.00  0.00     0.074 A 
ATOM     66  C   UNL A   1      44.110  36.939  38.680  1.00  0.00     0.029 A 
ATOM     67  N   UNL A   1      43.871  36.726  36.480  1.00  0.00    -0.354 N 
ATOM     68  N   UNL A   1      44.444  37.361  33.664  1.00  0.00    -0.248 NA
ATOM     69  C   UNL A   1      45.476  38.718  32.065  1.00  0.00     0.031 C 
ATOM     70  C   UNL A   1      44.856  37.945  38.055  1.00  0.00     0.029 A 
ATOM     71  C   UNL A   1      44.733  37.794  36.683  1.00  0.00     0.049 A 
ATOM     72  H   UNL A   1      43.588  36.390  35.599  1.00  0.00     0.167 HD
ATOM     73  C   UNL A   1      45.205  38.334  34.309  1.00  0.00     0.074 A 
ATOM     74  C   UNL A   1      45.847  39.115  33.273  1.00  0.00     0.031 C 
ATOM     75  C   UNL A   1      45.359  38.564  35.637  1.00  0.00     0.034 A 
BRANCH  62  76
ATOM     76  C   UNL A   1      42.168  34.678  39.259  1.00  0.00     0.023 A 
ATOM     77  C   UNL A   1      42.782  33.579  39.885  1.00  0.00     0.031 A 
ATOM     78  C   UNL A   1      41.184  35.382  39.975  1.00  0.00     0.131 A 
ATOM     79  C   UNL A   1      42.367  33.181  41.164  1.00  0.00     0.055 A 
ATOM     80  C   UNL A   1      40.827  35.025  41.277  1.00  0.00     0.041 A 
ATOM     81  F   UNL A   1      40.551  36.427  39.421  1.00  0.00    -0.206 F 
ATOM     82  C   UNL A   1      41.412  33.911  41.875  1.00  0.00     0.022 A 
BRANCH  79  83
ATOM     83  S   UNL A   1      43.018  31.631  41.843  1.00  0.00     0.124 S 
ATOM     84  O   UNL A   1      43.769  31.106  40.706  1.00  0.00    -0.237 OA
ATOM     85  O   UNL A   1      43.812  32.091  42.976  1.00  0.00    -0.237 OA
ATOM     86  O   UNL A   1      41.815  30.877  42.190  1.00  0.00    -0.744 OA
ENDBRANCH  79  83
ENDBRANCH  62  76
BRANCH  63  87
ATOM     87  C   UNL A   1      44.326  37.239  29.811  1.00  0.00     0.023 A 
ATOM     88  C   UNL A   1      43.533  38.217  29.191  1.00  0.00     0.031 A 
ATOM     89  C   UNL A   1      45.341  36.634  29.047  1.00  0.00     0.131 A 
ATOM     90  C   UNL A   1      43.720  38.513  27.832  1.00  0.00     0.055 A 
ATOM     91  C   UNL A   1      45.565  36.978  27.713  1.00  0.00     0.041 A 
ATOM     92  F   UNL A   1      46.131  35.694  29.589  1.00  0.00    -0.206 F 
ATOM     93  C   UNL A   1      44.739  37.910  27.092  1.00  0.00     0.022 A 
BRANCH  90  94
ATOM     94  S   UNL A   1      42.530  39.608  27.011  1.00  0.00     0.124 S 
ATOM     95  O   UNL A   1      41.546  38.655  26.510  1.00  0.00    -0.237 OA
ATOM     96  O   UNL A   1      42.094  40.458  28.113  1.00  0.00    -0.237 OA
ATOM     97  O   UNL A   1      43.331  40.275  25.988  1.00  0.00    -0.744 OA
ENDBRANCH  90  94
ENDBRANCH  63  87
BRANCH  75  98
ATOM     98  C   UNL A   1      46.289  39.682  36.033  1.00  0.00     0.023 A 
ATOM     99  C   UNL A   1      45.878  41.025  36.011  1.00  0.00     0.031 A 
ATOM    100  C   UNL A   1      47.609  39.398  36.428  1.00  0.00     0.131 A 
ATOM    101  C   UNL A   1      46.792  42.041  36.328  1.00  0.00     0.055 A 
ATOM    102  C   UNL A   1      48.498  40.409  36.796  1.00  0.00     0.041 A 
ATOM    103  F   UNL A   1      48.053  38.132  36.465  1.00  0.00    -0.206 F 
ATOM    104  C   UNL A   1      48.094  41.740  36.736  1.00  0.00     0.022 A 
BRANCH 101 105
ATOM    105  S   UNL A   1      46.278  43.769  36.128  1.00  0.00     0.124 S 
ATOM    106  O   UNL A   1      44.985  43.626  35.468  1.00  0.00    -0.237 OA
ATOM    107  O   UNL A   1      46.240  44.245  37.508  1.00  0.00    -0.237 OA
ATOM    108  O   UNL A   1      47.337  44.349  35.303  1.00  0.00    -0.744 OA
ENDBRANCH 101 105
ENDBRANCH  75  98
ENDBRANCH  49  50
ENDBRANCH  41  44
ENDBRANCH  39  40
ENDBRANCH  38  39
ENDBRANCH  37  38
ENDBRANCH   1  37
TORSDOF 21
ENDMDL
MODEL 3
REMARK VINA RESULT:      -7.4      3.406     11.632
REMARK SMILES COc1ccc([C@H]2CC(c3ccc(S(C)(=O)=O)cc3)=NN2c2ccc(C(=O)NCCCCCCNC(=O)c3ccc(-c4c5nc(c(-c6cc(S(=O)(=O)[O-])ccc6F)c6ccc([nH]6)c(-c6cc(S(=O)(=O)[O-])ccc6F)c6nc(c(-c7cc(S(=O)(=O)[O-])ccc7F)c7ccc4[nH]7)C=C6)C=C5)cc3)cc2)cc1
REMARK SMILES IDX 31 1 30 2 29 3 28 4 26 5 27 6 25 8 22 9 23 10 102 11 24 12
REMARK SMILES IDX 101 13 21 14 7 15 8 16 9 17 20 18 6 19 3 20 4 21 104 22 5 23
REMARK SMILES IDX 103 24 2 25 1 26 10 27 11 28 19 29 12 30 18 31 13 32 14 33
REMARK SMILES IDX 15 34 16 35 17 36 32 37 33 38 34 39 35 40 36 41 37 43 38 44
REMARK SMILES IDX 39 45 100 46 40 47 99 48 41 49 42 50 43 51 93 52 44 53 98 54
REMARK SMILES IDX 92 55 94 56 45 57 97 58 91 59 90 60 46 62 78 63 58 64 77 65
REMARK SMILES IDX 59 66 62 67 76 68 95 69 60 70 61 71 75 73 96 74 63 75 47 76
REMARK SMILES IDX 48 77 56 78 49 79 55 80 57 81 54 82 50 83 51 84 52 85 53 86
REMARK SMILES IDX 79 87 80 88 88 89 81 90 87 91 89 92 86 93 82 94 83 95 84 96
REMARK SMILES IDX 85 97 64 98 65 99 73 100 66 101 72 102 74 103 71 104 67 105
REMARK SMILES IDX 68 106 69 107 70 108
REMARK H PARENT 28 7 35 42 94 61 62 72
REMARK Flexibility Score: inf
ROOT
ATOM      1  C   UNL A   1      49.438  28.632  27.532  1.00  0.00     0.002 C 
ENDROOT
BRANCH   1   2
ATOM      2  C   UNL A   1      48.692  28.373  26.214  1.00  0.00     0.021 C 
BRANCH   2   3
ATOM      3  C   UNL A   1      47.728  27.187  26.292  1.00  0.00     0.116 C 
BRANCH   3   4
ATOM      4  N   UNL A   1      48.463  25.980  26.622  1.00  0.00    -0.352 N 
ATOM      5  C   UNL A   1      48.435  25.136  27.699  1.00  0.00     0.251 C 
ATOM      6  O   UNL A   1      49.229  24.194  27.697  1.00  0.00    -0.269 OA
ATOM      7  H   UNL A   1      49.113  25.714  25.931  1.00  0.00     0.163 HD
BRANCH   5   8
ATOM      8  C   UNL A   1      47.462  25.259  28.823  1.00  0.00     0.039 A 
ATOM      9  C   UNL A   1      45.817  25.487  31.119  1.00  0.00     0.060 A 
ATOM     10  C   UNL A   1      47.107  26.025  31.105  1.00  0.00     0.029 A 
ATOM     11  C   UNL A   1      45.338  24.896  29.947  1.00  0.00     0.029 A 
ATOM     12  C   UNL A   1      47.928  25.893  29.984  1.00  0.00     0.016 A 
ATOM     13  C   UNL A   1      46.136  24.823  28.796  1.00  0.00     0.016 A 
BRANCH   9  14
ATOM     14  N   UNL A   1      45.052  25.567  32.269  1.00  0.00    -0.257 N 
ATOM     15  C   UNL A   1      44.580  24.414  33.033  1.00  0.00     0.144 C 
ATOM     16  C   UNL A   1      43.612  25.050  34.040  1.00  0.00     0.091 C 
ATOM     17  C   UNL A   1      43.657  26.478  33.577  1.00  0.00     0.071 C 
ATOM     18  N   UNL A   1      44.462  26.744  32.599  1.00  0.00    -0.176 NA
BRANCH  15  19
ATOM     19  C   UNL A   1      45.727  23.686  33.717  1.00  0.00    -0.023 A 
ATOM     20  C   UNL A   1      47.834  22.324  35.003  1.00  0.00     0.118 A 
ATOM     21  C   UNL A   1      46.680  21.639  34.620  1.00  0.00     0.047 A 
ATOM     22  C   UNL A   1      47.956  23.681  34.714  1.00  0.00     0.047 A 
ATOM     23  C   UNL A   1      45.630  22.314  33.993  1.00  0.00     0.010 A 
ATOM     24  C   UNL A   1      46.910  24.355  34.077  1.00  0.00     0.010 A 
BRANCH  20  25
ATOM     25  O   UNL A   1      48.808  21.571  35.599  1.00  0.00    -0.497 OA
ATOM     26  C   UNL A   1      50.122  21.812  35.105  1.00  0.00     0.278 C 
ENDBRANCH  20  25
ENDBRANCH  15  19
BRANCH  17  27
ATOM     27  C   UNL A   1      42.801  27.493  34.190  1.00  0.00    -0.002 A 
ATOM     28  C   UNL A   1      41.993  28.281  33.365  1.00  0.00     0.011 A 
ATOM     29  C   UNL A   1      42.825  27.682  35.574  1.00  0.00     0.011 A 
ATOM     30  C   UNL A   1      41.181  29.262  33.932  1.00  0.00     0.021 A 
ATOM     31  C   UNL A   1      42.031  28.680  36.140  1.00  0.00     0.021 A 
ATOM     32  C   UNL A   1      41.217  29.465  35.317  1.00  0.00     0.067 A 
BRANCH  32  33
ATOM     33  S   UNL A   1      40.196  30.734  36.031  1.00  0.00     0.175 S 
ATOM     34  C   UNL A   1      39.962  31.899  34.714  1.00  0.00     0.163 C 
ATOM     35  O   UNL A   1      38.918  30.124  36.338  1.00  0.00    -0.224 OA
ATOM     36  O   UNL A   1      40.975  31.397  37.062  1.00  0.00    -0.224 OA
ENDBRANCH  32  33
ENDBRANCH  17  27
ENDBRANCH   9  14
ENDBRANCH   5   8
ENDBRANCH   3   4
ENDBRANCH   2   3
ENDBRANCH   1   2
BRANCH   1  37
ATOM     37  C   UNL A   1      50.810  27.954  27.637  1.00  0.00     0.002 C 
BRANCH  37  38
ATOM     38  C   UNL A   1      52.000  28.841  27.258  1.00  0.00     0.021 C 
BRANCH  38  39
ATOM     39  C   UNL A   1      51.908  30.274  27.773  1.00  0.00     0.116 C 
BRANCH  39  40
ATOM     40  N   UNL A   1      52.388  30.383  29.142  1.00  0.00    -0.352 N 
ATOM     41  C   UNL A   1      51.687  30.693  30.283  1.00  0.00     0.251 C 
ATOM     42  H   UNL A   1      53.348  30.210  29.269  1.00  0.00     0.163 HD
ATOM     43  O   UNL A   1      52.291  30.975  31.314  1.00  0.00    -0.269 OA
BRANCH  41  44
ATOM     44  C   UNL A   1      50.209  30.702  30.255  1.00  0.00     0.039 A 
ATOM     45  C   UNL A   1      49.507  29.801  31.059  1.00  0.00     0.014 A 
ATOM     46  C   UNL A   1      49.518  31.600  29.434  1.00  0.00     0.014 A 
ATOM     47  C   UNL A   1      48.111  29.847  31.094  1.00  0.00     0.010 A 
ATOM     48  C   UNL A   1      48.129  31.683  29.514  1.00  0.00     0.010 A 
ATOM     49  C   UNL A   1      47.413  30.813  30.351  1.00  0.00    -0.014 A 
BRANCH  49  50
ATOM     50  C   UNL A   1      45.936  30.943  30.446  1.00  0.00     0.031 A 
ATOM     51  C   UNL A   1      45.045  29.984  29.705  1.00  0.00     0.074 A 
ATOM     52  C   UNL A   1      45.402  31.966  31.144  1.00  0.00     0.049 A 
ATOM     53  N   UNL A   1      43.744  30.002  29.567  1.00  0.00    -0.248 NA
ATOM     54  C   UNL A   1      45.709  28.872  29.007  1.00  0.00     0.031 C 
ATOM     55  C   UNL A   1      46.166  32.974  31.883  1.00  0.00     0.029 A 
ATOM     56  N   UNL A   1      44.094  32.339  31.334  1.00  0.00    -0.354 N 
ATOM     57  C   UNL A   1      43.432  28.907  28.770  1.00  0.00     0.074 A 
ATOM     58  C   UNL A   1      44.687  28.281  28.406  1.00  0.00     0.031 C 
ATOM     59  C   UNL A   1      45.313  33.843  32.451  1.00  0.00     0.029 A 
ATOM     60  C   UNL A   1      43.948  33.488  32.078  1.00  0.00     0.049 A 
ATOM     61  H   UNL A   1      43.332  31.832  30.972  1.00  0.00     0.167 HD
ATOM     62  C   UNL A   1      42.211  28.451  28.394  1.00  0.00     0.034 A 
ATOM     63  C   UNL A   1      42.844  34.188  32.404  1.00  0.00     0.034 A 
ATOM     64  C   UNL A   1      40.968  29.080  28.769  1.00  0.00     0.049 A 
ATOM     65  C   UNL A   1      41.500  33.688  31.930  1.00  0.00     0.074 A 
ATOM     66  C   UNL A   1      39.676  28.684  28.468  1.00  0.00     0.029 A 
ATOM     67  N   UNL A   1      40.861  30.242  29.522  1.00  0.00    -0.354 N 
ATOM     68  N   UNL A   1      41.223  32.629  31.203  1.00  0.00    -0.248 NA
ATOM     69  C   UNL A   1      40.321  34.471  32.325  1.00  0.00     0.031 C 
ATOM     70  C   UNL A   1      38.791  29.634  28.989  1.00  0.00     0.029 A 
ATOM     71  C   UNL A   1      39.526  30.589  29.674  1.00  0.00     0.049 A 
ATOM     72  H   UNL A   1      41.620  30.745  29.895  1.00  0.00     0.167 HD
ATOM     73  C   UNL A   1      39.836  32.607  31.081  1.00  0.00     0.074 A 
ATOM     74  C   UNL A   1      39.334  33.744  31.824  1.00  0.00     0.031 C 
ATOM     75  C   UNL A   1      39.046  31.730  30.414  1.00  0.00     0.034 A 
BRANCH  62  76
ATOM     76  C   UNL A   1      42.163  27.219  27.526  1.00  0.00     0.023 A 
ATOM     77  C   UNL A   1      42.149  25.929  28.086  1.00  0.00     0.031 A 
ATOM     78  C   UNL A   1      42.128  27.331  26.126  1.00  0.00     0.131 A 
ATOM     79  C   UNL A   1      42.157  24.804  27.250  1.00  0.00     0.055 A 
ATOM     80  C   UNL A   1      42.062  26.207  25.299  1.00  0.00     0.041 A 
ATOM     81  F   UNL A   1      42.159  28.536  25.536  1.00  0.00    -0.206 F 
ATOM     82  C   UNL A   1      42.088  24.933  25.861  1.00  0.00     0.022 A 
BRANCH  79  83
ATOM     83  S   UNL A   1      42.367  23.166  28.001  1.00  0.00     0.124 S 
ATOM     84  O   UNL A   1      41.161  22.479  27.546  1.00  0.00    -0.237 OA
ATOM     85  O   UNL A   1      43.622  22.709  27.418  1.00  0.00    -0.237 OA
ATOM     86  O   UNL A   1      42.411  23.450  29.434  1.00  0.00    -0.744 OA
ENDBRANCH  79  83
ENDBRANCH  62  76
BRANCH  63  87
ATOM     87  C   UNL A   1      42.944  35.455  33.186  1.00  0.00     0.023 A 
ATOM     88  C   UNL A   1      43.212  36.677  32.550  1.00  0.00     0.031 A 
ATOM     89  C   UNL A   1      42.849  35.451  34.589  1.00  0.00     0.131 A 
ATOM     90  C   UNL A   1      43.443  37.830  33.317  1.00  0.00     0.055 A 
ATOM     91  C   UNL A   1      43.017  36.613  35.344  1.00  0.00     0.041 A 
ATOM     92  F   UNL A   1      42.593  34.311  35.250  1.00  0.00    -0.206 F 
ATOM     93  C   UNL A   1      43.334  37.809  34.709  1.00  0.00     0.022 A 
BRANCH  90  94
ATOM     94  S   UNL A   1      44.012  39.332  32.474  1.00  0.00     0.124 S 
ATOM     95  O   UNL A   1      44.320  38.826  31.141  1.00  0.00    -0.237 OA
ATOM     96  O   UNL A   1      42.841  40.196  32.577  1.00  0.00    -0.237 OA
ATOM     97  O   UNL A   1      45.166  39.749  33.265  1.00  0.00    -0.744 OA
ENDBRANCH  90  94
ENDBRANCH  63  87
BRANCH  75  98
ATOM     98  C   UNL A   1      37.557  31.950  30.497  1.00  0.00     0.023 A 
ATOM     99  C   UNL A   1      36.845  32.572  29.457  1.00  0.00     0.031 A 
ATOM    100  C   UNL A   1      36.844  31.541  31.638  1.00  0.00     0.131 A 
ATOM    101  C   UNL A   1      35.471  32.814  29.600  1.00  0.00     0.055 A 
ATOM    102  C   UNL A   1      35.466  31.734  31.750  1.00  0.00     0.041 A 
ATOM    103  F   UNL A   1      37.476  30.943  32.661  1.00  0.00    -0.206 F 
ATOM    104  C   UNL A   1      34.774  32.385  30.733  1.00  0.00     0.022 A 
BRANCH 101 105
ATOM    105  S   UNL A   1      34.617  33.766  28.314  1.00  0.00     0.124 S 
ATOM    106  O   UNL A   1      35.656  33.905  27.300  1.00  0.00    -0.237 OA
ATOM    107  O   UNL A   1      33.501  32.892  27.967  1.00  0.00    -0.237 OA
ATOM    108  O   UNL A   1      34.243  35.005  28.995  1.00  0.00    -0.744 OA
ENDBRANCH 101 105
ENDBRANCH  75  98
ENDBRANCH  49  50
ENDBRANCH  41  44
ENDBRANCH  39  40
ENDBRANCH  38  39
ENDBRANCH  37  38
ENDBRANCH   1  37
TORSDOF 21
ENDMDL
