MODEL 1
REMARK VINA RESULT:     -11.7      0.000      0.000
REMARK SMILES O=C(NCCCCCCNC(=O)c1ccc([S@@](=O)[C@H]2CCOC3(CCCC3)C2)cc1)c1ccc(-c2c3nc(c(-c4cc(S(=O)(=O)[O-])ccc4F)c4ccc([nH]4)c(-c4cc(S(=O)(=O)[O-])ccc4F)c4nc(c(-c5cc(S(=O)(=O)[O-])ccc5F)c5ccc2[nH]5)C=C4)C=C3)cc1
REMARK SMILES IDX 6 1 5 2 4 3 3 4 1 5 2 6 31 8 32 9 93 10 33 11 92 12 34 13
REMARK SMILES IDX 35 14 36 15 86 16 37 17 91 18 85 19 87 20 38 21 90 22 84 23
REMARK SMILES IDX 83 24 39 26 71 27 51 28 70 29 52 30 55 31 69 32 88 33 53 34
REMARK SMILES IDX 54 35 68 37 89 38 56 39 40 40 41 41 49 42 42 43 48 44 50 45
REMARK SMILES IDX 47 46 43 47 44 48 45 49 46 50 72 51 73 52 81 53 74 54 80 55
REMARK SMILES IDX 82 56 79 57 75 58 76 59 77 60 78 61 57 62 58 63 66 64 59 65
REMARK SMILES IDX 65 66 67 67 64 68 60 69 61 70 62 71 63 72 7 73 8 74 9 75
REMARK SMILES IDX 10 76 11 77 12 79 13 80 14 81 30 82 15 83 29 84 16 85 17 86
REMARK SMILES IDX 18 87 19 88 20 89 28 90 21 91 23 92 22 93 24 94 27 95 25 96
REMARK SMILES IDX 26 97
REMARK H PARENT 3 7 87 25 55 36 10 78
REMARK Flexibility Score: inf
ROOT
ATOM      1  C   UNL A   1      33.658  27.065  25.562  1.00  0.00     0.002 C 
ENDROOT
BRANCH   1   2
ATOM      2  C   UNL A   1      32.736  27.890  26.461  1.00  0.00     0.021 C 
BRANCH   2   3
ATOM      3  C   UNL A   1      33.425  28.577  27.634  1.00  0.00     0.116 C 
BRANCH   3   4
ATOM      4  N   UNL A   1      33.440  30.023  27.498  1.00  0.00    -0.352 N 
ATOM      5  O   UNL A   1      34.194  32.120  27.839  1.00  0.00    -0.269 OA
ATOM      6  C   UNL A   1      34.417  30.913  27.873  1.00  0.00     0.251 C 
ATOM      7  H   UNL A   1      32.642  30.420  27.082  1.00  0.00     0.163 HD
BRANCH   6   8
ATOM      8  C   UNL A   1      35.731  30.410  28.331  1.00  0.00     0.039 A 
ATOM      9  C   UNL A   1      36.876  30.590  27.550  1.00  0.00     0.014 A 
ATOM     10  C   UNL A   1      35.820  29.766  29.569  1.00  0.00     0.014 A 
ATOM     11  C   UNL A   1      38.084  30.033  27.952  1.00  0.00     0.010 A 
ATOM     12  C   UNL A   1      37.052  29.272  30.007  1.00  0.00     0.010 A 
ATOM     13  C   UNL A   1      38.192  29.388  29.194  1.00  0.00    -0.014 A 
BRANCH  13  14
ATOM     14  C   UNL A   1      39.520  28.922  29.665  1.00  0.00     0.031 A 
ATOM     15  C   UNL A   1      40.240  29.624  30.783  1.00  0.00     0.074 A 
ATOM     16  C   UNL A   1      40.074  27.850  29.065  1.00  0.00     0.049 A 
ATOM     17  N   UNL A   1      41.416  29.367  31.294  1.00  0.00    -0.248 NA
ATOM     18  C   UNL A   1      39.553  30.768  31.400  1.00  0.00     0.031 C 
ATOM     19  C   UNL A   1      39.464  27.096  27.965  1.00  0.00     0.029 A 
ATOM     20  N   UNL A   1      41.263  27.204  29.287  1.00  0.00    -0.354 N 
ATOM     21  C   UNL A   1      41.622  30.324  32.281  1.00  0.00     0.074 A 
ATOM     22  C   UNL A   1      40.457  31.183  32.277  1.00  0.00     0.031 C 
ATOM     23  C   UNL A   1      40.269  26.079  27.628  1.00  0.00     0.029 A 
ATOM     24  C   UNL A   1      41.481  26.147  28.434  1.00  0.00     0.049 A 
ATOM     25  H   UNL A   1      41.898  27.471  29.990  1.00  0.00     0.167 HD
ATOM     26  C   UNL A   1      42.686  30.465  33.112  1.00  0.00     0.034 A 
ATOM     27  C   UNL A   1      42.552  25.343  28.290  1.00  0.00     0.034 A 
ATOM     28  C   UNL A   1      43.837  29.591  33.097  1.00  0.00     0.049 A 
ATOM     29  C   UNL A   1      43.739  25.556  29.189  1.00  0.00     0.074 A 
ATOM     30  C   UNL A   1      44.942  29.608  33.933  1.00  0.00     0.029 A 
ATOM     31  N   UNL A   1      44.044  28.557  32.193  1.00  0.00    -0.354 N 
ATOM     32  N   UNL A   1      43.901  26.441  30.144  1.00  0.00    -0.248 NA
ATOM     33  C   UNL A   1      44.886  24.661  28.991  1.00  0.00     0.031 C 
ATOM     34  C   UNL A   1      45.845  28.637  33.488  1.00  0.00     0.029 A 
ATOM     35  C   UNL A   1      45.275  27.960  32.422  1.00  0.00     0.049 A 
ATOM     36  H   UNL A   1      43.408  28.287  31.491  1.00  0.00     0.167 HD
ATOM     37  C   UNL A   1      45.164  26.199  30.673  1.00  0.00     0.074 A 
ATOM     38  C   UNL A   1      45.710  25.072  29.945  1.00  0.00     0.031 C 
ATOM     39  C   UNL A   1      45.814  26.849  31.671  1.00  0.00     0.034 A 
BRANCH  26  40
ATOM     40  C   UNL A   1      42.679  31.631  34.072  1.00  0.00     0.023 A 
ATOM     41  C   UNL A   1      42.159  31.522  35.373  1.00  0.00     0.031 A 
ATOM     42  C   UNL A   1      43.202  32.875  33.675  1.00  0.00     0.131 A 
ATOM     43  C   UNL A   1      42.120  32.651  36.209  1.00  0.00     0.055 A 
ATOM     44  C   UNL A   1      43.226  33.974  34.535  1.00  0.00     0.041 A 
ATOM     45  F   UNL A   1      43.695  33.046  32.437  1.00  0.00    -0.206 F 
ATOM     46  C   UNL A   1      42.671  33.869  35.807  1.00  0.00     0.022 A 
BRANCH  43  47
ATOM     47  S   UNL A   1      41.227  32.535  37.784  1.00  0.00     0.124 S 
ATOM     48  O   UNL A   1      39.916  32.063  37.348  1.00  0.00    -0.237 OA
ATOM     49  O   UNL A   1      42.033  31.579  38.534  1.00  0.00    -0.237 OA
ATOM     50  O   UNL A   1      41.249  33.905  38.292  1.00  0.00    -0.744 OA
ENDBRANCH  43  47
ENDBRANCH  26  40
BRANCH  27  51
ATOM     51  C   UNL A   1      42.569  24.304  27.222  1.00  0.00     0.023 A 
ATOM     52  C   UNL A   1      41.976  23.049  27.419  1.00  0.00     0.031 A 
ATOM     53  C   UNL A   1      43.208  24.546  25.992  1.00  0.00     0.131 A 
ATOM     54  C   UNL A   1      42.066  22.069  26.418  1.00  0.00     0.055 A 
ATOM     55  C   UNL A   1      43.246  23.589  24.978  1.00  0.00     0.041 A 
ATOM     56  F   UNL A   1      43.789  25.733  25.750  1.00  0.00    -0.206 F 
ATOM     57  C   UNL A   1      42.683  22.336  25.194  1.00  0.00     0.022 A 
BRANCH  54  58
ATOM     58  S   UNL A   1      41.436  20.406  26.774  1.00  0.00     0.124 S 
ATOM     59  O   UNL A   1      42.299  19.989  27.872  1.00  0.00    -0.237 OA
ATOM     60  O   UNL A   1      40.044  20.678  27.119  1.00  0.00    -0.237 OA
ATOM     61  O   UNL A   1      41.636  19.690  25.515  1.00  0.00    -0.744 OA
ENDBRANCH  54  58
ENDBRANCH  27  51
BRANCH  39  62
ATOM     62  C   UNL A   1      47.178  26.326  32.045  1.00  0.00     0.023 A 
ATOM     63  C   UNL A   1      48.338  26.745  31.371  1.00  0.00     0.031 A 
ATOM     64  C   UNL A   1      47.315  25.383  33.078  1.00  0.00     0.131 A 
ATOM     65  C   UNL A   1      49.580  26.183  31.702  1.00  0.00     0.055 A 
ATOM     66  C   UNL A   1      48.560  24.869  33.442  1.00  0.00     0.041 A 
ATOM     67  F   UNL A   1      46.239  24.945  33.752  1.00  0.00    -0.206 F 
ATOM     68  C   UNL A   1      49.700  25.260  32.745  1.00  0.00     0.022 A 
BRANCH  65  69
ATOM     69  S   UNL A   1      51.027  26.612  30.698  1.00  0.00     0.124 S 
ATOM     70  O   UNL A   1      50.716  27.976  30.284  1.00  0.00    -0.237 OA
ATOM     71  O   UNL A   1      52.123  26.468  31.650  1.00  0.00    -0.237 OA
ATOM     72  O   UNL A   1      51.007  25.618  29.625  1.00  0.00    -0.744 OA
ENDBRANCH  65  69
ENDBRANCH  39  62
ENDBRANCH  13  14
ENDBRANCH   6   8
ENDBRANCH   3   4
ENDBRANCH   2   3
ENDBRANCH   1   2
BRANCH   1  73
ATOM     73  C   UNL A   1      34.030  27.716  24.227  1.00  0.00     0.002 C 
BRANCH  73  74
ATOM     74  C   UNL A   1      33.296  29.021  23.898  1.00  0.00     0.021 C 
BRANCH  74  75
ATOM     75  C   UNL A   1      32.906  29.193  22.431  1.00  0.00     0.116 C 
BRANCH  75  76
ATOM     76  N   UNL A   1      31.476  29.410  22.271  1.00  0.00    -0.352 N 
ATOM     77  C   UNL A   1      30.456  28.501  22.371  1.00  0.00     0.251 C 
ATOM     78  H   UNL A   1      31.206  30.333  22.064  1.00  0.00     0.163 HD
ATOM     79  O   UNL A   1      29.306  28.798  22.065  1.00  0.00    -0.269 OA
BRANCH  77  80
ATOM     80  C   UNL A   1      30.759  27.133  22.823  1.00  0.00     0.039 A 
ATOM     81  C   UNL A   1      30.263  26.718  24.059  1.00  0.00     0.015 A 
ATOM     82  C   UNL A   1      31.512  26.265  22.025  1.00  0.00     0.015 A 
ATOM     83  C   UNL A   1      30.480  25.407  24.474  1.00  0.00     0.018 A 
ATOM     84  C   UNL A   1      31.740  24.956  22.455  1.00  0.00     0.018 A 
ATOM     85  C   UNL A   1      31.227  24.523  23.682  1.00  0.00     0.039 A 
BRANCH  85  86
ATOM     86  S   UNL A   1      31.402  22.817  24.223  1.00  0.00     0.056 S 
ATOM     87  O   UNL A   1      31.854  22.045  23.018  1.00  0.00    -0.254 OA
BRANCH  86  88
ATOM     88  C   UNL A   1      32.847  22.906  25.354  1.00  0.00     0.089 C 
ATOM     89  C   UNL A   1      32.579  22.451  26.783  1.00  0.00     0.046 C 
ATOM     90  C   UNL A   1      33.936  22.021  24.738  1.00  0.00     0.053 C 
ATOM     91  C   UNL A   1      33.874  22.411  27.575  1.00  0.00     0.162 C 
ATOM     92  C   UNL A   1      35.192  21.931  25.608  1.00  0.00     0.069 C 
ATOM     93  O   UNL A   1      34.843  21.574  26.952  1.00  0.00    -0.375 OA
ATOM     94  C   UNL A   1      36.128  20.810  25.088  1.00  0.00     0.035 C 
ATOM     95  C   UNL A   1      36.051  23.212  25.566  1.00  0.00     0.035 C 
ATOM     96  C   UNL A   1      37.441  21.487  24.717  1.00  0.00     0.003 C 
ATOM     97  C   UNL A   1      37.487  22.708  25.612  1.00  0.00     0.003 C 
ENDBRANCH  86  88
ENDBRANCH  85  86
ENDBRANCH  77  80
ENDBRANCH  75  76
ENDBRANCH  74  75
ENDBRANCH  73  74
ENDBRANCH   1  73
TORSDOF 18
ENDMDL
MODEL 2
REMARK VINA RESULT:     -11.6      3.372      9.244
REMARK SMILES O=C(NCCCCCCNC(=O)c1ccc([S@@](=O)[C@H]2CCOC3(CCCC3)C2)cc1)c1ccc(-c2c3nc(c(-c4cc(S(=O)(=O)[O-])ccc4F)c4ccc([nH]4)c(-c4cc(S(=O)(=O)[O-])ccc4F)c4nc(c(-c5cc(S(=O)(=O)[O-])ccc5F)c5ccc2[nH]5)C=C4)C=C3)cc1
REMARK SMILES IDX 6 1 5 2 4 3 3 4 1 5 2 6 31 8 32 9 93 10 33 11 92 12 34 13
REMARK SMILES IDX 35 14 36 15 86 16 37 17 91 18 85 19 87 20 38 21 90 22 84 23
REMARK SMILES IDX 83 24 39 26 71 27 51 28 70 29 52 30 55 31 69 32 88 33 53 34
REMARK SMILES IDX 54 35 68 37 89 38 56 39 40 40 41 41 49 42 42 43 48 44 50 45
REMARK SMILES IDX 47 46 43 47 44 48 45 49 46 50 72 51 73 52 81 53 74 54 80 55
REMARK SMILES IDX 82 56 79 57 75 58 76 59 77 60 78 61 57 62 58 63 66 64 59 65
REMARK SMILES IDX 65 66 67 67 64 68 60 69 61 70 62 71 63 72 7 73 8 74 9 75
REMARK SMILES IDX 10 76 11 77 12 79 13 80 14 81 30 82 15 83 29 84 16 85 17 86
REMARK SMILES IDX 18 87 19 88 20 89 28 90 21 91 23 92 22 93 24 94 27 95 25 96
REMARK SMILES IDX 26 97
REMARK H PARENT 3 7 87 25 55 36 10 78
REMARK Flexibility Score: inf
ROOT
ATOM      1  C   UNL A   1      35.791  21.825  24.457  1.00  0.00     0.002 C 
ENDROOT
BRANCH   1   2
ATOM      2  C   UNL A   1      35.590  23.174  25.150  1.00  0.00     0.021 C 
BRANCH   2   3
ATOM      3  C   UNL A   1      36.718  23.593  26.085  1.00  0.00     0.116 C 
BRANCH   3   4
ATOM      4  N   UNL A   1      37.821  22.648  26.082  1.00  0.00    -0.352 N 
ATOM      5  O   UNL A   1      39.977  21.991  26.146  1.00  0.00    -0.269 OA
ATOM      6  C   UNL A   1      39.148  22.872  26.360  1.00  0.00     0.251 C 
ATOM      7  H   UNL A   1      37.587  21.721  25.848  1.00  0.00     0.163 HD
BRANCH   6   8
ATOM      8  C   UNL A   1      39.572  24.180  26.904  1.00  0.00     0.039 A 
ATOM      9  C   UNL A   1      39.423  24.469  28.264  1.00  0.00     0.014 A 
ATOM     10  C   UNL A   1      40.144  25.123  26.045  1.00  0.00     0.014 A 
ATOM     11  C   UNL A   1      39.742  25.735  28.742  1.00  0.00     0.010 A 
ATOM     12  C   UNL A   1      40.535  26.369  26.543  1.00  0.00     0.010 A 
ATOM     13  C   UNL A   1      40.323  26.690  27.894  1.00  0.00    -0.014 A 
BRANCH  13  14
ATOM     14  C   UNL A   1      40.783  27.986  28.455  1.00  0.00     0.031 A 
ATOM     15  C   UNL A   1      42.246  28.276  28.645  1.00  0.00     0.074 A 
ATOM     16  C   UNL A   1      39.856  28.903  28.795  1.00  0.00     0.049 A 
ATOM     17  N   UNL A   1      42.815  29.339  29.149  1.00  0.00    -0.248 NA
ATOM     18  C   UNL A   1      43.190  27.231  28.223  1.00  0.00     0.031 C 
ATOM     19  C   UNL A   1      38.407  28.723  28.657  1.00  0.00     0.029 A 
ATOM     20  N   UNL A   1      39.983  30.164  29.320  1.00  0.00    -0.354 N 
ATOM     21  C   UNL A   1      44.183  29.092  29.122  1.00  0.00     0.074 A 
ATOM     22  C   UNL A   1      44.353  27.762  28.575  1.00  0.00     0.031 C 
ATOM     23  C   UNL A   1      37.784  29.838  29.062  1.00  0.00     0.029 A 
ATOM     24  C   UNL A   1      38.778  30.785  29.553  1.00  0.00     0.049 A 
ATOM     25  H   UNL A   1      40.853  30.583  29.511  1.00  0.00     0.167 HD
ATOM     26  C   UNL A   1      45.196  29.903  29.517  1.00  0.00     0.034 A 
ATOM     27  C   UNL A   1      38.499  31.969  30.132  1.00  0.00     0.034 A 
ATOM     28  C   UNL A   1      44.999  31.229  30.058  1.00  0.00     0.049 A 
ATOM     29  C   UNL A   1      39.640  32.825  30.607  1.00  0.00     0.074 A 
ATOM     30  C   UNL A   1      45.957  32.157  30.433  1.00  0.00     0.029 A 
ATOM     31  N   UNL A   1      43.765  31.809  30.319  1.00  0.00    -0.354 N 
ATOM     32  N   UNL A   1      40.930  32.591  30.539  1.00  0.00    -0.248 NA
ATOM     33  C   UNL A   1      39.289  34.103  31.238  1.00  0.00     0.031 C 
ATOM     34  C   UNL A   1      45.303  33.263  30.988  1.00  0.00     0.029 A 
ATOM     35  C   UNL A   1      43.936  33.062  30.891  1.00  0.00     0.049 A 
ATOM     36  H   UNL A   1      42.894  31.392  30.126  1.00  0.00     0.167 HD
ATOM     37  C   UNL A   1      41.546  33.703  31.103  1.00  0.00     0.074 A 
ATOM     38  C   UNL A   1      40.487  34.614  31.486  1.00  0.00     0.031 C 
ATOM     39  C   UNL A   1      42.868  33.949  31.288  1.00  0.00     0.034 A 
BRANCH  26  40
ATOM     40  C   UNL A   1      46.605  29.365  29.424  1.00  0.00     0.023 A 
ATOM     41  C   UNL A   1      47.451  29.673  28.345  1.00  0.00     0.031 A 
ATOM     42  C   UNL A   1      47.108  28.526  30.435  1.00  0.00     0.131 A 
ATOM     43  C   UNL A   1      48.732  29.101  28.274  1.00  0.00     0.055 A 
ATOM     44  C   UNL A   1      48.408  28.018  30.395  1.00  0.00     0.041 A 
ATOM     45  F   UNL A   1      46.340  28.181  31.482  1.00  0.00    -0.206 F 
ATOM     46  C   UNL A   1      49.224  28.294  29.302  1.00  0.00     0.022 A 
BRANCH  43  47
ATOM     47  S   UNL A   1      49.700  29.326  26.756  1.00  0.00     0.124 S 
ATOM     48  O   UNL A   1      49.593  30.767  26.546  1.00  0.00    -0.237 OA
ATOM     49  O   UNL A   1      51.016  28.833  27.145  1.00  0.00    -0.237 OA
ATOM     50  O   UNL A   1      48.992  28.508  25.773  1.00  0.00    -0.744 OA
ENDBRANCH  43  47
ENDBRANCH  26  40
BRANCH  27  51
ATOM     51  C   UNL A   1      37.083  32.385  30.338  1.00  0.00     0.023 A 
ATOM     52  C   UNL A   1      36.384  33.098  29.354  1.00  0.00     0.031 A 
ATOM     53  C   UNL A   1      36.417  32.096  31.543  1.00  0.00     0.131 A 
ATOM     54  C   UNL A   1      35.073  33.532  29.605  1.00  0.00     0.055 A 
ATOM     55  C   UNL A   1      35.095  32.482  31.767  1.00  0.00     0.041 A 
ATOM     56  F   UNL A   1      37.039  31.414  32.518  1.00  0.00    -0.206 F 
ATOM     57  C   UNL A   1      34.419  33.216  30.798  1.00  0.00     0.022 A 
BRANCH  54  58
ATOM     58  S   UNL A   1      34.261  34.593  28.380  1.00  0.00     0.124 S 
ATOM     59  O   UNL A   1      34.545  35.925  28.903  1.00  0.00    -0.237 OA
ATOM     60  O   UNL A   1      34.959  34.224  27.151  1.00  0.00    -0.237 OA
ATOM     61  O   UNL A   1      32.861  34.181  28.446  1.00  0.00    -0.744 OA
ENDBRANCH  54  58
ENDBRANCH  27  51
BRANCH  39  62
ATOM     62  C   UNL A   1      43.230  35.275  31.907  1.00  0.00     0.023 A 
ATOM     63  C   UNL A   1      43.225  35.464  33.300  1.00  0.00     0.031 A 
ATOM     64  C   UNL A   1      43.566  36.369  31.090  1.00  0.00     0.131 A 
ATOM     65  C   UNL A   1      43.501  36.731  33.834  1.00  0.00     0.055 A 
ATOM     66  C   UNL A   1      43.895  37.613  31.629  1.00  0.00     0.041 A 
ATOM     67  F   UNL A   1      43.582  36.245  29.753  1.00  0.00    -0.206 F 
ATOM     68  C   UNL A   1      43.852  37.803  33.008  1.00  0.00     0.022 A 
BRANCH  65  69
ATOM     69  S   UNL A   1      43.314  36.985  35.619  1.00  0.00     0.124 S 
ATOM     70  O   UNL A   1      43.853  38.330  35.793  1.00  0.00    -0.237 OA
ATOM     71  O   UNL A   1      41.874  36.846  35.807  1.00  0.00    -0.237 OA
ATOM     72  O   UNL A   1      44.119  35.913  36.204  1.00  0.00    -0.744 OA
ENDBRANCH  65  69
ENDBRANCH  39  62
ENDBRANCH  13  14
ENDBRANCH   6   8
ENDBRANCH   3   4
ENDBRANCH   2   3
ENDBRANCH   1   2
BRANCH   1  73
ATOM     73  C   UNL A   1      34.938  20.674  24.996  1.00  0.00     0.002 C 
BRANCH  73  74
ATOM     74  C   UNL A   1      33.851  21.069  26.003  1.00  0.00     0.021 C 
BRANCH  74  75
ATOM     75  C   UNL A   1      32.454  21.248  25.412  1.00  0.00     0.116 C 
BRANCH  75  76
ATOM     76  N   UNL A   1      32.365  20.720  24.059  1.00  0.00    -0.352 N 
ATOM     77  C   UNL A   1      32.107  21.392  22.893  1.00  0.00     0.251 C 
ATOM     78  H   UNL A   1      32.510  19.751  23.970  1.00  0.00     0.163 HD
ATOM     79  O   UNL A   1      31.916  20.791  21.842  1.00  0.00    -0.269 OA
BRANCH  77  80
ATOM     80  C   UNL A   1      32.027  22.862  22.918  1.00  0.00     0.039 A 
ATOM     81  C   UNL A   1      33.172  23.594  22.608  1.00  0.00     0.015 A 
ATOM     82  C   UNL A   1      30.825  23.509  23.229  1.00  0.00     0.015 A 
ATOM     83  C   UNL A   1      33.100  24.984  22.558  1.00  0.00     0.018 A 
ATOM     84  C   UNL A   1      30.764  24.903  23.194  1.00  0.00     0.018 A 
ATOM     85  C   UNL A   1      31.901  25.646  22.861  1.00  0.00     0.039 A 
BRANCH  85  86
ATOM     86  S   UNL A   1      31.838  27.436  22.696  1.00  0.00     0.056 S 
ATOM     87  O   UNL A   1      30.519  27.745  22.050  1.00  0.00    -0.254 OA
BRANCH  86  88
ATOM     88  C   UNL A   1      31.703  27.990  24.442  1.00  0.00     0.089 C 
ATOM     89  C   UNL A   1      31.206  26.932  25.419  1.00  0.00     0.046 C 
ATOM     90  C   UNL A   1      33.104  28.446  24.862  1.00  0.00     0.053 C 
ATOM     91  C   UNL A   1      31.293  27.449  26.845  1.00  0.00     0.162 C 
ATOM     92  C   UNL A   1      33.175  28.874  26.330  1.00  0.00     0.069 C 
ATOM     93  O   UNL A   1      32.618  27.856  27.173  1.00  0.00    -0.375 OA
ATOM     94  C   UNL A   1      34.652  29.045  26.770  1.00  0.00     0.035 C 
ATOM     95  C   UNL A   1      32.525  30.248  26.594  1.00  0.00     0.035 C 
ATOM     96  C   UNL A   1      34.805  30.498  27.202  1.00  0.00     0.003 C 
ATOM     97  C   UNL A   1      33.412  30.892  27.649  1.00  0.00     0.003 C 
ENDBRANCH  86  88
ENDBRANCH  85  86
ENDBRANCH  77  80
ENDBRANCH  75  76
ENDBRANCH  74  75
ENDBRANCH  73  74
ENDBRANCH   1  73
TORSDOF 18
ENDMDL
MODEL 3
REMARK VINA RESULT:     -11.5      3.472      8.554
REMARK SMILES O=C(NCCCCCCNC(=O)c1ccc([S@@](=O)[C@H]2CCOC3(CCCC3)C2)cc1)c1ccc(-c2c3nc(c(-c4cc(S(=O)(=O)[O-])ccc4F)c4ccc([nH]4)c(-c4cc(S(=O)(=O)[O-])ccc4F)c4nc(c(-c5cc(S(=O)(=O)[O-])ccc5F)c5ccc2[nH]5)C=C4)C=C3)cc1
REMARK SMILES IDX 6 1 5 2 4 3 3 4 1 5 2 6 31 8 32 9 93 10 33 11 92 12 34 13
REMARK SMILES IDX 35 14 36 15 86 16 37 17 91 18 85 19 87 20 38 21 90 22 84 23
REMARK SMILES IDX 83 24 39 26 71 27 51 28 70 29 52 30 55 31 69 32 88 33 53 34
REMARK SMILES IDX 54 35 68 37 89 38 56 39 40 40 41 41 49 42 42 43 48 44 50 45
REMARK SMILES IDX 47 46 43 47 44 48 45 49 46 50 72 51 73 52 81 53 74 54 80 55
REMARK SMILES IDX 82 56 79 57 75 58 76 59 77 60 78 61 57 62 58 63 66 64 59 65
REMARK SMILES IDX 65 66 67 67 64 68 60 69 61 70 62 71 63 72 7 73 8 74 9 75
REMARK SMILES IDX 10 76 11 77 12 79 13 80 14 81 30 82 15 83 29 84 16 85 17 86
REMARK SMILES IDX 18 87 19 88 20 89 28 90 21 91 23 92 22 93 24 94 27 95 25 96
REMARK SMILES IDX 26 97
REMARK H PARENT 3 7 87 25 55 36 10 78
REMARK Flexibility Score: inf
ROOT
ATOM      1  C   UNL A   1      33.624  30.944  27.424  1.00  0.00     0.002 C 
ENDROOT
BRANCH   1   2
ATOM      2  C   UNL A   1      32.698  32.132  27.690  1.00  0.00     0.021 C 
BRANCH   2   3
ATOM      3  C   UNL A   1      33.218  33.477  27.199  1.00  0.00     0.116 C 
BRANCH   3   4
ATOM      4  N   UNL A   1      32.781  34.580  28.037  1.00  0.00    -0.352 N 
ATOM      5  O   UNL A   1      32.609  35.792  29.931  1.00  0.00    -0.269 OA
ATOM      6  C   UNL A   1      33.208  34.927  29.297  1.00  0.00     0.251 C 
ATOM      7  H   UNL A   1      32.083  35.157  27.652  1.00  0.00     0.163 HD
BRANCH   6   8
ATOM      8  C   UNL A   1      34.379  34.244  29.887  1.00  0.00     0.039 A 
ATOM      9  C   UNL A   1      35.675  34.559  29.467  1.00  0.00     0.014 A 
ATOM     10  C   UNL A   1      34.179  33.290  30.888  1.00  0.00     0.014 A 
ATOM     11  C   UNL A   1      36.758  33.846  29.967  1.00  0.00     0.010 A 
ATOM     12  C   UNL A   1      35.276  32.626  31.444  1.00  0.00     0.010 A 
ATOM     13  C   UNL A   1      36.575  32.888  30.976  1.00  0.00    -0.014 A 
BRANCH  13  14
ATOM     14  C   UNL A   1      37.758  32.236  31.593  1.00  0.00     0.031 A 
ATOM     15  C   UNL A   1      38.484  31.121  30.894  1.00  0.00     0.074 A 
ATOM     16  C   UNL A   1      38.169  32.666  32.801  1.00  0.00     0.049 A 
ATOM     17  N   UNL A   1      39.511  30.423  31.304  1.00  0.00    -0.248 NA
ATOM     18  C   UNL A   1      37.984  30.731  29.567  1.00  0.00     0.031 C 
ATOM     19  C   UNL A   1      37.534  33.739  33.572  1.00  0.00     0.029 A 
ATOM     20  N   UNL A   1      39.213  32.264  33.596  1.00  0.00    -0.354 N 
ATOM     21  C   UNL A   1      39.776  29.501  30.297  1.00  0.00     0.074 A 
ATOM     22  C   UNL A   1      38.780  29.714  29.268  1.00  0.00     0.031 C 
ATOM     23  C   UNL A   1      38.214  33.927  34.711  1.00  0.00     0.029 A 
ATOM     24  C   UNL A   1      39.288  32.945  34.789  1.00  0.00     0.049 A 
ATOM     25  H   UNL A   1      39.847  31.557  33.336  1.00  0.00     0.167 HD
ATOM     26  C   UNL A   1      40.761  28.569  30.243  1.00  0.00     0.034 A 
ATOM     27  C   UNL A   1      40.106  32.775  35.846  1.00  0.00     0.034 A 
ATOM     28  C   UNL A   1      41.745  28.379  31.284  1.00  0.00     0.049 A 
ATOM     29  C   UNL A   1      41.155  31.699  35.779  1.00  0.00     0.074 A 
ATOM     30  C   UNL A   1      42.820  27.506  31.304  1.00  0.00     0.029 A 
ATOM     31  N   UNL A   1      41.766  29.057  32.496  1.00  0.00    -0.354 N 
ATOM     32  N   UNL A   1      41.416  30.862  34.803  1.00  0.00    -0.248 NA
ATOM     33  C   UNL A   1      42.020  31.546  36.955  1.00  0.00     0.031 C 
ATOM     34  C   UNL A   1      43.442  27.603  32.554  1.00  0.00     0.029 A 
ATOM     35  C   UNL A   1      42.806  28.591  33.288  1.00  0.00     0.049 A 
ATOM     36  H   UNL A   1      41.134  29.767  32.757  1.00  0.00     0.167 HD
ATOM     37  C   UNL A   1      42.488  30.091  35.241  1.00  0.00     0.074 A 
ATOM     38  C   UNL A   1      42.837  30.579  36.560  1.00  0.00     0.031 C 
ATOM     39  C   UNL A   1      43.126  29.074  34.611  1.00  0.00     0.034 A 
BRANCH  26  40
ATOM     40  C   UNL A   1      40.795  27.653  29.043  1.00  0.00     0.023 A 
ATOM     41  C   UNL A   1      41.722  27.824  28.000  1.00  0.00     0.031 A 
ATOM     42  C   UNL A   1      39.882  26.587  28.942  1.00  0.00     0.131 A 
ATOM     43  C   UNL A   1      41.676  26.982  26.877  1.00  0.00     0.055 A 
ATOM     44  C   UNL A   1      39.889  25.709  27.857  1.00  0.00     0.041 A 
ATOM     45  F   UNL A   1      38.960  26.384  29.898  1.00  0.00    -0.206 F 
ATOM     46  C   UNL A   1      40.781  25.912  26.809  1.00  0.00     0.022 A 
BRANCH  43  47
ATOM     47  S   UNL A   1      42.721  27.382  25.449  1.00  0.00     0.124 S 
ATOM     48  O   UNL A   1      42.034  28.545  24.893  1.00  0.00    -0.237 OA
ATOM     49  O   UNL A   1      44.016  27.640  26.068  1.00  0.00    -0.237 OA
ATOM     50  O   UNL A   1      42.652  26.176  24.625  1.00  0.00    -0.744 OA
ENDBRANCH  43  47
ENDBRANCH  26  40
BRANCH  27  51
ATOM     51  C   UNL A   1      39.930  33.607  37.069  1.00  0.00     0.023 A 
ATOM     52  C   UNL A   1      39.170  33.151  38.155  1.00  0.00     0.031 A 
ATOM     53  C   UNL A   1      40.502  34.890  37.156  1.00  0.00     0.131 A 
ATOM     54  C   UNL A   1      38.969  33.985  39.266  1.00  0.00     0.055 A 
ATOM     55  C   UNL A   1      40.347  35.693  38.286  1.00  0.00     0.041 A 
ATOM     56  F   UNL A   1      41.243  35.374  36.145  1.00  0.00    -0.206 F 
ATOM     57  C   UNL A   1      39.564  35.246  39.345  1.00  0.00     0.022 A 
BRANCH  54  58
ATOM     58  S   UNL A   1      37.844  33.429  40.575  1.00  0.00     0.124 S 
ATOM     59  O   UNL A   1      36.692  32.972  39.805  1.00  0.00    -0.237 OA
ATOM     60  O   UNL A   1      38.632  32.389  41.229  1.00  0.00    -0.237 OA
ATOM     61  O   UNL A   1      37.624  34.635  41.370  1.00  0.00    -0.744 OA
ENDBRANCH  54  58
ENDBRANCH  27  51
BRANCH  39  62
ATOM     62  C   UNL A   1      44.287  28.447  35.341  1.00  0.00     0.023 A 
ATOM     63  C   UNL A   1      44.094  27.455  36.319  1.00  0.00     0.031 A 
ATOM     64  C   UNL A   1      45.602  28.861  35.066  1.00  0.00     0.131 A 
ATOM     65  C   UNL A   1      45.195  26.948  37.024  1.00  0.00     0.055 A 
ATOM     66  C   UNL A   1      46.698  28.311  35.731  1.00  0.00     0.041 A 
ATOM     67  F   UNL A   1      45.843  29.807  34.144  1.00  0.00    -0.206 F 
ATOM     68  C   UNL A   1      46.498  27.357  36.725  1.00  0.00     0.022 A 
BRANCH  65  69
ATOM     69  S   UNL A   1      44.897  25.803  38.398  1.00  0.00     0.124 S 
ATOM     70  O   UNL A   1      43.768  26.431  39.077  1.00  0.00    -0.237 OA
ATOM     71  O   UNL A   1      44.609  24.551  37.707  1.00  0.00    -0.237 OA
ATOM     72  O   UNL A   1      46.156  25.822  39.141  1.00  0.00    -0.744 OA
ENDBRANCH  65  69
ENDBRANCH  39  62
ENDBRANCH  13  14
ENDBRANCH   6   8
ENDBRANCH   3   4
ENDBRANCH   2   3
ENDBRANCH   1   2
BRANCH   1  73
ATOM     73  C   UNL A   1      32.925  29.640  27.029  1.00  0.00     0.002 C 
BRANCH  73  74
ATOM     74  C   UNL A   1      31.824  29.773  25.970  1.00  0.00     0.021 C 
BRANCH  74  75
ATOM     75  C   UNL A   1      32.223  29.334  24.562  1.00  0.00     0.116 C 
BRANCH  75  76
ATOM     76  N   UNL A   1      31.166  29.588  23.595  1.00  0.00    -0.352 N 
ATOM     77  C   UNL A   1      30.507  28.694  22.793  1.00  0.00     0.251 C 
ATOM     78  H   UNL A   1      30.887  30.527  23.505  1.00  0.00     0.163 HD
ATOM     79  O   UNL A   1      29.738  29.072  21.916  1.00  0.00    -0.269 OA
BRANCH  77  80
ATOM     80  C   UNL A   1      30.757  27.254  22.971  1.00  0.00     0.039 A 
ATOM     81  C   UNL A   1      31.692  26.636  22.141  1.00  0.00     0.015 A 
ATOM     82  C   UNL A   1      30.084  26.526  23.959  1.00  0.00     0.015 A 
ATOM     83  C   UNL A   1      31.994  25.291  22.338  1.00  0.00     0.018 A 
ATOM     84  C   UNL A   1      30.379  25.174  24.140  1.00  0.00     0.018 A 
ATOM     85  C   UNL A   1      31.333  24.550  23.329  1.00  0.00     0.039 A 
BRANCH  85  86
ATOM     86  S   UNL A   1      31.823  22.841  23.600  1.00  0.00     0.056 S 
ATOM     87  O   UNL A   1      32.573  22.425  22.369  1.00  0.00    -0.254 OA
BRANCH  86  88
ATOM     88  C   UNL A   1      33.070  22.995  24.941  1.00  0.00     0.089 C 
ATOM     89  C   UNL A   1      32.611  22.508  26.309  1.00  0.00     0.046 C 
ATOM     90  C   UNL A   1      34.287  22.177  24.497  1.00  0.00     0.053 C 
ATOM     91  C   UNL A   1      33.769  22.529  27.292  1.00  0.00     0.162 C 
ATOM     92  C   UNL A   1      35.398  22.145  25.550  1.00  0.00     0.069 C 
ATOM     93  O   UNL A   1      34.866  21.753  26.823  1.00  0.00    -0.375 OA
ATOM     94  C   UNL A   1      36.463  21.083  25.176  1.00  0.00     0.035 C 
ATOM     95  C   UNL A   1      36.181  23.471  25.646  1.00  0.00     0.035 C 
ATOM     96  C   UNL A   1      37.779  21.834  25.014  1.00  0.00     0.003 C 
ATOM     97  C   UNL A   1      37.618  23.045  25.910  1.00  0.00     0.003 C 
ENDBRANCH  86  88
ENDBRANCH  85  86
ENDBRANCH  77  80
ENDBRANCH  75  76
ENDBRANCH  74  75
ENDBRANCH  73  74
ENDBRANCH   1  73
TORSDOF 18
ENDMDL
