MODEL 1
REMARK VINA RESULT:      -9.0      0.000      0.000
REMARK SMILES CC[NH2+][C@]1(C(=O)NCCCCCCNC(=O)c2ccc(-c3c4nc(c(-c5cc(S(=O)(=O)[O-])ccc5F)c5ccc([nH]5)c(-c5cc(S(=O)(=O)[O-])ccc5F)c5nc(c(-c6cc(S(=O)(=O)[O-])ccc6F)c6ccc3[nH]6)C=C5)C=C4)cc2)CCC[C@H]1CC[N@@H+]1CCC[C@@H](CC)C1
REMARK SMILES IDX 10 1 9 2 8 3 7 4 5 5 6 6 4 8 80 9 83 10 81 11 82 12 3 13
REMARK SMILES IDX 2 16 1 17 84 18 85 19 86 20 87 21 93 22 88 24 90 25 89 26
REMARK SMILES IDX 91 27 92 28 11 29 12 30 13 31 14 32 15 33 16 35 17 36 18 37
REMARK SMILES IDX 79 38 19 39 78 40 20 41 21 42 22 43 72 44 23 45 77 46 71 47
REMARK SMILES IDX 73 48 24 49 76 50 70 51 69 52 25 54 57 55 37 56 56 57 38 58
REMARK SMILES IDX 41 59 55 60 74 61 39 62 40 63 54 65 75 66 42 67 26 68 27 69
REMARK SMILES IDX 35 70 28 71 34 72 36 73 33 74 29 75 30 76 31 77 32 78 58 79
REMARK SMILES IDX 59 80 67 81 60 82 66 83 68 84 65 85 61 86 62 87 63 88 64 89
REMARK SMILES IDX 43 90 44 91 52 92 45 93 51 94 53 95 50 96 46 97 47 98 48 99
REMARK SMILES IDX 49 100
REMARK H PARENT 7 7 3 14 3 15 86 23 14 34 73 53 41 64
REMARK Flexibility Score: inf
ROOT
ATOM      1  C   UNL A   1      43.776  23.270  29.077  1.00  0.00     0.002 C 
ENDROOT
BRANCH   1   2
ATOM      2  C   UNL A   1      44.618  24.481  30.595  1.00  0.00     0.021 C 
BRANCH   2   3
ATOM      3  C   UNL A   1      44.154  25.818  31.613  1.00  0.00     0.116 C 
BRANCH   3   4
ATOM      4  N   UNL A   1      44.998  26.806  32.260  1.00  0.00    -0.351 N 
ATOM      5  C   UNL A   1      44.870  27.428  33.467  1.00  0.00     0.281 C 
ATOM      6  O   UNL A   1      45.837  28.069  33.883  1.00  0.00    -0.268 OA
ATOM      7  H   UNL A   1      45.793  27.072  31.743  1.00  0.00     0.163 HD
BRANCH   5   8
ATOM      8  C   UNL A   1      43.552  27.303  34.235  1.00  0.00     0.178 C 
ATOM      9  C   UNL A   1      43.490  28.400  35.331  1.00  0.00     0.079 C 
ATOM     10  C   UNL A   1      42.313  27.714  33.371  1.00  0.00     0.066 C 
ATOM     11  C   UNL A   1      42.011  28.516  35.689  1.00  0.00     0.008 C 
ATOM     12  C   UNL A   1      41.250  28.032  34.455  1.00  0.00     0.011 C 
BRANCH   8  13
ATOM     13  N   UNL A   1      43.505  26.025  35.034  1.00  0.00    -0.334 N 
ATOM     14  H   UNL A   1      44.411  25.572  34.921  1.00  0.00     0.347 HD
ATOM     15  H   UNL A   1      43.254  26.341  35.971  1.00  0.00     0.347 HD
BRANCH  13  16
ATOM     16  C   UNL A   1      42.493  25.021  34.736  1.00  0.00     0.257 C 
ATOM     17  C   UNL A   1      41.545  24.756  35.896  1.00  0.00     0.071 C 
ENDBRANCH  13  16
ENDBRANCH   8  13
BRANCH  10  18
ATOM     18  C   UNL A   1      42.462  28.974  32.417  1.00  0.00     0.072 C 
BRANCH  18  19
ATOM     19  C   UNL A   1      43.293  30.289  32.707  1.00  0.00     0.262 C 
BRANCH  19  20
ATOM     20  N   UNL A   1      42.792  31.455  33.462  1.00  0.00    -0.335 N 
ATOM     21  C   UNL A   1      43.857  31.988  34.823  1.00  0.00     0.262 C 
ATOM     22  C   UNL A   1      40.964  31.686  33.586  1.00  0.00     0.265 C 
ATOM     23  H   UNL A   1      42.920  32.231  32.813  1.00  0.00     0.348 HD
ATOM     24  C   UNL A   1      43.162  32.256  36.602  1.00  0.00     0.062 C 
ATOM     25  C   UNL A   1      40.073  31.997  35.337  1.00  0.00     0.044 C 
ATOM     26  C   UNL A   1      41.239  32.466  36.846  1.00  0.00     0.015 C 
BRANCH  25  27
ATOM     27  C   UNL A   1      38.558  32.356  35.289  1.00  0.00     0.006 C 
ATOM     28  C   UNL A   1      38.307  33.734  34.697  1.00  0.00     0.004 C 
ENDBRANCH  25  27
ENDBRANCH  19  20
ENDBRANCH  18  19
ENDBRANCH  10  18
ENDBRANCH   5   8
ENDBRANCH   3   4
ENDBRANCH   2   3
ENDBRANCH   1   2
BRANCH   1  29
ATOM     29  C   UNL A   1      42.255  22.565  28.716  1.00  0.00     0.002 C 
BRANCH  29  30
ATOM     30  C   UNL A   1      42.040  21.513  27.610  1.00  0.00     0.021 C 
BRANCH  30  31
ATOM     31  C   UNL A   1      41.731  22.075  26.239  1.00  0.00     0.116 C 
BRANCH  31  32
ATOM     32  N   UNL A   1      40.330  21.899  25.915  1.00  0.00    -0.352 N 
ATOM     33  C   UNL A   1      39.276  22.721  26.252  1.00  0.00     0.251 C 
ATOM     34  H   UNL A   1      40.103  21.097  25.391  1.00  0.00     0.163 HD
ATOM     35  O   UNL A   1      38.130  22.329  26.132  1.00  0.00    -0.269 OA
BRANCH  33  36
ATOM     36  C   UNL A   1      39.572  24.074  26.785  1.00  0.00     0.039 A 
ATOM     37  C   UNL A   1      40.122  25.034  25.934  1.00  0.00     0.014 A 
ATOM     38  C   UNL A   1      39.304  24.387  28.121  1.00  0.00     0.014 A 
ATOM     39  C   UNL A   1      40.401  26.311  26.429  1.00  0.00     0.010 A 
ATOM     40  C   UNL A   1      39.487  25.684  28.584  1.00  0.00     0.010 A 
ATOM     41  C   UNL A   1      40.090  26.641  27.759  1.00  0.00    -0.014 A 
BRANCH  41  42
ATOM     42  C   UNL A   1      40.530  27.933  28.338  1.00  0.00     0.031 A 
ATOM     43  C   UNL A   1      42.006  28.233  28.407  1.00  0.00     0.074 A 
ATOM     44  C   UNL A   1      39.626  28.820  28.794  1.00  0.00     0.049 A 
ATOM     45  N   UNL A   1      42.618  29.299  28.852  1.00  0.00    -0.248 NA
ATOM     46  C   UNL A   1      42.917  27.172  27.945  1.00  0.00     0.031 C 
ATOM     47  C   UNL A   1      38.177  28.612  28.822  1.00  0.00     0.029 A 
ATOM     48  N   UNL A   1      39.791  30.079  29.312  1.00  0.00    -0.354 N 
ATOM     49  C   UNL A   1      43.978  29.031  28.732  1.00  0.00     0.074 A 
ATOM     50  C   UNL A   1      44.100  27.671  28.262  1.00  0.00     0.031 C 
ATOM     51  C   UNL A   1      37.584  29.723  29.292  1.00  0.00     0.029 A 
ATOM     52  C   UNL A   1      38.609  30.710  29.620  1.00  0.00     0.049 A 
ATOM     53  H   UNL A   1      40.673  30.493  29.449  1.00  0.00     0.167 HD
ATOM     54  C   UNL A   1      45.031  29.857  28.952  1.00  0.00     0.034 A 
ATOM     55  C   UNL A   1      38.384  31.950  30.100  1.00  0.00     0.034 A 
ATOM     56  C   UNL A   1      44.884  31.220  29.392  1.00  0.00     0.049 A 
ATOM     57  C   UNL A   1      39.567  32.857  30.330  1.00  0.00     0.074 A 
ATOM     58  C   UNL A   1      45.866  32.170  29.604  1.00  0.00     0.029 A 
ATOM     59  N   UNL A   1      43.670  31.827  29.686  1.00  0.00    -0.354 N 
ATOM     60  N   UNL A   1      40.846  32.610  30.153  1.00  0.00    -0.248 NA
ATOM     61  C   UNL A   1      39.277  34.217  30.803  1.00  0.00     0.031 C 
ATOM     62  C   UNL A   1      45.250  33.333  30.081  1.00  0.00     0.029 A 
ATOM     63  C   UNL A   1      43.879  33.131  30.100  1.00  0.00     0.049 A 
ATOM     64  H   UNL A   1      42.790  31.393  29.611  1.00  0.00     0.167 HD
ATOM     65  C   UNL A   1      41.508  33.794  30.467  1.00  0.00     0.074 A 
ATOM     66  C   UNL A   1      40.486  34.757  30.825  1.00  0.00     0.031 C 
ATOM     67  C   UNL A   1      42.838  34.067  30.459  1.00  0.00     0.034 A 
BRANCH  54  68
ATOM     68  C   UNL A   1      46.412  29.288  28.731  1.00  0.00     0.023 A 
ATOM     69  C   UNL A   1      46.928  29.082  27.437  1.00  0.00     0.031 A 
ATOM     70  C   UNL A   1      47.203  28.888  29.822  1.00  0.00     0.131 A 
ATOM     71  C   UNL A   1      48.147  28.409  27.266  1.00  0.00     0.055 A 
ATOM     72  C   UNL A   1      48.458  28.300  29.646  1.00  0.00     0.041 A 
ATOM     73  F   UNL A   1      46.758  29.037  31.080  1.00  0.00    -0.206 F 
ATOM     74  C   UNL A   1      48.929  28.040  28.362  1.00  0.00     0.022 A 
BRANCH  71  75
ATOM     75  S   UNL A   1      48.614  27.878  25.595  1.00  0.00     0.124 S 
ATOM     76  O   UNL A   1      49.884  28.578  25.410  1.00  0.00    -0.237 OA
ATOM     77  O   UNL A   1      48.698  26.429  25.736  1.00  0.00    -0.237 OA
ATOM     78  O   UNL A   1      47.516  28.362  24.762  1.00  0.00    -0.744 OA
ENDBRANCH  71  75
ENDBRANCH  54  68
BRANCH  55  79
ATOM     79  C   UNL A   1      36.994  32.416  30.376  1.00  0.00     0.023 A 
ATOM     80  C   UNL A   1      36.251  33.100  29.399  1.00  0.00     0.031 A 
ATOM     81  C   UNL A   1      36.401  32.218  31.635  1.00  0.00     0.131 A 
ATOM     82  C   UNL A   1      34.978  33.602  29.712  1.00  0.00     0.055 A 
ATOM     83  C   UNL A   1      35.115  32.677  31.926  1.00  0.00     0.041 A 
ATOM     84  F   UNL A   1      37.065  31.562  32.602  1.00  0.00    -0.206 F 
ATOM     85  C   UNL A   1      34.401  33.386  30.966  1.00  0.00     0.022 A 
BRANCH  82  86
ATOM     86  S   UNL A   1      34.114  34.615  28.480  1.00  0.00     0.124 S 
ATOM     87  O   UNL A   1      34.808  34.247  27.252  1.00  0.00    -0.237 OA
ATOM     88  O   UNL A   1      32.740  34.141  28.608  1.00  0.00    -0.237 OA
ATOM     89  O   UNL A   1      34.345  35.983  28.942  1.00  0.00    -0.744 OA
ENDBRANCH  82  86
ENDBRANCH  55  79
BRANCH  67  90
ATOM     90  C   UNL A   1      43.249  35.473  30.813  1.00  0.00     0.023 A 
ATOM     91  C   UNL A   1      43.399  36.465  29.831  1.00  0.00     0.031 A 
ATOM     92  C   UNL A   1      43.490  35.822  32.154  1.00  0.00     0.131 A 
ATOM     93  C   UNL A   1      43.834  37.747  30.196  1.00  0.00     0.055 A 
ATOM     94  C   UNL A   1      43.867  37.115  32.518  1.00  0.00     0.041 A 
ATOM     95  F   UNL A   1      43.359  34.911  33.132  1.00  0.00    -0.206 F 
ATOM     96  C   UNL A   1      44.053  38.083  31.535  1.00  0.00     0.022 A 
BRANCH  93  97
ATOM     97  S   UNL A   1      44.191  38.949  28.886  1.00  0.00     0.124 S 
ATOM     98  O   UNL A   1      42.971  39.750  28.869  1.00  0.00    -0.237 OA
ATOM     99  O   UNL A   1      45.386  39.617  29.392  1.00  0.00    -0.237 OA
ATOM    100  O   UNL A   1      44.403  38.115  27.704  1.00  0.00    -0.744 OA
ENDBRANCH  93  97
ENDBRANCH  67  90
ENDBRANCH  41  42
ENDBRANCH  33  36
ENDBRANCH  31  32
ENDBRANCH  30  31
ENDBRANCH  29  30
ENDBRANCH   1  29
TORSDOF 22
ENDMDL
MODEL 2
REMARK VINA RESULT:      -8.2      1.854      2.181
REMARK SMILES CC[NH2+][C@]1(C(=O)NCCCCCCNC(=O)c2ccc(-c3c4nc(c(-c5cc(S(=O)(=O)[O-])ccc5F)c5ccc([nH]5)c(-c5cc(S(=O)(=O)[O-])ccc5F)c5nc(c(-c6cc(S(=O)(=O)[O-])ccc6F)c6ccc3[nH]6)C=C5)C=C4)cc2)CCC[C@H]1CC[N@@H+]1CCC[C@@H](CC)C1
REMARK SMILES IDX 10 1 9 2 8 3 7 4 5 5 6 6 4 8 80 9 83 10 81 11 82 12 3 13
REMARK SMILES IDX 2 16 1 17 84 18 85 19 86 20 87 21 93 22 88 24 90 25 89 26
REMARK SMILES IDX 91 27 92 28 11 29 12 30 13 31 14 32 15 33 16 35 17 36 18 37
REMARK SMILES IDX 79 38 19 39 78 40 20 41 21 42 22 43 72 44 23 45 77 46 71 47
REMARK SMILES IDX 73 48 24 49 76 50 70 51 69 52 25 54 57 55 37 56 56 57 38 58
REMARK SMILES IDX 41 59 55 60 74 61 39 62 40 63 54 65 75 66 42 67 26 68 27 69
REMARK SMILES IDX 35 70 28 71 34 72 36 73 33 74 29 75 30 76 31 77 32 78 58 79
REMARK SMILES IDX 59 80 67 81 60 82 66 83 68 84 65 85 61 86 62 87 63 88 64 89
REMARK SMILES IDX 43 90 44 91 52 92 45 93 51 94 53 95 50 96 46 97 47 98 48 99
REMARK SMILES IDX 49 100
REMARK H PARENT 7 7 3 14 3 15 86 23 14 34 73 53 41 64
REMARK Flexibility Score: inf
ROOT
ATOM      1  C   UNL A   1      43.745  23.506  29.237  1.00  0.00     0.002 C 
ENDROOT
BRANCH   1   2
ATOM      2  C   UNL A   1      44.515  24.810  30.716  1.00  0.00     0.021 C 
BRANCH   2   3
ATOM      3  C   UNL A   1      44.029  26.244  31.580  1.00  0.00     0.116 C 
BRANCH   3   4
ATOM      4  N   UNL A   1      44.860  27.257  32.205  1.00  0.00    -0.351 N 
ATOM      5  C   UNL A   1      44.621  28.059  33.282  1.00  0.00     0.281 C 
ATOM      6  O   UNL A   1      45.576  28.687  33.747  1.00  0.00    -0.268 OA
ATOM      7  H   UNL A   1      45.740  27.386  31.783  1.00  0.00     0.163 HD
BRANCH   5   8
ATOM      8  C   UNL A   1      43.203  28.143  33.851  1.00  0.00     0.178 C 
ATOM      9  C   UNL A   1      43.232  28.926  35.191  1.00  0.00     0.079 C 
ATOM     10  C   UNL A   1      42.274  29.081  33.010  1.00  0.00     0.066 C 
ATOM     11  C   UNL A   1      41.791  29.374  35.416  1.00  0.00     0.008 C 
ATOM     12  C   UNL A   1      41.156  29.429  34.027  1.00  0.00     0.011 C 
BRANCH   8  13
ATOM     13  N   UNL A   1      42.701  26.783  34.265  1.00  0.00    -0.334 N 
ATOM     14  H   UNL A   1      41.741  26.707  33.928  1.00  0.00     0.347 HD
ATOM     15  H   UNL A   1      43.388  26.145  33.865  1.00  0.00     0.347 HD
BRANCH  13  16
ATOM     16  C   UNL A   1      42.681  26.416  35.674  1.00  0.00     0.257 C 
ATOM     17  C   UNL A   1      41.787  25.223  35.975  1.00  0.00     0.071 C 
ENDBRANCH  13  16
ENDBRANCH   8  13
BRANCH  10  18
ATOM     18  C   UNL A   1      42.896  30.430  32.452  1.00  0.00     0.072 C 
BRANCH  18  19
ATOM     19  C   UNL A   1      43.907  31.389  33.202  1.00  0.00     0.262 C 
BRANCH  19  20
ATOM     20  N   UNL A   1      43.527  32.377  34.231  1.00  0.00    -0.335 N 
ATOM     21  C   UNL A   1      44.377  32.182  35.816  1.00  0.00     0.262 C 
ATOM     22  C   UNL A   1      41.809  33.054  34.191  1.00  0.00     0.265 C 
ATOM     23  H   UNL A   1      43.954  33.242  33.899  1.00  0.00     0.348 HD
ATOM     24  C   UNL A   1      43.403  32.104  37.479  1.00  0.00     0.062 C 
ATOM     25  C   UNL A   1      40.665  33.077  35.818  1.00  0.00     0.044 C 
ATOM     26  C   UNL A   1      41.564  32.752  37.532  1.00  0.00     0.015 C 
BRANCH  25  27
ATOM     27  C   UNL A   1      39.309  33.835  35.699  1.00  0.00     0.006 C 
ATOM     28  C   UNL A   1      38.844  33.970  34.257  1.00  0.00     0.004 C 
ENDBRANCH  25  27
ENDBRANCH  19  20
ENDBRANCH  18  19
ENDBRANCH  10  18
ENDBRANCH   5   8
ENDBRANCH   3   4
ENDBRANCH   2   3
ENDBRANCH   1   2
BRANCH   1  29
ATOM     29  C   UNL A   1      42.243  22.776  28.849  1.00  0.00     0.002 C 
BRANCH  29  30
ATOM     30  C   UNL A   1      42.083  21.648  27.812  1.00  0.00     0.021 C 
BRANCH  30  31
ATOM     31  C   UNL A   1      41.840  22.109  26.391  1.00  0.00     0.116 C 
BRANCH  31  32
ATOM     32  N   UNL A   1      40.449  21.938  26.024  1.00  0.00    -0.352 N 
ATOM     33  C   UNL A   1      39.391  22.773  26.313  1.00  0.00     0.251 C 
ATOM     34  H   UNL A   1      40.233  21.129  25.506  1.00  0.00     0.163 HD
ATOM     35  O   UNL A   1      38.246  22.387  26.163  1.00  0.00    -0.269 OA
BRANCH  33  36
ATOM     36  C   UNL A   1      39.680  24.132  26.833  1.00  0.00     0.039 A 
ATOM     37  C   UNL A   1      40.211  25.092  25.970  1.00  0.00     0.014 A 
ATOM     38  C   UNL A   1      39.425  24.452  28.171  1.00  0.00     0.014 A 
ATOM     39  C   UNL A   1      40.483  26.374  26.452  1.00  0.00     0.010 A 
ATOM     40  C   UNL A   1      39.601  25.754  28.623  1.00  0.00     0.010 A 
ATOM     41  C   UNL A   1      40.184  26.711  27.784  1.00  0.00    -0.014 A 
BRANCH  41  42
ATOM     42  C   UNL A   1      40.619  28.011  28.349  1.00  0.00     0.031 A 
ATOM     43  C   UNL A   1      42.091  28.335  28.378  1.00  0.00     0.074 A 
ATOM     44  C   UNL A   1      39.713  28.884  28.827  1.00  0.00     0.049 A 
ATOM     45  N   UNL A   1      42.697  29.412  28.805  1.00  0.00    -0.248 NA
ATOM     46  C   UNL A   1      43.007  27.289  27.893  1.00  0.00     0.031 C 
ATOM     47  C   UNL A   1      38.269  28.653  28.895  1.00  0.00     0.029 A 
ATOM     48  N   UNL A   1      39.872  30.146  29.339  1.00  0.00    -0.354 N 
ATOM     49  C   UNL A   1      44.058  29.166  28.648  1.00  0.00     0.074 A 
ATOM     50  C   UNL A   1      44.190  27.807  28.177  1.00  0.00     0.031 C 
ATOM     51  C   UNL A   1      37.670  29.755  29.379  1.00  0.00     0.029 A 
ATOM     52  C   UNL A   1      38.688  30.759  29.678  1.00  0.00     0.049 A 
ATOM     53  H   UNL A   1      40.750  30.575  29.451  1.00  0.00     0.167 HD
ATOM     54  C   UNL A   1      45.103  30.009  28.838  1.00  0.00     0.034 A 
ATOM     55  C   UNL A   1      38.456  31.996  30.161  1.00  0.00     0.034 A 
ATOM     56  C   UNL A   1      44.946  31.370  29.280  1.00  0.00     0.049 A 
ATOM     57  C   UNL A   1      39.630  32.923  30.358  1.00  0.00     0.074 A 
ATOM     58  C   UNL A   1      45.917  32.337  29.464  1.00  0.00     0.029 A 
ATOM     59  N   UNL A   1      43.730  31.958  29.606  1.00  0.00    -0.354 N 
ATOM     60  N   UNL A   1      40.907  32.696  30.148  1.00  0.00    -0.248 NA
ATOM     61  C   UNL A   1      39.330  34.279  30.837  1.00  0.00     0.031 C 
ATOM     62  C   UNL A   1      45.296  33.491  29.956  1.00  0.00     0.029 A 
ATOM     63  C   UNL A   1      43.929  33.267  30.012  1.00  0.00     0.049 A 
ATOM     64  H   UNL A   1      42.855  31.510  29.555  1.00  0.00     0.167 HD
ATOM     65  C   UNL A   1      41.558  33.892  30.442  1.00  0.00     0.074 A 
ATOM     66  C   UNL A   1      40.530  34.838  30.825  1.00  0.00     0.031 C 
ATOM     67  C   UNL A   1      42.883  34.186  30.397  1.00  0.00     0.034 A 
BRANCH  54  68
ATOM     68  C   UNL A   1      46.487  29.463  28.581  1.00  0.00     0.023 A 
ATOM     69  C   UNL A   1      47.265  28.908  29.614  1.00  0.00     0.031 A 
ATOM     70  C   UNL A   1      47.064  29.552  27.302  1.00  0.00     0.131 A 
ATOM     71  C   UNL A   1      48.602  28.555  29.375  1.00  0.00     0.055 A 
ATOM     72  C   UNL A   1      48.366  29.113  27.050  1.00  0.00     0.041 A 
ATOM     73  F   UNL A   1      46.381  30.090  26.280  1.00  0.00    -0.206 F 
ATOM     74  C   UNL A   1      49.150  28.628  28.093  1.00  0.00     0.022 A 
BRANCH  71  75
ATOM     75  S   UNL A   1      49.659  28.155  30.795  1.00  0.00     0.124 S 
ATOM     76  O   UNL A   1      50.577  27.180  30.210  1.00  0.00    -0.237 OA
ATOM     77  O   UNL A   1      50.233  29.451  31.136  1.00  0.00    -0.237 OA
ATOM     78  O   UNL A   1      48.723  27.608  31.775  1.00  0.00    -0.744 OA
ENDBRANCH  71  75
ENDBRANCH  54  68
BRANCH  55  79
ATOM     79  C   UNL A   1      37.066  32.440  30.474  1.00  0.00     0.023 A 
ATOM     80  C   UNL A   1      36.260  33.043  29.495  1.00  0.00     0.031 A 
ATOM     81  C   UNL A   1      36.537  32.303  31.769  1.00  0.00     0.131 A 
ATOM     82  C   UNL A   1      34.988  33.528  29.836  1.00  0.00     0.055 A 
ATOM     83  C   UNL A   1      35.252  32.743  32.092  1.00  0.00     0.041 A 
ATOM     84  F   UNL A   1      37.263  31.725  32.741  1.00  0.00    -0.206 F 
ATOM     85  C   UNL A   1      34.474  33.373  31.126  1.00  0.00     0.022 A 
BRANCH  82  86
ATOM     86  S   UNL A   1      34.040  34.441  28.588  1.00  0.00     0.124 S 
ATOM     87  O   UNL A   1      32.739  34.568  29.235  1.00  0.00    -0.237 OA
ATOM     88  O   UNL A   1      34.816  35.671  28.459  1.00  0.00    -0.237 OA
ATOM     89  O   UNL A   1      34.075  33.560  27.422  1.00  0.00    -0.744 OA
ENDBRANCH  82  86
ENDBRANCH  55  79
BRANCH  67  90
ATOM     90  C   UNL A   1      43.280  35.600  30.738  1.00  0.00     0.023 A 
ATOM     91  C   UNL A   1      43.482  36.006  32.067  1.00  0.00     0.031 A 
ATOM     92  C   UNL A   1      43.458  36.549  29.717  1.00  0.00     0.131 A 
ATOM     93  C   UNL A   1      43.799  37.343  32.346  1.00  0.00     0.055 A 
ATOM     94  C   UNL A   1      43.830  37.865  29.996  1.00  0.00     0.041 A 
ATOM     95  F   UNL A   1      43.278  36.211  28.430  1.00  0.00    -0.206 F 
ATOM     96  C   UNL A   1      43.990  38.271  31.318  1.00  0.00     0.022 A 
BRANCH  93  97
ATOM     97  S   UNL A   1      43.876  37.875  34.078  1.00  0.00     0.124 S 
ATOM     98  O   UNL A   1      45.160  38.567  34.125  1.00  0.00    -0.237 OA
ATOM     99  O   UNL A   1      42.691  38.718  34.198  1.00  0.00    -0.237 OA
ATOM    100  O   UNL A   1      43.819  36.620  34.824  1.00  0.00    -0.744 OA
ENDBRANCH  93  97
ENDBRANCH  67  90
ENDBRANCH  41  42
ENDBRANCH  33  36
ENDBRANCH  31  32
ENDBRANCH  30  31
ENDBRANCH  29  30
ENDBRANCH   1  29
TORSDOF 22
ENDMDL
MODEL 3
REMARK VINA RESULT:      -8.1      3.835      8.555
REMARK SMILES CC[NH2+][C@]1(C(=O)NCCCCCCNC(=O)c2ccc(-c3c4nc(c(-c5cc(S(=O)(=O)[O-])ccc5F)c5ccc([nH]5)c(-c5cc(S(=O)(=O)[O-])ccc5F)c5nc(c(-c6cc(S(=O)(=O)[O-])ccc6F)c6ccc3[nH]6)C=C5)C=C4)cc2)CCC[C@H]1CC[N@@H+]1CCC[C@@H](CC)C1
REMARK SMILES IDX 10 1 9 2 8 3 7 4 5 5 6 6 4 8 80 9 83 10 81 11 82 12 3 13
REMARK SMILES IDX 2 16 1 17 84 18 85 19 86 20 87 21 93 22 88 24 90 25 89 26
REMARK SMILES IDX 91 27 92 28 11 29 12 30 13 31 14 32 15 33 16 35 17 36 18 37
REMARK SMILES IDX 79 38 19 39 78 40 20 41 21 42 22 43 72 44 23 45 77 46 71 47
REMARK SMILES IDX 73 48 24 49 76 50 70 51 69 52 25 54 57 55 37 56 56 57 38 58
REMARK SMILES IDX 41 59 55 60 74 61 39 62 40 63 54 65 75 66 42 67 26 68 27 69
REMARK SMILES IDX 35 70 28 71 34 72 36 73 33 74 29 75 30 76 31 77 32 78 58 79
REMARK SMILES IDX 59 80 67 81 60 82 66 83 68 84 65 85 61 86 62 87 63 88 64 89
REMARK SMILES IDX 43 90 44 91 52 92 45 93 51 94 53 95 50 96 46 97 47 98 48 99
REMARK SMILES IDX 49 100
REMARK H PARENT 7 7 3 14 3 15 86 23 14 34 73 53 41 64
REMARK Flexibility Score: inf
ROOT
ATOM      1  C   UNL A   1      46.041  25.625  38.686  1.00  0.00     0.002 C 
ENDROOT
BRANCH   1   2
ATOM      2  C   UNL A   1      45.705  27.707  38.505  1.00  0.00     0.021 C 
BRANCH   2   3
ATOM      3  C   UNL A   1      45.206  28.853  37.290  1.00  0.00     0.116 C 
BRANCH   3   4
ATOM      4  N   UNL A   1      44.037  29.714  37.275  1.00  0.00    -0.351 N 
ATOM      5  C   UNL A   1      42.864  29.604  36.589  1.00  0.00     0.281 C 
ATOM      6  O   UNL A   1      41.941  30.355  36.914  1.00  0.00    -0.268 OA
ATOM      7  H   UNL A   1      44.102  30.507  37.854  1.00  0.00     0.163 HD
BRANCH   5   8
ATOM      8  C   UNL A   1      42.750  28.573  35.464  1.00  0.00     0.178 C 
ATOM      9  C   UNL A   1      41.300  28.573  34.911  1.00  0.00     0.079 C 
ATOM     10  C   UNL A   1      43.530  29.001  34.176  1.00  0.00     0.066 C 
ATOM     11  C   UNL A   1      41.403  27.919  33.536  1.00  0.00     0.008 C 
ATOM     12  C   UNL A   1      42.843  28.147  33.079  1.00  0.00     0.011 C 
BRANCH   8  13
ATOM     13  N   UNL A   1      42.909  27.170  35.992  1.00  0.00    -0.334 N 
ATOM     14  H   UNL A   1      42.980  26.555  35.182  1.00  0.00     0.347 HD
ATOM     15  H   UNL A   1      43.726  27.237  36.600  1.00  0.00     0.347 HD
BRANCH  13  16
ATOM     16  C   UNL A   1      41.889  26.603  36.862  1.00  0.00     0.257 C 
ATOM     17  C   UNL A   1      41.437  25.214  36.438  1.00  0.00     0.071 C 
ENDBRANCH  13  16
ENDBRANCH   8  13
BRANCH  10  18
ATOM     18  C   UNL A   1      43.469  30.528  33.748  1.00  0.00     0.072 C 
BRANCH  18  19
ATOM     19  C   UNL A   1      42.166  31.384  33.475  1.00  0.00     0.262 C 
BRANCH  19  20
ATOM     20  N   UNL A   1      41.721  31.843  32.144  1.00  0.00    -0.335 N 
ATOM     21  C   UNL A   1      40.634  33.288  32.167  1.00  0.00     0.262 C 
ATOM     22  C   UNL A   1      41.535  30.580  30.809  1.00  0.00     0.265 C 
ATOM     23  H   UNL A   1      42.563  32.253  31.740  1.00  0.00     0.348 HD
ATOM     24  C   UNL A   1      38.950  33.299  31.229  1.00  0.00     0.062 C 
ATOM     25  C   UNL A   1      39.875  30.457  29.720  1.00  0.00     0.044 C 
ATOM     26  C   UNL A   1      38.636  31.975  29.830  1.00  0.00     0.015 C 
BRANCH  25  27
ATOM     27  C   UNL A   1      39.911  29.475  28.512  1.00  0.00     0.006 C 
ATOM     28  C   UNL A   1      38.796  28.443  28.569  1.00  0.00     0.004 C 
ENDBRANCH  25  27
ENDBRANCH  19  20
ENDBRANCH  18  19
ENDBRANCH  10  18
ENDBRANCH   5   8
ENDBRANCH   3   4
ENDBRANCH   2   3
ENDBRANCH   1   2
BRANCH   1  29
ATOM     29  C   UNL A   1      45.746  24.389  39.837  1.00  0.00     0.002 C 
BRANCH  29  30
ATOM     30  C   UNL A   1      45.620  22.896  39.476  1.00  0.00     0.021 C 
BRANCH  30  31
ATOM     31  C   UNL A   1      46.858  22.273  38.869  1.00  0.00     0.116 C 
BRANCH  31  32
ATOM     32  N   UNL A   1      46.526  21.059  38.152  1.00  0.00    -0.352 N 
ATOM     33  C   UNL A   1      45.996  20.946  36.884  1.00  0.00     0.251 C 
ATOM     34  H   UNL A   1      46.699  20.214  38.625  1.00  0.00     0.163 HD
ATOM     35  O   UNL A   1      45.536  19.885  36.504  1.00  0.00    -0.269 OA
BRANCH  33  36
ATOM     36  C   UNL A   1      45.977  22.147  36.013  1.00  0.00     0.039 A 
ATOM     37  C   UNL A   1      44.884  23.013  36.072  1.00  0.00     0.014 A 
ATOM     38  C   UNL A   1      47.040  22.411  35.141  1.00  0.00     0.014 A 
ATOM     39  C   UNL A   1      44.861  24.146  35.256  1.00  0.00     0.010 A 
ATOM     40  C   UNL A   1      47.062  23.590  34.406  1.00  0.00     0.010 A 
ATOM     41  C   UNL A   1      45.948  24.438  34.414  1.00  0.00    -0.014 A 
BRANCH  41  42
ATOM     42  C   UNL A   1      45.863  25.543  33.428  1.00  0.00     0.031 A 
ATOM     43  C   UNL A   1      45.083  25.323  32.156  1.00  0.00     0.074 A 
ATOM     44  C   UNL A   1      46.473  26.718  33.666  1.00  0.00     0.049 A 
ATOM     45  N   UNL A   1      44.859  26.146  31.166  1.00  0.00    -0.248 NA
ATOM     46  C   UNL A   1      44.509  23.981  31.957  1.00  0.00     0.031 C 
ATOM     47  C   UNL A   1      47.295  27.023  34.839  1.00  0.00     0.029 A 
ATOM     48  N   UNL A   1      46.487  27.881  32.939  1.00  0.00    -0.354 N 
ATOM     49  C   UNL A   1      44.130  25.419  30.229  1.00  0.00     0.074 A 
ATOM     50  C   UNL A   1      44.032  24.067  30.727  1.00  0.00     0.031 C 
ATOM     51  C   UNL A   1      47.698  28.303  34.771  1.00  0.00     0.029 A 
ATOM     52  C   UNL A   1      47.185  28.902  33.542  1.00  0.00     0.049 A 
ATOM     53  H   UNL A   1      46.040  27.977  32.068  1.00  0.00     0.167 HD
ATOM     54  C   UNL A   1      43.555  25.848  29.078  1.00  0.00     0.034 A 
ATOM     55  C   UNL A   1      47.374  30.177  33.147  1.00  0.00     0.034 A 
ATOM     56  C   UNL A   1      43.641  27.209  28.616  1.00  0.00     0.049 A 
ATOM     57  C   UNL A   1      46.721  30.639  31.868  1.00  0.00     0.074 A 
ATOM     58  C   UNL A   1      43.065  27.779  27.495  1.00  0.00     0.029 A 
ATOM     59  N   UNL A   1      44.349  28.217  29.257  1.00  0.00    -0.354 N 
ATOM     60  N   UNL A   1      45.982  29.955  31.023  1.00  0.00    -0.248 NA
ATOM     61  C   UNL A   1      46.908  32.049  31.501  1.00  0.00     0.031 C 
ATOM     62  C   UNL A   1      43.472  29.116  27.428  1.00  0.00     0.029 A 
ATOM     63  C   UNL A   1      44.245  29.399  28.544  1.00  0.00     0.049 A 
ATOM     64  H   UNL A   1      44.852  28.107  30.096  1.00  0.00     0.167 HD
ATOM     65  C   UNL A   1      45.594  30.861  30.040  1.00  0.00     0.074 A 
ATOM     66  C   UNL A   1      46.165  32.141  30.409  1.00  0.00     0.031 C 
ATOM     67  C   UNL A   1      44.833  30.660  28.933  1.00  0.00     0.034 A 
BRANCH  54  68
ATOM     68  C   UNL A   1      42.811  24.825  28.254  1.00  0.00     0.023 A 
ATOM     69  C   UNL A   1      43.489  23.880  27.462  1.00  0.00     0.031 A 
ATOM     70  C   UNL A   1      41.406  24.831  28.208  1.00  0.00     0.131 A 
ATOM     71  C   UNL A   1      42.770  23.049  26.590  1.00  0.00     0.055 A 
ATOM     72  C   UNL A   1      40.692  23.938  27.405  1.00  0.00     0.041 A 
ATOM     73  F   UNL A   1      40.702  25.722  28.924  1.00  0.00    -0.206 F 
ATOM     74  C   UNL A   1      41.374  23.052  26.575  1.00  0.00     0.022 A 
BRANCH  71  75
ATOM     75  S   UNL A   1      43.690  22.082  25.360  1.00  0.00     0.124 S 
ATOM     76  O   UNL A   1      45.040  22.105  25.921  1.00  0.00    -0.237 OA
ATOM     77  O   UNL A   1      43.005  20.795  25.393  1.00  0.00    -0.237 OA
ATOM     78  O   UNL A   1      43.522  22.848  24.128  1.00  0.00    -0.744 OA
ENDBRANCH  71  75
ENDBRANCH  54  68
BRANCH  55  79
ATOM     79  C   UNL A   1      48.195  31.112  33.971  1.00  0.00     0.023 A 
ATOM     80  C   UNL A   1      47.618  31.861  35.009  1.00  0.00     0.031 A 
ATOM     81  C   UNL A   1      49.563  31.298  33.707  1.00  0.00     0.131 A 
ATOM     82  C   UNL A   1      48.393  32.796  35.714  1.00  0.00     0.055 A 
ATOM     83  C   UNL A   1      50.342  32.194  34.442  1.00  0.00     0.041 A 
ATOM     84  F   UNL A   1      50.167  30.600  32.731  1.00  0.00    -0.206 F 
ATOM     85  C   UNL A   1      49.754  32.959  35.444  1.00  0.00     0.022 A 
BRANCH  82  86
ATOM     86  S   UNL A   1      47.579  33.857  36.939  1.00  0.00     0.124 S 
ATOM     87  O   UNL A   1      48.644  34.793  37.278  1.00  0.00    -0.237 OA
ATOM     88  O   UNL A   1      46.464  34.403  36.171  1.00  0.00    -0.237 OA
ATOM     89  O   UNL A   1      47.204  32.925  38.001  1.00  0.00    -0.744 OA
ENDBRANCH  82  86
ENDBRANCH  55  79
BRANCH  67  90
ATOM     90  C   UNL A   1      44.550  31.864  28.071  1.00  0.00     0.023 A 
ATOM     91  C   UNL A   1      43.840  32.970  28.564  1.00  0.00     0.031 A 
ATOM     92  C   UNL A   1      45.000  31.900  26.740  1.00  0.00     0.131 A 
ATOM     93  C   UNL A   1      43.551  34.048  27.714  1.00  0.00     0.055 A 
ATOM     94  C   UNL A   1      44.760  33.000  25.915  1.00  0.00     0.041 A 
ATOM     95  F   UNL A   1      45.685  30.868  26.221  1.00  0.00    -0.206 F 
ATOM     96  C   UNL A   1      44.021  34.077  26.398  1.00  0.00     0.022 A 
BRANCH  93  97
ATOM     97  S   UNL A   1      42.480  35.376  28.328  1.00  0.00     0.124 S 
ATOM     98  O   UNL A   1      41.526  34.639  29.150  1.00  0.00    -0.237 OA
ATOM     99  O   UNL A   1      43.421  36.227  29.050  1.00  0.00    -0.237 OA
ATOM    100  O   UNL A   1      41.928  35.961  27.108  1.00  0.00    -0.744 OA
ENDBRANCH  93  97
ENDBRANCH  67  90
ENDBRANCH  41  42
ENDBRANCH  33  36
ENDBRANCH  31  32
ENDBRANCH  30  31
ENDBRANCH  29  30
ENDBRANCH   1  29
TORSDOF 22
ENDMDL
