MODEL 1
REMARK VINA RESULT:      -9.7      0.000      0.000
REMARK SMILES C[C@@]1(O)CC(NCCCCCCNC(=O)c2ccc(-c3c4nc(c(-c5cc(S(=O)(=O)[O-])ccc5F)c5ccc([nH]5)c(-c5cc(S(=O)(=O)[O-])ccc5F)c5nc(c(-c6cc(S(=O)(=O)[O-])ccc6F)c6ccc3[nH]6)C=C5)C=C4)cc2)=C(C(=O)Nc2ccccc2)[C@H](c2ccccc2C(=O)[O-])[C@@H]1C(=O)Nc1ccccc1
REMARK SMILES IDX 10 1 9 2 8 3 7 4 6 5 5 7 1 8 2 9 4 10 99 11 89 12 79 13 3 14
REMARK SMILES IDX 100 16 101 17 102 18 103 20 104 21 108 22 105 23 107 24
REMARK SMILES IDX 106 25 90 26 91 27 95 28 92 29 94 30 93 31 96 32 97 33 98 34
REMARK SMILES IDX 80 35 81 36 82 37 83 39 84 40 88 41 85 42 87 43 86 44 11 45
REMARK SMILES IDX 12 46 13 47 14 48 15 50 16 51 17 52 78 53 18 54 77 55 19 56
REMARK SMILES IDX 20 57 21 58 71 59 22 60 76 61 70 62 72 63 23 64 75 65 69 66
REMARK SMILES IDX 68 67 24 69 56 70 36 71 55 72 37 73 40 74 54 75 73 76 38 77
REMARK SMILES IDX 39 78 53 80 74 81 41 82 25 83 26 84 34 85 27 86 33 87 35 88
REMARK SMILES IDX 32 89 28 90 29 91 30 92 31 93 57 94 58 95 66 96 59 97 65 98
REMARK SMILES IDX 67 99 64 100 60 101 61 102 62 103 63 104 42 105 43 106
REMARK SMILES IDX 51 107 44 108 50 109 52 110 49 111 45 112 46 113 47 114
REMARK SMILES IDX 48 115
REMARK H PARENT 6 6 3 15 102 19 82 38 13 49 72 68 40 79
REMARK Flexibility Score: inf
ROOT
ATOM      1  C   UNL A   1      45.222  28.194  36.345  1.00  0.00     0.002 C 
ENDROOT
BRANCH   1   2
ATOM      2  C   UNL A   1      44.666  29.098  35.237  1.00  0.00     0.002 C 
BRANCH   2   3
ATOM      3  C   UNL A   1      43.184  29.440  35.359  1.00  0.00     0.021 C 
BRANCH   3   4
ATOM      4  C   UNL A   1      42.650  30.286  34.212  1.00  0.00     0.112 C 
BRANCH   4   5
ATOM      5  N   UNL A   1      42.245  29.472  33.056  1.00  0.00    -0.388 N 
ATOM      6  H   UNL A   1      42.885  28.802  32.724  1.00  0.00     0.160 HD
BRANCH   5   7
ATOM      7  C   UNL A   1      41.014  29.578  32.387  1.00  0.00     0.023 C 
ATOM      8  C   UNL A   1      38.551  27.313  31.932  1.00  0.00     0.043 C 
ATOM      9  C   UNL A   1      38.572  28.718  32.560  1.00  0.00     0.080 C 
ATOM     10  C   UNL A   1      39.902  28.979  33.215  1.00  0.00     0.089 C 
ATOM     11  C   UNL A   1      38.193  29.828  31.553  1.00  0.00     0.123 C 
ATOM     12  C   UNL A   1      39.328  30.539  30.705  1.00  0.00     0.073 C 
ATOM     13  C   UNL A   1      40.782  30.182  31.175  1.00  0.00     0.045 C 
BRANCH   9  14
ATOM     14  O   UNL A   1      37.601  28.596  33.626  1.00  0.00    -0.389 OA
ATOM     15  H   UNL A   1      37.193  27.717  33.592  1.00  0.00     0.211 HD
ENDBRANCH   9  14
BRANCH  11  16
ATOM     16  C   UNL A   1      37.033  30.630  32.114  1.00  0.00     0.231 C 
ATOM     17  O   UNL A   1      35.900  30.397  31.656  1.00  0.00    -0.274 OA
ATOM     18  N   UNL A   1      37.060  31.472  33.171  1.00  0.00    -0.326 N 
ATOM     19  H   UNL A   1      36.174  31.865  33.344  1.00  0.00     0.169 HD
BRANCH  18  20
ATOM     20  C   UNL A   1      38.017  31.933  34.083  1.00  0.00     0.041 A 
ATOM     21  C   UNL A   1      37.775  31.636  35.425  1.00  0.00     0.026 A 
ATOM     22  C   UNL A   1      39.172  32.634  33.779  1.00  0.00     0.026 A 
ATOM     23  C   UNL A   1      38.713  31.957  36.411  1.00  0.00     0.002 A 
ATOM     24  C   UNL A   1      40.108  32.982  34.755  1.00  0.00     0.002 A 
ATOM     25  C   UNL A   1      39.887  32.622  36.074  1.00  0.00     0.000 A 
ENDBRANCH  18  20
ENDBRANCH  11  16
BRANCH  12  26
ATOM     26  C   UNL A   1      39.061  32.071  30.325  1.00  0.00    -0.030 A 
ATOM     27  C   UNL A   1      39.928  33.082  30.826  1.00  0.00     0.005 A 
ATOM     28  C   UNL A   1      38.091  32.550  29.391  1.00  0.00     0.001 A 
ATOM     29  C   UNL A   1      39.883  34.424  30.412  1.00  0.00     0.000 A 
ATOM     30  C   UNL A   1      38.023  33.917  29.025  1.00  0.00     0.010 A 
ATOM     31  C   UNL A   1      38.928  34.846  29.510  1.00  0.00     0.001 A 
BRANCH  28  32
ATOM     32  C   UNL A   1      37.053  31.778  28.688  1.00  0.00     0.072 C 
ATOM     33  O   UNL A   1      35.860  32.072  28.671  1.00  0.00    -0.545 OA
ATOM     34  O   UNL A   1      37.532  30.721  28.029  1.00  0.00    -0.545 OA
ENDBRANCH  28  32
ENDBRANCH  12  26
BRANCH  13  35
ATOM     35  C   UNL A   1      42.051  30.592  30.430  1.00  0.00     0.253 C 
ATOM     36  O   UNL A   1      42.722  31.531  30.899  1.00  0.00    -0.269 OA
ATOM     37  N   UNL A   1      42.647  30.028  29.344  1.00  0.00    -0.322 N 
ATOM     38  H   UNL A   1      43.616  30.193  29.384  1.00  0.00     0.170 HD
BRANCH  37  39
ATOM     39  C   UNL A   1      42.349  29.290  28.186  1.00  0.00     0.041 A 
ATOM     40  C   UNL A   1      43.430  28.813  27.429  1.00  0.00     0.026 A 
ATOM     41  C   UNL A   1      41.092  29.127  27.637  1.00  0.00     0.026 A 
ATOM     42  C   UNL A   1      43.231  28.166  26.198  1.00  0.00     0.002 A 
ATOM     43  C   UNL A   1      40.873  28.488  26.415  1.00  0.00     0.002 A 
ATOM     44  C   UNL A   1      41.947  27.998  25.693  1.00  0.00     0.000 A 
ENDBRANCH  37  39
ENDBRANCH  13  35
ENDBRANCH   5   7
ENDBRANCH   4   5
ENDBRANCH   3   4
ENDBRANCH   2   3
ENDBRANCH   1   2
BRANCH   1  45
ATOM     45  C   UNL A   1      44.201  27.686  37.371  1.00  0.00     0.021 C 
BRANCH  45  46
ATOM     46  C   UNL A   1      44.426  26.254  37.854  1.00  0.00     0.116 C 
BRANCH  46  47
ATOM     47  N   UNL A   1      43.231  25.437  37.717  1.00  0.00    -0.352 N 
ATOM     48  C   UNL A   1      42.619  24.960  36.587  1.00  0.00     0.251 C 
ATOM     49  H   UNL A   1      42.796  25.189  38.565  1.00  0.00     0.163 HD
ATOM     50  O   UNL A   1      41.500  24.459  36.663  1.00  0.00    -0.269 OA
BRANCH  48  51
ATOM     51  C   UNL A   1      43.299  25.074  35.280  1.00  0.00     0.039 A 
ATOM     52  C   UNL A   1      42.866  26.047  34.376  1.00  0.00     0.014 A 
ATOM     53  C   UNL A   1      44.361  24.227  34.951  1.00  0.00     0.014 A 
ATOM     54  C   UNL A   1      43.548  26.220  33.171  1.00  0.00     0.010 A 
ATOM     55  C   UNL A   1      45.079  24.442  33.778  1.00  0.00     0.010 A 
ATOM     56  C   UNL A   1      44.687  25.449  32.882  1.00  0.00    -0.014 A 
BRANCH  56  57
ATOM     57  C   UNL A   1      45.504  25.709  31.669  1.00  0.00     0.031 A 
ATOM     58  C   UNL A   1      45.232  24.959  30.396  1.00  0.00     0.074 A 
ATOM     59  C   UNL A   1      46.536  26.572  31.744  1.00  0.00     0.049 A 
ATOM     60  N   UNL A   1      45.890  24.985  29.265  1.00  0.00    -0.248 NA
ATOM     61  C   UNL A   1      44.084  24.041  30.404  1.00  0.00     0.031 C 
ATOM     62  C   UNL A   1      46.914  27.332  32.939  1.00  0.00     0.029 A 
ATOM     63  N   UNL A   1      47.465  26.948  30.807  1.00  0.00    -0.354 N 
ATOM     64  C   UNL A   1      45.242  24.083  28.428  1.00  0.00     0.074 A 
ATOM     65  C   UNL A   1      44.174  23.487  29.204  1.00  0.00     0.031 C 
ATOM     66  C   UNL A   1      47.981  28.096  32.655  1.00  0.00     0.029 A 
ATOM     67  C   UNL A   1      48.398  27.841  31.280  1.00  0.00     0.049 A 
ATOM     68  H   UNL A   1      47.464  26.609  29.883  1.00  0.00     0.167 HD
ATOM     69  C   UNL A   1      45.504  23.795  27.129  1.00  0.00     0.034 A 
ATOM     70  C   UNL A   1      49.481  28.378  30.684  1.00  0.00     0.034 A 
ATOM     71  C   UNL A   1      46.576  24.400  26.374  1.00  0.00     0.049 A 
ATOM     72  C   UNL A   1      49.782  28.002  29.255  1.00  0.00     0.074 A 
ATOM     73  C   UNL A   1      46.896  24.225  25.040  1.00  0.00     0.029 A 
ATOM     74  N   UNL A   1      47.514  25.286  26.892  1.00  0.00    -0.354 N 
ATOM     75  N   UNL A   1      49.126  27.188  28.459  1.00  0.00    -0.248 NA
ATOM     76  C   UNL A   1      50.965  28.620  28.644  1.00  0.00     0.031 C 
ATOM     77  C   UNL A   1      48.068  24.940  24.770  1.00  0.00     0.029 A 
ATOM     78  C   UNL A   1      48.437  25.630  25.914  1.00  0.00     0.049 A 
ATOM     79  H   UNL A   1      47.523  25.621  27.817  1.00  0.00     0.167 HD
ATOM     80  C   UNL A   1      49.806  27.216  27.245  1.00  0.00     0.074 A 
ATOM     81  C   UNL A   1      50.907  28.144  27.409  1.00  0.00     0.031 C 
ATOM     82  C   UNL A   1      49.544  26.538  26.098  1.00  0.00     0.034 A 
BRANCH  69  83
ATOM     83  C   UNL A   1      44.636  22.759  26.456  1.00  0.00     0.023 A 
ATOM     84  C   UNL A   1      45.149  21.516  26.044  1.00  0.00     0.031 A 
ATOM     85  C   UNL A   1      43.276  23.022  26.207  1.00  0.00     0.131 A 
ATOM     86  C   UNL A   1      44.332  20.616  25.343  1.00  0.00     0.055 A 
ATOM     87  C   UNL A   1      42.447  22.089  25.581  1.00  0.00     0.041 A 
ATOM     88  F   UNL A   1      42.733  24.199  26.555  1.00  0.00    -0.206 F 
ATOM     89  C   UNL A   1      42.977  20.882  25.133  1.00  0.00     0.022 A 
BRANCH  86  90
ATOM     90  S   UNL A   1      45.099  19.156  24.589  1.00  0.00     0.124 S 
ATOM     91  O   UNL A   1      46.514  19.519  24.620  1.00  0.00    -0.237 OA
ATOM     92  O   UNL A   1      44.693  18.085  25.492  1.00  0.00    -0.237 OA
ATOM     93  O   UNL A   1      44.504  19.107  23.255  1.00  0.00    -0.744 OA
ENDBRANCH  86  90
ENDBRANCH  69  83
BRANCH  70  94
ATOM     94  C   UNL A   1      50.377  29.305  31.434  1.00  0.00     0.023 A 
ATOM     95  C   UNL A   1      51.450  28.815  32.194  1.00  0.00     0.031 A 
ATOM     96  C   UNL A   1      50.146  30.692  31.437  1.00  0.00     0.131 A 
ATOM     97  C   UNL A   1      52.224  29.699  32.962  1.00  0.00     0.055 A 
ATOM     98  C   UNL A   1      50.955  31.573  32.157  1.00  0.00     0.041 A 
ATOM     99  F   UNL A   1      49.135  31.215  30.724  1.00  0.00    -0.206 F 
ATOM    100  C   UNL A   1      51.993  31.076  32.937  1.00  0.00     0.022 A 
BRANCH  97 101
ATOM    101  S   UNL A   1      53.485  29.010  34.069  1.00  0.00     0.124 S 
ATOM    102  O   UNL A   1      52.668  28.454  35.140  1.00  0.00    -0.237 OA
ATOM    103  O   UNL A   1      54.152  28.043  33.203  1.00  0.00    -0.237 OA
ATOM    104  O   UNL A   1      54.289  30.175  34.434  1.00  0.00    -0.744 OA
ENDBRANCH  97 101
ENDBRANCH  70  94
BRANCH  82 105
ATOM    105  C   UNL A   1      50.458  26.803  24.925  1.00  0.00     0.023 A 
ATOM    106  C   UNL A   1      50.079  27.657  23.874  1.00  0.00     0.031 A 
ATOM    107  C   UNL A   1      51.716  26.181  24.850  1.00  0.00     0.131 A 
ATOM    108  C   UNL A   1      50.924  27.817  22.765  1.00  0.00     0.055 A 
ATOM    109  C   UNL A   1      52.581  26.397  23.777  1.00  0.00     0.041 A 
ATOM    110  F   UNL A   1      52.129  25.353  25.824  1.00  0.00    -0.206 F 
ATOM    111  C   UNL A   1      52.181  27.209  22.719  1.00  0.00     0.022 A 
BRANCH 108 112
ATOM    112  S   UNL A   1      50.317  28.758  21.337  1.00  0.00     0.124 S 
ATOM    113  O   UNL A   1      48.871  28.646  21.495  1.00  0.00    -0.237 OA
ATOM    114  O   UNL A   1      50.884  30.082  21.571  1.00  0.00    -0.237 OA
ATOM    115  O   UNL A   1      50.873  28.039  20.192  1.00  0.00    -0.744 OA
ENDBRANCH 108 112
ENDBRANCH  82 105
ENDBRANCH  56  57
ENDBRANCH  48  51
ENDBRANCH  46  47
ENDBRANCH  45  46
ENDBRANCH   1  45
TORSDOF 23
ENDMDL
MODEL 2
REMARK VINA RESULT:      -9.3      4.417      9.200
REMARK SMILES C[C@@]1(O)CC(NCCCCCCNC(=O)c2ccc(-c3c4nc(c(-c5cc(S(=O)(=O)[O-])ccc5F)c5ccc([nH]5)c(-c5cc(S(=O)(=O)[O-])ccc5F)c5nc(c(-c6cc(S(=O)(=O)[O-])ccc6F)c6ccc3[nH]6)C=C5)C=C4)cc2)=C(C(=O)Nc2ccccc2)[C@H](c2ccccc2C(=O)[O-])[C@@H]1C(=O)Nc1ccccc1
REMARK SMILES IDX 10 1 9 2 8 3 7 4 6 5 5 7 1 8 2 9 4 10 99 11 89 12 79 13 3 14
REMARK SMILES IDX 100 16 101 17 102 18 103 20 104 21 108 22 105 23 107 24
REMARK SMILES IDX 106 25 90 26 91 27 95 28 92 29 94 30 93 31 96 32 97 33 98 34
REMARK SMILES IDX 80 35 81 36 82 37 83 39 84 40 88 41 85 42 87 43 86 44 11 45
REMARK SMILES IDX 12 46 13 47 14 48 15 50 16 51 17 52 78 53 18 54 77 55 19 56
REMARK SMILES IDX 20 57 21 58 71 59 22 60 76 61 70 62 72 63 23 64 75 65 69 66
REMARK SMILES IDX 68 67 24 69 56 70 36 71 55 72 37 73 40 74 54 75 73 76 38 77
REMARK SMILES IDX 39 78 53 80 74 81 41 82 25 83 26 84 34 85 27 86 33 87 35 88
REMARK SMILES IDX 32 89 28 90 29 91 30 92 31 93 57 94 58 95 66 96 59 97 65 98
REMARK SMILES IDX 67 99 64 100 60 101 61 102 62 103 63 104 42 105 43 106
REMARK SMILES IDX 51 107 44 108 50 109 52 110 49 111 45 112 46 113 47 114
REMARK SMILES IDX 48 115
REMARK H PARENT 6 6 3 15 102 19 82 38 13 49 72 68 40 79
REMARK Flexibility Score: inf
ROOT
ATOM      1  C   UNL A   1      39.343  25.465  27.581  1.00  0.00     0.002 C 
ENDROOT
BRANCH   1   2
ATOM      2  C   UNL A   1      40.359  26.599  27.392  1.00  0.00     0.002 C 
BRANCH   2   3
ATOM      3  C   UNL A   1      40.820  27.280  28.678  1.00  0.00     0.021 C 
BRANCH   3   4
ATOM      4  C   UNL A   1      39.741  28.113  29.355  1.00  0.00     0.112 C 
BRANCH   4   5
ATOM      5  N   UNL A   1      39.555  27.752  30.768  1.00  0.00    -0.388 N 
ATOM      6  H   UNL A   1      39.018  26.951  30.966  1.00  0.00     0.160 HD
BRANCH   5   7
ATOM      7  C   UNL A   1      40.085  28.462  31.858  1.00  0.00     0.023 C 
ATOM      8  C   UNL A   1      42.357  27.555  34.186  1.00  0.00     0.043 C 
ATOM      9  C   UNL A   1      42.303  28.719  33.181  1.00  0.00     0.080 C 
ATOM     10  C   UNL A   1      41.585  28.296  31.928  1.00  0.00     0.089 C 
ATOM     11  C   UNL A   1      41.699  30.006  33.789  1.00  0.00     0.123 C 
ATOM     12  C   UNL A   1      40.139  30.265  33.686  1.00  0.00     0.073 C 
ATOM     13  C   UNL A   1      39.395  29.261  32.737  1.00  0.00     0.045 C 
BRANCH   9  14
ATOM     14  O   UNL A   1      43.695  28.887  32.825  1.00  0.00    -0.389 OA
ATOM     15  H   UNL A   1      44.000  28.108  32.335  1.00  0.00     0.211 HD
ENDBRANCH   9  14
BRANCH  11  16
ATOM     16  C   UNL A   1      42.684  31.147  33.609  1.00  0.00     0.231 C 
ATOM     17  O   UNL A   1      43.145  31.332  32.469  1.00  0.00    -0.274 OA
ATOM     18  N   UNL A   1      43.012  32.092  34.518  1.00  0.00    -0.326 N 
ATOM     19  H   UNL A   1      43.668  32.731  34.157  1.00  0.00     0.169 HD
BRANCH  18  20
ATOM     20  C   UNL A   1      42.663  32.401  35.838  1.00  0.00     0.041 A 
ATOM     21  C   UNL A   1      43.010  31.451  36.801  1.00  0.00     0.026 A 
ATOM     22  C   UNL A   1      42.027  33.551  36.274  1.00  0.00     0.026 A 
ATOM     23  C   UNL A   1      42.804  31.699  38.161  1.00  0.00     0.002 A 
ATOM     24  C   UNL A   1      41.792  33.804  37.626  1.00  0.00     0.002 A 
ATOM     25  C   UNL A   1      42.203  32.883  38.576  1.00  0.00     0.000 A 
ENDBRANCH  18  20
ENDBRANCH  11  16
BRANCH  12  26
ATOM     26  C   UNL A   1      39.690  31.799  33.588  1.00  0.00    -0.030 A 
ATOM     27  C   UNL A   1      39.933  32.528  32.389  1.00  0.00     0.005 A 
ATOM     28  C   UNL A   1      38.920  32.515  34.556  1.00  0.00     0.001 A 
ATOM     29  C   UNL A   1      39.424  33.814  32.143  1.00  0.00     0.000 A 
ATOM     30  C   UNL A   1      38.461  33.833  34.313  1.00  0.00     0.010 A 
ATOM     31  C   UNL A   1      38.687  34.472  33.106  1.00  0.00     0.001 A 
BRANCH  28  32
ATOM     32  C   UNL A   1      38.492  32.059  35.889  1.00  0.00     0.072 C 
ATOM     33  O   UNL A   1      39.217  31.473  36.688  1.00  0.00    -0.545 OA
ATOM     34  O   UNL A   1      37.227  32.371  36.176  1.00  0.00    -0.545 OA
ENDBRANCH  28  32
ENDBRANCH  12  26
BRANCH  13  35
ATOM     35  C   UNL A   1      37.877  29.180  32.592  1.00  0.00     0.253 C 
ATOM     36  O   UNL A   1      37.293  28.214  33.119  1.00  0.00    -0.269 OA
ATOM     37  N   UNL A   1      37.004  30.064  32.034  1.00  0.00    -0.322 N 
ATOM     38  H   UNL A   1      36.130  29.981  32.480  1.00  0.00     0.170 HD
BRANCH  37  39
ATOM     39  C   UNL A   1      36.926  31.053  31.040  1.00  0.00     0.041 A 
ATOM     40  C   UNL A   1      36.309  32.266  31.384  1.00  0.00     0.026 A 
ATOM     41  C   UNL A   1      37.259  30.886  29.710  1.00  0.00     0.026 A 
ATOM     42  C   UNL A   1      36.084  33.268  30.426  1.00  0.00     0.002 A 
ATOM     43  C   UNL A   1      37.042  31.869  28.743  1.00  0.00     0.002 A 
ATOM     44  C   UNL A   1      36.458  33.070  29.102  1.00  0.00     0.000 A 
ENDBRANCH  37  39
ENDBRANCH  13  35
ENDBRANCH   5   7
ENDBRANCH   4   5
ENDBRANCH   3   4
ENDBRANCH   2   3
ENDBRANCH   1   2
BRANCH   1  45
ATOM     45  C   UNL A   1      39.283  24.424  26.457  1.00  0.00     0.021 C 
BRANCH  45  46
ATOM     46  C   UNL A   1      39.743  23.020  26.848  1.00  0.00     0.116 C 
BRANCH  46  47
ATOM     47  N   UNL A   1      40.752  22.502  25.939  1.00  0.00    -0.352 N 
ATOM     48  C   UNL A   1      42.090  22.790  25.857  1.00  0.00     0.251 C 
ATOM     49  H   UNL A   1      40.425  21.844  25.284  1.00  0.00     0.163 HD
ATOM     50  O   UNL A   1      42.739  22.404  24.888  1.00  0.00    -0.269 OA
BRANCH  48  51
ATOM     51  C   UNL A   1      42.737  23.582  26.923  1.00  0.00     0.039 A 
ATOM     52  C   UNL A   1      43.750  24.481  26.576  1.00  0.00     0.014 A 
ATOM     53  C   UNL A   1      42.343  23.442  28.257  1.00  0.00     0.014 A 
ATOM     54  C   UNL A   1      44.315  25.294  27.559  1.00  0.00     0.010 A 
ATOM     55  C   UNL A   1      42.864  24.297  29.224  1.00  0.00     0.010 A 
ATOM     56  C   UNL A   1      43.846  25.240  28.883  1.00  0.00    -0.014 A 
BRANCH  56  57
ATOM     57  C   UNL A   1      44.341  26.188  29.913  1.00  0.00     0.031 A 
ATOM     58  C   UNL A   1      44.571  27.633  29.567  1.00  0.00     0.074 A 
ATOM     59  C   UNL A   1      44.647  25.725  31.140  1.00  0.00     0.049 A 
ATOM     60  N   UNL A   1      45.079  28.587  30.303  1.00  0.00    -0.248 NA
ATOM     61  C   UNL A   1      44.205  28.050  28.206  1.00  0.00     0.031 C 
ATOM     62  C   UNL A   1      44.495  24.335  31.578  1.00  0.00     0.029 A 
ATOM     63  N   UNL A   1      45.162  26.363  32.240  1.00  0.00    -0.354 N 
ATOM     64  C   UNL A   1      45.101  29.719  29.494  1.00  0.00     0.074 A 
ATOM     65  C   UNL A   1      44.607  29.313  28.195  1.00  0.00     0.031 C 
ATOM     66  C   UNL A   1      44.889  24.231  32.858  1.00  0.00     0.029 A 
ATOM     67  C   UNL A   1      45.373  25.530  33.315  1.00  0.00     0.049 A 
ATOM     68  H   UNL A   1      45.363  27.327  32.259  1.00  0.00     0.167 HD
ATOM     69  C   UNL A   1      45.481  30.981  29.815  1.00  0.00     0.034 A 
ATOM     70  C   UNL A   1      45.914  25.777  34.524  1.00  0.00     0.034 A 
ATOM     71  C   UNL A   1      45.973  31.364  31.117  1.00  0.00     0.049 A 
ATOM     72  C   UNL A   1      46.378  27.177  34.838  1.00  0.00     0.074 A 
ATOM     73  C   UNL A   1      46.331  32.622  31.567  1.00  0.00     0.029 A 
ATOM     74  N   UNL A   1      46.192  30.490  32.175  1.00  0.00    -0.354 N 
ATOM     75  N   UNL A   1      46.341  28.249  34.080  1.00  0.00    -0.248 NA
ATOM     76  C   UNL A   1      46.951  27.399  36.171  1.00  0.00     0.031 C 
ATOM     77  C   UNL A   1      46.838  32.498  32.865  1.00  0.00     0.029 A 
ATOM     78  C   UNL A   1      46.721  31.175  33.259  1.00  0.00     0.049 A 
ATOM     79  H   UNL A   1      46.000  29.525  32.158  1.00  0.00     0.167 HD
ATOM     80  C   UNL A   1      46.865  29.279  34.855  1.00  0.00     0.074 A 
ATOM     81  C   UNL A   1      47.188  28.703  36.145  1.00  0.00     0.031 C 
ATOM     82  C   UNL A   1      47.061  30.583  34.532  1.00  0.00     0.034 A 
BRANCH  69  83
ATOM     83  C   UNL A   1      45.408  32.028  28.728  1.00  0.00     0.023 A 
ATOM     84  C   UNL A   1      46.536  32.389  27.969  1.00  0.00     0.031 A 
ATOM     85  C   UNL A   1      44.196  32.688  28.456  1.00  0.00     0.131 A 
ATOM     86  C   UNL A   1      46.447  33.427  27.030  1.00  0.00     0.055 A 
ATOM     87  C   UNL A   1      44.096  33.665  27.463  1.00  0.00     0.041 A 
ATOM     88  F   UNL A   1      43.090  32.404  29.161  1.00  0.00    -0.206 F 
ATOM     89  C   UNL A   1      45.229  34.049  26.752  1.00  0.00     0.022 A 
BRANCH  86  90
ATOM     90  S   UNL A   1      47.977  34.047  26.279  1.00  0.00     0.124 S 
ATOM     91  O   UNL A   1      47.477  34.636  25.038  1.00  0.00    -0.237 OA
ATOM     92  O   UNL A   1      48.463  34.988  27.282  1.00  0.00    -0.237 OA
ATOM     93  O   UNL A   1      48.787  32.844  26.107  1.00  0.00    -0.744 OA
ENDBRANCH  86  90
ENDBRANCH  69  83
BRANCH  70  94
ATOM     94  C   UNL A   1      46.075  24.678  35.520  1.00  0.00     0.023 A 
ATOM     95  C   UNL A   1      47.163  23.793  35.450  1.00  0.00     0.031 A 
ATOM     96  C   UNL A   1      45.120  24.470  36.531  1.00  0.00     0.131 A 
ATOM     97  C   UNL A   1      47.244  22.714  36.344  1.00  0.00     0.055 A 
ATOM     98  C   UNL A   1      45.236  23.428  37.453  1.00  0.00     0.041 A 
ATOM     99  F   UNL A   1      44.062  25.288  36.645  1.00  0.00    -0.206 F 
ATOM    100  C   UNL A   1      46.297  22.535  37.354  1.00  0.00     0.022 A 
BRANCH  97 101
ATOM    101  S   UNL A   1      48.564  21.492  36.110  1.00  0.00     0.124 S 
ATOM    102  O   UNL A   1      48.542  20.783  37.384  1.00  0.00    -0.237 OA
ATOM    103  O   UNL A   1      48.081  20.745  34.952  1.00  0.00    -0.237 OA
ATOM    104  O   UNL A   1      49.748  22.313  35.870  1.00  0.00    -0.744 OA
ENDBRANCH  97 101
ENDBRANCH  70  94
BRANCH  82 105
ATOM    105  C   UNL A   1      47.630  31.475  35.610  1.00  0.00     0.023 A 
ATOM    106  C   UNL A   1      46.805  32.088  36.571  1.00  0.00     0.031 A 
ATOM    107  C   UNL A   1      49.011  31.730  35.666  1.00  0.00     0.131 A 
ATOM    108  C   UNL A   1      47.362  32.970  37.508  1.00  0.00     0.055 A 
ATOM    109  C   UNL A   1      49.567  32.556  36.643  1.00  0.00     0.041 A 
ATOM    110  F   UNL A   1      49.845  31.175  34.772  1.00  0.00    -0.206 F 
ATOM    111  C   UNL A   1      48.740  33.193  37.563  1.00  0.00     0.022 A 
BRANCH 108 112
ATOM    112  S   UNL A   1      46.248  33.900  38.598  1.00  0.00     0.124 S 
ATOM    113  O   UNL A   1      47.129  34.944  39.111  1.00  0.00    -0.237 OA
ATOM    114  O   UNL A   1      45.206  34.342  37.676  1.00  0.00    -0.237 OA
ATOM    115  O   UNL A   1      45.822  32.907  39.582  1.00  0.00    -0.744 OA
ENDBRANCH 108 112
ENDBRANCH  82 105
ENDBRANCH  56  57
ENDBRANCH  48  51
ENDBRANCH  46  47
ENDBRANCH  45  46
ENDBRANCH   1  45
TORSDOF 23
ENDMDL
MODEL 3
REMARK VINA RESULT:      -9.1      5.218     11.460
REMARK SMILES C[C@@]1(O)CC(NCCCCCCNC(=O)c2ccc(-c3c4nc(c(-c5cc(S(=O)(=O)[O-])ccc5F)c5ccc([nH]5)c(-c5cc(S(=O)(=O)[O-])ccc5F)c5nc(c(-c6cc(S(=O)(=O)[O-])ccc6F)c6ccc3[nH]6)C=C5)C=C4)cc2)=C(C(=O)Nc2ccccc2)[C@H](c2ccccc2C(=O)[O-])[C@@H]1C(=O)Nc1ccccc1
REMARK SMILES IDX 10 1 9 2 8 3 7 4 6 5 5 7 1 8 2 9 4 10 99 11 89 12 79 13 3 14
REMARK SMILES IDX 100 16 101 17 102 18 103 20 104 21 108 22 105 23 107 24
REMARK SMILES IDX 106 25 90 26 91 27 95 28 92 29 94 30 93 31 96 32 97 33 98 34
REMARK SMILES IDX 80 35 81 36 82 37 83 39 84 40 88 41 85 42 87 43 86 44 11 45
REMARK SMILES IDX 12 46 13 47 14 48 15 50 16 51 17 52 78 53 18 54 77 55 19 56
REMARK SMILES IDX 20 57 21 58 71 59 22 60 76 61 70 62 72 63 23 64 75 65 69 66
REMARK SMILES IDX 68 67 24 69 56 70 36 71 55 72 37 73 40 74 54 75 73 76 38 77
REMARK SMILES IDX 39 78 53 80 74 81 41 82 25 83 26 84 34 85 27 86 33 87 35 88
REMARK SMILES IDX 32 89 28 90 29 91 30 92 31 93 57 94 58 95 66 96 59 97 65 98
REMARK SMILES IDX 67 99 64 100 60 101 61 102 62 103 63 104 42 105 43 106
REMARK SMILES IDX 51 107 44 108 50 109 52 110 49 111 45 112 46 113 47 114
REMARK SMILES IDX 48 115
REMARK H PARENT 6 6 3 15 102 19 82 38 13 49 72 68 40 79
REMARK Flexibility Score: inf
ROOT
ATOM      1  C   UNL A   1      45.485  27.605  28.990  1.00  0.00     0.002 C 
ENDROOT
BRANCH   1   2
ATOM      2  C   UNL A   1      43.971  27.548  28.748  1.00  0.00     0.002 C 
BRANCH   2   3
ATOM      3  C   UNL A   1      43.323  28.875  28.365  1.00  0.00     0.021 C 
BRANCH   3   4
ATOM      4  C   UNL A   1      41.824  28.782  28.121  1.00  0.00     0.112 C 
BRANCH   4   5
ATOM      5  N   UNL A   1      41.058  28.646  29.368  1.00  0.00    -0.388 N 
ATOM      6  H   UNL A   1      41.247  27.863  29.934  1.00  0.00     0.160 HD
BRANCH   5   7
ATOM      7  C   UNL A   1      40.077  29.546  29.815  1.00  0.00     0.023 C 
ATOM      8  C   UNL A   1      37.486  30.970  28.183  1.00  0.00     0.043 C 
ATOM      9  C   UNL A   1      37.568  30.101  29.450  1.00  0.00     0.080 C 
ATOM     10  C   UNL A   1      38.707  29.122  29.341  1.00  0.00     0.089 C 
ATOM     11  C   UNL A   1      37.646  30.939  30.746  1.00  0.00     0.123 C 
ATOM     12  C   UNL A   1      39.061  31.355  31.328  1.00  0.00     0.073 C 
ATOM     13  C   UNL A   1      40.266  30.642  30.621  1.00  0.00     0.045 C 
BRANCH   9  14
ATOM     14  O   UNL A   1      36.348  29.327  29.375  1.00  0.00    -0.389 OA
ATOM     15  H   UNL A   1      36.566  28.388  29.274  1.00  0.00     0.211 HD
ENDBRANCH   9  14
BRANCH  11  16
ATOM     16  C   UNL A   1      36.524  30.516  31.677  1.00  0.00     0.231 C 
ATOM     17  O   UNL A   1      36.663  29.442  32.291  1.00  0.00    -0.274 OA
ATOM     18  N   UNL A   1      35.445  31.244  32.038  1.00  0.00    -0.326 N 
ATOM     19  H   UNL A   1      34.866  30.751  32.663  1.00  0.00     0.169 HD
BRANCH  18  20
ATOM     20  C   UNL A   1      34.935  32.518  31.757  1.00  0.00     0.041 A 
ATOM     21  C   UNL A   1      34.514  33.265  32.859  1.00  0.00     0.026 A 
ATOM     22  C   UNL A   1      34.824  33.102  30.506  1.00  0.00     0.026 A 
ATOM     23  C   UNL A   1      34.084  34.586  32.707  1.00  0.00     0.002 A 
ATOM     24  C   UNL A   1      34.375  34.412  30.336  1.00  0.00     0.002 A 
ATOM     25  C   UNL A   1      34.024  35.166  31.444  1.00  0.00     0.000 A 
ENDBRANCH  18  20
ENDBRANCH  11  16
BRANCH  12  26
ATOM     26  C   UNL A   1      39.150  31.489  32.921  1.00  0.00    -0.030 A 
ATOM     27  C   UNL A   1      39.614  30.388  33.695  1.00  0.00     0.005 A 
ATOM     28  C   UNL A   1      38.938  32.682  33.679  1.00  0.00     0.001 A 
ATOM     29  C   UNL A   1      39.892  30.465  35.070  1.00  0.00     0.000 A 
ATOM     30  C   UNL A   1      39.171  32.727  35.075  1.00  0.00     0.010 A 
ATOM     31  C   UNL A   1      39.670  31.636  35.765  1.00  0.00     0.001 A 
BRANCH  28  32
ATOM     32  C   UNL A   1      38.467  33.991  33.194  1.00  0.00     0.072 C 
ATOM     33  O   UNL A   1      37.549  34.630  33.700  1.00  0.00    -0.545 OA
ATOM     34  O   UNL A   1      39.160  34.451  32.150  1.00  0.00    -0.545 OA
ENDBRANCH  28  32
ENDBRANCH  12  26
BRANCH  13  35
ATOM     35  C   UNL A   1      41.734  30.986  30.869  1.00  0.00     0.253 C 
ATOM     36  O   UNL A   1      42.347  30.331  31.733  1.00  0.00    -0.269 OA
ATOM     37  N   UNL A   1      42.547  31.865  30.220  1.00  0.00    -0.322 N 
ATOM     38  H   UNL A   1      43.476  31.547  30.274  1.00  0.00     0.170 HD
BRANCH  37  39
ATOM     39  C   UNL A   1      42.509  33.071  29.501  1.00  0.00     0.041 A 
ATOM     40  C   UNL A   1      43.289  33.153  28.337  1.00  0.00     0.026 A 
ATOM     41  C   UNL A   1      41.900  34.239  29.918  1.00  0.00     0.026 A 
ATOM     42  C   UNL A   1      43.404  34.353  27.618  1.00  0.00     0.002 A 
ATOM     43  C   UNL A   1      42.003  35.442  29.218  1.00  0.00     0.002 A 
ATOM     44  C   UNL A   1      42.753  35.500  28.057  1.00  0.00     0.000 A 
ENDBRANCH  37  39
ENDBRANCH  13  35
ENDBRANCH   5   7
ENDBRANCH   4   5
ENDBRANCH   3   4
ENDBRANCH   2   3
ENDBRANCH   1   2
BRANCH   1  45
ATOM     45  C   UNL A   1      46.365  27.019  27.879  1.00  0.00     0.021 C 
BRANCH  45  46
ATOM     46  C   UNL A   1      46.505  27.893  26.634  1.00  0.00     0.116 C 
BRANCH  46  47
ATOM     47  N   UNL A   1      47.882  28.294  26.399  1.00  0.00    -0.352 N 
ATOM     48  C   UNL A   1      48.568  29.390  26.857  1.00  0.00     0.251 C 
ATOM     49  H   UNL A   1      48.401  27.687  25.823  1.00  0.00     0.163 HD
ATOM     50  O   UNL A   1      49.667  29.665  26.383  1.00  0.00    -0.269 OA
BRANCH  48  51
ATOM     51  C   UNL A   1      47.970  30.245  27.903  1.00  0.00     0.039 A 
ATOM     52  C   UNL A   1      46.669  30.722  27.723  1.00  0.00     0.014 A 
ATOM     53  C   UNL A   1      48.689  30.572  29.056  1.00  0.00     0.014 A 
ATOM     54  C   UNL A   1      46.062  31.464  28.737  1.00  0.00     0.010 A 
ATOM     55  C   UNL A   1      48.061  31.259  30.091  1.00  0.00     0.010 A 
ATOM     56  C   UNL A   1      46.736  31.701  29.946  1.00  0.00    -0.014 A 
BRANCH  56  57
ATOM     57  C   UNL A   1      46.059  32.372  31.086  1.00  0.00     0.031 A 
ATOM     58  C   UNL A   1      45.599  31.573  32.272  1.00  0.00     0.074 A 
ATOM     59  C   UNL A   1      45.801  33.692  31.011  1.00  0.00     0.049 A 
ATOM     60  N   UNL A   1      44.916  31.965  33.317  1.00  0.00    -0.248 NA
ATOM     61  C   UNL A   1      45.928  30.140  32.269  1.00  0.00     0.031 C 
ATOM     62  C   UNL A   1      46.173  34.562  29.892  1.00  0.00     0.029 A 
ATOM     63  N   UNL A   1      45.155  34.533  31.882  1.00  0.00    -0.354 N 
ATOM     64  C   UNL A   1      44.726  30.828  34.095  1.00  0.00     0.074 A 
ATOM     65  C   UNL A   1      45.318  29.723  33.370  1.00  0.00     0.031 C 
ATOM     66  C   UNL A   1      45.766  35.815  30.154  1.00  0.00     0.029 A 
ATOM     67  C   UNL A   1      45.057  35.829  31.430  1.00  0.00     0.049 A 
ATOM     68  H   UNL A   1      44.793  34.236  32.748  1.00  0.00     0.167 HD
ATOM     69  C   UNL A   1      44.129  30.722  35.309  1.00  0.00     0.034 A 
ATOM     70  C   UNL A   1      44.448  36.903  31.969  1.00  0.00     0.034 A 
ATOM     71  C   UNL A   1      43.543  31.838  36.013  1.00  0.00     0.049 A 
ATOM     72  C   UNL A   1      43.745  36.748  33.295  1.00  0.00     0.074 A 
ATOM     73  C   UNL A   1      42.965  31.855  37.270  1.00  0.00     0.029 A 
ATOM     74  N   UNL A   1      43.445  33.132  35.516  1.00  0.00    -0.354 N 
ATOM     75  N   UNL A   1      43.623  35.677  34.044  1.00  0.00    -0.248 NA
ATOM     76  C   UNL A   1      43.106  37.948  33.847  1.00  0.00     0.031 C 
ATOM     77  C   UNL A   1      42.449  33.135  37.501  1.00  0.00     0.029 A 
ATOM     78  C   UNL A   1      42.777  33.942  36.423  1.00  0.00     0.049 A 
ATOM     79  H   UNL A   1      43.798  33.430  34.648  1.00  0.00     0.167 HD
ATOM     80  C   UNL A   1      42.910  36.081  35.169  1.00  0.00     0.074 A 
ATOM     81  C   UNL A   1      42.653  37.498  35.008  1.00  0.00     0.031 C 
ATOM     82  C   UNL A   1      42.506  35.349  36.239  1.00  0.00     0.034 A 
BRANCH  69  83
ATOM     83  C   UNL A   1      44.056  29.348  35.931  1.00  0.00     0.023 A 
ATOM     84  C   UNL A   1      43.065  28.420  35.564  1.00  0.00     0.031 A 
ATOM     85  C   UNL A   1      44.980  28.964  36.919  1.00  0.00     0.131 A 
ATOM     86  C   UNL A   1      42.976  27.188  36.228  1.00  0.00     0.055 A 
ATOM     87  C   UNL A   1      44.936  27.704  37.520  1.00  0.00     0.041 A 
ATOM     88  F   UNL A   1      45.935  29.813  37.330  1.00  0.00    -0.206 F 
ATOM     89  C   UNL A   1      43.921  26.812  37.185  1.00  0.00     0.022 A 
BRANCH  86  90
ATOM     90  S   UNL A   1      41.526  26.142  35.924  1.00  0.00     0.124 S 
ATOM     91  O   UNL A   1      42.146  24.842  35.683  1.00  0.00    -0.237 OA
ATOM     92  O   UNL A   1      40.776  26.272  37.168  1.00  0.00    -0.237 OA
ATOM     93  O   UNL A   1      40.902  26.754  34.752  1.00  0.00    -0.744 OA
ENDBRANCH  86  90
ENDBRANCH  69  83
BRANCH  70  94
ATOM     94  C   UNL A   1      44.446  38.211  31.253  1.00  0.00     0.023 A 
ATOM     95  C   UNL A   1      43.417  38.544  30.358  1.00  0.00     0.031 A 
ATOM     96  C   UNL A   1      45.497  39.131  31.420  1.00  0.00     0.131 A 
ATOM     97  C   UNL A   1      43.484  39.742  29.630  1.00  0.00     0.055 A 
ATOM     98  C   UNL A   1      45.530  40.347  30.735  1.00  0.00     0.041 A 
ATOM     99  F   UNL A   1      46.505  38.864  32.266  1.00  0.00    -0.206 F 
ATOM    100  C   UNL A   1      44.526  40.652  29.824  1.00  0.00     0.022 A 
BRANCH  97 101
ATOM    101  S   UNL A   1      42.233  40.053  28.355  1.00  0.00     0.124 S 
ATOM    102  O   UNL A   1      41.162  40.664  29.133  1.00  0.00    -0.237 OA
ATOM    103  O   UNL A   1      42.947  40.939  27.440  1.00  0.00    -0.237 OA
ATOM    104  O   UNL A   1      41.945  38.720  27.830  1.00  0.00    -0.744 OA
ENDBRANCH  97 101
ENDBRANCH  70  94
BRANCH  82 105
ATOM    105  C   UNL A   1      41.764  36.086  37.329  1.00  0.00     0.023 A 
ATOM    106  C   UNL A   1      42.443  36.707  38.393  1.00  0.00     0.031 A 
ATOM    107  C   UNL A   1      40.361  36.153  37.313  1.00  0.00     0.131 A 
ATOM    108  C   UNL A   1      41.715  37.315  39.426  1.00  0.00     0.055 A 
ATOM    109  C   UNL A   1      39.645  36.818  38.309  1.00  0.00     0.041 A 
ATOM    110  F   UNL A   1      39.659  35.575  36.324  1.00  0.00    -0.206 F 
ATOM    111  C   UNL A   1      40.321  37.392  39.381  1.00  0.00     0.022 A 
BRANCH 108 112
ATOM    112  S   UNL A   1      42.612  37.923  40.882  1.00  0.00     0.124 S 
ATOM    113  O   UNL A   1      42.911  36.683  41.591  1.00  0.00    -0.237 OA
ATOM    114  O   UNL A   1      43.754  38.607  40.283  1.00  0.00    -0.237 OA
ATOM    115  O   UNL A   1      41.643  38.797  41.541  1.00  0.00    -0.744 OA
ENDBRANCH 108 112
ENDBRANCH  82 105
ENDBRANCH  56  57
ENDBRANCH  48  51
ENDBRANCH  46  47
ENDBRANCH  45  46
ENDBRANCH   1  45
TORSDOF 23
ENDMDL
