MODEL 1
REMARK VINA RESULT:     -12.5      0.000      0.000
REMARK SMILES Cc1cnc(NC(=O)[C@H]2[C@H]3CC[C@H](CC3)[C@H]2C(=O)NCCCCCCNC(=O)c2ccc(-c3c4nc(c(-c5cc(S(=O)(=O)[O-])ccc5F)c5ccc([nH]5)c(-c5cc(S(=O)(=O)[O-])ccc5F)c5nc(c(-c6cc(S(=O)(=O)[O-])ccc6F)c6ccc3[nH]6)C=C5)C=C4)cc2)s1
REMARK SMILES IDX 23 1 22 2 21 3 20 4 19 5 17 6 18 7 16 9 9 10 10 11 15 12
REMARK SMILES IDX 11 13 13 14 14 15 12 16 7 17 6 18 8 20 5 21 1 22 2 23 3 24
REMARK SMILES IDX 92 25 4 26 24 27 25 28 26 29 27 30 28 32 29 33 30 34 91 35
REMARK SMILES IDX 31 36 90 37 32 38 33 39 34 40 84 41 35 42 89 43 83 44 85 45
REMARK SMILES IDX 36 46 88 47 82 48 81 49 37 51 69 52 49 53 68 54 50 55 53 56
REMARK SMILES IDX 67 57 86 58 51 59 52 60 66 62 87 63 54 64 38 65 39 66 47 67
REMARK SMILES IDX 40 68 46 69 48 70 45 71 41 72 42 73 43 74 44 75 70 76 71 77
REMARK SMILES IDX 79 78 72 79 78 80 80 81 77 82 73 83 74 84 75 85 76 86 55 87
REMARK SMILES IDX 56 88 64 89 57 90 63 91 65 92 62 93 58 94 59 95 60 96 61 97
REMARK H PARENT 19 8 6 19 26 31 85 50 53 61
REMARK Flexibility Score: inf
ROOT
ATOM      1  C   UNL A   1      35.000  23.662  23.887  1.00  0.00     0.002 C 
ENDROOT
BRANCH   1   2
ATOM      2  C   UNL A   1      33.978  23.740  22.747  1.00  0.00     0.002 C 
BRANCH   2   3
ATOM      3  C   UNL A   1      32.732  22.877  22.908  1.00  0.00     0.021 C 
BRANCH   3   4
ATOM      4  C   UNL A   1      31.562  23.547  23.606  1.00  0.00     0.116 C 
BRANCH   4   5
ATOM      5  N   UNL A   1      31.703  23.781  25.018  1.00  0.00    -0.356 N 
ATOM      6  C   UNL A   1      31.814  24.969  25.669  1.00  0.00     0.224 C 
ATOM      7  O   UNL A   1      31.564  24.963  26.881  1.00  0.00    -0.275 OA
ATOM      8  H   UNL A   1      31.721  22.977  25.586  1.00  0.00     0.163 HD
BRANCH   6   9
ATOM      9  C   UNL A   1      32.226  26.299  24.999  1.00  0.00     0.094 C 
ATOM     10  C   UNL A   1      31.168  27.305  24.480  1.00  0.00     0.094 C 
ATOM     11  C   UNL A   1      31.446  28.712  25.123  1.00  0.00     0.002 C 
ATOM     12  C   UNL A   1      31.764  28.721  26.638  1.00  0.00     0.005 C 
ATOM     13  C   UNL A   1      32.755  29.210  24.464  1.00  0.00     0.005 C 
ATOM     14  C   UNL A   1      33.386  27.061  25.686  1.00  0.00     0.002 C 
ATOM     15  C   UNL A   1      32.909  27.751  26.964  1.00  0.00     0.005 C 
ATOM     16  C   UNL A   1      33.873  28.175  24.716  1.00  0.00     0.005 C 
BRANCH  10  17
ATOM     17  C   UNL A   1      29.706  26.836  24.403  1.00  0.00     0.230 C 
ATOM     18  N   UNL A   1      28.797  27.436  23.570  1.00  0.00    -0.302 N 
ATOM     19  H   UNL A   1      27.930  26.974  23.500  1.00  0.00     0.172 HD
ATOM     20  O   UNL A   1      29.325  25.868  25.067  1.00  0.00    -0.274 OA
BRANCH  18  21
ATOM     21  C   UNL A   1      28.907  28.576  22.822  1.00  0.00     0.189 A 
ATOM     22  C   UNL A   1      28.503  32.314  22.088  1.00  0.00     0.058 C 
ATOM     23  C   UNL A   1      28.787  30.858  22.101  1.00  0.00     0.023 A 
ATOM     24  C   UNL A   1      29.892  30.153  21.669  1.00  0.00     0.128 A 
ATOM     25  S   UNL A   1      27.669  29.752  22.779  1.00  0.00    -0.102 S 
ATOM     26  N   UNL A   1      29.908  28.808  22.006  1.00  0.00    -0.228 NA
ENDBRANCH  18  21
ENDBRANCH  10  17
ENDBRANCH   6   9
ENDBRANCH   4   5
ENDBRANCH   3   4
ENDBRANCH   2   3
ENDBRANCH   1   2
BRANCH   1  27
ATOM     27  C   UNL A   1      35.385  22.258  24.365  1.00  0.00     0.021 C 
BRANCH  27  28
ATOM     28  C   UNL A   1      36.198  22.200  25.651  1.00  0.00     0.116 C 
BRANCH  28  29
ATOM     29  N   UNL A   1      37.143  21.098  25.655  1.00  0.00    -0.352 N 
ATOM     30  C   UNL A   1      38.501  21.110  25.851  1.00  0.00     0.251 C 
ATOM     31  H   UNL A   1      36.752  20.209  25.492  1.00  0.00     0.163 HD
ATOM     32  O   UNL A   1      39.160  20.105  25.613  1.00  0.00    -0.269 OA
BRANCH  30  33
ATOM     33  C   UNL A   1      39.161  22.347  26.322  1.00  0.00     0.039 A 
ATOM     34  C   UNL A   1      40.316  22.241  27.101  1.00  0.00     0.014 A 
ATOM     35  C   UNL A   1      38.644  23.605  25.998  1.00  0.00     0.014 A 
ATOM     36  C   UNL A   1      40.986  23.398  27.502  1.00  0.00     0.010 A 
ATOM     37  C   UNL A   1      39.357  24.754  26.332  1.00  0.00     0.010 A 
ATOM     38  C   UNL A   1      40.534  24.663  27.090  1.00  0.00    -0.014 A 
BRANCH  38  39
ATOM     39  C   UNL A   1      41.279  25.899  27.445  1.00  0.00     0.031 A 
ATOM     40  C   UNL A   1      40.618  26.963  28.279  1.00  0.00     0.074 A 
ATOM     41  C   UNL A   1      42.527  26.086  26.971  1.00  0.00     0.049 A 
ATOM     42  N   UNL A   1      41.073  28.136  28.636  1.00  0.00    -0.248 NA
ATOM     43  C   UNL A   1      39.253  26.681  28.749  1.00  0.00     0.031 C 
ATOM     44  C   UNL A   1      43.258  25.140  26.126  1.00  0.00     0.029 A 
ATOM     45  N   UNL A   1      43.401  27.133  27.125  1.00  0.00    -0.354 N 
ATOM     46  C   UNL A   1      40.051  28.736  29.363  1.00  0.00     0.074 A 
ATOM     47  C   UNL A   1      38.929  27.822  29.337  1.00  0.00     0.031 C 
ATOM     48  C   UNL A   1      44.477  25.636  25.861  1.00  0.00     0.029 A 
ATOM     49  C   UNL A   1      44.598  26.958  26.469  1.00  0.00     0.049 A 
ATOM     50  H   UNL A   1      43.191  27.935  27.655  1.00  0.00     0.167 HD
ATOM     51  C   UNL A   1      40.057  29.927  30.011  1.00  0.00     0.034 A 
ATOM     52  C   UNL A   1      45.665  27.775  26.354  1.00  0.00     0.034 A 
ATOM     53  C   UNL A   1      41.188  30.822  30.028  1.00  0.00     0.049 A 
ATOM     54  C   UNL A   1      45.631  29.116  27.045  1.00  0.00     0.074 A 
ATOM     55  C   UNL A   1      41.321  32.028  30.693  1.00  0.00     0.029 A 
ATOM     56  N   UNL A   1      42.378  30.616  29.341  1.00  0.00    -0.354 N 
ATOM     57  N   UNL A   1      44.673  29.646  27.770  1.00  0.00    -0.248 NA
ATOM     58  C   UNL A   1      46.821  29.965  26.909  1.00  0.00     0.031 C 
ATOM     59  C   UNL A   1      42.553  32.588  30.344  1.00  0.00     0.029 A 
ATOM     60  C   UNL A   1      43.232  31.691  29.535  1.00  0.00     0.049 A 
ATOM     61  H   UNL A   1      42.584  29.823  28.795  1.00  0.00     0.167 HD
ATOM     62  C   UNL A   1      45.164  30.873  28.208  1.00  0.00     0.074 A 
ATOM     63  C   UNL A   1      46.503  31.000  27.671  1.00  0.00     0.031 C 
ATOM     64  C   UNL A   1      44.565  31.806  28.992  1.00  0.00     0.034 A 
BRANCH  51  65
ATOM     65  C   UNL A   1      38.791  30.339  30.727  1.00  0.00     0.023 A 
ATOM     66  C   UNL A   1      37.740  30.990  30.056  1.00  0.00     0.031 A 
ATOM     67  C   UNL A   1      38.639  30.094  32.103  1.00  0.00     0.131 A 
ATOM     68  C   UNL A   1      36.624  31.442  30.775  1.00  0.00     0.055 A 
ATOM     69  C   UNL A   1      37.485  30.466  32.795  1.00  0.00     0.041 A 
ATOM     70  F   UNL A   1      39.616  29.496  32.804  1.00  0.00    -0.206 F 
ATOM     71  C   UNL A   1      36.476  31.160  32.134  1.00  0.00     0.022 A 
BRANCH  68  72
ATOM     72  S   UNL A   1      35.442  32.534  29.939  1.00  0.00     0.124 S 
ATOM     73  O   UNL A   1      34.385  32.645  30.941  1.00  0.00    -0.237 OA
ATOM     74  O   UNL A   1      36.233  33.737  29.707  1.00  0.00    -0.237 OA
ATOM     75  O   UNL A   1      35.074  31.786  28.737  1.00  0.00    -0.744 OA
ENDBRANCH  68  72
ENDBRANCH  51  65
BRANCH  52  76
ATOM     76  C   UNL A   1      46.849  27.362  25.544  1.00  0.00     0.023 A 
ATOM     77  C   UNL A   1      47.039  27.847  24.240  1.00  0.00     0.031 A 
ATOM     78  C   UNL A   1      47.786  26.442  26.047  1.00  0.00     0.131 A 
ATOM     79  C   UNL A   1      48.109  27.371  23.466  1.00  0.00     0.055 A 
ATOM     80  C   UNL A   1      48.884  26.019  25.295  1.00  0.00     0.041 A 
ATOM     81  F   UNL A   1      47.655  25.947  27.288  1.00  0.00    -0.206 F 
ATOM     82  C   UNL A   1      49.042  26.473  23.989  1.00  0.00     0.022 A 
BRANCH  79  83
ATOM     83  S   UNL A   1      48.206  27.865  21.723  1.00  0.00     0.124 S 
ATOM     84  O   UNL A   1      48.557  26.606  21.078  1.00  0.00    -0.237 OA
ATOM     85  O   UNL A   1      46.857  28.362  21.474  1.00  0.00    -0.237 OA
ATOM     86  O   UNL A   1      49.254  28.884  21.717  1.00  0.00    -0.744 OA
ENDBRANCH  79  83
ENDBRANCH  52  76
BRANCH  64  87
ATOM     87  C   UNL A   1      45.377  33.022  29.369  1.00  0.00     0.023 A 
ATOM     88  C   UNL A   1      45.407  34.177  28.570  1.00  0.00     0.031 A 
ATOM     89  C   UNL A   1      46.116  33.026  30.566  1.00  0.00     0.131 A 
ATOM     90  C   UNL A   1      46.193  35.274  28.957  1.00  0.00     0.055 A 
ATOM     91  C   UNL A   1      46.846  34.142  30.977  1.00  0.00     0.041 A 
ATOM     92  F   UNL A   1      46.128  31.947  31.366  1.00  0.00    -0.206 F 
ATOM     93  C   UNL A   1      46.895  35.270  30.165  1.00  0.00     0.022 A 
BRANCH  90  94
ATOM     94  S   UNL A   1      46.350  36.681  27.822  1.00  0.00     0.124 S 
ATOM     95  O   UNL A   1      47.773  36.653  27.499  1.00  0.00    -0.237 OA
ATOM     96  O   UNL A   1      45.443  36.312  26.740  1.00  0.00    -0.237 OA
ATOM     97  O   UNL A   1      45.919  37.821  28.629  1.00  0.00    -0.744 OA
ENDBRANCH  90  94
ENDBRANCH  64  87
ENDBRANCH  38  39
ENDBRANCH  30  33
ENDBRANCH  28  29
ENDBRANCH  27  28
ENDBRANCH   1  27
TORSDOF 18
ENDMDL
MODEL 2
REMARK VINA RESULT:     -12.4      5.278      8.224
REMARK SMILES Cc1cnc(NC(=O)[C@H]2[C@H]3CC[C@H](CC3)[C@H]2C(=O)NCCCCCCNC(=O)c2ccc(-c3c4nc(c(-c5cc(S(=O)(=O)[O-])ccc5F)c5ccc([nH]5)c(-c5cc(S(=O)(=O)[O-])ccc5F)c5nc(c(-c6cc(S(=O)(=O)[O-])ccc6F)c6ccc3[nH]6)C=C5)C=C4)cc2)s1
REMARK SMILES IDX 23 1 22 2 21 3 20 4 19 5 17 6 18 7 16 9 9 10 10 11 15 12
REMARK SMILES IDX 11 13 13 14 14 15 12 16 7 17 6 18 8 20 5 21 1 22 2 23 3 24
REMARK SMILES IDX 92 25 4 26 24 27 25 28 26 29 27 30 28 32 29 33 30 34 91 35
REMARK SMILES IDX 31 36 90 37 32 38 33 39 34 40 84 41 35 42 89 43 83 44 85 45
REMARK SMILES IDX 36 46 88 47 82 48 81 49 37 51 69 52 49 53 68 54 50 55 53 56
REMARK SMILES IDX 67 57 86 58 51 59 52 60 66 62 87 63 54 64 38 65 39 66 47 67
REMARK SMILES IDX 40 68 46 69 48 70 45 71 41 72 42 73 43 74 44 75 70 76 71 77
REMARK SMILES IDX 79 78 72 79 78 80 80 81 77 82 73 83 74 84 75 85 76 86 55 87
REMARK SMILES IDX 56 88 64 89 57 90 63 91 65 92 62 93 58 94 59 95 60 96 61 97
REMARK H PARENT 19 8 6 19 26 31 85 50 53 61
REMARK Flexibility Score: inf
ROOT
ATOM      1  C   UNL A   1      31.832  27.387  26.615  1.00  0.00     0.002 C 
ENDROOT
BRANCH   1   2
ATOM      2  C   UNL A   1      30.901  26.347  25.981  1.00  0.00     0.002 C 
BRANCH   2   3
ATOM      3  C   UNL A   1      31.158  26.028  24.513  1.00  0.00     0.021 C 
BRANCH   3   4
ATOM      4  C   UNL A   1      31.514  24.583  24.214  1.00  0.00     0.116 C 
BRANCH   4   5
ATOM      5  N   UNL A   1      30.690  23.577  24.828  1.00  0.00    -0.356 N 
ATOM      6  C   UNL A   1      31.056  22.612  25.713  1.00  0.00     0.224 C 
ATOM      7  O   UNL A   1      30.148  22.097  26.379  1.00  0.00    -0.275 OA
ATOM      8  H   UNL A   1      29.739  23.588  24.574  1.00  0.00     0.163 HD
BRANCH   6   9
ATOM      9  C   UNL A   1      32.508  22.133  25.934  1.00  0.00     0.094 C 
ATOM     10  C   UNL A   1      33.308  21.429  24.810  1.00  0.00     0.094 C 
ATOM     11  C   UNL A   1      34.664  22.194  24.593  1.00  0.00     0.002 C 
ATOM     12  C   UNL A   1      34.578  23.739  24.555  1.00  0.00     0.005 C 
ATOM     13  C   UNL A   1      35.505  21.899  25.859  1.00  0.00     0.005 C 
ATOM     14  C   UNL A   1      33.427  23.121  26.695  1.00  0.00     0.002 C 
ATOM     15  C   UNL A   1      33.853  24.280  25.795  1.00  0.00     0.005 C 
ATOM     16  C   UNL A   1      34.719  22.358  27.107  1.00  0.00     0.005 C 
BRANCH  10  17
ATOM     17  C   UNL A   1      32.541  20.975  23.557  1.00  0.00     0.230 C 
ATOM     18  N   UNL A   1      32.217  19.660  23.344  1.00  0.00    -0.302 N 
ATOM     19  H   UNL A   1      31.614  19.499  22.583  1.00  0.00     0.172 HD
ATOM     20  O   UNL A   1      32.157  21.803  22.726  1.00  0.00    -0.274 OA
BRANCH  18  21
ATOM     21  C   UNL A   1      32.603  18.537  24.023  1.00  0.00     0.189 A 
ATOM     22  C   UNL A   1      35.060  15.828  25.166  1.00  0.00     0.058 C 
ATOM     23  C   UNL A   1      33.914  16.731  24.898  1.00  0.00     0.023 A 
ATOM     24  C   UNL A   1      32.943  17.229  25.744  1.00  0.00     0.128 A 
ATOM     25  S   UNL A   1      33.655  17.381  23.335  1.00  0.00    -0.102 S 
ATOM     26  N   UNL A   1      32.124  18.206  25.199  1.00  0.00    -0.228 NA
ENDBRANCH  18  21
ENDBRANCH  10  17
ENDBRANCH   6   9
ENDBRANCH   4   5
ENDBRANCH   3   4
ENDBRANCH   2   3
ENDBRANCH   1   2
BRANCH   1  27
ATOM     27  C   UNL A   1      31.543  28.855  26.283  1.00  0.00     0.021 C 
BRANCH  27  28
ATOM     28  C   UNL A   1      32.757  29.700  25.923  1.00  0.00     0.116 C 
BRANCH  28  29
ATOM     29  N   UNL A   1      32.573  31.100  26.263  1.00  0.00    -0.352 N 
ATOM     30  C   UNL A   1      33.244  31.874  27.176  1.00  0.00     0.251 C 
ATOM     31  H   UNL A   1      31.860  31.562  25.766  1.00  0.00     0.163 HD
ATOM     32  O   UNL A   1      32.811  32.981  27.472  1.00  0.00    -0.269 OA
BRANCH  30  33
ATOM     33  C   UNL A   1      34.472  31.352  27.815  1.00  0.00     0.039 A 
ATOM     34  C   UNL A   1      35.559  32.212  27.990  1.00  0.00     0.014 A 
ATOM     35  C   UNL A   1      34.550  30.023  28.241  1.00  0.00     0.014 A 
ATOM     36  C   UNL A   1      36.702  31.753  28.648  1.00  0.00     0.010 A 
ATOM     37  C   UNL A   1      35.659  29.592  28.965  1.00  0.00     0.010 A 
ATOM     38  C   UNL A   1      36.748  30.451  29.174  1.00  0.00    -0.014 A 
BRANCH  38  39
ATOM     39  C   UNL A   1      37.927  29.973  29.942  1.00  0.00     0.031 A 
ATOM     40  C   UNL A   1      38.185  30.497  31.329  1.00  0.00     0.074 A 
ATOM     41  C   UNL A   1      38.793  29.113  29.369  1.00  0.00     0.049 A 
ATOM     42  N   UNL A   1      39.191  30.257  32.130  1.00  0.00    -0.248 NA
ATOM     43  C   UNL A   1      37.194  31.436  31.875  1.00  0.00     0.031 C 
ATOM     44  C   UNL A   1      38.665  28.563  28.018  1.00  0.00     0.029 A 
ATOM     45  N   UNL A   1      39.952  28.554  29.844  1.00  0.00    -0.354 N 
ATOM     46  C   UNL A   1      38.961  31.021  33.269  1.00  0.00     0.074 A 
ATOM     47  C   UNL A   1      37.755  31.782  33.024  1.00  0.00     0.031 C 
ATOM     48  C   UNL A   1      39.687  27.725  27.785  1.00  0.00     0.029 A 
ATOM     49  C   UNL A   1      40.575  27.717  28.945  1.00  0.00     0.049 A 
ATOM     50  H   UNL A   1      40.307  28.734  30.744  1.00  0.00     0.167 HD
ATOM     51  C   UNL A   1      39.677  31.065  34.419  1.00  0.00     0.034 A 
ATOM     52  C   UNL A   1      41.734  27.036  29.035  1.00  0.00     0.034 A 
ATOM     53  C   UNL A   1      40.875  30.294  34.645  1.00  0.00     0.049 A 
ATOM     54  C   UNL A   1      42.539  27.136  30.307  1.00  0.00     0.074 A 
ATOM     55  C   UNL A   1      41.649  30.223  35.790  1.00  0.00     0.029 A 
ATOM     56  N   UNL A   1      41.481  29.469  33.706  1.00  0.00    -0.354 N 
ATOM     57  N   UNL A   1      42.280  27.826  31.395  1.00  0.00    -0.248 NA
ATOM     58  C   UNL A   1      43.785  26.363  30.370  1.00  0.00     0.031 C 
ATOM     59  C   UNL A   1      42.764  29.424  35.517  1.00  0.00     0.029 A 
ATOM     60  C   UNL A   1      42.639  28.917  34.233  1.00  0.00     0.049 A 
ATOM     61  H   UNL A   1      41.138  29.300  32.798  1.00  0.00     0.167 HD
ATOM     62  C   UNL A   1      43.313  27.537  32.283  1.00  0.00     0.074 A 
ATOM     63  C   UNL A   1      44.192  26.606  31.607  1.00  0.00     0.031 C 
ATOM     64  C   UNL A   1      43.509  27.992  33.547  1.00  0.00     0.034 A 
BRANCH  51  65
ATOM     65  C   UNL A   1      39.196  31.998  35.506  1.00  0.00     0.023 A 
ATOM     66  C   UNL A   1      39.638  33.331  35.586  1.00  0.00     0.031 A 
ATOM     67  C   UNL A   1      38.295  31.547  36.487  1.00  0.00     0.131 A 
ATOM     68  C   UNL A   1      39.244  34.137  36.664  1.00  0.00     0.055 A 
ATOM     69  C   UNL A   1      37.836  32.382  37.507  1.00  0.00     0.041 A 
ATOM     70  F   UNL A   1      37.853  30.279  36.477  1.00  0.00    -0.206 F 
ATOM     71  C   UNL A   1      38.324  33.681  37.609  1.00  0.00     0.022 A 
BRANCH  68  72
ATOM     72  S   UNL A   1      40.069  35.736  36.895  1.00  0.00     0.124 S 
ATOM     73  O   UNL A   1      39.654  36.457  35.694  1.00  0.00    -0.237 OA
ATOM     74  O   UNL A   1      39.500  36.206  38.152  1.00  0.00    -0.237 OA
ATOM     75  O   UNL A   1      41.488  35.386  36.942  1.00  0.00    -0.744 OA
ENDBRANCH  68  72
ENDBRANCH  51  65
BRANCH  52  76
ATOM     76  C   UNL A   1      42.218  26.211  27.889  1.00  0.00     0.023 A 
ATOM     77  C   UNL A   1      41.775  24.890  27.710  1.00  0.00     0.031 A 
ATOM     78  C   UNL A   1      43.166  26.715  26.981  1.00  0.00     0.131 A 
ATOM     79  C   UNL A   1      42.317  24.104  26.681  1.00  0.00     0.055 A 
ATOM     80  C   UNL A   1      43.655  25.949  25.921  1.00  0.00     0.041 A 
ATOM     81  F   UNL A   1      43.623  27.971  27.103  1.00  0.00    -0.206 F 
ATOM     82  C   UNL A   1      43.241  24.628  25.775  1.00  0.00     0.022 A 
BRANCH  79  83
ATOM     83  S   UNL A   1      41.871  22.347  26.605  1.00  0.00     0.124 S 
ATOM     84  O   UNL A   1      42.532  21.927  25.376  1.00  0.00    -0.237 OA
ATOM     85  O   UNL A   1      42.439  21.836  27.849  1.00  0.00    -0.237 OA
ATOM     86  O   UNL A   1      40.410  22.369  26.554  1.00  0.00    -0.744 OA
ENDBRANCH  79  83
ENDBRANCH  52  76
BRANCH  64  87
ATOM     87  C   UNL A   1      44.692  27.441  34.307  1.00  0.00     0.023 A 
ATOM     88  C   UNL A   1      44.612  26.257  35.058  1.00  0.00     0.031 A 
ATOM     89  C   UNL A   1      45.929  28.110  34.256  1.00  0.00     0.131 A 
ATOM     90  C   UNL A   1      45.737  25.799  35.762  1.00  0.00     0.055 A 
ATOM     91  C   UNL A   1      47.060  27.617  34.906  1.00  0.00     0.041 A 
ATOM     92  F   UNL A   1      46.061  29.250  33.557  1.00  0.00    -0.206 F 
ATOM     93  C   UNL A   1      46.965  26.460  35.673  1.00  0.00     0.022 A 
BRANCH  90  94
ATOM     94  S   UNL A   1      45.558  24.366  36.860  1.00  0.00     0.124 S 
ATOM     95  O   UNL A   1      44.944  24.964  38.041  1.00  0.00    -0.237 OA
ATOM     96  O   UNL A   1      44.703  23.478  36.078  1.00  0.00    -0.237 OA
ATOM     97  O   UNL A   1      46.932  23.900  37.043  1.00  0.00    -0.744 OA
ENDBRANCH  90  94
ENDBRANCH  64  87
ENDBRANCH  38  39
ENDBRANCH  30  33
ENDBRANCH  28  29
ENDBRANCH  27  28
ENDBRANCH   1  27
TORSDOF 18
ENDMDL
MODEL 3
REMARK VINA RESULT:     -12.3      5.237      8.166
REMARK SMILES Cc1cnc(NC(=O)[C@H]2[C@H]3CC[C@H](CC3)[C@H]2C(=O)NCCCCCCNC(=O)c2ccc(-c3c4nc(c(-c5cc(S(=O)(=O)[O-])ccc5F)c5ccc([nH]5)c(-c5cc(S(=O)(=O)[O-])ccc5F)c5nc(c(-c6cc(S(=O)(=O)[O-])ccc6F)c6ccc3[nH]6)C=C5)C=C4)cc2)s1
REMARK SMILES IDX 23 1 22 2 21 3 20 4 19 5 17 6 18 7 16 9 9 10 10 11 15 12
REMARK SMILES IDX 11 13 13 14 14 15 12 16 7 17 6 18 8 20 5 21 1 22 2 23 3 24
REMARK SMILES IDX 92 25 4 26 24 27 25 28 26 29 27 30 28 32 29 33 30 34 91 35
REMARK SMILES IDX 31 36 90 37 32 38 33 39 34 40 84 41 35 42 89 43 83 44 85 45
REMARK SMILES IDX 36 46 88 47 82 48 81 49 37 51 69 52 49 53 68 54 50 55 53 56
REMARK SMILES IDX 67 57 86 58 51 59 52 60 66 62 87 63 54 64 38 65 39 66 47 67
REMARK SMILES IDX 40 68 46 69 48 70 45 71 41 72 42 73 43 74 44 75 70 76 71 77
REMARK SMILES IDX 79 78 72 79 78 80 80 81 77 82 73 83 74 84 75 85 76 86 55 87
REMARK SMILES IDX 56 88 64 89 57 90 63 91 65 92 62 93 58 94 59 95 60 96 61 97
REMARK H PARENT 19 8 6 19 26 31 85 50 53 61
REMARK Flexibility Score: inf
ROOT
ATOM      1  C   UNL A   1      31.752  27.329  26.437  1.00  0.00     0.002 C 
ENDROOT
BRANCH   1   2
ATOM      2  C   UNL A   1      30.651  26.504  25.762  1.00  0.00     0.002 C 
BRANCH   2   3
ATOM      3  C   UNL A   1      30.866  26.182  24.288  1.00  0.00     0.021 C 
BRANCH   3   4
ATOM      4  C   UNL A   1      31.336  24.769  23.992  1.00  0.00     0.116 C 
BRANCH   4   5
ATOM      5  N   UNL A   1      30.684  23.710  24.713  1.00  0.00    -0.356 N 
ATOM      6  C   UNL A   1      31.240  22.794  25.551  1.00  0.00     0.224 C 
ATOM      7  O   UNL A   1      30.471  22.218  26.331  1.00  0.00    -0.275 OA
ATOM      8  H   UNL A   1      29.711  23.639  24.585  1.00  0.00     0.163 HD
BRANCH   6   9
ATOM      9  C   UNL A   1      32.743  22.439  25.585  1.00  0.00     0.094 C 
ATOM     10  C   UNL A   1      33.459  21.828  24.354  1.00  0.00     0.094 C 
ATOM     11  C   UNL A   1      34.710  22.712  24.002  1.00  0.00     0.002 C 
ATOM     12  C   UNL A   1      34.490  24.245  24.019  1.00  0.00     0.005 C 
ATOM     13  C   UNL A   1      35.718  22.468  25.151  1.00  0.00     0.005 C 
ATOM     14  C   UNL A   1      33.661  23.488  26.261  1.00  0.00     0.002 C 
ATOM     15  C   UNL A   1      33.877  24.697  25.351  1.00  0.00     0.005 C 
ATOM     16  C   UNL A   1      35.052  22.833  26.495  1.00  0.00     0.005 C 
BRANCH  10  17
ATOM     17  C   UNL A   1      32.588  21.333  23.188  1.00  0.00     0.230 C 
ATOM     18  N   UNL A   1      32.154  20.035  23.109  1.00  0.00    -0.302 N 
ATOM     19  H   UNL A   1      31.497  19.859  22.398  1.00  0.00     0.172 HD
ATOM     20  O   UNL A   1      32.221  22.116  22.307  1.00  0.00    -0.274 OA
BRANCH  18  21
ATOM     21  C   UNL A   1      32.492  18.947  23.865  1.00  0.00     0.189 A 
ATOM     22  C   UNL A   1      34.733  16.054  25.001  1.00  0.00     0.058 C 
ATOM     23  C   UNL A   1      33.682  17.076  24.776  1.00  0.00     0.023 A 
ATOM     24  C   UNL A   1      32.915  17.791  25.675  1.00  0.00     0.128 A 
ATOM     25  S   UNL A   1      33.280  17.588  23.193  1.00  0.00    -0.102 S 
ATOM     26  N   UNL A   1      32.153  18.811  25.125  1.00  0.00    -0.228 NA
ENDBRANCH  18  21
ENDBRANCH  10  17
ENDBRANCH   6   9
ENDBRANCH   4   5
ENDBRANCH   3   4
ENDBRANCH   2   3
ENDBRANCH   1   2
BRANCH   1  27
ATOM     27  C   UNL A   1      32.241  28.567  25.677  1.00  0.00     0.021 C 
BRANCH  27  28
ATOM     28  C   UNL A   1      33.622  29.076  26.069  1.00  0.00     0.116 C 
BRANCH  28  29
ATOM     29  N   UNL A   1      33.589  30.453  26.530  1.00  0.00    -0.352 N 
ATOM     30  C   UNL A   1      34.375  31.082  27.462  1.00  0.00     0.251 C 
ATOM     31  H   UNL A   1      32.899  31.018  26.113  1.00  0.00     0.163 HD
ATOM     32  O   UNL A   1      34.065  32.195  27.869  1.00  0.00    -0.269 OA
BRANCH  30  33
ATOM     33  C   UNL A   1      35.578  30.400  27.986  1.00  0.00     0.039 A 
ATOM     34  C   UNL A   1      36.763  30.462  27.251  1.00  0.00     0.014 A 
ATOM     35  C   UNL A   1      35.536  29.702  29.197  1.00  0.00     0.014 A 
ATOM     36  C   UNL A   1      37.923  29.876  27.762  1.00  0.00     0.010 A 
ATOM     37  C   UNL A   1      36.711  29.188  29.741  1.00  0.00     0.010 A 
ATOM     38  C   UNL A   1      37.916  29.266  29.028  1.00  0.00    -0.014 A 
BRANCH  38  39
ATOM     39  C   UNL A   1      39.160  28.705  29.618  1.00  0.00     0.031 A 
ATOM     40  C   UNL A   1      39.753  29.324  30.854  1.00  0.00     0.074 A 
ATOM     41  C   UNL A   1      39.782  27.676  29.009  1.00  0.00     0.049 A 
ATOM     42  N   UNL A   1      40.862  29.025  31.478  1.00  0.00    -0.248 NA
ATOM     43  C   UNL A   1      39.012  30.446  31.451  1.00  0.00     0.031 C 
ATOM     44  C   UNL A   1      39.320  27.016  27.786  1.00  0.00     0.029 A 
ATOM     45  N   UNL A   1      40.937  27.007  29.327  1.00  0.00    -0.354 N 
ATOM     46  C   UNL A   1      40.960  29.925  32.534  1.00  0.00     0.074 A 
ATOM     47  C   UNL A   1      39.830  30.823  32.422  1.00  0.00     0.031 C 
ATOM     48  C   UNL A   1      40.165  26.020  27.475  1.00  0.00     0.029 A 
ATOM     49  C   UNL A   1      41.260  26.004  28.442  1.00  0.00     0.049 A 
ATOM     50  H   UNL A   1      41.485  27.225  30.115  1.00  0.00     0.167 HD
ATOM     51  C   UNL A   1      41.892  29.983  33.516  1.00  0.00     0.034 A 
ATOM     52  C   UNL A   1      42.324  25.176  28.401  1.00  0.00     0.034 A 
ATOM     53  C   UNL A   1      43.009  29.075  33.612  1.00  0.00     0.049 A 
ATOM     54  C   UNL A   1      43.374  25.289  29.479  1.00  0.00     0.074 A 
ATOM     55  C   UNL A   1      43.984  29.011  34.592  1.00  0.00     0.029 A 
ATOM     56  N   UNL A   1      43.310  28.081  32.689  1.00  0.00    -0.354 N 
ATOM     57  N   UNL A   1      43.424  26.115  30.498  1.00  0.00    -0.248 NA
ATOM     58  C   UNL A   1      44.505  24.355  29.407  1.00  0.00     0.031 C 
ATOM     59  C   UNL A   1      44.916  28.037  34.221  1.00  0.00     0.029 A 
ATOM     60  C   UNL A   1      44.475  27.426  33.058  1.00  0.00     0.049 A 
ATOM     61  H   UNL A   1      42.774  27.872  31.890  1.00  0.00     0.167 HD
ATOM     62  C   UNL A   1      44.571  25.772  31.209  1.00  0.00     0.074 A 
ATOM     63  C   UNL A   1      45.178  24.662  30.505  1.00  0.00     0.031 C 
ATOM     64  C   UNL A   1      45.072  26.320  32.346  1.00  0.00     0.034 A 
BRANCH  51  65
ATOM     65  C   UNL A   1      41.756  31.081  34.545  1.00  0.00     0.023 A 
ATOM     66  C   UNL A   1      40.712  31.086  35.488  1.00  0.00     0.031 A 
ATOM     67  C   UNL A   1      42.671  32.148  34.575  1.00  0.00     0.131 A 
ATOM     68  C   UNL A   1      40.564  32.170  36.364  1.00  0.00     0.055 A 
ATOM     69  C   UNL A   1      42.569  33.181  35.509  1.00  0.00     0.041 A 
ATOM     70  F   UNL A   1      43.676  32.212  33.686  1.00  0.00    -0.206 F 
ATOM     71  C   UNL A   1      41.501  33.204  36.400  1.00  0.00     0.022 A 
BRANCH  68  72
ATOM     72  S   UNL A   1      39.046  32.285  37.349  1.00  0.00     0.124 S 
ATOM     73  O   UNL A   1      38.374  31.035  37.001  1.00  0.00    -0.237 OA
ATOM     74  O   UNL A   1      39.558  32.378  38.711  1.00  0.00    -0.237 OA
ATOM     75  O   UNL A   1      38.398  33.494  36.841  1.00  0.00    -0.744 OA
ENDBRANCH  68  72
ENDBRANCH  51  65
BRANCH  52  76
ATOM     76  C   UNL A   1      42.464  24.178  27.300  1.00  0.00     0.023 A 
ATOM     77  C   UNL A   1      41.863  22.912  27.390  1.00  0.00     0.031 A 
ATOM     78  C   UNL A   1      43.239  24.459  26.160  1.00  0.00     0.131 A 
ATOM     79  C   UNL A   1      42.089  21.958  26.385  1.00  0.00     0.055 A 
ATOM     80  C   UNL A   1      43.409  23.528  25.134  1.00  0.00     0.041 A 
ATOM     81  F   UNL A   1      43.835  25.653  26.022  1.00  0.00    -0.206 F 
ATOM     82  C   UNL A   1      42.844  22.262  25.250  1.00  0.00     0.022 A 
BRANCH  79  83
ATOM     83  S   UNL A   1      41.464  20.272  26.633  1.00  0.00     0.124 S 
ATOM     84  O   UNL A   1      41.837  19.632  25.377  1.00  0.00    -0.237 OA
ATOM     85  O   UNL A   1      42.203  19.847  27.817  1.00  0.00    -0.237 OA
ATOM     86  O   UNL A   1      40.030  20.469  26.833  1.00  0.00    -0.744 OA
ENDBRANCH  79  83
ENDBRANCH  52  76
BRANCH  64  87
ATOM     87  C   UNL A   1      46.308  25.686  32.937  1.00  0.00     0.023 A 
ATOM     88  C   UNL A   1      46.238  24.614  33.842  1.00  0.00     0.031 A 
ATOM     89  C   UNL A   1      47.581  26.156  32.564  1.00  0.00     0.131 A 
ATOM     90  C   UNL A   1      47.418  24.074  34.377  1.00  0.00     0.055 A 
ATOM     91  C   UNL A   1      48.752  25.573  33.050  1.00  0.00     0.041 A 
ATOM     92  F   UNL A   1      47.707  27.181  31.706  1.00  0.00    -0.206 F 
ATOM     93  C   UNL A   1      48.674  24.533  33.970  1.00  0.00     0.022 A 
BRANCH  90  94
ATOM     94  S   UNL A   1      47.292  22.810  35.672  1.00  0.00     0.124 S 
ATOM     95  O   UNL A   1      48.635  22.824  36.242  1.00  0.00    -0.237 OA
ATOM     96  O   UNL A   1      46.233  23.340  36.524  1.00  0.00    -0.237 OA
ATOM     97  O   UNL A   1      46.944  21.596  34.934  1.00  0.00    -0.744 OA
ENDBRANCH  90  94
ENDBRANCH  64  87
ENDBRANCH  38  39
ENDBRANCH  30  33
ENDBRANCH  28  29
ENDBRANCH  27  28
ENDBRANCH   1  27
TORSDOF 18
ENDMDL
