MODEL 1
REMARK VINA RESULT:     -13.2      0.000      0.000
REMARK SMILES Cc1c(NC(=O)[C@@H]2CC=CC[C@@H]2C(=O)NCCCCCCNC(=O)c2ccc(-c3c4nc(c(-c5cc(S(=O)(=O)[O-])ccc5F)c5ccc([nH]5)c(-c5cc(S(=O)(=O)[O-])ccc5F)c5nc(c(-c6cc(S(=O)(=O)[O-])ccc6F)c6ccc3[nH]6)C=C5)C=C4)cc2)cccc1C(=O)N1CCOCC1
REMARK SMILES IDX 18 1 17 2 16 3 15 4 13 5 14 6 12 8 7 9 8 10 9 11 11 12 10 13
REMARK SMILES IDX 5 14 4 15 6 17 3 18 1 19 2 20 91 21 88 22 90 23 89 24 92 25
REMARK SMILES IDX 93 26 94 27 95 28 99 29 96 30 98 31 97 32 19 33 20 34 21 35
REMARK SMILES IDX 22 36 23 37 24 39 25 40 26 41 87 42 27 43 86 44 28 45 29 46
REMARK SMILES IDX 30 47 80 48 31 49 85 50 79 51 81 52 32 53 84 54 78 55 77 56
REMARK SMILES IDX 33 58 65 59 45 60 64 61 46 62 49 63 63 64 82 65 47 66 48 67
REMARK SMILES IDX 62 69 83 70 50 71 34 72 35 73 43 74 36 75 42 76 44 77 41 78
REMARK SMILES IDX 37 79 38 80 39 81 40 82 66 83 67 84 75 85 68 86 74 87 76 88
REMARK SMILES IDX 73 89 69 90 70 91 71 92 72 93 51 94 52 95 60 96 53 97 59 98
REMARK SMILES IDX 61 99 58 100 54 101 55 102 56 103 57 104
REMARK H PARENT 15 7 4 16 22 38 81 57 49 68
REMARK Flexibility Score: inf
ROOT
ATOM      1  C   UNL A   1      34.499  28.954  26.941  1.00  0.00     0.002 C 
ENDROOT
BRANCH   1   2
ATOM      2  C   UNL A   1      33.740  27.857  26.186  1.00  0.00     0.021 C 
BRANCH   2   3
ATOM      3  C   UNL A   1      32.329  27.561  26.699  1.00  0.00     0.116 C 
BRANCH   3   4
ATOM      4  N   UNL A   1      32.091  26.143  26.884  1.00  0.00    -0.356 N 
ATOM      5  C   UNL A   1      32.452  24.998  26.266  1.00  0.00     0.224 C 
ATOM      6  O   UNL A   1      32.127  23.976  26.893  1.00  0.00    -0.275 OA
ATOM      7  H   UNL A   1      31.515  25.970  27.663  1.00  0.00     0.163 HD
BRANCH   5   8
ATOM      8  C   UNL A   1      33.263  24.817  24.960  1.00  0.00     0.095 C 
ATOM      9  C   UNL A   1      33.049  23.637  23.984  1.00  0.00     0.095 C 
ATOM     10  C   UNL A   1      33.322  22.306  24.705  1.00  0.00     0.041 C 
ATOM     11  C   UNL A   1      34.648  22.334  25.417  1.00  0.00    -0.030 C 
ATOM     12  C   UNL A   1      34.775  24.832  25.330  1.00  0.00     0.041 C 
ATOM     13  C   UNL A   1      35.313  23.469  25.674  1.00  0.00    -0.030 C 
BRANCH   9  14
ATOM     14  C   UNL A   1      31.758  23.812  23.197  1.00  0.00     0.228 C 
ATOM     15  N   UNL A   1      31.403  24.936  22.530  1.00  0.00    -0.326 N 
ATOM     16  H   UNL A   1      30.673  24.764  21.894  1.00  0.00     0.169 HD
ATOM     17  O   UNL A   1      30.940  22.886  23.112  1.00  0.00    -0.274 OA
BRANCH  15  18
ATOM     18  C   UNL A   1      31.800  26.284  22.508  1.00  0.00     0.044 A 
ATOM     19  C   UNL A   1      29.554  26.798  23.538  1.00  0.00     0.047 C 
ATOM     20  C   UNL A   1      30.949  27.228  23.152  1.00  0.00    -0.015 A 
ATOM     21  C   UNL A   1      31.398  28.557  23.337  1.00  0.00     0.045 A 
ATOM     22  C   UNL A   1      33.011  26.706  21.958  1.00  0.00     0.026 A 
ATOM     23  C   UNL A   1      32.612  28.951  22.749  1.00  0.00     0.014 A 
ATOM     24  C   UNL A   1      33.399  28.041  22.047  1.00  0.00     0.003 A 
BRANCH  21  25
ATOM     25  C   UNL A   1      30.598  29.660  23.955  1.00  0.00     0.254 C 
ATOM     26  O   UNL A   1      30.920  30.028  25.086  1.00  0.00    -0.269 OA
ATOM     27  N   UNL A   1      29.560  30.285  23.272  1.00  0.00    -0.334 N 
ATOM     28  C   UNL A   1      28.602  29.644  22.366  1.00  0.00     0.148 C 
ATOM     29  C   UNL A   1      29.151  31.613  23.730  1.00  0.00     0.148 C 
ATOM     30  C   UNL A   1      28.143  30.607  21.254  1.00  0.00     0.181 C 
ATOM     31  C   UNL A   1      28.777  32.489  22.533  1.00  0.00     0.181 C 
ATOM     32  O   UNL A   1      27.719  31.875  21.776  1.00  0.00    -0.378 OA
ENDBRANCH  21  25
ENDBRANCH  15  18
ENDBRANCH   9  14
ENDBRANCH   5   8
ENDBRANCH   3   4
ENDBRANCH   2   3
ENDBRANCH   1   2
BRANCH   1  33
ATOM     33  C   UNL A   1      33.657  30.096  27.533  1.00  0.00     0.002 C 
BRANCH  33  34
ATOM     34  C   UNL A   1      34.424  31.198  28.265  1.00  0.00     0.021 C 
BRANCH  34  35
ATOM     35  C   UNL A   1      34.264  32.584  27.655  1.00  0.00     0.116 C 
BRANCH  35  36
ATOM     36  N   UNL A   1      33.619  33.553  28.519  1.00  0.00    -0.352 N 
ATOM     37  C   UNL A   1      34.030  34.054  29.757  1.00  0.00     0.251 C 
ATOM     38  H   UNL A   1      32.765  33.911  28.184  1.00  0.00     0.163 HD
ATOM     39  O   UNL A   1      33.292  34.764  30.403  1.00  0.00    -0.269 OA
BRANCH  37  40
ATOM     40  C   UNL A   1      35.411  33.773  30.229  1.00  0.00     0.039 A 
ATOM     41  C   UNL A   1      36.485  34.186  29.426  1.00  0.00     0.014 A 
ATOM     42  C   UNL A   1      35.644  32.990  31.350  1.00  0.00     0.014 A 
ATOM     43  C   UNL A   1      37.755  33.640  29.632  1.00  0.00     0.010 A 
ATOM     44  C   UNL A   1      36.864  32.366  31.487  1.00  0.00     0.010 A 
ATOM     45  C   UNL A   1      37.912  32.659  30.606  1.00  0.00    -0.014 A 
BRANCH  45  46
ATOM     46  C   UNL A   1      39.088  31.813  30.774  1.00  0.00     0.031 A 
ATOM     47  C   UNL A   1      39.118  30.455  30.187  1.00  0.00     0.074 A 
ATOM     48  C   UNL A   1      40.229  32.366  31.239  1.00  0.00     0.049 A 
ATOM     49  N   UNL A   1      40.061  29.598  30.378  1.00  0.00    -0.248 NA
ATOM     50  C   UNL A   1      38.038  29.933  29.358  1.00  0.00     0.031 C 
ATOM     51  C   UNL A   1      41.592  31.888  31.028  1.00  0.00     0.029 A 
ATOM     52  N   UNL A   1      40.355  33.358  32.209  1.00  0.00    -0.354 N 
ATOM     53  C   UNL A   1      39.873  28.550  29.507  1.00  0.00     0.074 A 
ATOM     54  C   UNL A   1      38.560  28.772  28.951  1.00  0.00     0.031 C 
ATOM     55  C   UNL A   1      42.385  32.394  31.984  1.00  0.00     0.029 A 
ATOM     56  C   UNL A   1      41.523  33.059  32.943  1.00  0.00     0.049 A 
ATOM     57  H   UNL A   1      39.747  34.117  32.354  1.00  0.00     0.167 HD
ATOM     58  C   UNL A   1      40.906  27.687  29.287  1.00  0.00     0.034 A 
ATOM     59  C   UNL A   1      41.452  32.752  34.273  1.00  0.00     0.034 A 
ATOM     60  C   UNL A   1      42.030  27.959  30.189  1.00  0.00     0.049 A 
ATOM     61  C   UNL A   1      41.948  31.364  34.635  1.00  0.00     0.074 A 
ATOM     62  C   UNL A   1      43.266  28.570  30.064  1.00  0.00     0.029 A 
ATOM     63  N   UNL A   1      41.840  27.761  31.543  1.00  0.00    -0.354 N 
ATOM     64  N   UNL A   1      42.341  30.472  33.769  1.00  0.00    -0.248 NA
ATOM     65  C   UNL A   1      41.952  30.842  36.004  1.00  0.00     0.031 C 
ATOM     66  C   UNL A   1      43.804  28.747  31.374  1.00  0.00     0.029 A 
ATOM     67  C   UNL A   1      42.904  28.225  32.285  1.00  0.00     0.049 A 
ATOM     68  H   UNL A   1      41.040  27.338  31.931  1.00  0.00     0.167 HD
ATOM     69  C   UNL A   1      42.548  29.276  34.407  1.00  0.00     0.074 A 
ATOM     70  C   UNL A   1      42.315  29.562  35.810  1.00  0.00     0.031 C 
ATOM     71  C   UNL A   1      42.831  28.123  33.733  1.00  0.00     0.034 A 
BRANCH  58  72
ATOM     72  C   UNL A   1      41.023  26.694  28.149  1.00  0.00     0.023 A 
ATOM     73  C   UNL A   1      41.355  25.357  28.465  1.00  0.00     0.031 A 
ATOM     74  C   UNL A   1      40.878  26.957  26.773  1.00  0.00     0.131 A 
ATOM     75  C   UNL A   1      41.607  24.397  27.469  1.00  0.00     0.055 A 
ATOM     76  C   UNL A   1      41.157  26.010  25.777  1.00  0.00     0.041 A 
ATOM     77  F   UNL A   1      40.415  28.120  26.310  1.00  0.00    -0.206 F 
ATOM     78  C   UNL A   1      41.535  24.725  26.121  1.00  0.00     0.022 A 
BRANCH  75  79
ATOM     79  S   UNL A   1      42.056  22.715  27.967  1.00  0.00     0.124 S 
ATOM     80  O   UNL A   1      42.952  22.304  26.892  1.00  0.00    -0.237 OA
ATOM     81  O   UNL A   1      42.668  22.934  29.273  1.00  0.00    -0.237 OA
ATOM     82  O   UNL A   1      40.771  22.017  27.997  1.00  0.00    -0.744 OA
ENDBRANCH  75  79
ENDBRANCH  58  72
BRANCH  59  83
ATOM     83  C   UNL A   1      40.334  33.469  34.955  1.00  0.00     0.023 A 
ATOM     84  C   UNL A   1      39.374  32.683  35.626  1.00  0.00     0.031 A 
ATOM     85  C   UNL A   1      40.452  34.820  35.315  1.00  0.00     0.131 A 
ATOM     86  C   UNL A   1      38.684  33.207  36.727  1.00  0.00     0.055 A 
ATOM     87  C   UNL A   1      39.714  35.354  36.376  1.00  0.00     0.041 A 
ATOM     88  F   UNL A   1      41.375  35.604  34.739  1.00  0.00    -0.206 F 
ATOM     89  C   UNL A   1      38.859  34.536  37.117  1.00  0.00     0.022 A 
BRANCH  86  90
ATOM     90  S   UNL A   1      37.767  32.058  37.796  1.00  0.00     0.124 S 
ATOM     91  O   UNL A   1      36.474  32.722  37.916  1.00  0.00    -0.237 OA
ATOM     92  O   UNL A   1      37.781  30.822  37.017  1.00  0.00    -0.237 OA
ATOM     93  O   UNL A   1      38.568  32.016  39.018  1.00  0.00    -0.744 OA
ENDBRANCH  86  90
ENDBRANCH  59  83
BRANCH  71  94
ATOM     94  C   UNL A   1      43.014  26.787  34.401  1.00  0.00     0.023 A 
ATOM     95  C   UNL A   1      44.272  26.176  34.509  1.00  0.00     0.031 A 
ATOM     96  C   UNL A   1      41.910  26.041  34.876  1.00  0.00     0.131 A 
ATOM     97  C   UNL A   1      44.401  24.909  35.107  1.00  0.00     0.055 A 
ATOM     98  C   UNL A   1      42.032  24.747  35.386  1.00  0.00     0.041 A 
ATOM     99  F   UNL A   1      40.672  26.559  34.913  1.00  0.00    -0.206 F 
ATOM    100  C   UNL A   1      43.286  24.175  35.512  1.00  0.00     0.022 A 
BRANCH  97 101
ATOM    101  S   UNL A   1      46.063  24.262  35.421  1.00  0.00     0.124 S 
ATOM    102  O   UNL A   1      46.315  23.437  34.246  1.00  0.00    -0.237 OA
ATOM    103  O   UNL A   1      46.844  25.494  35.512  1.00  0.00    -0.237 OA
ATOM    104  O   UNL A   1      45.919  23.530  36.677  1.00  0.00    -0.744 OA
ENDBRANCH  97 101
ENDBRANCH  71  94
ENDBRANCH  45  46
ENDBRANCH  37  40
ENDBRANCH  35  36
ENDBRANCH  34  35
ENDBRANCH  33  34
ENDBRANCH   1  33
TORSDOF 19
ENDMDL
MODEL 2
REMARK VINA RESULT:     -13.1      2.121      4.574
REMARK SMILES Cc1c(NC(=O)[C@@H]2CC=CC[C@@H]2C(=O)NCCCCCCNC(=O)c2ccc(-c3c4nc(c(-c5cc(S(=O)(=O)[O-])ccc5F)c5ccc([nH]5)c(-c5cc(S(=O)(=O)[O-])ccc5F)c5nc(c(-c6cc(S(=O)(=O)[O-])ccc6F)c6ccc3[nH]6)C=C5)C=C4)cc2)cccc1C(=O)N1CCOCC1
REMARK SMILES IDX 18 1 17 2 16 3 15 4 13 5 14 6 12 8 7 9 8 10 9 11 11 12 10 13
REMARK SMILES IDX 5 14 4 15 6 17 3 18 1 19 2 20 91 21 88 22 90 23 89 24 92 25
REMARK SMILES IDX 93 26 94 27 95 28 99 29 96 30 98 31 97 32 19 33 20 34 21 35
REMARK SMILES IDX 22 36 23 37 24 39 25 40 26 41 87 42 27 43 86 44 28 45 29 46
REMARK SMILES IDX 30 47 80 48 31 49 85 50 79 51 81 52 32 53 84 54 78 55 77 56
REMARK SMILES IDX 33 58 65 59 45 60 64 61 46 62 49 63 63 64 82 65 47 66 48 67
REMARK SMILES IDX 62 69 83 70 50 71 34 72 35 73 43 74 36 75 42 76 44 77 41 78
REMARK SMILES IDX 37 79 38 80 39 81 40 82 66 83 67 84 75 85 68 86 74 87 76 88
REMARK SMILES IDX 73 89 69 90 70 91 71 92 72 93 51 94 52 95 60 96 53 97 59 98
REMARK SMILES IDX 61 99 58 100 54 101 55 102 56 103 57 104
REMARK H PARENT 15 7 4 16 22 38 81 57 49 68
REMARK Flexibility Score: inf
ROOT
ATOM      1  C   UNL A   1      35.746  30.895  27.789  1.00  0.00     0.002 C 
ENDROOT
BRANCH   1   2
ATOM      2  C   UNL A   1      35.329  29.420  27.745  1.00  0.00     0.021 C 
BRANCH   2   3
ATOM      3  C   UNL A   1      33.954  29.143  27.136  1.00  0.00     0.116 C 
BRANCH   3   4
ATOM      4  N   UNL A   1      33.983  29.119  25.687  1.00  0.00    -0.356 N 
ATOM      5  C   UNL A   1      33.105  28.870  24.692  1.00  0.00     0.224 C 
ATOM      6  O   UNL A   1      33.554  29.130  23.562  1.00  0.00    -0.275 OA
ATOM      7  H   UNL A   1      34.876  29.340  25.337  1.00  0.00     0.163 HD
BRANCH   5   8
ATOM      8  C   UNL A   1      31.635  28.395  24.793  1.00  0.00     0.095 C 
ATOM      9  C   UNL A   1      31.217  26.907  24.735  1.00  0.00     0.095 C 
ATOM     10  C   UNL A   1      31.649  26.295  23.393  1.00  0.00     0.041 C 
ATOM     11  C   UNL A   1      31.199  27.146  22.235  1.00  0.00    -0.030 C 
ATOM     12  C   UNL A   1      30.816  29.140  23.699  1.00  0.00     0.041 C 
ATOM     13  C   UNL A   1      30.799  28.417  22.378  1.00  0.00    -0.030 C 
BRANCH   9  14
ATOM     14  C   UNL A   1      31.572  26.195  26.033  1.00  0.00     0.228 C 
ATOM     15  N   UNL A   1      32.480  25.197  26.147  1.00  0.00    -0.326 N 
ATOM     16  H   UNL A   1      32.741  25.051  27.085  1.00  0.00     0.169 HD
ATOM     17  O   UNL A   1      31.032  26.521  27.099  1.00  0.00    -0.274 OA
BRANCH  15  18
ATOM     18  C   UNL A   1      33.149  24.316  25.282  1.00  0.00     0.044 A 
ATOM     19  C   UNL A   1      31.073  22.885  25.394  1.00  0.00     0.047 C 
ATOM     20  C   UNL A   1      32.403  23.217  24.763  1.00  0.00    -0.015 A 
ATOM     21  C   UNL A   1      32.961  22.421  23.735  1.00  0.00     0.045 A 
ATOM     22  C   UNL A   1      34.463  24.521  24.860  1.00  0.00     0.026 A 
ATOM     23  C   UNL A   1      34.295  22.643  23.354  1.00  0.00     0.014 A 
ATOM     24  C   UNL A   1      35.046  23.666  23.927  1.00  0.00     0.003 A 
BRANCH  21  25
ATOM     25  C   UNL A   1      32.313  21.216  23.129  1.00  0.00     0.254 C 
ATOM     26  O   UNL A   1      31.668  21.382  22.092  1.00  0.00    -0.269 OA
ATOM     27  N   UNL A   1      32.465  19.948  23.678  1.00  0.00    -0.334 N 
ATOM     28  C   UNL A   1      32.519  19.616  25.105  1.00  0.00     0.148 C 
ATOM     29  C   UNL A   1      32.212  18.798  22.808  1.00  0.00     0.148 C 
ATOM     30  C   UNL A   1      33.412  18.388  25.368  1.00  0.00     0.181 C 
ATOM     31  C   UNL A   1      33.197  17.672  23.127  1.00  0.00     0.181 C 
ATOM     32  O   UNL A   1      33.084  17.286  24.507  1.00  0.00    -0.378 OA
ENDBRANCH  21  25
ENDBRANCH  15  18
ENDBRANCH   9  14
ENDBRANCH   5   8
ENDBRANCH   3   4
ENDBRANCH   2   3
ENDBRANCH   1   2
BRANCH   1  33
ATOM     33  C   UNL A   1      34.621  31.926  27.975  1.00  0.00     0.002 C 
BRANCH  33  34
ATOM     34  C   UNL A   1      34.443  32.494  29.384  1.00  0.00     0.021 C 
BRANCH  34  35
ATOM     35  C   UNL A   1      34.208  33.998  29.429  1.00  0.00     0.116 C 
BRANCH  35  36
ATOM     36  N   UNL A   1      33.487  34.461  30.598  1.00  0.00    -0.352 N 
ATOM     37  C   UNL A   1      33.855  34.421  31.944  1.00  0.00     0.251 C 
ATOM     38  H   UNL A   1      32.607  34.863  30.415  1.00  0.00     0.163 HD
ATOM     39  O   UNL A   1      33.061  34.735  32.804  1.00  0.00    -0.269 OA
BRANCH  37  40
ATOM     40  C   UNL A   1      35.254  34.069  32.302  1.00  0.00     0.039 A 
ATOM     41  C   UNL A   1      36.296  34.692  31.599  1.00  0.00     0.014 A 
ATOM     42  C   UNL A   1      35.534  33.043  33.193  1.00  0.00     0.014 A 
ATOM     43  C   UNL A   1      37.582  34.146  31.637  1.00  0.00     0.010 A 
ATOM     44  C   UNL A   1      36.769  32.436  33.145  1.00  0.00     0.010 A 
ATOM     45  C   UNL A   1      37.786  32.961  32.339  1.00  0.00    -0.014 A 
BRANCH  45  46
ATOM     46  C   UNL A   1      38.982  32.131  32.268  1.00  0.00     0.031 A 
ATOM     47  C   UNL A   1      38.938  30.819  31.584  1.00  0.00     0.074 A 
ATOM     48  C   UNL A   1      40.174  32.672  32.599  1.00  0.00     0.049 A 
ATOM     49  N   UNL A   1      39.908  29.971  31.570  1.00  0.00    -0.248 NA
ATOM     50  C   UNL A   1      37.753  30.336  30.887  1.00  0.00     0.031 C 
ATOM     51  C   UNL A   1      41.495  32.240  32.155  1.00  0.00     0.029 A 
ATOM     52  N   UNL A   1      40.432  33.594  33.611  1.00  0.00    -0.354 N 
ATOM     53  C   UNL A   1      39.604  28.985  30.660  1.00  0.00     0.074 A 
ATOM     54  C   UNL A   1      38.220  29.218  30.322  1.00  0.00     0.031 C 
ATOM     55  C   UNL A   1      42.416  32.692  33.019  1.00  0.00     0.029 A 
ATOM     56  C   UNL A   1      41.700  33.268  34.141  1.00  0.00     0.049 A 
ATOM     57  H   UNL A   1      39.845  34.328  33.901  1.00  0.00     0.167 HD
ATOM     58  C   UNL A   1      40.601  28.161  30.227  1.00  0.00     0.034 A 
ATOM     59  C   UNL A   1      41.830  32.865  35.441  1.00  0.00     0.034 A 
ATOM     60  C   UNL A   1      41.844  28.391  30.971  1.00  0.00     0.049 A 
ATOM     61  C   UNL A   1      42.388  31.465  35.622  1.00  0.00     0.074 A 
ATOM     62  C   UNL A   1      43.041  29.036  30.711  1.00  0.00     0.029 A 
ATOM     63  N   UNL A   1      41.859  28.092  32.319  1.00  0.00    -0.354 N 
ATOM     64  N   UNL A   1      42.658  30.646  34.643  1.00  0.00    -0.248 NA
ATOM     65  C   UNL A   1      42.600  30.846  36.932  1.00  0.00     0.031 C 
ATOM     66  C   UNL A   1      43.766  29.129  31.937  1.00  0.00     0.029 A 
ATOM     67  C   UNL A   1      43.016  28.524  32.929  1.00  0.00     0.049 A 
ATOM     68  H   UNL A   1      41.130  27.625  32.789  1.00  0.00     0.167 HD
ATOM     69  C   UNL A   1      42.969  29.412  35.153  1.00  0.00     0.074 A 
ATOM     70  C   UNL A   1      42.944  29.591  36.592  1.00  0.00     0.031 C 
ATOM     71  C   UNL A   1      43.161  28.316  34.361  1.00  0.00     0.034 A 
BRANCH  58  72
ATOM     72  C   UNL A   1      40.557  27.255  29.014  1.00  0.00     0.023 A 
ATOM     73  C   UNL A   1      41.490  27.487  27.977  1.00  0.00     0.031 A 
ATOM     74  C   UNL A   1      39.647  26.209  28.767  1.00  0.00     0.131 A 
ATOM     75  C   UNL A   1      41.444  26.779  26.763  1.00  0.00     0.055 A 
ATOM     76  C   UNL A   1      39.580  25.522  27.546  1.00  0.00     0.041 A 
ATOM     77  F   UNL A   1      38.806  25.755  29.698  1.00  0.00    -0.206 F 
ATOM     78  C   UNL A   1      40.474  25.813  26.530  1.00  0.00     0.022 A 
BRANCH  75  79
ATOM     79  S   UNL A   1      42.662  27.164  25.478  1.00  0.00     0.124 S 
ATOM     80  O   UNL A   1      43.881  27.351  26.257  1.00  0.00    -0.237 OA
ATOM     81  O   UNL A   1      42.606  25.974  24.636  1.00  0.00    -0.237 OA
ATOM     82  O   UNL A   1      42.131  28.380  24.863  1.00  0.00    -0.744 OA
ENDBRANCH  75  79
ENDBRANCH  58  72
BRANCH  59  83
ATOM     83  C   UNL A   1      40.819  33.507  36.331  1.00  0.00     0.023 A 
ATOM     84  C   UNL A   1      39.610  32.812  36.546  1.00  0.00     0.031 A 
ATOM     85  C   UNL A   1      41.192  34.490  37.260  1.00  0.00     0.131 A 
ATOM     86  C   UNL A   1      38.900  32.993  37.741  1.00  0.00     0.055 A 
ATOM     87  C   UNL A   1      40.444  34.709  38.422  1.00  0.00     0.041 A 
ATOM     88  F   UNL A   1      42.349  35.153  37.128  1.00  0.00    -0.206 F 
ATOM     89  C   UNL A   1      39.318  33.928  38.689  1.00  0.00     0.022 A 
BRANCH  86  90
ATOM     90  S   UNL A   1      37.587  31.804  38.151  1.00  0.00     0.124 S 
ATOM     91  O   UNL A   1      36.386  32.617  37.999  1.00  0.00    -0.237 OA
ATOM     92  O   UNL A   1      37.783  30.758  37.149  1.00  0.00    -0.237 OA
ATOM     93  O   UNL A   1      37.906  31.403  39.519  1.00  0.00    -0.744 OA
ENDBRANCH  86  90
ENDBRANCH  59  83
BRANCH  71  94
ATOM     94  C   UNL A   1      43.455  26.940  34.893  1.00  0.00     0.023 A 
ATOM     95  C   UNL A   1      44.723  26.353  34.777  1.00  0.00     0.031 A 
ATOM     96  C   UNL A   1      42.439  26.135  35.461  1.00  0.00     0.131 A 
ATOM     97  C   UNL A   1      44.953  25.049  35.253  1.00  0.00     0.055 A 
ATOM     98  C   UNL A   1      42.649  24.810  35.849  1.00  0.00     0.041 A 
ATOM     99  F   UNL A   1      41.212  26.619  35.709  1.00  0.00    -0.206 F 
ATOM    100  C   UNL A   1      43.916  24.261  35.754  1.00  0.00     0.022 A 
BRANCH  97 101
ATOM    101  S   UNL A   1      46.651  24.422  35.282  1.00  0.00     0.124 S 
ATOM    102  O   UNL A   1      47.181  24.871  34.000  1.00  0.00    -0.237 OA
ATOM    103  O   UNL A   1      47.191  25.092  36.463  1.00  0.00    -0.237 OA
ATOM    104  O   UNL A   1      46.485  22.976  35.415  1.00  0.00    -0.744 OA
ENDBRANCH  97 101
ENDBRANCH  71  94
ENDBRANCH  45  46
ENDBRANCH  37  40
ENDBRANCH  35  36
ENDBRANCH  34  35
ENDBRANCH  33  34
ENDBRANCH   1  33
TORSDOF 19
ENDMDL
MODEL 3
REMARK VINA RESULT:     -12.9      2.294      4.783
REMARK SMILES Cc1c(NC(=O)[C@@H]2CC=CC[C@@H]2C(=O)NCCCCCCNC(=O)c2ccc(-c3c4nc(c(-c5cc(S(=O)(=O)[O-])ccc5F)c5ccc([nH]5)c(-c5cc(S(=O)(=O)[O-])ccc5F)c5nc(c(-c6cc(S(=O)(=O)[O-])ccc6F)c6ccc3[nH]6)C=C5)C=C4)cc2)cccc1C(=O)N1CCOCC1
REMARK SMILES IDX 18 1 17 2 16 3 15 4 13 5 14 6 12 8 7 9 8 10 9 11 11 12 10 13
REMARK SMILES IDX 5 14 4 15 6 17 3 18 1 19 2 20 91 21 88 22 90 23 89 24 92 25
REMARK SMILES IDX 93 26 94 27 95 28 99 29 96 30 98 31 97 32 19 33 20 34 21 35
REMARK SMILES IDX 22 36 23 37 24 39 25 40 26 41 87 42 27 43 86 44 28 45 29 46
REMARK SMILES IDX 30 47 80 48 31 49 85 50 79 51 81 52 32 53 84 54 78 55 77 56
REMARK SMILES IDX 33 58 65 59 45 60 64 61 46 62 49 63 63 64 82 65 47 66 48 67
REMARK SMILES IDX 62 69 83 70 50 71 34 72 35 73 43 74 36 75 42 76 44 77 41 78
REMARK SMILES IDX 37 79 38 80 39 81 40 82 66 83 67 84 75 85 68 86 74 87 76 88
REMARK SMILES IDX 73 89 69 90 70 91 71 92 72 93 51 94 52 95 60 96 53 97 59 98
REMARK SMILES IDX 61 99 58 100 54 101 55 102 56 103 57 104
REMARK H PARENT 15 7 4 16 22 38 81 57 49 68
REMARK Flexibility Score: inf
ROOT
ATOM      1  C   UNL A   1      35.439  29.796  28.094  1.00  0.00     0.002 C 
ENDROOT
BRANCH   1   2
ATOM      2  C   UNL A   1      34.998  28.816  27.001  1.00  0.00     0.021 C 
BRANCH   2   3
ATOM      3  C   UNL A   1      33.837  29.288  26.123  1.00  0.00     0.116 C 
BRANCH   3   4
ATOM      4  N   UNL A   1      34.031  28.964  24.724  1.00  0.00    -0.356 N 
ATOM      5  C   UNL A   1      33.777  27.913  23.915  1.00  0.00     0.224 C 
ATOM      6  O   UNL A   1      33.982  28.155  22.713  1.00  0.00    -0.275 OA
ATOM      7  H   UNL A   1      34.461  29.704  24.236  1.00  0.00     0.163 HD
BRANCH   5   8
ATOM      8  C   UNL A   1      33.207  26.523  24.284  1.00  0.00     0.095 C 
ATOM      9  C   UNL A   1      32.363  25.665  23.313  1.00  0.00     0.095 C 
ATOM     10  C   UNL A   1      31.088  26.427  22.915  1.00  0.00     0.041 C 
ATOM     11  C   UNL A   1      30.363  26.946  24.128  1.00  0.00    -0.030 C 
ATOM     12  C   UNL A   1      32.376  26.679  25.591  1.00  0.00     0.041 C 
ATOM     13  C   UNL A   1      30.935  27.034  25.337  1.00  0.00    -0.030 C 
BRANCH   9  14
ATOM     14  C   UNL A   1      33.240  25.054  22.229  1.00  0.00     0.228 C 
ATOM     15  N   UNL A   1      34.063  23.993  22.404  1.00  0.00    -0.326 N 
ATOM     16  H   UNL A   1      34.341  23.605  21.543  1.00  0.00     0.169 HD
ATOM     17  O   UNL A   1      33.231  25.510  21.077  1.00  0.00    -0.274 OA
BRANCH  15  18
ATOM     18  C   UNL A   1      34.625  23.300  23.489  1.00  0.00     0.044 A 
ATOM     19  C   UNL A   1      32.406  22.112  23.673  1.00  0.00     0.047 C 
ATOM     20  C   UNL A   1      33.863  22.234  24.050  1.00  0.00    -0.015 A 
ATOM     21  C   UNL A   1      34.462  21.377  25.003  1.00  0.00     0.045 A 
ATOM     22  C   UNL A   1      35.908  23.561  23.971  1.00  0.00     0.026 A 
ATOM     23  C   UNL A   1      35.746  21.686  25.482  1.00  0.00     0.014 A 
ATOM     24  C   UNL A   1      36.453  22.780  24.988  1.00  0.00     0.003 A 
BRANCH  21  25
ATOM     25  C   UNL A   1      33.770  20.250  25.705  1.00  0.00     0.254 C 
ATOM     26  O   UNL A   1      33.216  20.506  26.775  1.00  0.00    -0.269 OA
ATOM     27  N   UNL A   1      33.707  18.974  25.157  1.00  0.00    -0.334 N 
ATOM     28  C   UNL A   1      34.764  18.296  24.399  1.00  0.00     0.148 C 
ATOM     29  C   UNL A   1      32.656  18.079  25.643  1.00  0.00     0.148 C 
ATOM     30  C   UNL A   1      34.179  17.339  23.343  1.00  0.00     0.181 C 
ATOM     31  C   UNL A   1      32.119  17.226  24.493  1.00  0.00     0.181 C 
ATOM     32  O   UNL A   1      33.183  16.465  23.896  1.00  0.00    -0.378 OA
ENDBRANCH  21  25
ENDBRANCH  15  18
ENDBRANCH   9  14
ENDBRANCH   5   8
ENDBRANCH   3   4
ENDBRANCH   2   3
ENDBRANCH   1   2
BRANCH   1  33
ATOM     33  C   UNL A   1      35.958  31.166  27.627  1.00  0.00     0.002 C 
BRANCH  33  34
ATOM     34  C   UNL A   1      35.174  32.390  28.105  1.00  0.00     0.021 C 
BRANCH  34  35
ATOM     35  C   UNL A   1      34.495  32.211  29.456  1.00  0.00     0.116 C 
BRANCH  35  36
ATOM     36  N   UNL A   1      34.121  33.449  30.111  1.00  0.00    -0.352 N 
ATOM     37  C   UNL A   1      34.777  34.153  31.124  1.00  0.00     0.251 C 
ATOM     38  H   UNL A   1      33.281  33.854  29.795  1.00  0.00     0.163 HD
ATOM     39  O   UNL A   1      34.244  35.107  31.647  1.00  0.00    -0.269 OA
BRANCH  37  40
ATOM     40  C   UNL A   1      36.164  33.767  31.492  1.00  0.00     0.039 A 
ATOM     41  C   UNL A   1      37.215  34.205  30.672  1.00  0.00     0.014 A 
ATOM     42  C   UNL A   1      36.415  32.873  32.523  1.00  0.00     0.014 A 
ATOM     43  C   UNL A   1      38.465  33.586  30.757  1.00  0.00     0.010 A 
ATOM     44  C   UNL A   1      37.608  32.185  32.535  1.00  0.00     0.010 A 
ATOM     45  C   UNL A   1      38.623  32.512  31.628  1.00  0.00    -0.014 A 
BRANCH  45  46
ATOM     46  C   UNL A   1      39.762  31.603  31.653  1.00  0.00     0.031 A 
ATOM     47  C   UNL A   1      39.738  30.357  30.855  1.00  0.00     0.074 A 
ATOM     48  C   UNL A   1      40.923  32.025  32.196  1.00  0.00     0.049 A 
ATOM     49  N   UNL A   1      40.644  29.442  30.902  1.00  0.00    -0.248 NA
ATOM     50  C   UNL A   1      38.640  30.020  29.956  1.00  0.00     0.031 C 
ATOM     51  C   UNL A   1      42.266  31.533  31.907  1.00  0.00     0.029 A 
ATOM     52  N   UNL A   1      41.087  32.842  33.313  1.00  0.00    -0.354 N 
ATOM     53  C   UNL A   1      40.416  28.557  29.873  1.00  0.00     0.074 A 
ATOM     54  C   UNL A   1      39.115  28.920  29.366  1.00  0.00     0.031 C 
ATOM     55  C   UNL A   1      43.076  31.844  32.929  1.00  0.00     0.029 A 
ATOM     56  C   UNL A   1      42.240  32.381  33.986  1.00  0.00     0.049 A 
ATOM     57  H   UNL A   1      40.510  33.593  33.581  1.00  0.00     0.167 HD
ATOM     58  C   UNL A   1      41.413  27.699  29.514  1.00  0.00     0.034 A 
ATOM     59  C   UNL A   1      42.152  31.867  35.250  1.00  0.00     0.034 A 
ATOM     60  C   UNL A   1      42.544  27.775  30.444  1.00  0.00     0.049 A 
ATOM     61  C   UNL A   1      42.589  30.420  35.381  1.00  0.00     0.074 A 
ATOM     62  C   UNL A   1      43.805  28.347  30.415  1.00  0.00     0.029 A 
ATOM     63  N   UNL A   1      42.342  27.369  31.749  1.00  0.00    -0.354 N 
ATOM     64  N   UNL A   1      42.948  29.663  34.381  1.00  0.00    -0.248 NA
ATOM     65  C   UNL A   1      42.567  29.684  36.648  1.00  0.00     0.031 C 
ATOM     66  C   UNL A   1      44.346  28.288  31.734  1.00  0.00     0.029 A 
ATOM     67  C   UNL A   1      43.422  27.663  32.552  1.00  0.00     0.049 A 
ATOM     68  H   UNL A   1      41.524  26.922  32.066  1.00  0.00     0.167 HD
ATOM     69  C   UNL A   1      43.103  28.372  34.817  1.00  0.00     0.074 A 
ATOM     70  C   UNL A   1      42.877  28.438  36.249  1.00  0.00     0.031 C 
ATOM     71  C   UNL A   1      43.340  27.332  33.965  1.00  0.00     0.034 A 
BRANCH  58  72
ATOM     72  C   UNL A   1      41.492  26.898  28.230  1.00  0.00     0.023 A 
ATOM     73  C   UNL A   1      41.833  25.530  28.321  1.00  0.00     0.031 A 
ATOM     74  C   UNL A   1      41.305  27.375  26.919  1.00  0.00     0.131 A 
ATOM     75  C   UNL A   1      42.052  24.740  27.178  1.00  0.00     0.055 A 
ATOM     76  C   UNL A   1      41.550  26.598  25.777  1.00  0.00     0.041 A 
ATOM     77  F   UNL A   1      40.829  28.595  26.659  1.00  0.00    -0.206 F 
ATOM     78  C   UNL A   1      41.938  25.276  25.901  1.00  0.00     0.022 A 
BRANCH  75  79
ATOM     79  S   UNL A   1      42.514  23.002  27.390  1.00  0.00     0.124 S 
ATOM     80  O   UNL A   1      43.970  23.076  27.451  1.00  0.00    -0.237 OA
ATOM     81  O   UNL A   1      41.830  22.651  28.630  1.00  0.00    -0.237 OA
ATOM     82  O   UNL A   1      41.981  22.361  26.188  1.00  0.00    -0.744 OA
ENDBRANCH  75  79
ENDBRANCH  58  72
BRANCH  59  83
ATOM     83  C   UNL A   1      41.062  32.510  36.042  1.00  0.00     0.023 A 
ATOM     84  C   UNL A   1      41.270  33.836  36.474  1.00  0.00     0.031 A 
ATOM     85  C   UNL A   1      39.745  32.031  35.982  1.00  0.00     0.131 A 
ATOM     86  C   UNL A   1      40.175  34.689  36.673  1.00  0.00     0.055 A 
ATOM     87  C   UNL A   1      38.657  32.872  36.244  1.00  0.00     0.041 A 
ATOM     88  F   UNL A   1      39.485  30.792  35.542  1.00  0.00    -0.206 F 
ATOM     89  C   UNL A   1      38.868  34.217  36.546  1.00  0.00     0.022 A 
BRANCH  86  90
ATOM     90  S   UNL A   1      40.490  36.472  36.835  1.00  0.00     0.124 S 
ATOM     91  O   UNL A   1      41.927  36.504  37.082  1.00  0.00    -0.237 OA
ATOM     92  O   UNL A   1      40.052  36.989  35.539  1.00  0.00    -0.237 OA
ATOM     93  O   UNL A   1      39.648  36.865  37.962  1.00  0.00    -0.744 OA
ENDBRANCH  86  90
ENDBRANCH  59  83
BRANCH  71  94
ATOM     94  C   UNL A   1      43.466  25.900  34.409  1.00  0.00     0.023 A 
ATOM     95  C   UNL A   1      44.680  25.201  34.332  1.00  0.00     0.031 A 
ATOM     96  C   UNL A   1      42.342  25.160  34.844  1.00  0.00     0.131 A 
ATOM     97  C   UNL A   1      44.753  23.851  34.720  1.00  0.00     0.055 A 
ATOM     98  C   UNL A   1      42.399  23.797  35.142  1.00  0.00     0.041 A 
ATOM     99  F   UNL A   1      41.150  25.742  35.047  1.00  0.00    -0.206 F 
ATOM    100  C   UNL A   1      43.614  23.134  35.089  1.00  0.00     0.022 A 
BRANCH  97 101
ATOM    101  S   UNL A   1      46.379  23.061  34.812  1.00  0.00     0.124 S 
ATOM    102  O   UNL A   1      47.234  24.000  34.096  1.00  0.00    -0.237 OA
ATOM    103  O   UNL A   1      46.587  22.986  36.257  1.00  0.00    -0.237 OA
ATOM    104  O   UNL A   1      46.178  21.773  34.151  1.00  0.00    -0.744 OA
ENDBRANCH  97 101
ENDBRANCH  71  94
ENDBRANCH  45  46
ENDBRANCH  37  40
ENDBRANCH  35  36
ENDBRANCH  34  35
ENDBRANCH  33  34
ENDBRANCH   1  33
TORSDOF 19
ENDMDL
