MODEL 1
REMARK VINA RESULT:     -10.2      0.000      0.000
REMARK SMILES COc1cccc(-c2ccc(C#N)c(SCC(=O)NCCCCCCNC(=O)c3ccc(-c4c5nc(c(-c6cc(S(=O)(=O)[O-])ccc6F)c6ccc([nH]6)c(-c6cc(S(=O)(=O)[O-])ccc6F)c6nc(c(-c7cc(S(=O)(=O)[O-])ccc7F)c7ccc4[nH]7)C=C6)C=C5)cc3)n2)c1
REMARK SMILES IDX 22 1 21 2 20 3 19 4 17 5 18 6 16 8 15 9 14 10 8 11 9 12
REMARK SMILES IDX 92 13 10 14 11 15 7 16 3 17 4 18 93 19 5 20 6 21 2 22 1 23
REMARK SMILES IDX 12 24 13 25 23 26 24 27 25 28 26 29 27 30 28 32 29 33 30 34
REMARK SMILES IDX 91 35 31 36 90 37 32 38 33 39 34 40 84 41 35 42 89 43 83 44
REMARK SMILES IDX 85 45 36 46 88 47 82 48 81 49 37 51 69 52 49 53 68 54 50 55
REMARK SMILES IDX 53 56 67 57 86 58 51 59 52 60 66 62 87 63 54 64 38 65 39 66
REMARK SMILES IDX 47 67 40 68 46 69 48 70 45 71 41 72 42 73 43 74 44 75 70 76
REMARK SMILES IDX 71 77 79 78 72 79 78 80 80 81 77 82 73 83 74 84 75 85 76 86
REMARK SMILES IDX 55 87 56 88 64 89 57 90 63 91 65 92 62 93 58 94 59 95 60 96
REMARK SMILES IDX 61 97
REMARK H PARENT 19 7 26 31 85 50 53 61
REMARK Flexibility Score: inf
ROOT
ATOM      1  C   UNL A   1      35.712  32.148  28.304  1.00  0.00     0.002 C 
ENDROOT
BRANCH   1   2
ATOM      2  C   UNL A   1      34.807  30.915  28.449  1.00  0.00     0.021 C 
BRANCH   2   3
ATOM      3  C   UNL A   1      35.000  29.869  27.350  1.00  0.00     0.116 C 
BRANCH   3   4
ATOM      4  N   UNL A   1      34.044  30.086  26.286  1.00  0.00    -0.355 N 
ATOM      5  C   UNL A   1      33.071  29.271  25.811  1.00  0.00     0.230 C 
ATOM      6  O   UNL A   1      32.503  29.627  24.776  1.00  0.00    -0.274 OA
ATOM      7  H   UNL A   1      34.109  30.962  25.840  1.00  0.00     0.163 HD
BRANCH   5   8
ATOM      8  C   UNL A   1      32.639  28.035  26.571  1.00  0.00     0.176 C 
BRANCH   8   9
ATOM      9  S   UNL A   1      31.330  27.036  25.799  1.00  0.00    -0.095 SA
BRANCH   9  10
ATOM     10  C   UNL A   1      31.993  26.216  24.363  1.00  0.00     0.115 A 
ATOM     11  C   UNL A   1      33.315  24.335  23.820  1.00  0.00     0.072 A 
ATOM     12  C   UNL A   1      33.180  24.593  22.464  1.00  0.00     0.030 A 
ATOM     13  N   UNL A   1      32.751  25.141  24.751  1.00  0.00    -0.240 NA
ATOM     14  C   UNL A   1      32.404  25.670  22.062  1.00  0.00     0.024 A 
ATOM     15  C   UNL A   1      31.761  26.475  23.013  1.00  0.00     0.084 A 
BRANCH  11  16
ATOM     16  C   UNL A   1      34.027  23.132  24.279  1.00  0.00     0.004 A 
ATOM     17  C   UNL A   1      36.114  21.867  24.438  1.00  0.00     0.119 A 
ATOM     18  C   UNL A   1      35.400  20.729  24.804  1.00  0.00     0.046 A 
ATOM     19  C   UNL A   1      35.429  23.056  24.174  1.00  0.00     0.056 A 
ATOM     20  C   UNL A   1      34.015  20.792  24.960  1.00  0.00     0.005 A 
ATOM     21  C   UNL A   1      33.334  21.988  24.709  1.00  0.00     0.010 A 
BRANCH  17  22
ATOM     22  O   UNL A   1      37.463  21.706  24.274  1.00  0.00    -0.497 OA
ATOM     23  C   UNL A   1      38.139  21.157  25.402  1.00  0.00     0.278 C 
ENDBRANCH  17  22
ENDBRANCH  11  16
BRANCH  15  24
ATOM     24  C   UNL A   1      30.811  27.410  22.507  1.00  0.00     0.102 C 
ATOM     25  N   UNL A   1      30.111  28.202  22.023  1.00  0.00    -0.192 NA
ENDBRANCH  15  24
ENDBRANCH   9  10
ENDBRANCH   8   9
ENDBRANCH   5   8
ENDBRANCH   3   4
ENDBRANCH   2   3
ENDBRANCH   1   2
BRANCH   1  26
ATOM     26  C   UNL A   1      35.027  33.387  27.718  1.00  0.00     0.002 C 
BRANCH  26  27
ATOM     27  C   UNL A   1      33.776  33.839  28.474  1.00  0.00     0.021 C 
BRANCH  27  28
ATOM     28  C   UNL A   1      33.745  35.328  28.794  1.00  0.00     0.116 C 
BRANCH  28  29
ATOM     29  N   UNL A   1      33.091  35.592  30.064  1.00  0.00    -0.352 N 
ATOM     30  C   UNL A   1      33.329  35.033  31.295  1.00  0.00     0.251 C 
ATOM     31  H   UNL A   1      32.376  36.268  30.039  1.00  0.00     0.163 HD
ATOM     32  O   UNL A   1      32.523  35.200  32.205  1.00  0.00    -0.269 OA
BRANCH  30  33
ATOM     33  C   UNL A   1      34.541  34.212  31.506  1.00  0.00     0.039 A 
ATOM     34  C   UNL A   1      35.791  34.784  31.267  1.00  0.00     0.014 A 
ATOM     35  C   UNL A   1      34.447  32.888  31.947  1.00  0.00     0.014 A 
ATOM     36  C   UNL A   1      36.947  34.046  31.528  1.00  0.00     0.010 A 
ATOM     37  C   UNL A   1      35.599  32.187  32.291  1.00  0.00     0.010 A 
ATOM     38  C   UNL A   1      36.863  32.757  32.084  1.00  0.00    -0.014 A 
BRANCH  38  39
ATOM     39  C   UNL A   1      38.094  32.017  32.471  1.00  0.00     0.031 A 
ATOM     40  C   UNL A   1      38.805  32.333  33.759  1.00  0.00     0.074 A 
ATOM     41  C   UNL A   1      38.585  31.075  31.641  1.00  0.00     0.049 A 
ATOM     42  N   UNL A   1      39.891  31.797  34.254  1.00  0.00    -0.248 NA
ATOM     43  C   UNL A   1      38.233  33.406  34.587  1.00  0.00     0.031 C 
ATOM     44  C   UNL A   1      38.004  30.709  30.346  1.00  0.00     0.029 A 
ATOM     45  N   UNL A   1      39.674  30.249  31.758  1.00  0.00    -0.354 N 
ATOM     46  C   UNL A   1      40.134  32.464  35.449  1.00  0.00     0.074 A 
ATOM     47  C   UNL A   1      39.120  33.491  35.568  1.00  0.00     0.031 C 
ATOM     48  C   UNL A   1      38.713  29.702  29.815  1.00  0.00     0.029 A 
ATOM     49  C   UNL A   1      39.835  29.391  30.693  1.00  0.00     0.049 A 
ATOM     50  H   UNL A   1      40.283  30.268  32.530  1.00  0.00     0.167 HD
ATOM     51  C   UNL A   1      41.098  32.227  36.373  1.00  0.00     0.034 A 
ATOM     52  C   UNL A   1      40.785  28.468  30.444  1.00  0.00     0.034 A 
ATOM     53  C   UNL A   1      42.107  31.203  36.234  1.00  0.00     0.049 A 
ATOM     54  C   UNL A   1      41.880  28.265  31.461  1.00  0.00     0.074 A 
ATOM     55  C   UNL A   1      43.103  30.849  37.129  1.00  0.00     0.029 A 
ATOM     56  N   UNL A   1      42.263  30.380  35.125  1.00  0.00    -0.354 N 
ATOM     57  N   UNL A   1      42.060  28.866  32.615  1.00  0.00    -0.248 NA
ATOM     58  C   UNL A   1      42.893  27.251  31.145  1.00  0.00     0.031 C 
ATOM     59  C   UNL A   1      43.915  29.885  36.524  1.00  0.00     0.029 A 
ATOM     60  C   UNL A   1      43.367  29.556  35.294  1.00  0.00     0.049 A 
ATOM     61  H   UNL A   1      41.676  30.381  34.334  1.00  0.00     0.167 HD
ATOM     62  C   UNL A   1      43.192  28.279  33.174  1.00  0.00     0.074 A 
ATOM     63  C   UNL A   1      43.632  27.261  32.242  1.00  0.00     0.031 C 
ATOM     64  C   UNL A   1      43.811  28.556  34.351  1.00  0.00     0.034 A 
BRANCH  51  65
ATOM     65  C   UNL A   1      41.126  33.111  37.599  1.00  0.00     0.023 A 
ATOM     66  C   UNL A   1      40.469  32.748  38.789  1.00  0.00     0.031 A 
ATOM     67  C   UNL A   1      41.809  34.339  37.577  1.00  0.00     0.131 A 
ATOM     68  C   UNL A   1      40.446  33.634  39.876  1.00  0.00     0.055 A 
ATOM     69  C   UNL A   1      41.860  35.176  38.694  1.00  0.00     0.041 A 
ATOM     70  F   UNL A   1      42.433  34.755  36.464  1.00  0.00    -0.206 F 
ATOM     71  C   UNL A   1      41.163  34.833  39.848  1.00  0.00     0.022 A 
BRANCH  68  72
ATOM     72  S   UNL A   1      39.337  33.273  41.265  1.00  0.00     0.124 S 
ATOM     73  O   UNL A   1      39.519  31.830  41.419  1.00  0.00    -0.237 OA
ATOM     74  O   UNL A   1      39.884  34.104  42.331  1.00  0.00    -0.237 OA
ATOM     75  O   UNL A   1      38.024  33.677  40.768  1.00  0.00    -0.744 OA
ENDBRANCH  68  72
ENDBRANCH  51  65
BRANCH  52  76
ATOM     76  C   UNL A   1      40.764  27.680  29.177  1.00  0.00     0.023 A 
ATOM     77  C   UNL A   1      41.681  27.936  28.147  1.00  0.00     0.031 A 
ATOM     78  C   UNL A   1      39.785  26.694  28.955  1.00  0.00     0.131 A 
ATOM     79  C   UNL A   1      41.567  27.258  26.923  1.00  0.00     0.055 A 
ATOM     80  C   UNL A   1      39.721  25.971  27.762  1.00  0.00     0.041 A 
ATOM     81  F   UNL A   1      38.878  26.410  29.903  1.00  0.00    -0.206 F 
ATOM     82  C   UNL A   1      40.606  26.263  26.732  1.00  0.00     0.022 A 
BRANCH  79  83
ATOM     83  S   UNL A   1      42.624  27.776  25.542  1.00  0.00     0.124 S 
ATOM     84  O   UNL A   1      41.888  28.922  25.022  1.00  0.00    -0.237 OA
ATOM     85  O   UNL A   1      43.883  28.072  26.216  1.00  0.00    -0.237 OA
ATOM     86  O   UNL A   1      42.645  26.601  24.673  1.00  0.00    -0.744 OA
ENDBRANCH  79  83
ENDBRANCH  52  76
BRANCH  64  87
ATOM     87  C   UNL A   1      45.013  27.712  34.709  1.00  0.00     0.023 A 
ATOM     88  C   UNL A   1      44.889  26.522  35.448  1.00  0.00     0.031 A 
ATOM     89  C   UNL A   1      46.306  28.120  34.332  1.00  0.00     0.131 A 
ATOM     90  C   UNL A   1      46.038  25.829  35.857  1.00  0.00     0.055 A 
ATOM     91  C   UNL A   1      47.439  27.379  34.669  1.00  0.00     0.041 A 
ATOM     92  F   UNL A   1      46.491  29.251  33.632  1.00  0.00    -0.206 F 
ATOM     93  C   UNL A   1      47.311  26.236  35.452  1.00  0.00     0.022 A 
BRANCH  90  94
ATOM     94  S   UNL A   1      45.853  24.469  37.043  1.00  0.00     0.124 S 
ATOM     95  O   UNL A   1      47.236  24.223  37.437  1.00  0.00    -0.237 OA
ATOM     96  O   UNL A   1      44.994  25.060  38.065  1.00  0.00    -0.237 OA
ATOM     97  O   UNL A   1      45.236  23.407  36.253  1.00  0.00    -0.744 OA
ENDBRANCH  90  94
ENDBRANCH  64  87
ENDBRANCH  38  39
ENDBRANCH  30  33
ENDBRANCH  28  29
ENDBRANCH  27  28
ENDBRANCH  26  27
ENDBRANCH   1  26
TORSDOF 21
ENDMDL
MODEL 2
REMARK VINA RESULT:     -10.1      1.590      2.050
REMARK SMILES COc1cccc(-c2ccc(C#N)c(SCC(=O)NCCCCCCNC(=O)c3ccc(-c4c5nc(c(-c6cc(S(=O)(=O)[O-])ccc6F)c6ccc([nH]6)c(-c6cc(S(=O)(=O)[O-])ccc6F)c6nc(c(-c7cc(S(=O)(=O)[O-])ccc7F)c7ccc4[nH]7)C=C6)C=C5)cc3)n2)c1
REMARK SMILES IDX 22 1 21 2 20 3 19 4 17 5 18 6 16 8 15 9 14 10 8 11 9 12
REMARK SMILES IDX 92 13 10 14 11 15 7 16 3 17 4 18 93 19 5 20 6 21 2 22 1 23
REMARK SMILES IDX 12 24 13 25 23 26 24 27 25 28 26 29 27 30 28 32 29 33 30 34
REMARK SMILES IDX 91 35 31 36 90 37 32 38 33 39 34 40 84 41 35 42 89 43 83 44
REMARK SMILES IDX 85 45 36 46 88 47 82 48 81 49 37 51 69 52 49 53 68 54 50 55
REMARK SMILES IDX 53 56 67 57 86 58 51 59 52 60 66 62 87 63 54 64 38 65 39 66
REMARK SMILES IDX 47 67 40 68 46 69 48 70 45 71 41 72 42 73 43 74 44 75 70 76
REMARK SMILES IDX 71 77 79 78 72 79 78 80 80 81 77 82 73 83 74 84 75 85 76 86
REMARK SMILES IDX 55 87 56 88 64 89 57 90 63 91 65 92 62 93 58 94 59 95 60 96
REMARK SMILES IDX 61 97
REMARK H PARENT 19 7 26 31 85 50 53 61
REMARK Flexibility Score: inf
ROOT
ATOM      1  C   UNL A   1      36.089  30.849  27.891  1.00  0.00     0.002 C 
ENDROOT
BRANCH   1   2
ATOM      2  C   UNL A   1      34.733  30.145  28.069  1.00  0.00     0.021 C 
BRANCH   2   3
ATOM      3  C   UNL A   1      34.405  29.141  26.963  1.00  0.00     0.116 C 
BRANCH   3   4
ATOM      4  N   UNL A   1      33.209  29.552  26.260  1.00  0.00    -0.355 N 
ATOM      5  C   UNL A   1      32.095  28.844  25.949  1.00  0.00     0.230 C 
ATOM      6  O   UNL A   1      31.288  29.382  25.188  1.00  0.00    -0.274 OA
ATOM      7  H   UNL A   1      33.202  30.492  25.963  1.00  0.00     0.163 HD
BRANCH   5   8
ATOM      8  C   UNL A   1      31.815  27.500  26.587  1.00  0.00     0.176 C 
BRANCH   8   9
ATOM      9  S   UNL A   1      30.694  26.398  25.672  1.00  0.00    -0.095 SA
BRANCH   9  10
ATOM     10  C   UNL A   1      31.539  25.769  24.235  1.00  0.00     0.115 A 
ATOM     11  C   UNL A   1      32.795  23.880  23.574  1.00  0.00     0.072 A 
ATOM     12  C   UNL A   1      32.921  24.377  22.285  1.00  0.00     0.030 A 
ATOM     13  N   UNL A   1      32.135  24.570  24.535  1.00  0.00    -0.240 NA
ATOM     14  C   UNL A   1      32.309  25.581  21.969  1.00  0.00     0.024 A 
ATOM     15  C   UNL A   1      31.569  26.275  22.936  1.00  0.00     0.084 A 
BRANCH  11  16
ATOM     16  C   UNL A   1      33.325  22.549  23.912  1.00  0.00     0.004 A 
ATOM     17  C   UNL A   1      32.904  20.242  24.603  1.00  0.00     0.119 A 
ATOM     18  C   UNL A   1      34.254  20.083  24.907  1.00  0.00     0.046 A 
ATOM     19  C   UNL A   1      32.446  21.468  24.115  1.00  0.00     0.056 A 
ATOM     20  C   UNL A   1      35.151  21.125  24.670  1.00  0.00     0.005 A 
ATOM     21  C   UNL A   1      34.691  22.347  24.166  1.00  0.00     0.010 A 
BRANCH  17  22
ATOM     22  O   UNL A   1      32.091  19.182  24.901  1.00  0.00    -0.497 OA
ATOM     23  C   UNL A   1      32.726  18.127  25.617  1.00  0.00     0.278 C 
ENDBRANCH  17  22
ENDBRANCH  11  16
BRANCH  15  24
ATOM     24  C   UNL A   1      30.794  27.375  22.466  1.00  0.00     0.102 C 
ATOM     25  N   UNL A   1      30.196  28.247  21.982  1.00  0.00    -0.192 NA
ENDBRANCH  15  24
ENDBRANCH   9  10
ENDBRANCH   8   9
ENDBRANCH   5   8
ENDBRANCH   3   4
ENDBRANCH   2   3
ENDBRANCH   1   2
BRANCH   1  26
ATOM     26  C   UNL A   1      36.045  32.376  28.012  1.00  0.00     0.002 C 
BRANCH  26  27
ATOM     27  C   UNL A   1      34.637  32.974  28.005  1.00  0.00     0.021 C 
BRANCH  27  28
ATOM     28  C   UNL A   1      34.605  34.492  28.127  1.00  0.00     0.116 C 
BRANCH  28  29
ATOM     29  N   UNL A   1      33.719  34.927  29.193  1.00  0.00    -0.352 N 
ATOM     30  C   UNL A   1      33.768  34.636  30.533  1.00  0.00     0.251 C 
ATOM     31  H   UNL A   1      32.980  35.515  28.915  1.00  0.00     0.163 HD
ATOM     32  O   UNL A   1      32.803  34.895  31.247  1.00  0.00    -0.269 OA
BRANCH  30  33
ATOM     33  C   UNL A   1      34.970  33.989  31.102  1.00  0.00     0.039 A 
ATOM     34  C   UNL A   1      34.845  32.726  31.681  1.00  0.00     0.014 A 
ATOM     35  C   UNL A   1      36.218  34.620  31.055  1.00  0.00     0.014 A 
ATOM     36  C   UNL A   1      35.982  32.072  32.158  1.00  0.00     0.010 A 
ATOM     37  C   UNL A   1      37.360  33.930  31.450  1.00  0.00     0.010 A 
ATOM     38  C   UNL A   1      37.255  32.648  32.008  1.00  0.00    -0.014 A 
BRANCH  38  39
ATOM     39  C   UNL A   1      38.477  31.902  32.410  1.00  0.00     0.031 A 
ATOM     40  C   UNL A   1      39.164  32.202  33.715  1.00  0.00     0.074 A 
ATOM     41  C   UNL A   1      38.983  30.968  31.578  1.00  0.00     0.049 A 
ATOM     42  N   UNL A   1      40.239  31.658  34.225  1.00  0.00    -0.248 NA
ATOM     43  C   UNL A   1      38.578  33.266  34.544  1.00  0.00     0.031 C 
ATOM     44  C   UNL A   1      38.427  30.618  30.269  1.00  0.00     0.029 A 
ATOM     45  N   UNL A   1      40.068  30.139  31.707  1.00  0.00    -0.354 N 
ATOM     46  C   UNL A   1      40.460  32.311  35.432  1.00  0.00     0.074 A 
ATOM     47  C   UNL A   1      39.446  33.338  35.543  1.00  0.00     0.031 C 
ATOM     48  C   UNL A   1      39.145  29.616  29.740  1.00  0.00     0.029 A 
ATOM     49  C   UNL A   1      40.249  29.293  30.636  1.00  0.00     0.049 A 
ATOM     50  H   UNL A   1      40.662  30.148  32.491  1.00  0.00     0.167 HD
ATOM     51  C   UNL A   1      41.406  32.061  36.371  1.00  0.00     0.034 A 
ATOM     52  C   UNL A   1      41.202  28.371  30.395  1.00  0.00     0.034 A 
ATOM     53  C   UNL A   1      42.416  31.038  36.240  1.00  0.00     0.049 A 
ATOM     54  C   UNL A   1      42.277  28.154  31.430  1.00  0.00     0.074 A 
ATOM     55  C   UNL A   1      43.394  30.672  37.150  1.00  0.00     0.029 A 
ATOM     56  N   UNL A   1      42.592  30.227  35.125  1.00  0.00    -0.354 N 
ATOM     57  N   UNL A   1      42.436  28.742  32.594  1.00  0.00    -0.248 NA
ATOM     58  C   UNL A   1      43.293  27.143  31.122  1.00  0.00     0.031 C 
ATOM     59  C   UNL A   1      44.216  29.713  36.550  1.00  0.00     0.029 A 
ATOM     60  C   UNL A   1      43.691  29.399  35.306  1.00  0.00     0.049 A 
ATOM     61  H   UNL A   1      42.020  30.238  34.323  1.00  0.00     0.167 HD
ATOM     62  C   UNL A   1      43.556  28.147  33.168  1.00  0.00     0.074 A 
ATOM     63  C   UNL A   1      44.011  27.138  32.234  1.00  0.00     0.031 C 
ATOM     64  C   UNL A   1      44.152  28.410  34.360  1.00  0.00     0.034 A 
BRANCH  51  65
ATOM     65  C   UNL A   1      41.412  32.931  37.608  1.00  0.00     0.023 A 
ATOM     66  C   UNL A   1      40.662  32.599  38.751  1.00  0.00     0.031 A 
ATOM     67  C   UNL A   1      42.167  34.116  37.642  1.00  0.00     0.131 A 
ATOM     68  C   UNL A   1      40.626  33.475  39.846  1.00  0.00     0.055 A 
ATOM     69  C   UNL A   1      42.200  34.939  38.771  1.00  0.00     0.041 A 
ATOM     70  F   UNL A   1      42.883  34.503  36.574  1.00  0.00    -0.206 F 
ATOM     71  C   UNL A   1      41.414  34.628  39.876  1.00  0.00     0.022 A 
BRANCH  68  72
ATOM     72  S   UNL A   1      39.414  33.170  41.159  1.00  0.00     0.124 S 
ATOM     73  O   UNL A   1      39.897  34.054  42.218  1.00  0.00    -0.237 OA
ATOM     74  O   UNL A   1      38.158  33.557  40.527  1.00  0.00    -0.237 OA
ATOM     75  O   UNL A   1      39.561  31.743  41.436  1.00  0.00    -0.744 OA
ENDBRANCH  68  72
ENDBRANCH  51  65
BRANCH  52  76
ATOM     76  C   UNL A   1      41.204  27.598  29.118  1.00  0.00     0.023 A 
ATOM     77  C   UNL A   1      42.182  27.818  28.138  1.00  0.00     0.031 A 
ATOM     78  C   UNL A   1      40.190  26.664  28.837  1.00  0.00     0.131 A 
ATOM     79  C   UNL A   1      42.095  27.158  26.901  1.00  0.00     0.055 A 
ATOM     80  C   UNL A   1      40.148  25.957  27.634  1.00  0.00     0.041 A 
ATOM     81  F   UNL A   1      39.224  26.416  29.737  1.00  0.00    -0.206 F 
ATOM     82  C   UNL A   1      41.096  26.214  26.651  1.00  0.00     0.022 A 
BRANCH  79  83
ATOM     83  S   UNL A   1      43.242  27.636  25.579  1.00  0.00     0.124 S 
ATOM     84  O   UNL A   1      43.995  28.710  26.216  1.00  0.00    -0.237 OA
ATOM     85  O   UNL A   1      43.969  26.394  25.343  1.00  0.00    -0.237 OA
ATOM     86  O   UNL A   1      42.355  28.053  24.496  1.00  0.00    -0.744 OA
ENDBRANCH  79  83
ENDBRANCH  52  76
BRANCH  64  87
ATOM     87  C   UNL A   1      45.346  27.559  34.732  1.00  0.00     0.023 A 
ATOM     88  C   UNL A   1      46.658  27.935  34.394  1.00  0.00     0.031 A 
ATOM     89  C   UNL A   1      45.165  26.338  35.407  1.00  0.00     0.131 A 
ATOM     90  C   UNL A   1      47.725  27.064  34.656  1.00  0.00     0.055 A 
ATOM     91  C   UNL A   1      46.242  25.516  35.743  1.00  0.00     0.041 A 
ATOM     92  F   UNL A   1      43.937  25.920  35.751  1.00  0.00    -0.206 F 
ATOM     93  C   UNL A   1      47.530  25.868  35.350  1.00  0.00     0.022 A 
BRANCH  90  94
ATOM     94  S   UNL A   1      49.352  27.451  33.953  1.00  0.00     0.124 S 
ATOM     95  O   UNL A   1      49.971  26.132  33.881  1.00  0.00    -0.237 OA
ATOM     96  O   UNL A   1      49.003  28.062  32.674  1.00  0.00    -0.237 OA
ATOM     97  O   UNL A   1      49.942  28.360  34.934  1.00  0.00    -0.744 OA
ENDBRANCH  90  94
ENDBRANCH  64  87
ENDBRANCH  38  39
ENDBRANCH  30  33
ENDBRANCH  28  29
ENDBRANCH  27  28
ENDBRANCH  26  27
ENDBRANCH   1  26
TORSDOF 21
ENDMDL
MODEL 3
REMARK VINA RESULT:     -10.0      4.355      8.471
REMARK SMILES COc1cccc(-c2ccc(C#N)c(SCC(=O)NCCCCCCNC(=O)c3ccc(-c4c5nc(c(-c6cc(S(=O)(=O)[O-])ccc6F)c6ccc([nH]6)c(-c6cc(S(=O)(=O)[O-])ccc6F)c6nc(c(-c7cc(S(=O)(=O)[O-])ccc7F)c7ccc4[nH]7)C=C6)C=C5)cc3)n2)c1
REMARK SMILES IDX 22 1 21 2 20 3 19 4 17 5 18 6 16 8 15 9 14 10 8 11 9 12
REMARK SMILES IDX 92 13 10 14 11 15 7 16 3 17 4 18 93 19 5 20 6 21 2 22 1 23
REMARK SMILES IDX 12 24 13 25 23 26 24 27 25 28 26 29 27 30 28 32 29 33 30 34
REMARK SMILES IDX 91 35 31 36 90 37 32 38 33 39 34 40 84 41 35 42 89 43 83 44
REMARK SMILES IDX 85 45 36 46 88 47 82 48 81 49 37 51 69 52 49 53 68 54 50 55
REMARK SMILES IDX 53 56 67 57 86 58 51 59 52 60 66 62 87 63 54 64 38 65 39 66
REMARK SMILES IDX 47 67 40 68 46 69 48 70 45 71 41 72 42 73 43 74 44 75 70 76
REMARK SMILES IDX 71 77 79 78 72 79 78 80 80 81 77 82 73 83 74 84 75 85 76 86
REMARK SMILES IDX 55 87 56 88 64 89 57 90 63 91 65 92 62 93 58 94 59 95 60 96
REMARK SMILES IDX 61 97
REMARK H PARENT 19 7 26 31 85 50 53 61
REMARK Flexibility Score: inf
ROOT
ATOM      1  C   UNL A   1      38.170  33.359  29.129  1.00  0.00     0.002 C 
ENDROOT
BRANCH   1   2
ATOM      2  C   UNL A   1      39.053  34.562  29.499  1.00  0.00     0.021 C 
BRANCH   2   3
ATOM      3  C   UNL A   1      40.055  34.956  28.412  1.00  0.00     0.116 C 
BRANCH   3   4
ATOM      4  N   UNL A   1      41.215  35.580  29.010  1.00  0.00    -0.355 N 
ATOM      5  C   UNL A   1      42.201  35.038  29.767  1.00  0.00     0.230 C 
ATOM      6  O   UNL A   1      42.987  35.824  30.303  1.00  0.00    -0.274 OA
ATOM      7  H   UNL A   1      41.304  36.546  28.839  1.00  0.00     0.163 HD
BRANCH   5   8
ATOM      8  C   UNL A   1      42.383  33.539  29.866  1.00  0.00     0.176 C 
BRANCH   8   9
ATOM      9  S   UNL A   1      42.589  32.866  31.543  1.00  0.00    -0.095 SA
BRANCH   9  10
ATOM     10  C   UNL A   1      41.715  33.903  32.699  1.00  0.00     0.115 A 
ATOM     11  C   UNL A   1      39.506  34.316  33.427  1.00  0.00     0.072 A 
ATOM     12  C   UNL A   1      39.952  35.246  34.353  1.00  0.00     0.030 A 
ATOM     13  N   UNL A   1      40.367  33.672  32.603  1.00  0.00    -0.240 NA
ATOM     14  C   UNL A   1      41.316  35.477  34.467  1.00  0.00     0.024 A 
ATOM     15  C   UNL A   1      42.223  34.770  33.665  1.00  0.00     0.084 A 
BRANCH  11  16
ATOM     16  C   UNL A   1      38.080  33.957  33.363  1.00  0.00     0.004 A 
ATOM     17  C   UNL A   1      35.744  34.671  33.270  1.00  0.00     0.119 A 
ATOM     18  C   UNL A   1      35.333  33.380  33.593  1.00  0.00     0.046 A 
ATOM     19  C   UNL A   1      37.107  34.954  33.162  1.00  0.00     0.056 A 
ATOM     20  C   UNL A   1      36.276  32.365  33.751  1.00  0.00     0.005 A 
ATOM     21  C   UNL A   1      37.641  32.649  33.628  1.00  0.00     0.010 A 
BRANCH  17  22
ATOM     22  O   UNL A   1      34.754  35.610  33.168  1.00  0.00    -0.497 OA
ATOM     23  C   UNL A   1      33.601  35.186  32.445  1.00  0.00     0.278 C 
ENDBRANCH  17  22
ENDBRANCH  11  16
BRANCH  15  24
ATOM     24  C   UNL A   1      43.601  34.904  34.006  1.00  0.00     0.102 C 
ATOM     25  N   UNL A   1      44.709  34.932  34.357  1.00  0.00    -0.192 NA
ENDBRANCH  15  24
ENDBRANCH   9  10
ENDBRANCH   8   9
ENDBRANCH   5   8
ENDBRANCH   3   4
ENDBRANCH   2   3
ENDBRANCH   1   2
BRANCH   1  26
ATOM     26  C   UNL A   1      37.044  33.055  30.122  1.00  0.00     0.002 C 
BRANCH  26  27
ATOM     27  C   UNL A   1      35.640  33.381  29.611  1.00  0.00     0.021 C 
BRANCH  27  28
ATOM     28  C   UNL A   1      35.517  33.393  28.092  1.00  0.00     0.116 C 
BRANCH  28  29
ATOM     29  N   UNL A   1      34.502  32.463  27.627  1.00  0.00    -0.352 N 
ATOM     30  C   UNL A   1      34.585  31.104  27.453  1.00  0.00     0.251 C 
ATOM     31  H   UNL A   1      33.630  32.864  27.406  1.00  0.00     0.163 HD
ATOM     32  O   UNL A   1      33.708  30.516  26.828  1.00  0.00    -0.269 OA
BRANCH  30  33
ATOM     33  C   UNL A   1      35.743  30.363  27.999  1.00  0.00     0.039 A 
ATOM     34  C   UNL A   1      36.930  30.335  27.265  1.00  0.00     0.014 A 
ATOM     35  C   UNL A   1      35.665  29.708  29.232  1.00  0.00     0.014 A 
ATOM     36  C   UNL A   1      38.053  29.700  27.797  1.00  0.00     0.010 A 
ATOM     37  C   UNL A   1      36.809  29.154  29.799  1.00  0.00     0.010 A 
ATOM     38  C   UNL A   1      38.016  29.142  29.087  1.00  0.00    -0.014 A 
BRANCH  38  39
ATOM     39  C   UNL A   1      39.244  28.570  29.700  1.00  0.00     0.031 A 
ATOM     40  C   UNL A   1      39.774  29.108  31.002  1.00  0.00     0.074 A 
ATOM     41  C   UNL A   1      39.898  27.578  29.063  1.00  0.00     0.049 A 
ATOM     42  N   UNL A   1      40.830  28.738  31.678  1.00  0.00    -0.248 NA
ATOM     43  C   UNL A   1      39.031  30.222  31.610  1.00  0.00     0.031 C 
ATOM     44  C   UNL A   1      39.503  27.000  27.775  1.00  0.00     0.029 A 
ATOM     45  N   UNL A   1      41.024  26.874  29.407  1.00  0.00    -0.354 N 
ATOM     46  C   UNL A   1      40.881  29.570  32.791  1.00  0.00     0.074 A 
ATOM     47  C   UNL A   1      39.787  30.509  32.660  1.00  0.00     0.031 C 
ATOM     48  C   UNL A   1      40.342  26.001  27.465  1.00  0.00     0.029 A 
ATOM     49  C   UNL A   1      41.373  25.905  28.492  1.00  0.00     0.049 A 
ATOM     50  H   UNL A   1      41.535  27.044  30.230  1.00  0.00     0.167 HD
ATOM     51  C   UNL A   1      41.744  29.538  33.836  1.00  0.00     0.034 A 
ATOM     52  C   UNL A   1      42.411  25.046  28.474  1.00  0.00     0.034 A 
ATOM     53  C   UNL A   1      42.836  28.599  33.947  1.00  0.00     0.049 A 
ATOM     54  C   UNL A   1      43.391  25.071  29.620  1.00  0.00     0.074 A 
ATOM     55  C   UNL A   1      43.743  28.452  34.982  1.00  0.00     0.029 A 
ATOM     56  N   UNL A   1      43.182  27.659  32.983  1.00  0.00    -0.354 N 
ATOM     57  N   UNL A   1      43.389  25.828  30.694  1.00  0.00    -0.248 NA
ATOM     58  C   UNL A   1      44.506  24.120  29.555  1.00  0.00     0.031 C 
ATOM     59  C   UNL A   1      44.689  27.495  34.604  1.00  0.00     0.029 A 
ATOM     60  C   UNL A   1      44.316  26.965  33.379  1.00  0.00     0.049 A 
ATOM     61  H   UNL A   1      42.694  27.508  32.141  1.00  0.00     0.167 HD
ATOM     62  C   UNL A   1      44.488  25.420  31.446  1.00  0.00     0.074 A 
ATOM     63  C   UNL A   1      45.108  24.334  30.714  1.00  0.00     0.031 C 
ATOM     64  C   UNL A   1      44.941  25.897  32.633  1.00  0.00     0.034 A 
BRANCH  51  65
ATOM     65  C   UNL A   1      41.562  30.569  34.927  1.00  0.00     0.023 A 
ATOM     66  C   UNL A   1      40.363  30.674  35.654  1.00  0.00     0.031 A 
ATOM     67  C   UNL A   1      42.597  31.469  35.237  1.00  0.00     0.131 A 
ATOM     68  C   UNL A   1      40.202  31.699  36.598  1.00  0.00     0.055 A 
ATOM     69  C   UNL A   1      42.464  32.428  36.243  1.00  0.00     0.041 A 
ATOM     70  F   UNL A   1      43.756  31.438  34.562  1.00  0.00    -0.206 F 
ATOM     71  C   UNL A   1      41.256  32.558  36.920  1.00  0.00     0.022 A 
BRANCH  68  72
ATOM     72  S   UNL A   1      38.548  31.995  37.282  1.00  0.00     0.124 S 
ATOM     73  O   UNL A   1      38.238  33.317  36.742  1.00  0.00    -0.237 OA
ATOM     74  O   UNL A   1      37.778  30.884  36.735  1.00  0.00    -0.237 OA
ATOM     75  O   UNL A   1      38.764  31.956  38.727  1.00  0.00    -0.744 OA
ENDBRANCH  68  72
ENDBRANCH  51  65
BRANCH  52  76
ATOM     76  C   UNL A   1      42.598  24.105  27.331  1.00  0.00     0.023 A 
ATOM     77  C   UNL A   1      41.957  22.858  27.305  1.00  0.00     0.031 A 
ATOM     78  C   UNL A   1      43.467  24.419  26.270  1.00  0.00     0.131 A 
ATOM     79  C   UNL A   1      42.238  21.948  26.273  1.00  0.00     0.055 A 
ATOM     80  C   UNL A   1      43.687  23.539  25.209  1.00  0.00     0.041 A 
ATOM     81  F   UNL A   1      44.111  25.597  26.244  1.00  0.00    -0.206 F 
ATOM     82  C   UNL A   1      43.083  22.288  25.215  1.00  0.00     0.022 A 
BRANCH  79  83
ATOM     83  S   UNL A   1      41.570  20.265  26.395  1.00  0.00     0.124 S 
ATOM     84  O   UNL A   1      42.314  19.575  25.348  1.00  0.00    -0.237 OA
ATOM     85  O   UNL A   1      41.904  19.903  27.768  1.00  0.00    -0.237 OA
ATOM     86  O   UNL A   1      40.144  20.447  26.131  1.00  0.00    -0.744 OA
ENDBRANCH  79  83
ENDBRANCH  52  76
BRANCH  64  87
ATOM     87  C   UNL A   1      46.152  25.216  33.230  1.00  0.00     0.023 A 
ATOM     88  C   UNL A   1      47.461  25.635  32.931  1.00  0.00     0.031 A 
ATOM     89  C   UNL A   1      45.995  24.110  34.085  1.00  0.00     0.131 A 
ATOM     90  C   UNL A   1      48.556  24.905  33.414  1.00  0.00     0.055 A 
ATOM     91  C   UNL A   1      47.091  23.441  34.633  1.00  0.00     0.041 A 
ATOM     92  F   UNL A   1      44.772  23.657  34.403  1.00  0.00    -0.206 F 
ATOM     93  C   UNL A   1      48.382  23.826  34.283  1.00  0.00     0.022 A 
BRANCH  90  94
ATOM     94  S   UNL A   1      50.209  25.301  32.778  1.00  0.00     0.124 S 
ATOM     95  O   UNL A   1      51.072  24.714  33.797  1.00  0.00    -0.237 OA
ATOM     96  O   UNL A   1      50.211  24.636  31.479  1.00  0.00    -0.237 OA
ATOM     97  O   UNL A   1      50.215  26.761  32.726  1.00  0.00    -0.744 OA
ENDBRANCH  90  94
ENDBRANCH  64  87
ENDBRANCH  38  39
ENDBRANCH  30  33
ENDBRANCH  28  29
ENDBRANCH  27  28
ENDBRANCH  26  27
ENDBRANCH   1  26
TORSDOF 21
ENDMDL
