MODEL 1
REMARK VINA RESULT:     -11.4      0.000      0.000
REMARK SMILES CC(C)(C)OC(=O)N[C@@H](Cc1c[nH]c2cccc(Cl)c12)C(=O)NCCCCCCNC(=O)c1ccc(-c2c3nc(c(-c4cc(S(=O)(=O)[O-])ccc4F)c4ccc([nH]4)c(-c4cc(S(=O)(=O)[O-])ccc4F)c4nc(c(-c5cc(S(=O)(=O)[O-])ccc5F)c5ccc2[nH]5)C=C4)C=C3)cc1
REMARK SMILES IDX 26 1 25 2 24 3 23 4 21 5 22 6 9 8 8 9 6 10 7 11 5 13 2 14
REMARK SMILES IDX 1 15 3 16 4 17 10 18 11 19 12 20 20 21 13 22 14 23 18 24
REMARK SMILES IDX 15 26 17 27 19 28 16 29 27 30 28 31 29 32 30 33 31 34 32 36
REMARK SMILES IDX 33 37 34 38 95 39 35 40 94 41 36 42 37 43 38 44 88 45 39 46
REMARK SMILES IDX 93 47 87 48 89 49 40 50 92 51 86 52 85 53 41 55 73 56 53 57
REMARK SMILES IDX 72 58 54 59 57 60 71 61 90 62 55 63 56 64 70 66 91 67 58 68
REMARK SMILES IDX 42 69 43 70 51 71 44 72 50 73 52 74 49 75 45 76 46 77 47 78
REMARK SMILES IDX 48 79 74 80 75 81 83 82 76 83 82 84 84 85 81 86 77 87 78 88
REMARK SMILES IDX 79 89 80 90 59 91 60 92 68 93 61 94 67 95 69 96 66 97 62 98
REMARK SMILES IDX 63 99 64 100 65 101
REMARK H PARENT 23 7 8 12 13 25 30 35 89 54 57 65
REMARK Flexibility Score: inf
ROOT
ATOM      1  C   UNL A   1      36.885  23.694  24.747  1.00  0.00     0.002 C 
ENDROOT
BRANCH   1   2
ATOM      2  C   UNL A   1      35.432  23.867  25.198  1.00  0.00     0.021 C 
BRANCH   2   3
ATOM      3  C   UNL A   1      34.706  25.052  24.578  1.00  0.00     0.116 C 
BRANCH   3   4
ATOM      4  N   UNL A   1      34.419  24.928  23.166  1.00  0.00    -0.354 N 
ATOM      5  C   UNL A   1      33.268  25.205  22.481  1.00  0.00     0.243 C 
ATOM      6  O   UNL A   1      33.383  25.406  21.265  1.00  0.00    -0.273 OA
ATOM      7  H   UNL A   1      35.163  24.594  22.614  1.00  0.00     0.163 HD
BRANCH   5   8
ATOM      8  C   UNL A   1      31.883  25.368  23.161  1.00  0.00     0.179 C 
BRANCH   8   9
ATOM      9  N   UNL A   1      31.131  26.515  22.653  1.00  0.00    -0.309 N 
ATOM     10  C   UNL A   1      30.891  27.696  23.275  1.00  0.00     0.408 C 
ATOM     11  O   UNL A   1      30.369  28.617  22.649  1.00  0.00    -0.225 OA
ATOM     12  H   UNL A   1      30.752  26.418  21.751  1.00  0.00     0.167 HD
BRANCH  10  13
ATOM     13  O   UNL A   1      31.213  27.715  24.586  1.00  0.00    -0.444 OA
BRANCH  13  14
ATOM     14  C   UNL A   1      32.348  28.505  25.036  1.00  0.00     0.106 C 
ATOM     15  C   UNL A   1      31.757  29.862  25.452  1.00  0.00     0.056 C 
ATOM     16  C   UNL A   1      33.348  28.752  23.897  1.00  0.00     0.056 C 
ATOM     17  C   UNL A   1      33.020  27.873  26.261  1.00  0.00     0.056 C 
ENDBRANCH  13  14
ENDBRANCH  10  13
ENDBRANCH   8   9
BRANCH   8  18
ATOM     18  C   UNL A   1      31.038  24.081  23.264  1.00  0.00     0.073 C 
BRANCH  18  19
ATOM     19  C   UNL A   1      31.721  22.839  23.770  1.00  0.00    -0.019 A 
ATOM     20  C   UNL A   1      32.051  21.755  22.974  1.00  0.00     0.087 A 
ATOM     21  C   UNL A   1      32.170  22.525  25.110  1.00  0.00     0.021 A 
ATOM     22  N   UNL A   1      32.719  20.837  23.734  1.00  0.00    -0.361 N 
ATOM     23  C   UNL A   1      32.824  21.284  25.031  1.00  0.00     0.047 A 
ATOM     24  C   UNL A   1      32.175  23.146  26.383  1.00  0.00     0.050 A 
ATOM     25  H   UNL A   1      33.075  19.982  23.401  1.00  0.00     0.166 HD
ATOM     26  C   UNL A   1      33.482  20.688  26.119  1.00  0.00     0.027 A 
ATOM     27  C   UNL A   1      32.842  22.583  27.476  1.00  0.00     0.021 A 
ATOM     28  Cl  UNL A   1      31.360  24.635  26.572  1.00  0.00    -0.084 Cl
ATOM     29  C   UNL A   1      33.499  21.370  27.338  1.00  0.00     0.004 A 
ENDBRANCH  18  19
ENDBRANCH   8  18
ENDBRANCH   5   8
ENDBRANCH   3   4
ENDBRANCH   2   3
ENDBRANCH   1   2
BRANCH   1  30
ATOM     30  C   UNL A   1      37.932  23.441  25.845  1.00  0.00     0.002 C 
BRANCH  30  31
ATOM     31  C   UNL A   1      38.675  22.098  25.813  1.00  0.00     0.021 C 
BRANCH  31  32
ATOM     32  C   UNL A   1      39.761  21.939  26.862  1.00  0.00     0.116 C 
BRANCH  32  33
ATOM     33  N   UNL A   1      41.072  21.718  26.269  1.00  0.00    -0.352 N 
ATOM     34  C   UNL A   1      42.013  22.654  25.905  1.00  0.00     0.251 C 
ATOM     35  H   UNL A   1      41.317  20.778  26.109  1.00  0.00     0.163 HD
ATOM     36  O   UNL A   1      42.900  22.351  25.113  1.00  0.00    -0.269 OA
BRANCH  34  37
ATOM     37  C   UNL A   1      41.934  24.020  26.457  1.00  0.00     0.039 A 
ATOM     38  C   UNL A   1      41.309  25.032  25.727  1.00  0.00     0.014 A 
ATOM     39  C   UNL A   1      42.499  24.295  27.704  1.00  0.00     0.014 A 
ATOM     40  C   UNL A   1      41.199  26.299  26.290  1.00  0.00     0.010 A 
ATOM     41  C   UNL A   1      42.283  25.513  28.313  1.00  0.00     0.010 A 
ATOM     42  C   UNL A   1      41.669  26.531  27.595  1.00  0.00    -0.014 A 
BRANCH  42  43
ATOM     43  C   UNL A   1      41.435  27.827  28.223  1.00  0.00     0.031 A 
ATOM     44  C   UNL A   1      42.345  28.908  27.768  1.00  0.00     0.074 A 
ATOM     45  C   UNL A   1      40.413  28.106  29.058  1.00  0.00     0.049 A 
ATOM     46  N   UNL A   1      43.376  29.374  28.389  1.00  0.00    -0.248 NA
ATOM     47  C   UNL A   1      42.186  29.420  26.400  1.00  0.00     0.031 C 
ATOM     48  C   UNL A   1      39.240  27.283  29.375  1.00  0.00     0.029 A 
ATOM     49  N   UNL A   1      40.182  29.251  29.760  1.00  0.00    -0.354 N 
ATOM     50  C   UNL A   1      43.875  30.395  27.587  1.00  0.00     0.074 A 
ATOM     51  C   UNL A   1      43.228  30.250  26.306  1.00  0.00     0.031 C 
ATOM     52  C   UNL A   1      38.328  28.031  30.034  1.00  0.00     0.029 A 
ATOM     53  C   UNL A   1      38.932  29.311  30.355  1.00  0.00     0.049 A 
ATOM     54  H   UNL A   1      40.846  29.974  29.837  1.00  0.00     0.167 HD
ATOM     55  C   UNL A   1      44.600  31.423  28.115  1.00  0.00     0.034 A 
ATOM     56  C   UNL A   1      38.425  30.338  31.076  1.00  0.00     0.034 A 
ATOM     57  C   UNL A   1      44.928  31.170  29.492  1.00  0.00     0.049 A 
ATOM     58  C   UNL A   1      39.558  31.133  31.591  1.00  0.00     0.074 A 
ATOM     59  C   UNL A   1      45.788  30.335  30.169  1.00  0.00     0.029 A 
ATOM     60  N   UNL A   1      43.983  31.602  30.389  1.00  0.00    -0.354 N 
ATOM     61  N   UNL A   1      40.398  30.698  32.486  1.00  0.00    -0.248 NA
ATOM     62  C   UNL A   1      39.978  32.327  30.869  1.00  0.00     0.031 C 
ATOM     63  C   UNL A   1      45.162  30.069  31.420  1.00  0.00     0.029 A 
ATOM     64  C   UNL A   1      43.960  30.779  31.483  1.00  0.00     0.049 A 
ATOM     65  H   UNL A   1      43.407  32.391  30.265  1.00  0.00     0.167 HD
ATOM     66  C   UNL A   1      41.603  31.269  32.125  1.00  0.00     0.074 A 
ATOM     67  C   UNL A   1      41.251  32.392  31.267  1.00  0.00     0.031 C 
ATOM     68  C   UNL A   1      42.776  30.599  32.305  1.00  0.00     0.034 A 
BRANCH  55  69
ATOM     69  C   UNL A   1      44.653  32.819  27.543  1.00  0.00     0.023 A 
ATOM     70  C   UNL A   1      43.733  33.817  27.909  1.00  0.00     0.031 A 
ATOM     71  C   UNL A   1      45.771  33.251  26.801  1.00  0.00     0.131 A 
ATOM     72  C   UNL A   1      43.904  35.152  27.522  1.00  0.00     0.055 A 
ATOM     73  C   UNL A   1      45.978  34.599  26.473  1.00  0.00     0.041 A 
ATOM     74  F   UNL A   1      46.722  32.385  26.417  1.00  0.00    -0.206 F 
ATOM     75  C   UNL A   1      45.040  35.558  26.831  1.00  0.00     0.022 A 
BRANCH  72  76
ATOM     76  S   UNL A   1      42.644  36.386  27.946  1.00  0.00     0.124 S 
ATOM     77  O   UNL A   1      42.511  37.123  26.695  1.00  0.00    -0.237 OA
ATOM     78  O   UNL A   1      41.512  35.536  28.307  1.00  0.00    -0.237 OA
ATOM     79  O   UNL A   1      43.246  37.118  29.056  1.00  0.00    -0.744 OA
ENDBRANCH  72  76
ENDBRANCH  55  69
BRANCH  56  80
ATOM     80  C   UNL A   1      37.044  30.862  31.058  1.00  0.00     0.023 A 
ATOM     81  C   UNL A   1      36.451  31.205  29.831  1.00  0.00     0.031 A 
ATOM     82  C   UNL A   1      36.443  31.345  32.232  1.00  0.00     0.131 A 
ATOM     83  C   UNL A   1      35.353  32.074  29.798  1.00  0.00     0.055 A 
ATOM     84  C   UNL A   1      35.336  32.198  32.197  1.00  0.00     0.041 A 
ATOM     85  F   UNL A   1      36.972  31.065  33.434  1.00  0.00    -0.206 F 
ATOM     86  C   UNL A   1      34.797  32.582  30.973  1.00  0.00     0.022 A 
BRANCH  83  87
ATOM     87  S   UNL A   1      34.678  32.627  28.208  1.00  0.00     0.124 S 
ATOM     88  O   UNL A   1      34.224  31.375  27.608  1.00  0.00    -0.237 OA
ATOM     89  O   UNL A   1      33.624  33.538  28.638  1.00  0.00    -0.237 OA
ATOM     90  O   UNL A   1      35.828  33.243  27.552  1.00  0.00    -0.744 OA
ENDBRANCH  83  87
ENDBRANCH  56  80
BRANCH  68  91
ATOM     91  C   UNL A   1      42.800  29.464  33.294  1.00  0.00     0.023 A 
ATOM     92  C   UNL A   1      43.243  29.767  34.592  1.00  0.00     0.031 A 
ATOM     93  C   UNL A   1      42.574  28.112  32.978  1.00  0.00     0.131 A 
ATOM     94  C   UNL A   1      43.489  28.745  35.512  1.00  0.00     0.055 A 
ATOM     95  C   UNL A   1      42.759  27.096  33.923  1.00  0.00     0.041 A 
ATOM     96  F   UNL A   1      42.236  27.729  31.740  1.00  0.00    -0.206 F 
ATOM     97  C   UNL A   1      43.233  27.409  35.193  1.00  0.00     0.022 A 
BRANCH  94  98
ATOM     98  S   UNL A   1      44.264  29.122  37.102  1.00  0.00     0.124 S 
ATOM     99  O   UNL A   1      43.418  30.196  37.616  1.00  0.00    -0.237 OA
ATOM    100  O   UNL A   1      44.154  27.846  37.807  1.00  0.00    -0.237 OA
ATOM    101  O   UNL A   1      45.626  29.517  36.749  1.00  0.00    -0.744 OA
ENDBRANCH  94  98
ENDBRANCH  68  91
ENDBRANCH  42  43
ENDBRANCH  34  37
ENDBRANCH  32  33
ENDBRANCH  31  32
ENDBRANCH  30  31
ENDBRANCH   1  30
TORSDOF 21
ENDMDL
MODEL 2
REMARK VINA RESULT:     -11.1      2.033      2.863
REMARK SMILES CC(C)(C)OC(=O)N[C@@H](Cc1c[nH]c2cccc(Cl)c12)C(=O)NCCCCCCNC(=O)c1ccc(-c2c3nc(c(-c4cc(S(=O)(=O)[O-])ccc4F)c4ccc([nH]4)c(-c4cc(S(=O)(=O)[O-])ccc4F)c4nc(c(-c5cc(S(=O)(=O)[O-])ccc5F)c5ccc2[nH]5)C=C4)C=C3)cc1
REMARK SMILES IDX 26 1 25 2 24 3 23 4 21 5 22 6 9 8 8 9 6 10 7 11 5 13 2 14
REMARK SMILES IDX 1 15 3 16 4 17 10 18 11 19 12 20 20 21 13 22 14 23 18 24
REMARK SMILES IDX 15 26 17 27 19 28 16 29 27 30 28 31 29 32 30 33 31 34 32 36
REMARK SMILES IDX 33 37 34 38 95 39 35 40 94 41 36 42 37 43 38 44 88 45 39 46
REMARK SMILES IDX 93 47 87 48 89 49 40 50 92 51 86 52 85 53 41 55 73 56 53 57
REMARK SMILES IDX 72 58 54 59 57 60 71 61 90 62 55 63 56 64 70 66 91 67 58 68
REMARK SMILES IDX 42 69 43 70 51 71 44 72 50 73 52 74 49 75 45 76 46 77 47 78
REMARK SMILES IDX 48 79 74 80 75 81 83 82 76 83 82 84 84 85 81 86 77 87 78 88
REMARK SMILES IDX 79 89 80 90 59 91 60 92 68 93 61 94 67 95 69 96 66 97 62 98
REMARK SMILES IDX 63 99 64 100 65 101
REMARK H PARENT 23 7 8 12 13 25 30 35 89 54 57 65
REMARK Flexibility Score: inf
ROOT
ATOM      1  C   UNL A   1      39.879  23.692  27.503  1.00  0.00     0.002 C 
ENDROOT
BRANCH   1   2
ATOM      2  C   UNL A   1      39.000  24.498  26.543  1.00  0.00     0.021 C 
BRANCH   2   3
ATOM      3  C   UNL A   1      37.710  23.810  26.124  1.00  0.00     0.116 C 
BRANCH   3   4
ATOM      4  N   UNL A   1      37.695  23.299  24.771  1.00  0.00    -0.354 N 
ATOM      5  C   UNL A   1      36.655  23.185  23.891  1.00  0.00     0.243 C 
ATOM      6  O   UNL A   1      36.951  23.105  22.691  1.00  0.00    -0.273 OA
ATOM      7  H   UNL A   1      38.566  22.986  24.432  1.00  0.00     0.163 HD
BRANCH   5   8
ATOM      8  C   UNL A   1      35.164  23.247  24.313  1.00  0.00     0.179 C 
BRANCH   8   9
ATOM      9  N   UNL A   1      34.254  23.375  23.175  1.00  0.00    -0.309 N 
ATOM     10  C   UNL A   1      33.613  24.488  22.741  1.00  0.00     0.408 C 
ATOM     11  O   UNL A   1      33.001  24.459  21.674  1.00  0.00    -0.225 OA
ATOM     12  H   UNL A   1      34.086  22.552  22.663  1.00  0.00     0.167 HD
BRANCH  10  13
ATOM     13  O   UNL A   1      33.672  25.537  23.589  1.00  0.00    -0.444 OA
BRANCH  13  14
ATOM     14  C   UNL A   1      32.534  25.834  24.444  1.00  0.00     0.106 C 
ATOM     15  C   UNL A   1      33.139  26.228  25.802  1.00  0.00     0.056 C 
ATOM     16  C   UNL A   1      31.653  24.594  24.659  1.00  0.00     0.056 C 
ATOM     17  C   UNL A   1      31.727  27.023  23.910  1.00  0.00     0.056 C 
ENDBRANCH  13  14
ENDBRANCH  10  13
ENDBRANCH   8   9
BRANCH   8  18
ATOM     18  C   UNL A   1      34.717  22.180  25.335  1.00  0.00     0.073 C 
BRANCH  18  19
ATOM     19  C   UNL A   1      35.068  20.747  25.040  1.00  0.00    -0.019 A 
ATOM     20  C   UNL A   1      36.320  20.194  25.247  1.00  0.00     0.087 A 
ATOM     21  C   UNL A   1      34.227  19.688  24.520  1.00  0.00     0.021 A 
ATOM     22  N   UNL A   1      36.273  18.864  24.943  1.00  0.00    -0.361 N 
ATOM     23  C   UNL A   1      35.010  18.522  24.516  1.00  0.00     0.047 A 
ATOM     24  C   UNL A   1      32.881  19.532  24.106  1.00  0.00     0.050 A 
ATOM     25  H   UNL A   1      37.030  18.241  25.018  1.00  0.00     0.166 HD
ATOM     26  C   UNL A   1      34.509  17.259  24.163  1.00  0.00     0.027 A 
ATOM     27  C   UNL A   1      32.353  18.280  23.772  1.00  0.00     0.021 A 
ATOM     28  Cl  UNL A   1      31.877  20.911  24.040  1.00  0.00    -0.084 Cl
ATOM     29  C   UNL A   1      33.161  17.153  23.814  1.00  0.00     0.004 A 
ENDBRANCH  18  19
ENDBRANCH   8  18
ENDBRANCH   5   8
ENDBRANCH   3   4
ENDBRANCH   2   3
ENDBRANCH   1   2
BRANCH   1  30
ATOM     30  C   UNL A   1      40.047  22.192  27.203  1.00  0.00     0.002 C 
BRANCH  30  31
ATOM     31  C   UNL A   1      40.981  21.805  26.048  1.00  0.00     0.021 C 
BRANCH  31  32
ATOM     32  C   UNL A   1      42.390  21.419  26.462  1.00  0.00     0.116 C 
BRANCH  32  33
ATOM     33  N   UNL A   1      43.389  21.873  25.507  1.00  0.00    -0.352 N 
ATOM     34  C   UNL A   1      43.670  23.162  25.114  1.00  0.00     0.251 C 
ATOM     35  H   UNL A   1      43.935  21.169  25.089  1.00  0.00     0.163 HD
ATOM     36  O   UNL A   1      44.280  23.361  24.067  1.00  0.00    -0.269 OA
BRANCH  34  37
ATOM     37  C   UNL A   1      43.219  24.294  25.946  1.00  0.00     0.039 A 
ATOM     38  C   UNL A   1      43.615  24.378  27.282  1.00  0.00     0.014 A 
ATOM     39  C   UNL A   1      42.387  25.270  25.394  1.00  0.00     0.014 A 
ATOM     40  C   UNL A   1      43.223  25.481  28.032  1.00  0.00     0.010 A 
ATOM     41  C   UNL A   1      42.101  26.420  26.098  1.00  0.00     0.010 A 
ATOM     42  C   UNL A   1      42.483  26.514  27.430  1.00  0.00    -0.014 A 
BRANCH  42  43
ATOM     43  C   UNL A   1      42.185  27.723  28.189  1.00  0.00     0.031 A 
ATOM     44  C   UNL A   1      43.079  28.872  27.899  1.00  0.00     0.074 A 
ATOM     45  C   UNL A   1      41.123  27.879  29.005  1.00  0.00     0.049 A 
ATOM     46  N   UNL A   1      44.070  29.290  28.612  1.00  0.00    -0.248 NA
ATOM     47  C   UNL A   1      42.961  29.532  26.591  1.00  0.00     0.031 C 
ATOM     48  C   UNL A   1      39.963  26.996  29.176  1.00  0.00     0.029 A 
ATOM     49  N   UNL A   1      40.829  28.931  29.821  1.00  0.00    -0.354 N 
ATOM     50  C   UNL A   1      44.570  30.409  27.953  1.00  0.00     0.074 A 
ATOM     51  C   UNL A   1      43.979  30.394  26.637  1.00  0.00     0.031 C 
ATOM     52  C   UNL A   1      39.002  27.641  29.875  1.00  0.00     0.029 A 
ATOM     53  C   UNL A   1      39.554  28.890  30.364  1.00  0.00     0.049 A 
ATOM     54  H   UNL A   1      41.467  29.657  30.008  1.00  0.00     0.167 HD
ATOM     55  C   UNL A   1      45.242  31.387  28.624  1.00  0.00     0.034 A 
ATOM     56  C   UNL A   1      38.988  29.815  31.173  1.00  0.00     0.034 A 
ATOM     57  C   UNL A   1      45.522  30.988  29.977  1.00  0.00     0.049 A 
ATOM     58  C   UNL A   1      40.075  30.575  31.824  1.00  0.00     0.074 A 
ATOM     59  C   UNL A   1      46.378  30.104  30.592  1.00  0.00     0.029 A 
ATOM     60  N   UNL A   1      44.529  31.291  30.876  1.00  0.00    -0.354 N 
ATOM     61  N   UNL A   1      40.891  30.063  32.700  1.00  0.00    -0.248 NA
ATOM     62  C   UNL A   1      40.487  31.854  31.260  1.00  0.00     0.031 C 
ATOM     63  C   UNL A   1      45.711  29.680  31.777  1.00  0.00     0.029 A 
ATOM     64  C   UNL A   1      44.487  30.348  31.867  1.00  0.00     0.049 A 
ATOM     65  H   UNL A   1      43.934  32.073  30.816  1.00  0.00     0.167 HD
ATOM     66  C   UNL A   1      42.092  30.701  32.458  1.00  0.00     0.074 A 
ATOM     67  C   UNL A   1      41.741  31.905  31.717  1.00  0.00     0.031 C 
ATOM     68  C   UNL A   1      43.276  30.046  32.612  1.00  0.00     0.034 A 
BRANCH  55  69
ATOM     69  C   UNL A   1      45.275  32.840  28.216  1.00  0.00     0.023 A 
ATOM     70  C   UNL A   1      46.357  33.401  27.517  1.00  0.00     0.031 A 
ATOM     71  C   UNL A   1      44.117  33.640  28.306  1.00  0.00     0.131 A 
ATOM     72  C   UNL A   1      46.297  34.692  26.978  1.00  0.00     0.055 A 
ATOM     73  C   UNL A   1      44.030  34.905  27.707  1.00  0.00     0.041 A 
ATOM     74  F   UNL A   1      43.017  33.194  28.934  1.00  0.00    -0.206 F 
ATOM     75  C   UNL A   1      45.126  35.439  27.041  1.00  0.00     0.022 A 
BRANCH  72  76
ATOM     76  S   UNL A   1      47.751  35.403  26.161  1.00  0.00     0.124 S 
ATOM     77  O   UNL A   1      47.253  36.707  25.738  1.00  0.00    -0.237 OA
ATOM     78  O   UNL A   1      48.722  35.415  27.252  1.00  0.00    -0.237 OA
ATOM     79  O   UNL A   1      48.037  34.452  25.090  1.00  0.00    -0.744 OA
ENDBRANCH  72  76
ENDBRANCH  55  69
BRANCH  56  80
ATOM     80  C   UNL A   1      37.594  30.302  31.155  1.00  0.00     0.023 A 
ATOM     81  C   UNL A   1      37.023  30.718  29.940  1.00  0.00     0.031 A 
ATOM     82  C   UNL A   1      36.949  30.683  32.344  1.00  0.00     0.131 A 
ATOM     83  C   UNL A   1      35.902  31.557  29.939  1.00  0.00     0.055 A 
ATOM     84  C   UNL A   1      35.819  31.506  32.339  1.00  0.00     0.041 A 
ATOM     85  F   UNL A   1      37.455  30.330  33.536  1.00  0.00    -0.206 F 
ATOM     86  C   UNL A   1      35.302  31.964  31.132  1.00  0.00     0.022 A 
BRANCH  83  87
ATOM     87  S   UNL A   1      35.253  32.207  28.375  1.00  0.00     0.124 S 
ATOM     88  O   UNL A   1      33.973  32.782  28.782  1.00  0.00    -0.237 OA
ATOM     89  O   UNL A   1      36.285  33.167  28.005  1.00  0.00    -0.237 OA
ATOM     90  O   UNL A   1      35.153  31.018  27.533  1.00  0.00    -0.744 OA
ENDBRANCH  83  87
ENDBRANCH  56  80
BRANCH  68  91
ATOM     91  C   UNL A   1      43.295  28.806  33.466  1.00  0.00     0.023 A 
ATOM     92  C   UNL A   1      43.621  28.978  34.821  1.00  0.00     0.031 A 
ATOM     93  C   UNL A   1      43.175  27.490  32.985  1.00  0.00     0.131 A 
ATOM     94  C   UNL A   1      43.859  27.871  35.639  1.00  0.00     0.055 A 
ATOM     95  C   UNL A   1      43.349  26.381  33.822  1.00  0.00     0.041 A 
ATOM     96  F   UNL A   1      42.953  27.236  31.688  1.00  0.00    -0.206 F 
ATOM     97  C   UNL A   1      43.708  26.569  35.153  1.00  0.00     0.022 A 
BRANCH  94  98
ATOM     98  S   UNL A   1      44.490  28.100  37.319  1.00  0.00     0.124 S 
ATOM     99  O   UNL A   1      44.069  29.464  37.627  1.00  0.00    -0.237 OA
ATOM    100  O   UNL A   1      43.791  27.047  38.054  1.00  0.00    -0.237 OA
ATOM    101  O   UNL A   1      45.932  27.908  37.186  1.00  0.00    -0.744 OA
ENDBRANCH  94  98
ENDBRANCH  68  91
ENDBRANCH  42  43
ENDBRANCH  34  37
ENDBRANCH  32  33
ENDBRANCH  31  32
ENDBRANCH  30  31
ENDBRANCH   1  30
TORSDOF 21
ENDMDL
MODEL 3
REMARK VINA RESULT:     -11.0      1.935      3.564
REMARK SMILES CC(C)(C)OC(=O)N[C@@H](Cc1c[nH]c2cccc(Cl)c12)C(=O)NCCCCCCNC(=O)c1ccc(-c2c3nc(c(-c4cc(S(=O)(=O)[O-])ccc4F)c4ccc([nH]4)c(-c4cc(S(=O)(=O)[O-])ccc4F)c4nc(c(-c5cc(S(=O)(=O)[O-])ccc5F)c5ccc2[nH]5)C=C4)C=C3)cc1
REMARK SMILES IDX 26 1 25 2 24 3 23 4 21 5 22 6 9 8 8 9 6 10 7 11 5 13 2 14
REMARK SMILES IDX 1 15 3 16 4 17 10 18 11 19 12 20 20 21 13 22 14 23 18 24
REMARK SMILES IDX 15 26 17 27 19 28 16 29 27 30 28 31 29 32 30 33 31 34 32 36
REMARK SMILES IDX 33 37 34 38 95 39 35 40 94 41 36 42 37 43 38 44 88 45 39 46
REMARK SMILES IDX 93 47 87 48 89 49 40 50 92 51 86 52 85 53 41 55 73 56 53 57
REMARK SMILES IDX 72 58 54 59 57 60 71 61 90 62 55 63 56 64 70 66 91 67 58 68
REMARK SMILES IDX 42 69 43 70 51 71 44 72 50 73 52 74 49 75 45 76 46 77 47 78
REMARK SMILES IDX 48 79 74 80 75 81 83 82 76 83 82 84 84 85 81 86 77 87 78 88
REMARK SMILES IDX 79 89 80 90 59 91 60 92 68 93 61 94 67 95 69 96 66 97 62 98
REMARK SMILES IDX 63 99 64 100 65 101
REMARK H PARENT 23 7 8 12 13 25 30 35 89 54 57 65
REMARK Flexibility Score: inf
ROOT
ATOM      1  C   UNL A   1      36.820  23.401  25.206  1.00  0.00     0.002 C 
ENDROOT
BRANCH   1   2
ATOM      2  C   UNL A   1      35.575  24.092  25.769  1.00  0.00     0.021 C 
BRANCH   2   3
ATOM      3  C   UNL A   1      34.687  24.759  24.729  1.00  0.00     0.116 C 
BRANCH   3   4
ATOM      4  N   UNL A   1      34.577  24.054  23.470  1.00  0.00    -0.354 N 
ATOM      5  C   UNL A   1      33.531  23.335  22.961  1.00  0.00     0.243 C 
ATOM      6  O   UNL A   1      33.517  23.175  21.733  1.00  0.00    -0.273 OA
ATOM      7  H   UNL A   1      35.374  24.100  22.894  1.00  0.00     0.163 HD
BRANCH   5   8
ATOM      8  C   UNL A   1      32.350  22.812  23.819  1.00  0.00     0.179 C 
BRANCH   8   9
ATOM      9  N   UNL A   1      32.749  22.456  25.181  1.00  0.00    -0.309 N 
ATOM     10  C   UNL A   1      32.743  21.229  25.757  1.00  0.00     0.408 C 
ATOM     11  O   UNL A   1      33.256  21.076  26.865  1.00  0.00    -0.225 OA
ATOM     12  H   UNL A   1      33.059  23.198  25.747  1.00  0.00     0.167 HD
BRANCH  10  13
ATOM     13  O   UNL A   1      32.099  20.278  25.047  1.00  0.00    -0.444 OA
BRANCH  13  14
ATOM     14  C   UNL A   1      32.839  19.135  24.538  1.00  0.00     0.106 C 
ATOM     15  C   UNL A   1      32.485  17.972  25.479  1.00  0.00     0.056 C 
ATOM     16  C   UNL A   1      34.355  19.366  24.620  1.00  0.00     0.056 C 
ATOM     17  C   UNL A   1      32.393  18.764  23.119  1.00  0.00     0.056 C 
ENDBRANCH  13  14
ENDBRANCH  10  13
ENDBRANCH   8   9
BRANCH   8  18
ATOM     18  C   UNL A   1      31.061  23.660  23.763  1.00  0.00     0.073 C 
BRANCH  18  19
ATOM     19  C   UNL A   1      31.007  24.899  24.614  1.00  0.00    -0.019 A 
ATOM     20  C   UNL A   1      30.667  24.905  25.957  1.00  0.00     0.087 A 
ATOM     21  C   UNL A   1      31.292  26.272  24.251  1.00  0.00     0.021 A 
ATOM     22  N   UNL A   1      30.786  26.178  26.437  1.00  0.00    -0.361 N 
ATOM     23  C   UNL A   1      31.182  27.028  25.430  1.00  0.00     0.047 A 
ATOM     24  C   UNL A   1      31.695  26.984  23.094  1.00  0.00     0.050 A 
ATOM     25  H   UNL A   1      30.615  26.448  27.367  1.00  0.00     0.166 HD
ATOM     26  C   UNL A   1      31.480  28.398  25.497  1.00  0.00     0.027 A 
ATOM     27  C   UNL A   1      32.019  28.344  23.141  1.00  0.00     0.021 A 
ATOM     28  Cl  UNL A   1      31.808  26.144  21.612  1.00  0.00    -0.084 Cl
ATOM     29  C   UNL A   1      31.923  29.038  24.338  1.00  0.00     0.004 A 
ENDBRANCH  18  19
ENDBRANCH   8  18
ENDBRANCH   5   8
ENDBRANCH   3   4
ENDBRANCH   2   3
ENDBRANCH   1   2
BRANCH   1  30
ATOM     30  C   UNL A   1      38.060  23.347  26.115  1.00  0.00     0.002 C 
BRANCH  30  31
ATOM     31  C   UNL A   1      38.905  22.065  26.077  1.00  0.00     0.021 C 
BRANCH  31  32
ATOM     32  C   UNL A   1      40.117  22.067  26.991  1.00  0.00     0.116 C 
BRANCH  32  33
ATOM     33  N   UNL A   1      41.365  21.951  26.252  1.00  0.00    -0.352 N 
ATOM     34  C   UNL A   1      42.202  22.958  25.827  1.00  0.00     0.251 C 
ATOM     35  H   UNL A   1      41.647  21.035  26.028  1.00  0.00     0.163 HD
ATOM     36  O   UNL A   1      43.013  22.739  24.932  1.00  0.00    -0.269 OA
BRANCH  34  37
ATOM     37  C   UNL A   1      42.103  24.296  26.439  1.00  0.00     0.039 A 
ATOM     38  C   UNL A   1      41.318  25.282  25.837  1.00  0.00     0.014 A 
ATOM     39  C   UNL A   1      42.806  24.574  27.613  1.00  0.00     0.014 A 
ATOM     40  C   UNL A   1      41.196  26.519  26.461  1.00  0.00     0.010 A 
ATOM     41  C   UNL A   1      42.588  25.753  28.293  1.00  0.00     0.010 A 
ATOM     42  C   UNL A   1      41.816  26.745  27.702  1.00  0.00    -0.014 A 
BRANCH  42  43
ATOM     43  C   UNL A   1      41.578  28.000  28.407  1.00  0.00     0.031 A 
ATOM     44  C   UNL A   1      42.522  29.093  28.060  1.00  0.00     0.074 A 
ATOM     45  C   UNL A   1      40.529  28.241  29.219  1.00  0.00     0.049 A 
ATOM     46  N   UNL A   1      43.535  29.497  28.750  1.00  0.00    -0.248 NA
ATOM     47  C   UNL A   1      42.424  29.697  26.724  1.00  0.00     0.031 C 
ATOM     48  C   UNL A   1      39.333  27.420  29.436  1.00  0.00     0.029 A 
ATOM     49  N   UNL A   1      40.289  29.341  29.987  1.00  0.00    -0.354 N 
ATOM     50  C   UNL A   1      44.081  30.561  28.037  1.00  0.00     0.074 A 
ATOM     51  C   UNL A   1      43.481  30.513  26.726  1.00  0.00     0.031 C 
ATOM     52  C   UNL A   1      38.406  28.139  30.109  1.00  0.00     0.029 A 
ATOM     53  C   UNL A   1      39.017  29.383  30.537  1.00  0.00     0.049 A 
ATOM     54  H   UNL A   1      40.960  30.045  30.138  1.00  0.00     0.167 HD
ATOM     55  C   UNL A   1      44.800  31.537  28.660  1.00  0.00     0.034 A 
ATOM     56  C   UNL A   1      38.499  30.369  31.306  1.00  0.00     0.034 A 
ATOM     57  C   UNL A   1      45.071  31.187  30.028  1.00  0.00     0.049 A 
ATOM     58  C   UNL A   1      39.623  31.108  31.916  1.00  0.00     0.074 A 
ATOM     59  C   UNL A   1      45.890  30.294  30.679  1.00  0.00     0.029 A 
ATOM     60  N   UNL A   1      44.099  31.576  30.917  1.00  0.00    -0.354 N 
ATOM     61  N   UNL A   1      40.421  30.599  32.811  1.00  0.00    -0.248 NA
ATOM     62  C   UNL A   1      40.089  32.339  31.293  1.00  0.00     0.031 C 
ATOM     63  C   UNL A   1      45.213  29.956  31.886  1.00  0.00     0.029 A 
ATOM     64  C   UNL A   1      44.021  30.682  31.951  1.00  0.00     0.049 A 
ATOM     65  H   UNL A   1      43.540  32.381  30.824  1.00  0.00     0.167 HD
ATOM     66  C   UNL A   1      41.648  31.170  32.535  1.00  0.00     0.074 A 
ATOM     67  C   UNL A   1      41.347  32.354  31.742  1.00  0.00     0.031 C 
ATOM     68  C   UNL A   1      42.803  30.469  32.714  1.00  0.00     0.034 A 
BRANCH  55  69
ATOM     69  C   UNL A   1      44.897  32.967  28.186  1.00  0.00     0.023 A 
ATOM     70  C   UNL A   1      46.021  33.459  27.501  1.00  0.00     0.031 A 
ATOM     71  C   UNL A   1      43.764  33.806  28.195  1.00  0.00     0.131 A 
ATOM     72  C   UNL A   1      46.023  34.724  26.901  1.00  0.00     0.055 A 
ATOM     73  C   UNL A   1      43.741  35.043  27.535  1.00  0.00     0.041 A 
ATOM     74  F   UNL A   1      42.628  33.426  28.802  1.00  0.00    -0.206 F 
ATOM     75  C   UNL A   1      44.876  35.510  26.885  1.00  0.00     0.022 A 
BRANCH  72  76
ATOM     76  S   UNL A   1      47.528  35.348  26.105  1.00  0.00     0.124 S 
ATOM     77  O   UNL A   1      47.131  36.698  25.724  1.00  0.00    -0.237 OA
ATOM     78  O   UNL A   1      48.496  35.253  27.196  1.00  0.00    -0.237 OA
ATOM     79  O   UNL A   1      47.743  34.412  25.005  1.00  0.00    -0.744 OA
ENDBRANCH  72  76
ENDBRANCH  55  69
BRANCH  56  80
ATOM     80  C   UNL A   1      37.128  30.917  31.272  1.00  0.00     0.023 A 
ATOM     81  C   UNL A   1      36.540  31.230  30.034  1.00  0.00     0.031 A 
ATOM     82  C   UNL A   1      36.538  31.451  32.430  1.00  0.00     0.131 A 
ATOM     83  C   UNL A   1      35.458  32.118  29.973  1.00  0.00     0.055 A 
ATOM     84  C   UNL A   1      35.446  32.323  32.367  1.00  0.00     0.041 A 
ATOM     85  F   UNL A   1      37.063  31.202  33.640  1.00  0.00    -0.206 F 
ATOM     86  C   UNL A   1      34.913  32.676  31.131  1.00  0.00     0.022 A 
BRANCH  83  87
ATOM     87  S   UNL A   1      34.792  32.630  28.366  1.00  0.00     0.124 S 
ATOM     88  O   UNL A   1      34.273  31.375  27.828  1.00  0.00    -0.237 OA
ATOM     89  O   UNL A   1      33.786  33.608  28.763  1.00  0.00    -0.237 OA
ATOM     90  O   UNL A   1      35.962  33.161  27.672  1.00  0.00    -0.744 OA
ENDBRANCH  83  87
ENDBRANCH  56  80
BRANCH  68  91
ATOM     91  C   UNL A   1      42.771  29.270  33.624  1.00  0.00     0.023 A 
ATOM     92  C   UNL A   1      43.407  29.405  34.868  1.00  0.00     0.031 A 
ATOM     93  C   UNL A   1      42.304  27.993  33.263  1.00  0.00     0.131 A 
ATOM     94  C   UNL A   1      43.603  28.292  35.689  1.00  0.00     0.055 A 
ATOM     95  C   UNL A   1      42.442  26.892  34.116  1.00  0.00     0.041 A 
ATOM     96  F   UNL A   1      41.765  27.759  32.060  1.00  0.00    -0.206 F 
ATOM     97  C   UNL A   1      43.108  27.035  35.329  1.00  0.00     0.022 A 
BRANCH  94  98
ATOM     98  S   UNL A   1      44.612  28.430  37.183  1.00  0.00     0.124 S 
ATOM     99  O   UNL A   1      43.916  29.469  37.936  1.00  0.00    -0.237 OA
ATOM    100  O   UNL A   1      44.519  27.082  37.742  1.00  0.00    -0.237 OA
ATOM    101  O   UNL A   1      45.934  28.802  36.686  1.00  0.00    -0.744 OA
ENDBRANCH  94  98
ENDBRANCH  68  91
ENDBRANCH  42  43
ENDBRANCH  34  37
ENDBRANCH  32  33
ENDBRANCH  31  32
ENDBRANCH  30  31
ENDBRANCH   1  30
TORSDOF 21
ENDMDL
