MODEL 1
REMARK VINA RESULT:     -12.2      0.000      0.000
REMARK SMILES C#Cc1cc(Cl)cc2c1O[C@H](C(F)(F)F)C(C(=O)NCCCCCCNC(=O)c1ccc(-c3c4nc(c(-c5cc(S(=O)(=O)[O-])ccc5F)c5ccc([nH]5)c(-c5cc(S(=O)(=O)[O-])ccc5F)c5nc(c(-c6cc(S(=O)(=O)[O-])ccc6F)c6ccc3[nH]6)C=C5)C=C4)cc1)=C2
REMARK SMILES IDX 23 1 22 2 21 3 20 4 19 5 17 6 18 7 16 9 3 10 4 11 9 12 5 13
REMARK SMILES IDX 8 14 10 15 6 16 7 17 92 18 11 19 2 20 1 21 12 22 13 23 14 24
REMARK SMILES IDX 15 25 24 26 25 27 26 28 27 29 28 31 29 32 30 33 91 34 31 35
REMARK SMILES IDX 90 36 32 37 33 38 34 39 84 40 35 41 89 42 83 43 85 44 36 45
REMARK SMILES IDX 88 46 82 47 81 48 37 50 69 51 49 52 68 53 50 54 53 55 67 56
REMARK SMILES IDX 86 57 51 58 52 59 66 61 87 62 54 63 38 64 39 65 47 66 40 67
REMARK SMILES IDX 46 68 48 69 45 70 41 71 42 72 43 73 44 74 70 75 71 76 79 77
REMARK SMILES IDX 72 78 78 79 80 80 77 81 73 82 74 83 75 84 76 85 55 86 56 87
REMARK SMILES IDX 64 88 57 89 63 90 65 91 62 92 58 93 59 94 60 95 61 96
REMARK H PARENT 19 8 26 30 85 49 53 60
REMARK Flexibility Score: inf
ROOT
ATOM      1  C   UNL A   1      30.730  29.076  24.173  1.00  0.00     0.002 C 
ENDROOT
BRANCH   1   2
ATOM      2  C   UNL A   1      29.981  28.133  23.221  1.00  0.00     0.002 C 
BRANCH   2   3
ATOM      3  C   UNL A   1      29.397  26.888  23.892  1.00  0.00     0.021 C 
BRANCH   3   4
ATOM      4  C   UNL A   1      30.283  25.660  23.728  1.00  0.00     0.116 C 
BRANCH   4   5
ATOM      5  N   UNL A   1      31.145  25.771  22.562  1.00  0.00    -0.352 N 
ATOM      6  C   UNL A   1      32.272  25.179  22.105  1.00  0.00     0.251 C 
ATOM      7  O   UNL A   1      32.674  25.569  21.004  1.00  0.00    -0.270 OA
ATOM      8  H   UNL A   1      30.820  26.461  21.939  1.00  0.00     0.163 HD
BRANCH   6   9
ATOM      9  C   UNL A   1      33.031  24.119  22.834  1.00  0.00     0.067 C 
ATOM     10  C   UNL A   1      35.183  20.991  24.642  1.00  0.00     0.068 A 
ATOM     11  C   UNL A   1      34.560  19.770  24.890  1.00  0.00     0.041 A 
ATOM     12  C   UNL A   1      34.466  22.020  24.017  1.00  0.00     0.143 A 
ATOM     13  C   UNL A   1      33.230  19.588  24.506  1.00  0.00     0.043 A 
ATOM     14  C   UNL A   1      33.136  21.838  23.624  1.00  0.00     0.020 A 
ATOM     15  O   UNL A   1      35.142  23.177  23.770  1.00  0.00    -0.474 OA
ATOM     16  Cl  UNL A   1      32.461  18.078  24.804  1.00  0.00    -0.084 Cl
ATOM     17  C   UNL A   1      32.517  20.612  23.874  1.00  0.00     0.032 A 
ATOM     18  C   UNL A   1      32.441  22.912  22.922  1.00  0.00     0.025 C 
ATOM     19  C   UNL A   1      34.366  24.356  23.472  1.00  0.00     0.314 C 
BRANCH  10  20
ATOM     20  C   UNL A   1      36.549  21.195  25.024  1.00  0.00    -0.067 C 
ATOM     21  C   UNL A   1      37.691  21.302  25.389  1.00  0.00     0.010 C 
ENDBRANCH  10  20
BRANCH  19  22
ATOM     22  C   UNL A   1      34.272  25.233  24.736  1.00  0.00     0.429 C 
ATOM     23  F   UNL A   1      34.403  26.543  24.418  1.00  0.00    -0.167 F 
ATOM     24  F   UNL A   1      33.083  25.111  25.370  1.00  0.00    -0.167 F 
ATOM     25  F   UNL A   1      35.229  24.931  25.642  1.00  0.00    -0.167 F 
ENDBRANCH  19  22
ENDBRANCH   6   9
ENDBRANCH   4   5
ENDBRANCH   3   4
ENDBRANCH   2   3
ENDBRANCH   1   2
BRANCH   1  26
ATOM     26  C   UNL A   1      32.250  28.894  24.195  1.00  0.00     0.021 C 
BRANCH  26  27
ATOM     27  C   UNL A   1      32.904  29.345  25.494  1.00  0.00     0.116 C 
BRANCH  27  28
ATOM     28  N   UNL A   1      32.468  30.679  25.870  1.00  0.00    -0.352 N 
ATOM     29  C   UNL A   1      32.895  31.464  26.910  1.00  0.00     0.251 C 
ATOM     30  H   UNL A   1      31.769  31.073  25.300  1.00  0.00     0.163 HD
ATOM     31  O   UNL A   1      32.240  32.446  27.246  1.00  0.00    -0.269 OA
BRANCH  29  32
ATOM     32  C   UNL A   1      34.136  31.103  27.620  1.00  0.00     0.039 A 
ATOM     33  C   UNL A   1      35.032  32.111  27.975  1.00  0.00     0.014 A 
ATOM     34  C   UNL A   1      34.401  29.769  27.944  1.00  0.00     0.014 A 
ATOM     35  C   UNL A   1      36.177  31.782  28.700  1.00  0.00     0.010 A 
ATOM     36  C   UNL A   1      35.499  29.455  28.737  1.00  0.00     0.010 A 
ATOM     37  C   UNL A   1      36.405  30.458  29.113  1.00  0.00    -0.014 A 
BRANCH  37  38
ATOM     38  C   UNL A   1      37.604  30.103  29.909  1.00  0.00     0.031 A 
ATOM     39  C   UNL A   1      38.671  29.233  29.303  1.00  0.00     0.074 A 
ATOM     40  C   UNL A   1      37.722  30.550  31.175  1.00  0.00     0.049 A 
ATOM     41  N   UNL A   1      39.772  28.784  29.847  1.00  0.00    -0.248 NA
ATOM     42  C   UNL A   1      38.469  28.796  27.910  1.00  0.00     0.031 C 
ATOM     43  C   UNL A   1      36.742  31.390  31.869  1.00  0.00     0.029 A 
ATOM     44  N   UNL A   1      38.719  30.375  32.101  1.00  0.00    -0.354 N 
ATOM     45  C   UNL A   1      40.395  28.024  28.864  1.00  0.00     0.074 A 
ATOM     46  C   UNL A   1      39.521  28.014  27.714  1.00  0.00     0.031 C 
ATOM     47  C   UNL A   1      37.207  31.690  33.091  1.00  0.00     0.029 A 
ATOM     48  C   UNL A   1      38.491  31.026  33.292  1.00  0.00     0.049 A 
ATOM     49  H   UNL A   1      39.523  29.832  31.930  1.00  0.00     0.167 HD
ATOM     50  C   UNL A   1      41.605  27.419  28.909  1.00  0.00     0.034 A 
ATOM     51  C   UNL A   1      39.229  31.076  34.419  1.00  0.00     0.034 A 
ATOM     52  C   UNL A   1      42.477  27.452  30.052  1.00  0.00     0.049 A 
ATOM     53  C   UNL A   1      40.540  30.333  34.462  1.00  0.00     0.074 A 
ATOM     54  C   UNL A   1      43.735  26.893  30.184  1.00  0.00     0.029 A 
ATOM     55  N   UNL A   1      42.188  28.080  31.255  1.00  0.00    -0.354 N 
ATOM     56  N   UNL A   1      41.119  29.631  33.516  1.00  0.00    -0.248 NA
ATOM     57  C   UNL A   1      41.297  30.387  35.720  1.00  0.00     0.031 C 
ATOM     58  C   UNL A   1      44.176  27.119  31.490  1.00  0.00     0.029 A 
ATOM     59  C   UNL A   1      43.230  27.890  32.146  1.00  0.00     0.049 A 
ATOM     60  H   UNL A   1      41.365  28.585  31.446  1.00  0.00     0.167 HD
ATOM     61  C   UNL A   1      42.321  29.183  34.058  1.00  0.00     0.074 A 
ATOM     62  C   UNL A   1      42.388  29.703  35.408  1.00  0.00     0.031 C 
ATOM     63  C   UNL A   1      43.281  28.412  33.490  1.00  0.00     0.034 A 
BRANCH  50  64
ATOM     64  C   UNL A   1      42.066  26.669  27.688  1.00  0.00     0.023 A 
ATOM     65  C   UNL A   1      41.888  25.280  27.574  1.00  0.00     0.031 A 
ATOM     66  C   UNL A   1      42.625  27.359  26.599  1.00  0.00     0.131 A 
ATOM     67  C   UNL A   1      42.282  24.621  26.402  1.00  0.00     0.055 A 
ATOM     68  C   UNL A   1      42.962  26.707  25.413  1.00  0.00     0.041 A 
ATOM     69  F   UNL A   1      42.833  28.684  26.665  1.00  0.00    -0.206 F 
ATOM     70  C   UNL A   1      42.793  25.329  25.310  1.00  0.00     0.022 A 
BRANCH  67  71
ATOM     71  S   UNL A   1      42.165  22.814  26.339  1.00  0.00     0.124 S 
ATOM     72  O   UNL A   1      43.050  22.424  27.434  1.00  0.00    -0.237 OA
ATOM     73  O   UNL A   1      40.742  22.580  26.555  1.00  0.00    -0.237 OA
ATOM     74  O   UNL A   1      42.655  22.484  25.002  1.00  0.00    -0.744 OA
ENDBRANCH  67  71
ENDBRANCH  50  64
BRANCH  51  75
ATOM     75  C   UNL A   1      38.750  31.848  35.601  1.00  0.00     0.023 A 
ATOM     76  C   UNL A   1      38.142  31.200  36.688  1.00  0.00     0.031 A 
ATOM     77  C   UNL A   1      38.868  33.248  35.650  1.00  0.00     0.131 A 
ATOM     78  C   UNL A   1      37.644  31.955  37.762  1.00  0.00     0.055 A 
ATOM     79  C   UNL A   1      38.416  33.990  36.743  1.00  0.00     0.041 A 
ATOM     80  F   UNL A   1      39.444  33.917  34.638  1.00  0.00    -0.206 F 
ATOM     81  C   UNL A   1      37.791  33.343  37.804  1.00  0.00     0.022 A 
BRANCH  78  82
ATOM     82  S   UNL A   1      36.744  31.098  39.083  1.00  0.00     0.124 S 
ATOM     83  O   UNL A   1      35.554  31.930  39.219  1.00  0.00    -0.237 OA
ATOM     84  O   UNL A   1      36.539  29.775  38.502  1.00  0.00    -0.237 OA
ATOM     85  O   UNL A   1      37.672  31.142  40.211  1.00  0.00    -0.744 OA
ENDBRANCH  78  82
ENDBRANCH  51  75
BRANCH  63  86
ATOM     86  C   UNL A   1      44.504  28.099  34.310  1.00  0.00     0.023 A 
ATOM     87  C   UNL A   1      44.589  26.925  35.076  1.00  0.00     0.031 A 
ATOM     88  C   UNL A   1      45.622  28.953  34.272  1.00  0.00     0.131 A 
ATOM     89  C   UNL A   1      45.760  26.648  35.796  1.00  0.00     0.055 A 
ATOM     90  C   UNL A   1      46.802  28.644  34.947  1.00  0.00     0.041 A 
ATOM     91  F   UNL A   1      45.592  30.084  33.550  1.00  0.00    -0.206 F 
ATOM     92  C   UNL A   1      46.873  27.489  35.719  1.00  0.00     0.022 A 
BRANCH  89  93
ATOM     93  S   UNL A   1      45.794  25.186  36.868  1.00  0.00     0.124 S 
ATOM     94  O   UNL A   1      46.499  25.690  38.043  1.00  0.00    -0.237 OA
ATOM     95  O   UNL A   1      44.375  24.898  37.052  1.00  0.00    -0.237 OA
ATOM     96  O   UNL A   1      46.528  24.199  36.079  1.00  0.00    -0.744 OA
ENDBRANCH  89  93
ENDBRANCH  63  86
ENDBRANCH  37  38
ENDBRANCH  29  32
ENDBRANCH  27  28
ENDBRANCH  26  27
ENDBRANCH   1  26
TORSDOF 18
ENDMDL
MODEL 2
REMARK VINA RESULT:     -12.1      5.237     10.309
REMARK SMILES C#Cc1cc(Cl)cc2c1O[C@H](C(F)(F)F)C(C(=O)NCCCCCCNC(=O)c1ccc(-c3c4nc(c(-c5cc(S(=O)(=O)[O-])ccc5F)c5ccc([nH]5)c(-c5cc(S(=O)(=O)[O-])ccc5F)c5nc(c(-c6cc(S(=O)(=O)[O-])ccc6F)c6ccc3[nH]6)C=C5)C=C4)cc1)=C2
REMARK SMILES IDX 23 1 22 2 21 3 20 4 19 5 17 6 18 7 16 9 3 10 4 11 9 12 5 13
REMARK SMILES IDX 8 14 10 15 6 16 7 17 92 18 11 19 2 20 1 21 12 22 13 23 14 24
REMARK SMILES IDX 15 25 24 26 25 27 26 28 27 29 28 31 29 32 30 33 91 34 31 35
REMARK SMILES IDX 90 36 32 37 33 38 34 39 84 40 35 41 89 42 83 43 85 44 36 45
REMARK SMILES IDX 88 46 82 47 81 48 37 50 69 51 49 52 68 53 50 54 53 55 67 56
REMARK SMILES IDX 86 57 51 58 52 59 66 61 87 62 54 63 38 64 39 65 47 66 40 67
REMARK SMILES IDX 46 68 48 69 45 70 41 71 42 72 43 73 44 74 70 75 71 76 79 77
REMARK SMILES IDX 72 78 78 79 80 80 77 81 73 82 74 83 75 84 76 85 55 86 56 87
REMARK SMILES IDX 64 88 57 89 63 90 65 91 62 92 58 93 59 94 60 95 61 96
REMARK H PARENT 19 8 26 30 85 49 53 60
REMARK Flexibility Score: inf
ROOT
ATOM      1  C   UNL A   1      35.841  23.222  23.477  1.00  0.00     0.002 C 
ENDROOT
BRANCH   1   2
ATOM      2  C   UNL A   1      34.362  23.213  23.066  1.00  0.00     0.002 C 
BRANCH   2   3
ATOM      3  C   UNL A   1      33.501  22.198  23.820  1.00  0.00     0.021 C 
BRANCH   3   4
ATOM      4  C   UNL A   1      32.015  22.529  23.765  1.00  0.00     0.116 C 
BRANCH   4   5
ATOM      5  N   UNL A   1      31.432  22.603  25.095  1.00  0.00    -0.352 N 
ATOM      6  C   UNL A   1      31.013  23.574  25.940  1.00  0.00     0.251 C 
ATOM      7  O   UNL A   1      30.533  23.183  27.009  1.00  0.00    -0.270 OA
ATOM      8  H   UNL A   1      31.309  21.707  25.484  1.00  0.00     0.163 HD
BRANCH   6   9
ATOM      9  C   UNL A   1      31.097  25.038  25.660  1.00  0.00     0.067 C 
ATOM     10  C   UNL A   1      31.074  29.188  24.979  1.00  0.00     0.068 A 
ATOM     11  C   UNL A   1      30.305  29.719  23.946  1.00  0.00     0.041 A 
ATOM     12  C   UNL A   1      31.057  27.806  25.214  1.00  0.00     0.143 A 
ATOM     13  C   UNL A   1      29.523  28.866  23.165  1.00  0.00     0.043 A 
ATOM     14  C   UNL A   1      30.269  26.951  24.439  1.00  0.00     0.020 A 
ATOM     15  O   UNL A   1      31.803  27.353  26.262  1.00  0.00    -0.474 OA
ATOM     16  Cl  UNL A   1      28.565  29.522  21.894  1.00  0.00    -0.084 Cl
ATOM     17  C   UNL A   1      29.499  27.489  23.406  1.00  0.00     0.032 A 
ATOM     18  C   UNL A   1      30.231  25.527  24.753  1.00  0.00     0.025 C 
ATOM     19  C   UNL A   1      32.100  25.942  26.312  1.00  0.00     0.314 C 
BRANCH  10  20
ATOM     20  C   UNL A   1      31.879  30.047  25.795  1.00  0.00    -0.067 C 
ATOM     21  C   UNL A   1      32.554  30.820  26.423  1.00  0.00     0.010 C 
ENDBRANCH  10  20
BRANCH  19  22
ATOM     22  C   UNL A   1      33.533  25.707  25.799  1.00  0.00     0.429 C 
ATOM     23  F   UNL A   1      33.556  25.672  24.445  1.00  0.00    -0.167 F 
ATOM     24  F   UNL A   1      34.390  26.686  26.171  1.00  0.00    -0.167 F 
ATOM     25  F   UNL A   1      34.054  24.543  26.250  1.00  0.00    -0.167 F 
ENDBRANCH  19  22
ENDBRANCH   6   9
ENDBRANCH   4   5
ENDBRANCH   3   4
ENDBRANCH   2   3
ENDBRANCH   1   2
BRANCH   1  26
ATOM     26  C   UNL A   1      36.369  21.885  24.003  1.00  0.00     0.021 C 
BRANCH  26  27
ATOM     27  C   UNL A   1      36.782  21.922  25.469  1.00  0.00     0.116 C 
BRANCH  27  28
ATOM     28  N   UNL A   1      37.703  20.844  25.786  1.00  0.00    -0.352 N 
ATOM     29  C   UNL A   1      39.031  20.914  26.116  1.00  0.00     0.251 C 
ATOM     30  H   UNL A   1      37.319  19.937  25.761  1.00  0.00     0.163 HD
ATOM     31  O   UNL A   1      39.724  19.902  26.091  1.00  0.00    -0.269 OA
BRANCH  29  32
ATOM     32  C   UNL A   1      39.613  22.219  26.483  1.00  0.00     0.039 A 
ATOM     33  C   UNL A   1      40.653  22.262  27.410  1.00  0.00     0.014 A 
ATOM     34  C   UNL A   1      39.132  23.395  25.898  1.00  0.00     0.014 A 
ATOM     35  C   UNL A   1      41.247  23.486  27.715  1.00  0.00     0.010 A 
ATOM     36  C   UNL A   1      39.779  24.601  26.141  1.00  0.00     0.010 A 
ATOM     37  C   UNL A   1      40.835  24.661  27.061  1.00  0.00    -0.014 A 
BRANCH  37  38
ATOM     38  C   UNL A   1      41.479  25.963  27.357  1.00  0.00     0.031 A 
ATOM     39  C   UNL A   1      40.744  26.991  28.172  1.00  0.00     0.074 A 
ATOM     40  C   UNL A   1      42.714  26.221  26.880  1.00  0.00     0.049 A 
ATOM     41  N   UNL A   1      41.120  28.198  28.505  1.00  0.00    -0.248 NA
ATOM     42  C   UNL A   1      39.404  26.624  28.663  1.00  0.00     0.031 C 
ATOM     43  C   UNL A   1      43.515  25.303  26.067  1.00  0.00     0.029 A 
ATOM     44  N   UNL A   1      43.517  27.325  27.017  1.00  0.00    -0.354 N 
ATOM     45  C   UNL A   1      40.073  28.727  29.250  1.00  0.00     0.074 A 
ATOM     46  C   UNL A   1      39.018  27.740  29.263  1.00  0.00     0.031 C 
ATOM     47  C   UNL A   1      44.709  25.863  25.818  1.00  0.00     0.029 A 
ATOM     48  C   UNL A   1      44.743  27.199  26.405  1.00  0.00     0.049 A 
ATOM     49  H   UNL A   1      43.242  28.133  27.510  1.00  0.00     0.167 HD
ATOM     50  C   UNL A   1      40.013  29.917  29.893  1.00  0.00     0.034 A 
ATOM     51  C   UNL A   1      45.773  28.064  26.318  1.00  0.00     0.034 A 
ATOM     52  C   UNL A   1      41.079  30.884  29.891  1.00  0.00     0.049 A 
ATOM     53  C   UNL A   1      45.649  29.410  26.987  1.00  0.00     0.074 A 
ATOM     54  C   UNL A   1      41.125  32.106  30.536  1.00  0.00     0.029 A 
ATOM     55  N   UNL A   1      42.283  30.740  29.217  1.00  0.00    -0.354 N 
ATOM     56  N   UNL A   1      44.655  29.886  27.699  1.00  0.00    -0.248 NA
ATOM     57  C   UNL A   1      46.782  30.334  26.841  1.00  0.00     0.031 C 
ATOM     58  C   UNL A   1      42.325  32.733  30.194  1.00  0.00     0.029 A 
ATOM     59  C   UNL A   1      43.063  31.868  29.402  1.00  0.00     0.049 A 
ATOM     60  H   UNL A   1      42.543  29.952  28.687  1.00  0.00     0.167 HD
ATOM     61  C   UNL A   1      45.056  31.155  28.109  1.00  0.00     0.074 A 
ATOM     62  C   UNL A   1      46.385  31.365  27.573  1.00  0.00     0.031 C 
ATOM     63  C   UNL A   1      44.385  32.063  28.859  1.00  0.00     0.034 A 
BRANCH  50  64
ATOM     64  C   UNL A   1      38.761  30.245  30.659  1.00  0.00     0.023 A 
ATOM     65  C   UNL A   1      37.736  31.016  30.086  1.00  0.00     0.031 A 
ATOM     66  C   UNL A   1      38.559  29.724  31.949  1.00  0.00     0.131 A 
ATOM     67  C   UNL A   1      36.560  31.260  30.808  1.00  0.00     0.055 A 
ATOM     68  C   UNL A   1      37.363  29.921  32.640  1.00  0.00     0.041 A 
ATOM     69  F   UNL A   1      39.515  28.997  32.548  1.00  0.00    -0.206 F 
ATOM     70  C   UNL A   1      36.356  30.695  32.071  1.00  0.00     0.022 A 
BRANCH  67  71
ATOM     71  S   UNL A   1      35.317  32.369  30.097  1.00  0.00     0.124 S 
ATOM     72  O   UNL A   1      36.133  33.520  29.714  1.00  0.00    -0.237 OA
ATOM     73  O   UNL A   1      34.776  31.577  28.998  1.00  0.00    -0.237 OA
ATOM     74  O   UNL A   1      34.395  32.608  31.205  1.00  0.00    -0.744 OA
ENDBRANCH  67  71
ENDBRANCH  50  64
BRANCH  51  75
ATOM     75  C   UNL A   1      47.008  27.694  25.569  1.00  0.00     0.023 A 
ATOM     76  C   UNL A   1      47.122  27.951  24.194  1.00  0.00     0.031 A 
ATOM     77  C   UNL A   1      48.082  27.054  26.212  1.00  0.00     0.131 A 
ATOM     78  C   UNL A   1      48.270  27.538  23.499  1.00  0.00     0.055 A 
ATOM     79  C   UNL A   1      49.244  26.691  25.526  1.00  0.00     0.041 A 
ATOM     80  F   UNL A   1      48.027  26.788  27.528  1.00  0.00    -0.206 F 
ATOM     81  C   UNL A   1      49.337  26.924  24.158  1.00  0.00     0.022 A 
BRANCH  78  82
ATOM     82  S   UNL A   1      48.324  27.763  21.700  1.00  0.00     0.124 S 
ATOM     83  O   UNL A   1      49.436  28.694  21.551  1.00  0.00    -0.237 OA
ATOM     84  O   UNL A   1      48.558  26.401  21.231  1.00  0.00    -0.237 OA
ATOM     85  O   UNL A   1      47.005  28.308  21.386  1.00  0.00    -0.744 OA
ENDBRANCH  78  82
ENDBRANCH  51  75
BRANCH  63  86
ATOM     86  C   UNL A   1      45.079  33.362  29.174  1.00  0.00     0.023 A 
ATOM     87  C   UNL A   1      44.900  34.499  28.370  1.00  0.00     0.031 A 
ATOM     88  C   UNL A   1      45.876  33.479  30.327  1.00  0.00     0.131 A 
ATOM     89  C   UNL A   1      45.532  35.702  28.716  1.00  0.00     0.055 A 
ATOM     90  C   UNL A   1      46.457  34.692  30.695  1.00  0.00     0.041 A 
ATOM     91  F   UNL A   1      46.073  32.422  31.132  1.00  0.00    -0.206 F 
ATOM     92  C   UNL A   1      46.291  35.811  29.884  1.00  0.00     0.022 A 
BRANCH  89  93
ATOM     93  S   UNL A   1      45.377  37.118  27.595  1.00  0.00     0.124 S 
ATOM     94  O   UNL A   1      45.582  38.244  28.501  1.00  0.00    -0.237 OA
ATOM     95  O   UNL A   1      46.445  36.873  26.631  1.00  0.00    -0.237 OA
ATOM     96  O   UNL A   1      44.022  36.988  27.062  1.00  0.00    -0.744 OA
ENDBRANCH  89  93
ENDBRANCH  63  86
ENDBRANCH  37  38
ENDBRANCH  29  32
ENDBRANCH  27  28
ENDBRANCH  26  27
ENDBRANCH   1  26
TORSDOF 18
ENDMDL
MODEL 3
REMARK VINA RESULT:     -12.0      5.183      7.920
REMARK SMILES C#Cc1cc(Cl)cc2c1O[C@H](C(F)(F)F)C(C(=O)NCCCCCCNC(=O)c1ccc(-c3c4nc(c(-c5cc(S(=O)(=O)[O-])ccc5F)c5ccc([nH]5)c(-c5cc(S(=O)(=O)[O-])ccc5F)c5nc(c(-c6cc(S(=O)(=O)[O-])ccc6F)c6ccc3[nH]6)C=C5)C=C4)cc1)=C2
REMARK SMILES IDX 23 1 22 2 21 3 20 4 19 5 17 6 18 7 16 9 3 10 4 11 9 12 5 13
REMARK SMILES IDX 8 14 10 15 6 16 7 17 92 18 11 19 2 20 1 21 12 22 13 23 14 24
REMARK SMILES IDX 15 25 24 26 25 27 26 28 27 29 28 31 29 32 30 33 91 34 31 35
REMARK SMILES IDX 90 36 32 37 33 38 34 39 84 40 35 41 89 42 83 43 85 44 36 45
REMARK SMILES IDX 88 46 82 47 81 48 37 50 69 51 49 52 68 53 50 54 53 55 67 56
REMARK SMILES IDX 86 57 51 58 52 59 66 61 87 62 54 63 38 64 39 65 47 66 40 67
REMARK SMILES IDX 46 68 48 69 45 70 41 71 42 72 43 73 44 74 70 75 71 76 79 77
REMARK SMILES IDX 72 78 78 79 80 80 77 81 73 82 74 83 75 84 76 85 55 86 56 87
REMARK SMILES IDX 64 88 57 89 63 90 65 91 62 92 58 93 59 94 60 95 61 96
REMARK H PARENT 19 8 26 30 85 49 53 60
REMARK Flexibility Score: inf
ROOT
ATOM      1  C   UNL A   1      35.403  21.223  26.031  1.00  0.00     0.002 C 
ENDROOT
BRANCH   1   2
ATOM      2  C   UNL A   1      33.914  21.513  26.269  1.00  0.00     0.002 C 
BRANCH   2   3
ATOM      3  C   UNL A   1      32.969  20.817  25.287  1.00  0.00     0.021 C 
BRANCH   3   4
ATOM      4  C   UNL A   1      32.129  21.800  24.482  1.00  0.00     0.116 C 
BRANCH   4   5
ATOM      5  N   UNL A   1      32.835  22.265  23.299  1.00  0.00    -0.352 N 
ATOM      6  C   UNL A   1      33.163  23.457  22.746  1.00  0.00     0.251 C 
ATOM      7  O   UNL A   1      33.823  23.401  21.704  1.00  0.00    -0.270 OA
ATOM      8  H   UNL A   1      33.163  21.513  22.756  1.00  0.00     0.163 HD
BRANCH   6   9
ATOM      9  C   UNL A   1      32.781  24.787  23.307  1.00  0.00     0.067 C 
ATOM     10  C   UNL A   1      31.936  28.642  24.759  1.00  0.00     0.068 A 
ATOM     11  C   UNL A   1      32.710  29.186  25.782  1.00  0.00     0.041 A 
ATOM     12  C   UNL A   1      32.240  27.367  24.265  1.00  0.00     0.143 A 
ATOM     13  C   UNL A   1      33.781  28.453  26.294  1.00  0.00     0.043 A 
ATOM     14  C   UNL A   1      33.317  26.634  24.771  1.00  0.00     0.020 A 
ATOM     15  O   UNL A   1      31.468  26.906  23.240  1.00  0.00    -0.474 OA
ATOM     16  Cl  UNL A   1      34.744  29.126  27.552  1.00  0.00    -0.084 Cl
ATOM     17  C   UNL A   1      34.090  27.183  25.795  1.00  0.00     0.032 A 
ATOM     18  C   UNL A   1      33.639  25.335  24.189  1.00  0.00     0.025 C 
ATOM     19  C   UNL A   1      31.506  25.492  22.955  1.00  0.00     0.314 C 
BRANCH  10  20
ATOM     20  C   UNL A   1      30.835  29.381  24.216  1.00  0.00    -0.067 C 
ATOM     21  C   UNL A   1      29.892  29.939  23.717  1.00  0.00     0.010 C 
ENDBRANCH  10  20
BRANCH  19  22
ATOM     22  C   UNL A   1      30.266  24.817  23.570  1.00  0.00     0.429 C 
ATOM     23  F   UNL A   1      29.205  25.660  23.553  1.00  0.00    -0.167 F 
ATOM     24  F   UNL A   1      29.884  23.708  22.895  1.00  0.00    -0.167 F 
ATOM     25  F   UNL A   1      30.471  24.439  24.853  1.00  0.00    -0.167 F 
ENDBRANCH  19  22
ENDBRANCH   6   9
ENDBRANCH   4   5
ENDBRANCH   3   4
ENDBRANCH   2   3
ENDBRANCH   1   2
BRANCH   1  26
ATOM     26  C   UNL A   1      35.925  21.635  24.651  1.00  0.00     0.021 C 
BRANCH  26  27
ATOM     27  C   UNL A   1      37.438  21.801  24.592  1.00  0.00     0.116 C 
BRANCH  27  28
ATOM     28  N   UNL A   1      38.117  20.719  25.283  1.00  0.00    -0.352 N 
ATOM     29  C   UNL A   1      39.275  20.755  26.015  1.00  0.00     0.251 C 
ATOM     30  H   UNL A   1      37.685  19.836  25.216  1.00  0.00     0.163 HD
ATOM     31  O   UNL A   1      39.852  19.712  26.304  1.00  0.00    -0.269 OA
BRANCH  29  32
ATOM     32  C   UNL A   1      39.820  22.061  26.433  1.00  0.00     0.039 A 
ATOM     33  C   UNL A   1      41.057  22.107  27.073  1.00  0.00     0.014 A 
ATOM     34  C   UNL A   1      39.107  23.237  26.177  1.00  0.00     0.014 A 
ATOM     35  C   UNL A   1      41.605  23.343  27.415  1.00  0.00     0.010 A 
ATOM     36  C   UNL A   1      39.691  24.470  26.444  1.00  0.00     0.010 A 
ATOM     37  C   UNL A   1      40.941  24.535  27.077  1.00  0.00    -0.014 A 
BRANCH  37  38
ATOM     38  C   UNL A   1      41.527  25.855  27.410  1.00  0.00     0.031 A 
ATOM     39  C   UNL A   1      42.896  26.213  26.901  1.00  0.00     0.074 A 
ATOM     40  C   UNL A   1      40.835  26.719  28.180  1.00  0.00     0.049 A 
ATOM     41  N   UNL A   1      43.594  27.298  27.112  1.00  0.00    -0.248 NA
ATOM     42  C   UNL A   1      43.580  25.216  26.058  1.00  0.00     0.031 C 
ATOM     43  C   UNL A   1      39.504  26.472  28.740  1.00  0.00     0.029 A 
ATOM     44  N   UNL A   1      41.145  27.982  28.615  1.00  0.00    -0.354 N 
ATOM     45  C   UNL A   1      44.787  27.120  26.423  1.00  0.00     0.074 A 
ATOM     46  C   UNL A   1      44.752  25.797  25.844  1.00  0.00     0.031 C 
ATOM     47  C   UNL A   1      39.097  27.564  29.405  1.00  0.00     0.029 A 
ATOM     48  C   UNL A   1      40.153  28.570  29.366  1.00  0.00     0.049 A 
ATOM     49  H   UNL A   1      41.999  28.428  28.409  1.00  0.00     0.167 HD
ATOM     50  C   UNL A   1      45.806  27.997  26.261  1.00  0.00     0.034 A 
ATOM     51  C   UNL A   1      40.104  29.778  29.963  1.00  0.00     0.034 A 
ATOM     52  C   UNL A   1      45.822  29.320  26.825  1.00  0.00     0.049 A 
ATOM     53  C   UNL A   1      41.284  30.706  29.822  1.00  0.00     0.074 A 
ATOM     54  C   UNL A   1      46.796  30.293  26.694  1.00  0.00     0.029 A 
ATOM     55  N   UNL A   1      44.821  29.858  27.621  1.00  0.00    -0.354 N 
ATOM     56  N   UNL A   1      42.399  30.524  29.154  1.00  0.00    -0.248 NA
ATOM     57  C   UNL A   1      41.202  31.999  30.514  1.00  0.00     0.031 C 
ATOM     58  C   UNL A   1      46.420  31.392  27.469  1.00  0.00     0.029 A 
ATOM     59  C   UNL A   1      45.173  31.137  28.017  1.00  0.00     0.049 A 
ATOM     60  H   UNL A   1      43.986  29.399  27.866  1.00  0.00     0.167 HD
ATOM     61  C   UNL A   1      43.138  31.691  29.323  1.00  0.00     0.074 A 
ATOM     62  C   UNL A   1      42.338  32.574  30.147  1.00  0.00     0.031 C 
ATOM     63  C   UNL A   1      44.366  32.003  28.842  1.00  0.00     0.034 A 
BRANCH  50  64
ATOM     64  C   UNL A   1      46.989  27.563  25.439  1.00  0.00     0.023 A 
ATOM     65  C   UNL A   1      47.092  27.892  24.078  1.00  0.00     0.031 A 
ATOM     66  C   UNL A   1      48.058  26.876  26.040  1.00  0.00     0.131 A 
ATOM     67  C   UNL A   1      48.232  27.517  23.354  1.00  0.00     0.055 A 
ATOM     68  C   UNL A   1      49.216  26.556  25.330  1.00  0.00     0.041 A 
ATOM     69  F   UNL A   1      48.001  26.522  27.334  1.00  0.00    -0.206 F 
ATOM     70  C   UNL A   1      49.306  26.875  23.978  1.00  0.00     0.022 A 
BRANCH  67  71
ATOM     71  S   UNL A   1      48.274  27.835  21.571  1.00  0.00     0.124 S 
ATOM     72  O   UNL A   1      46.921  28.329  21.328  1.00  0.00    -0.237 OA
ATOM     73  O   UNL A   1      49.344  28.819  21.449  1.00  0.00    -0.237 OA
ATOM     74  O   UNL A   1      48.565  26.524  20.995  1.00  0.00    -0.744 OA
ENDBRANCH  67  71
ENDBRANCH  50  64
BRANCH  51  75
ATOM     75  C   UNL A   1      38.904  30.182  30.750  1.00  0.00     0.023 A 
ATOM     76  C   UNL A   1      37.931  31.030  30.199  1.00  0.00     0.031 A 
ATOM     77  C   UNL A   1      38.727  29.748  32.076  1.00  0.00     0.131 A 
ATOM     78  C   UNL A   1      36.841  31.445  30.981  1.00  0.00     0.055 A 
ATOM     79  C   UNL A   1      37.615  30.123  32.833  1.00  0.00     0.041 A 
ATOM     80  F   UNL A   1      39.626  28.933  32.651  1.00  0.00    -0.206 F 
ATOM     81  C   UNL A   1      36.669  30.985  32.288  1.00  0.00     0.022 A 
BRANCH  78  82
ATOM     82  S   UNL A   1      35.678  32.648  30.282  1.00  0.00     0.124 S 
ATOM     83  O   UNL A   1      36.373  33.907  30.524  1.00  0.00    -0.237 OA
ATOM     84  O   UNL A   1      35.595  32.217  28.890  1.00  0.00    -0.237 OA
ATOM     85  O   UNL A   1      34.463  32.443  31.068  1.00  0.00    -0.744 OA
ENDBRANCH  78  82
ENDBRANCH  51  75
BRANCH  63  86
ATOM     86  C   UNL A   1      44.920  33.365  29.166  1.00  0.00     0.023 A 
ATOM     87  C   UNL A   1      44.715  34.460  28.311  1.00  0.00     0.031 A 
ATOM     88  C   UNL A   1      45.605  33.583  30.375  1.00  0.00     0.131 A 
ATOM     89  C   UNL A   1      45.213  35.722  28.664  1.00  0.00     0.055 A 
ATOM     90  C   UNL A   1      46.050  34.852  30.747  1.00  0.00     0.041 A 
ATOM     91  F   UNL A   1      45.821  32.570  31.230  1.00  0.00    -0.206 F 
ATOM     92  C   UNL A   1      45.860  35.928  29.886  1.00  0.00     0.022 A 
BRANCH  89  93
ATOM     93  S   UNL A   1      45.035  37.087  27.486  1.00  0.00     0.124 S 
ATOM     94  O   UNL A   1      43.656  36.922  27.037  1.00  0.00    -0.237 OA
ATOM     95  O   UNL A   1      45.298  38.257  28.318  1.00  0.00    -0.237 OA
ATOM     96  O   UNL A   1      46.054  36.805  26.477  1.00  0.00    -0.744 OA
ENDBRANCH  89  93
ENDBRANCH  63  86
ENDBRANCH  37  38
ENDBRANCH  29  32
ENDBRANCH  27  28
ENDBRANCH  26  27
ENDBRANCH   1  26
TORSDOF 18
ENDMDL
