MODEL 1
REMARK VINA RESULT:     -12.0      0.000      0.000
REMARK SMILES NS(=O)(=O)c1ccc(-n2nc(C(=O)NCCCCCCNC(=O)c3ccc(-c4c5nc(c(-c6cc(S(=O)(=O)[O-])ccc6F)c6ccc([nH]6)c(-c6cc(S(=O)(=O)[O-])ccc6F)c6nc(c(-c7cc(S(=O)(=O)[O-])ccc7F)c7ccc4[nH]7)C=C6)C=C5)cc3)cc2-c2ccc(Cl)s2)cc1
REMARK SMILES IDX 17 1 16 2 15 3 14 4 12 5 13 6 11 8 9 9 10 10 88 11 87 12
REMARK SMILES IDX 8 13 5 14 6 15 96 16 7 17 95 18 2 19 3 20 4 21 1 22 89 25
REMARK SMILES IDX 90 26 94 27 91 28 92 29 93 30 18 31 19 32 20 33 21 34 22 35
REMARK SMILES IDX 23 37 24 38 25 39 86 40 26 41 85 42 27 43 28 44 29 45 79 46
REMARK SMILES IDX 30 47 84 48 78 49 80 50 31 51 83 52 77 53 76 54 32 56 64 57
REMARK SMILES IDX 44 58 63 59 45 60 48 61 62 62 81 63 46 64 47 65 61 67 82 68
REMARK SMILES IDX 49 69 33 70 34 71 42 72 35 73 41 74 43 75 40 76 36 77 37 78
REMARK SMILES IDX 38 79 39 80 65 81 66 82 74 83 67 84 73 85 75 86 72 87 68 88
REMARK SMILES IDX 69 89 70 90 71 91 50 92 51 93 59 94 52 95 58 96 60 97 57 98
REMARK SMILES IDX 53 99 54 100 55 101 56 102
REMARK H PARENT 14 7 1 23 1 24 21 36 80 55 48 66
REMARK Flexibility Score: inf
ROOT
ATOM      1  C   UNL A   1      35.259  24.148  25.360  1.00  0.00     0.002 C 
ENDROOT
BRANCH   1   2
ATOM      2  C   UNL A   1      34.237  23.062  25.726  1.00  0.00     0.021 C 
BRANCH   2   3
ATOM      3  C   UNL A   1      33.789  23.114  27.184  1.00  0.00     0.116 C 
BRANCH   3   4
ATOM      4  N   UNL A   1      32.355  22.963  27.304  1.00  0.00    -0.351 N 
ATOM      5  C   UNL A   1      31.281  23.739  26.934  1.00  0.00     0.271 C 
ATOM      6  O   UNL A   1      30.173  23.246  27.167  1.00  0.00    -0.267 OA
ATOM      7  H   UNL A   1      32.091  22.123  27.746  1.00  0.00     0.163 HD
BRANCH   5   8
ATOM      8  C   UNL A   1      31.432  25.042  26.248  1.00  0.00     0.151 A 
ATOM      9  N   UNL A   1      32.032  27.107  26.047  1.00  0.00    -0.231 N 
ATOM     10  N   UNL A   1      32.211  25.998  26.799  1.00  0.00    -0.162 NA
ATOM     11  C   UNL A   1      31.225  26.864  24.956  1.00  0.00     0.085 A 
ATOM     12  C   UNL A   1      30.898  25.527  25.031  1.00  0.00     0.066 A 
BRANCH   9  13
ATOM     13  C   UNL A   1      32.625  28.328  26.441  1.00  0.00     0.065 A 
ATOM     14  C   UNL A   1      33.750  30.661  27.444  1.00  0.00     0.082 A 
ATOM     15  C   UNL A   1      34.579  29.591  27.090  1.00  0.00     0.024 A 
ATOM     16  C   UNL A   1      32.365  30.587  27.251  1.00  0.00     0.024 A 
ATOM     17  C   UNL A   1      34.014  28.415  26.602  1.00  0.00     0.030 A 
ATOM     18  C   UNL A   1      31.801  29.426  26.718  1.00  0.00     0.030 A 
BRANCH  14  19
ATOM     19  S   UNL A   1      34.414  32.121  28.181  1.00  0.00     0.238 S 
ATOM     20  O   UNL A   1      35.616  32.495  27.455  1.00  0.00    -0.207 OA
ATOM     21  O   UNL A   1      34.376  31.982  29.608  1.00  0.00    -0.207 OA
BRANCH  19  22
ATOM     22  N   UNL A   1      33.298  33.328  27.816  1.00  0.00    -0.225 NA
ATOM     23  H   UNL A   1      33.716  33.990  27.162  1.00  0.00     0.137 HD
ATOM     24  H   UNL A   1      33.032  33.816  28.671  1.00  0.00     0.137 HD
ENDBRANCH  19  22
ENDBRANCH  14  19
ENDBRANCH   9  13
BRANCH  11  25
ATOM     25  C   UNL A   1      30.890  27.768  23.897  1.00  0.00     0.054 A 
ATOM     26  C   UNL A   1      31.778  28.526  23.155  1.00  0.00     0.024 A 
ATOM     27  S   UNL A   1      29.264  28.106  23.474  1.00  0.00    -0.122 S 
ATOM     28  C   UNL A   1      31.111  29.389  22.236  1.00  0.00     0.033 A 
ATOM     29  C   UNL A   1      29.751  29.250  22.328  1.00  0.00     0.094 A 
ATOM     30  Cl  UNL A   1      28.572  30.107  21.421  1.00  0.00    -0.072 Cl
ENDBRANCH  11  25
ENDBRANCH   5   8
ENDBRANCH   3   4
ENDBRANCH   2   3
ENDBRANCH   1   2
BRANCH   1  31
ATOM     31  C   UNL A   1      36.657  23.647  24.953  1.00  0.00     0.002 C 
BRANCH  31  32
ATOM     32  C   UNL A   1      37.617  23.272  26.094  1.00  0.00     0.021 C 
BRANCH  32  33
ATOM     33  C   UNL A   1      38.401  24.450  26.648  1.00  0.00     0.116 C 
BRANCH  33  34
ATOM     34  N   UNL A   1      39.707  24.612  26.000  1.00  0.00    -0.352 N 
ATOM     35  C   UNL A   1      40.561  25.703  26.043  1.00  0.00     0.251 C 
ATOM     36  H   UNL A   1      40.017  23.846  25.465  1.00  0.00     0.163 HD
ATOM     37  O   UNL A   1      41.414  25.863  25.179  1.00  0.00    -0.269 OA
BRANCH  35  38
ATOM     38  C   UNL A   1      40.407  26.659  27.151  1.00  0.00     0.039 A 
ATOM     39  C   UNL A   1      40.295  26.268  28.489  1.00  0.00     0.014 A 
ATOM     40  C   UNL A   1      40.453  28.003  26.810  1.00  0.00     0.014 A 
ATOM     41  C   UNL A   1      40.317  27.254  29.477  1.00  0.00     0.010 A 
ATOM     42  C   UNL A   1      40.728  28.927  27.774  1.00  0.00     0.010 A 
ATOM     43  C   UNL A   1      40.553  28.586  29.107  1.00  0.00    -0.014 A 
BRANCH  43  44
ATOM     44  C   UNL A   1      40.636  29.674  30.071  1.00  0.00     0.031 A 
ATOM     45  C   UNL A   1      39.368  30.362  30.403  1.00  0.00     0.074 A 
ATOM     46  C   UNL A   1      41.759  29.909  30.786  1.00  0.00     0.049 A 
ATOM     47  N   UNL A   1      39.031  31.558  30.060  1.00  0.00    -0.248 NA
ATOM     48  C   UNL A   1      38.303  29.625  31.094  1.00  0.00     0.031 C 
ATOM     49  C   UNL A   1      43.030  29.171  30.776  1.00  0.00     0.029 A 
ATOM     50  N   UNL A   1      41.949  30.806  31.787  1.00  0.00    -0.354 N 
ATOM     51  C   UNL A   1      37.811  31.818  30.671  1.00  0.00     0.074 A 
ATOM     52  C   UNL A   1      37.330  30.542  31.136  1.00  0.00     0.031 C 
ATOM     53  C   UNL A   1      43.744  29.479  31.880  1.00  0.00     0.029 A 
ATOM     54  C   UNL A   1      43.079  30.572  32.560  1.00  0.00     0.049 A 
ATOM     55  H   UNL A   1      41.336  31.559  31.952  1.00  0.00     0.167 HD
ATOM     56  C   UNL A   1      37.407  33.096  30.915  1.00  0.00     0.034 A 
ATOM     57  C   UNL A   1      43.453  31.228  33.687  1.00  0.00     0.034 A 
ATOM     58  C   UNL A   1      38.279  34.049  30.261  1.00  0.00     0.049 A 
ATOM     59  C   UNL A   1      42.830  32.574  33.606  1.00  0.00     0.074 A 
ATOM     60  C   UNL A   1      38.635  34.291  28.949  1.00  0.00     0.029 A 
ATOM     61  N   UNL A   1      39.253  34.656  31.026  1.00  0.00    -0.354 N 
ATOM     62  N   UNL A   1      43.141  33.438  32.674  1.00  0.00    -0.248 NA
ATOM     63  C   UNL A   1      41.517  32.774  34.206  1.00  0.00     0.031 C 
ATOM     64  C   UNL A   1      40.037  34.552  28.997  1.00  0.00     0.029 A 
ATOM     65  C   UNL A   1      40.438  34.543  30.336  1.00  0.00     0.049 A 
ATOM     66  H   UNL A   1      39.124  35.087  31.901  1.00  0.00     0.167 HD
ATOM     67  C   UNL A   1      41.929  33.965  32.252  1.00  0.00     0.074 A 
ATOM     68  C   UNL A   1      40.982  33.614  33.311  1.00  0.00     0.031 C 
ATOM     69  C   UNL A   1      41.739  34.380  30.962  1.00  0.00     0.034 A 
BRANCH  56  70
ATOM     70  C   UNL A   1      36.434  33.539  31.978  1.00  0.00     0.023 A 
ATOM     71  C   UNL A   1      35.220  34.111  31.549  1.00  0.00     0.031 A 
ATOM     72  C   UNL A   1      36.737  33.681  33.347  1.00  0.00     0.131 A 
ATOM     73  C   UNL A   1      34.418  34.854  32.431  1.00  0.00     0.055 A 
ATOM     74  C   UNL A   1      35.901  34.361  34.239  1.00  0.00     0.041 A 
ATOM     75  F   UNL A   1      37.896  33.266  33.873  1.00  0.00    -0.206 F 
ATOM     76  C   UNL A   1      34.749  34.978  33.778  1.00  0.00     0.022 A 
BRANCH  73  77
ATOM     77  S   UNL A   1      33.035  35.803  31.747  1.00  0.00     0.124 S 
ATOM     78  O   UNL A   1      33.381  37.165  32.143  1.00  0.00    -0.237 OA
ATOM     79  O   UNL A   1      33.137  35.500  30.324  1.00  0.00    -0.237 OA
ATOM     80  O   UNL A   1      31.870  35.237  32.423  1.00  0.00    -0.744 OA
ENDBRANCH  73  77
ENDBRANCH  56  70
BRANCH  57  81
ATOM     81  C   UNL A   1      44.052  30.616  34.901  1.00  0.00     0.023 A 
ATOM     82  C   UNL A   1      43.596  29.407  35.461  1.00  0.00     0.031 A 
ATOM     83  C   UNL A   1      45.266  31.134  35.415  1.00  0.00     0.131 A 
ATOM     84  C   UNL A   1      44.339  28.774  36.486  1.00  0.00     0.055 A 
ATOM     85  C   UNL A   1      45.991  30.508  36.431  1.00  0.00     0.041 A 
ATOM     86  F   UNL A   1      45.834  32.231  34.886  1.00  0.00    -0.206 F 
ATOM     87  C   UNL A   1      45.533  29.317  36.966  1.00  0.00     0.022 A 
BRANCH  84  88
ATOM     88  S   UNL A   1      43.806  27.161  37.148  1.00  0.00     0.124 S 
ATOM     89  O   UNL A   1      44.462  26.222  36.246  1.00  0.00    -0.237 OA
ATOM     90  O   UNL A   1      44.307  27.205  38.517  1.00  0.00    -0.237 OA
ATOM     91  O   UNL A   1      42.349  27.210  37.031  1.00  0.00    -0.744 OA
ENDBRANCH  84  88
ENDBRANCH  57  81
BRANCH  69  92
ATOM     92  C   UNL A   1      42.950  34.452  30.045  1.00  0.00     0.023 A 
ATOM     93  C   UNL A   1      43.366  33.407  29.186  1.00  0.00     0.031 A 
ATOM     94  C   UNL A   1      43.626  35.679  29.939  1.00  0.00     0.131 A 
ATOM     95  C   UNL A   1      44.428  33.606  28.282  1.00  0.00     0.055 A 
ATOM     96  C   UNL A   1      44.662  35.882  29.027  1.00  0.00     0.041 A 
ATOM     97  F   UNL A   1      43.260  36.725  30.699  1.00  0.00    -0.206 F 
ATOM     98  C   UNL A   1      45.072  34.842  28.199  1.00  0.00     0.022 A 
BRANCH  95  99
ATOM     99  S   UNL A   1      44.991  32.247  27.206  1.00  0.00     0.124 S 
ATOM    100  O   UNL A   1      45.087  31.109  28.114  1.00  0.00    -0.237 OA
ATOM    101  O   UNL A   1      43.934  32.174  26.200  1.00  0.00    -0.237 OA
ATOM    102  O   UNL A   1      46.279  32.728  26.697  1.00  0.00    -0.744 OA
ENDBRANCH  95  99
ENDBRANCH  69  92
ENDBRANCH  43  44
ENDBRANCH  35  38
ENDBRANCH  33  34
ENDBRANCH  32  33
ENDBRANCH  31  32
ENDBRANCH   1  31
TORSDOF 20
ENDMDL
MODEL 2
REMARK VINA RESULT:     -10.9      5.503     11.569
REMARK SMILES NS(=O)(=O)c1ccc(-n2nc(C(=O)NCCCCCCNC(=O)c3ccc(-c4c5nc(c(-c6cc(S(=O)(=O)[O-])ccc6F)c6ccc([nH]6)c(-c6cc(S(=O)(=O)[O-])ccc6F)c6nc(c(-c7cc(S(=O)(=O)[O-])ccc7F)c7ccc4[nH]7)C=C6)C=C5)cc3)cc2-c2ccc(Cl)s2)cc1
REMARK SMILES IDX 17 1 16 2 15 3 14 4 12 5 13 6 11 8 9 9 10 10 88 11 87 12
REMARK SMILES IDX 8 13 5 14 6 15 96 16 7 17 95 18 2 19 3 20 4 21 1 22 89 25
REMARK SMILES IDX 90 26 94 27 91 28 92 29 93 30 18 31 19 32 20 33 21 34 22 35
REMARK SMILES IDX 23 37 24 38 25 39 86 40 26 41 85 42 27 43 28 44 29 45 79 46
REMARK SMILES IDX 30 47 84 48 78 49 80 50 31 51 83 52 77 53 76 54 32 56 64 57
REMARK SMILES IDX 44 58 63 59 45 60 48 61 62 62 81 63 46 64 47 65 61 67 82 68
REMARK SMILES IDX 49 69 33 70 34 71 42 72 35 73 41 74 43 75 40 76 36 77 37 78
REMARK SMILES IDX 38 79 39 80 65 81 66 82 74 83 67 84 73 85 75 86 72 87 68 88
REMARK SMILES IDX 69 89 70 90 71 91 50 92 51 93 59 94 52 95 58 96 60 97 57 98
REMARK SMILES IDX 53 99 54 100 55 101 56 102
REMARK H PARENT 14 7 1 23 1 24 21 36 80 55 48 66
REMARK Flexibility Score: inf
ROOT
ATOM      1  C   UNL A   1      42.857  28.645  35.524  1.00  0.00     0.002 C 
ENDROOT
BRANCH   1   2
ATOM      2  C   UNL A   1      41.957  29.692  36.195  1.00  0.00     0.021 C 
BRANCH   2   3
ATOM      3  C   UNL A   1      40.608  29.868  35.504  1.00  0.00     0.116 C 
BRANCH   3   4
ATOM      4  N   UNL A   1      39.589  30.307  36.434  1.00  0.00    -0.351 N 
ATOM      5  C   UNL A   1      38.363  30.914  36.288  1.00  0.00     0.271 C 
ATOM      6  O   UNL A   1      37.742  31.099  37.339  1.00  0.00    -0.267 OA
ATOM      7  H   UNL A   1      39.826  30.136  37.375  1.00  0.00     0.163 HD
BRANCH   5   8
ATOM      8  C   UNL A   1      37.794  31.263  34.967  1.00  0.00     0.151 A 
ATOM      9  N   UNL A   1      36.598  32.399  33.574  1.00  0.00    -0.231 N 
ATOM     10  N   UNL A   1      37.128  32.429  34.816  1.00  0.00    -0.162 NA
ATOM     11  C   UNL A   1      36.987  31.277  32.874  1.00  0.00     0.085 A 
ATOM     12  C   UNL A   1      37.815  30.580  33.727  1.00  0.00     0.066 A 
BRANCH   9  13
ATOM     13  C   UNL A   1      35.733  33.436  33.152  1.00  0.00     0.065 A 
ATOM     14  C   UNL A   1      33.932  35.460  32.544  1.00  0.00     0.082 A 
ATOM     15  C   UNL A   1      35.222  35.790  32.972  1.00  0.00     0.024 A 
ATOM     16  C   UNL A   1      33.555  34.122  32.371  1.00  0.00     0.024 A 
ATOM     17  C   UNL A   1      36.121  34.774  33.292  1.00  0.00     0.030 A 
ATOM     18  C   UNL A   1      34.470  33.104  32.647  1.00  0.00     0.030 A 
BRANCH  14  19
ATOM     19  S   UNL A   1      32.724  36.713  32.247  1.00  0.00     0.238 S 
ATOM     20  O   UNL A   1      32.092  36.445  30.967  1.00  0.00    -0.207 OA
ATOM     21  O   UNL A   1      33.281  37.989  32.590  1.00  0.00    -0.207 OA
BRANCH  19  22
ATOM     22  N   UNL A   1      31.521  36.424  33.389  1.00  0.00    -0.225 NA
ATOM     23  H   UNL A   1      31.829  36.764  34.300  1.00  0.00     0.137 HD
ATOM     24  H   UNL A   1      31.338  35.422  33.444  1.00  0.00     0.137 HD
ENDBRANCH  19  22
ENDBRANCH  14  19
ENDBRANCH   9  13
BRANCH  11  25
ATOM     25  C   UNL A   1      36.699  30.953  31.509  1.00  0.00     0.054 A 
ATOM     26  C   UNL A   1      36.236  29.739  31.034  1.00  0.00     0.024 A 
ATOM     27  S   UNL A   1      37.007  32.055  30.233  1.00  0.00    -0.122 S 
ATOM     28  C   UNL A   1      36.137  29.721  29.610  1.00  0.00     0.033 A 
ATOM     29  C   UNL A   1      36.534  30.918  29.074  1.00  0.00     0.094 A 
ATOM     30  Cl  UNL A   1      36.590  31.322  27.406  1.00  0.00    -0.072 Cl
ENDBRANCH  11  25
ENDBRANCH   5   8
ENDBRANCH   3   4
ENDBRANCH   2   3
ENDBRANCH   1   2
BRANCH   1  31
ATOM     31  C   UNL A   1      42.297  27.211  35.470  1.00  0.00     0.002 C 
BRANCH  31  32
ATOM     32  C   UNL A   1      42.633  26.291  36.654  1.00  0.00     0.021 C 
BRANCH  32  33
ATOM     33  C   UNL A   1      44.032  26.493  37.210  1.00  0.00     0.116 C 
BRANCH  33  34
ATOM     34  N   UNL A   1      44.789  25.239  37.298  1.00  0.00    -0.352 N 
ATOM     35  C   UNL A   1      45.125  24.362  36.279  1.00  0.00     0.251 C 
ATOM     36  H   UNL A   1      45.099  24.989  38.198  1.00  0.00     0.163 HD
ATOM     37  O   UNL A   1      45.415  23.197  36.527  1.00  0.00    -0.269 OA
BRANCH  35  38
ATOM     38  C   UNL A   1      45.117  24.869  34.898  1.00  0.00     0.039 A 
ATOM     39  C   UNL A   1      45.828  26.004  34.496  1.00  0.00     0.014 A 
ATOM     40  C   UNL A   1      44.414  24.112  33.972  1.00  0.00     0.014 A 
ATOM     41  C   UNL A   1      45.886  26.308  33.135  1.00  0.00     0.010 A 
ATOM     42  C   UNL A   1      44.682  24.264  32.644  1.00  0.00     0.010 A 
ATOM     43  C   UNL A   1      45.322  25.416  32.211  1.00  0.00    -0.014 A 
BRANCH  43  44
ATOM     44  C   UNL A   1      45.371  25.628  30.771  1.00  0.00     0.031 A 
ATOM     45  C   UNL A   1      46.533  26.386  30.254  1.00  0.00     0.074 A 
ATOM     46  C   UNL A   1      44.528  24.992  29.927  1.00  0.00     0.049 A 
ATOM     47  N   UNL A   1      46.517  27.583  29.775  1.00  0.00    -0.248 NA
ATOM     48  C   UNL A   1      47.881  25.817  30.372  1.00  0.00     0.031 C 
ATOM     49  C   UNL A   1      43.480  24.009  30.238  1.00  0.00     0.029 A 
ATOM     50  N   UNL A   1      44.525  25.005  28.570  1.00  0.00    -0.354 N 
ATOM     51  C   UNL A   1      47.802  27.848  29.322  1.00  0.00     0.074 A 
ATOM     52  C   UNL A   1      48.632  26.808  29.879  1.00  0.00     0.031 C 
ATOM     53  C   UNL A   1      43.132  23.345  29.115  1.00  0.00     0.029 A 
ATOM     54  C   UNL A   1      43.778  23.988  27.989  1.00  0.00     0.049 A 
ATOM     55  H   UNL A   1      45.013  25.677  28.041  1.00  0.00     0.167 HD
ATOM     56  C   UNL A   1      48.030  28.788  28.363  1.00  0.00     0.034 A 
ATOM     57  C   UNL A   1      43.690  23.686  26.669  1.00  0.00     0.034 A 
ATOM     58  C   UNL A   1      46.835  29.561  28.103  1.00  0.00     0.049 A 
ATOM     59  C   UNL A   1      43.999  24.941  25.937  1.00  0.00     0.074 A 
ATOM     60  C   UNL A   1      46.024  30.376  28.870  1.00  0.00     0.029 A 
ATOM     61  N   UNL A   1      46.078  29.222  27.000  1.00  0.00    -0.354 N 
ATOM     62  N   UNL A   1      43.246  26.007  26.022  1.00  0.00    -0.248 NA
ATOM     63  C   UNL A   1      45.378  25.201  25.546  1.00  0.00     0.031 C 
ATOM     64  C   UNL A   1      44.696  30.048  28.466  1.00  0.00     0.029 A 
ATOM     65  C   UNL A   1      44.772  29.124  27.420  1.00  0.00     0.049 A 
ATOM     66  H   UNL A   1      46.412  29.077  26.085  1.00  0.00     0.167 HD
ATOM     67  C   UNL A   1      44.133  27.065  26.163  1.00  0.00     0.074 A 
ATOM     68  C   UNL A   1      45.426  26.525  25.738  1.00  0.00     0.031 C 
ATOM     69  C   UNL A   1      43.805  28.184  26.878  1.00  0.00     0.034 A 
BRANCH  56  70
ATOM     70  C   UNL A   1      49.205  28.838  27.420  1.00  0.00     0.023 A 
ATOM     71  C   UNL A   1      49.016  28.329  26.120  1.00  0.00     0.031 A 
ATOM     72  C   UNL A   1      50.539  29.094  27.798  1.00  0.00     0.131 A 
ATOM     73  C   UNL A   1      50.112  28.018  25.298  1.00  0.00     0.055 A 
ATOM     74  C   UNL A   1      51.624  28.849  26.951  1.00  0.00     0.041 A 
ATOM     75  F   UNL A   1      50.872  29.493  29.032  1.00  0.00    -0.206 F 
ATOM     76  C   UNL A   1      51.418  28.280  25.705  1.00  0.00     0.022 A 
BRANCH  73  77
ATOM     77  S   UNL A   1      49.807  27.097  23.767  1.00  0.00     0.124 S 
ATOM     78  O   UNL A   1      49.072  25.936  24.257  1.00  0.00    -0.237 OA
ATOM     79  O   UNL A   1      49.041  28.061  22.985  1.00  0.00    -0.237 OA
ATOM     80  O   UNL A   1      51.151  26.817  23.269  1.00  0.00    -0.744 OA
ENDBRANCH  73  77
ENDBRANCH  56  70
BRANCH  57  81
ATOM     81  C   UNL A   1      43.649  22.321  26.082  1.00  0.00     0.023 A 
ATOM     82  C   UNL A   1      44.790  21.659  25.589  1.00  0.00     0.031 A 
ATOM     83  C   UNL A   1      42.469  21.548  26.202  1.00  0.00     0.131 A 
ATOM     84  C   UNL A   1      44.720  20.288  25.240  1.00  0.00     0.055 A 
ATOM     85  C   UNL A   1      42.405  20.199  25.849  1.00  0.00     0.041 A 
ATOM     86  F   UNL A   1      41.353  22.060  26.747  1.00  0.00    -0.206 F 
ATOM     87  C   UNL A   1      43.536  19.560  25.373  1.00  0.00     0.022 A 
BRANCH  84  88
ATOM     88  S   UNL A   1      46.215  19.400  24.693  1.00  0.00     0.124 S 
ATOM     89  O   UNL A   1      46.606  18.678  25.897  1.00  0.00    -0.237 OA
ATOM     90  O   UNL A   1      45.712  18.595  23.586  1.00  0.00    -0.237 OA
ATOM     91  O   UNL A   1      47.125  20.476  24.299  1.00  0.00    -0.744 OA
ENDBRANCH  84  88
ENDBRANCH  57  81
BRANCH  69  92
ATOM     92  C   UNL A   1      42.365  28.344  27.341  1.00  0.00     0.023 A 
ATOM     93  C   UNL A   1      41.949  28.277  28.691  1.00  0.00     0.031 A 
ATOM     94  C   UNL A   1      41.403  28.717  26.388  1.00  0.00     0.131 A 
ATOM     95  C   UNL A   1      40.613  28.557  29.041  1.00  0.00     0.055 A 
ATOM     96  C   UNL A   1      40.086  29.018  26.739  1.00  0.00     0.041 A 
ATOM     97  F   UNL A   1      41.738  28.835  25.092  1.00  0.00    -0.206 F 
ATOM     98  C   UNL A   1      39.684  28.932  28.068  1.00  0.00     0.022 A 
BRANCH  95  99
ATOM     99  S   UNL A   1      40.066  28.429  30.775  1.00  0.00     0.124 S 
ATOM    100  O   UNL A   1      39.808  29.814  31.154  1.00  0.00    -0.237 OA
ATOM    101  O   UNL A   1      38.892  27.565  30.679  1.00  0.00    -0.237 OA
ATOM    102  O   UNL A   1      41.214  27.818  31.449  1.00  0.00    -0.744 OA
ENDBRANCH  95  99
ENDBRANCH  69  92
ENDBRANCH  43  44
ENDBRANCH  35  38
ENDBRANCH  33  34
ENDBRANCH  32  33
ENDBRANCH  31  32
ENDBRANCH   1  31
TORSDOF 20
ENDMDL
MODEL 3
REMARK VINA RESULT:     -10.8      5.001      9.515
REMARK SMILES NS(=O)(=O)c1ccc(-n2nc(C(=O)NCCCCCCNC(=O)c3ccc(-c4c5nc(c(-c6cc(S(=O)(=O)[O-])ccc6F)c6ccc([nH]6)c(-c6cc(S(=O)(=O)[O-])ccc6F)c6nc(c(-c7cc(S(=O)(=O)[O-])ccc7F)c7ccc4[nH]7)C=C6)C=C5)cc3)cc2-c2ccc(Cl)s2)cc1
REMARK SMILES IDX 17 1 16 2 15 3 14 4 12 5 13 6 11 8 9 9 10 10 88 11 87 12
REMARK SMILES IDX 8 13 5 14 6 15 96 16 7 17 95 18 2 19 3 20 4 21 1 22 89 25
REMARK SMILES IDX 90 26 94 27 91 28 92 29 93 30 18 31 19 32 20 33 21 34 22 35
REMARK SMILES IDX 23 37 24 38 25 39 86 40 26 41 85 42 27 43 28 44 29 45 79 46
REMARK SMILES IDX 30 47 84 48 78 49 80 50 31 51 83 52 77 53 76 54 32 56 64 57
REMARK SMILES IDX 44 58 63 59 45 60 48 61 62 62 81 63 46 64 47 65 61 67 82 68
REMARK SMILES IDX 49 69 33 70 34 71 42 72 35 73 41 74 43 75 40 76 36 77 37 78
REMARK SMILES IDX 38 79 39 80 65 81 66 82 74 83 67 84 73 85 75 86 72 87 68 88
REMARK SMILES IDX 69 89 70 90 71 91 50 92 51 93 59 94 52 95 58 96 60 97 57 98
REMARK SMILES IDX 53 99 54 100 55 101 56 102
REMARK H PARENT 14 7 1 23 1 24 21 36 80 55 48 66
REMARK Flexibility Score: inf
ROOT
ATOM      1  C   UNL A   1      46.683  24.247  24.729  1.00  0.00     0.002 C 
ENDROOT
BRANCH   1   2
ATOM      2  C   UNL A   1      46.315  22.773  24.515  1.00  0.00     0.021 C 
BRANCH   2   3
ATOM      3  C   UNL A   1      45.020  22.577  23.731  1.00  0.00     0.116 C 
BRANCH   3   4
ATOM      4  N   UNL A   1      44.214  21.515  24.296  1.00  0.00    -0.351 N 
ATOM      5  C   UNL A   1      43.335  21.445  25.352  1.00  0.00     0.271 C 
ATOM      6  O   UNL A   1      42.787  20.349  25.506  1.00  0.00    -0.267 OA
ATOM      7  H   UNL A   1      44.318  20.658  23.823  1.00  0.00     0.163 HD
BRANCH   5   8
ATOM      8  C   UNL A   1      43.013  22.611  26.206  1.00  0.00     0.151 A 
ATOM      9  N   UNL A   1      43.149  23.871  27.954  1.00  0.00    -0.231 N 
ATOM     10  N   UNL A   1      43.765  22.862  27.300  1.00  0.00    -0.162 NA
ATOM     11  C   UNL A   1      42.061  24.349  27.255  1.00  0.00     0.085 A 
ATOM     12  C   UNL A   1      42.010  23.603  26.098  1.00  0.00     0.066 A 
BRANCH   9  13
ATOM     13  C   UNL A   1      43.629  24.290  29.216  1.00  0.00     0.065 A 
ATOM     14  C   UNL A   1      44.342  25.155  31.757  1.00  0.00     0.082 A 
ATOM     15  C   UNL A   1      44.205  23.786  31.507  1.00  0.00     0.024 A 
ATOM     16  C   UNL A   1      44.172  26.091  30.728  1.00  0.00     0.024 A 
ATOM     17  C   UNL A   1      43.832  23.353  30.237  1.00  0.00     0.030 A 
ATOM     18  C   UNL A   1      43.844  25.655  29.443  1.00  0.00     0.030 A 
BRANCH  14  19
ATOM     19  S   UNL A   1      44.691  25.754  33.381  1.00  0.00     0.238 S 
ATOM     20  O   UNL A   1      46.016  26.349  33.374  1.00  0.00    -0.207 OA
ATOM     21  O   UNL A   1      44.282  24.769  34.339  1.00  0.00    -0.207 OA
BRANCH  19  22
ATOM     22  N   UNL A   1      43.638  27.052  33.592  1.00  0.00    -0.225 NA
ATOM     23  H   UNL A   1      43.247  27.022  34.533  1.00  0.00     0.137 HD
ATOM     24  H   UNL A   1      42.884  26.992  32.908  1.00  0.00     0.137 HD
ENDBRANCH  19  22
ENDBRANCH  14  19
ENDBRANCH   9  13
BRANCH  11  25
ATOM     25  C   UNL A   1      41.227  25.465  27.589  1.00  0.00     0.054 A 
ATOM     26  C   UNL A   1      40.194  25.470  28.510  1.00  0.00     0.024 A 
ATOM     27  S   UNL A   1      41.354  26.967  26.774  1.00  0.00    -0.122 S 
ATOM     28  C   UNL A   1      39.507  26.720  28.540  1.00  0.00     0.033 A 
ATOM     29  C   UNL A   1      40.045  27.600  27.638  1.00  0.00     0.094 A 
ATOM     30  Cl  UNL A   1      39.514  29.204  27.334  1.00  0.00    -0.072 Cl
ENDBRANCH  11  25
ENDBRANCH   5   8
ENDBRANCH   3   4
ENDBRANCH   2   3
ENDBRANCH   1   2
BRANCH   1  31
ATOM     31  C   UNL A   1      46.074  24.920  25.973  1.00  0.00     0.002 C 
BRANCH  31  32
ATOM     32  C   UNL A   1      46.877  24.816  27.280  1.00  0.00     0.021 C 
BRANCH  32  33
ATOM     33  C   UNL A   1      47.422  26.146  27.773  1.00  0.00     0.116 C 
BRANCH  33  34
ATOM     34  N   UNL A   1      48.391  26.736  26.844  1.00  0.00    -0.352 N 
ATOM     35  C   UNL A   1      48.237  27.845  26.026  1.00  0.00     0.251 C 
ATOM     36  H   UNL A   1      49.266  26.287  26.795  1.00  0.00     0.163 HD
ATOM     37  O   UNL A   1      48.955  28.004  25.047  1.00  0.00    -0.269 OA
BRANCH  35  38
ATOM     38  C   UNL A   1      47.185  28.816  26.368  1.00  0.00     0.039 A 
ATOM     39  C   UNL A   1      45.833  28.611  26.077  1.00  0.00     0.014 A 
ATOM     40  C   UNL A   1      47.594  29.938  27.073  1.00  0.00     0.014 A 
ATOM     41  C   UNL A   1      44.897  29.514  26.585  1.00  0.00     0.010 A 
ATOM     42  C   UNL A   1      46.672  30.660  27.771  1.00  0.00     0.010 A 
ATOM     43  C   UNL A   1      45.328  30.530  27.451  1.00  0.00    -0.014 A 
BRANCH  43  44
ATOM     44  C   UNL A   1      44.420  31.490  28.063  1.00  0.00     0.031 A 
ATOM     45  C   UNL A   1      44.434  32.862  27.507  1.00  0.00     0.074 A 
ATOM     46  C   UNL A   1      43.465  31.108  28.941  1.00  0.00     0.049 A 
ATOM     47  N   UNL A   1      44.899  33.918  28.081  1.00  0.00    -0.248 NA
ATOM     48  C   UNL A   1      43.990  33.088  26.125  1.00  0.00     0.031 C 
ATOM     49  C   UNL A   1      43.137  29.757  29.416  1.00  0.00     0.029 A 
ATOM     50  N   UNL A   1      42.487  31.863  29.503  1.00  0.00    -0.354 N 
ATOM     51  C   UNL A   1      44.612  34.986  27.241  1.00  0.00     0.074 A 
ATOM     52  C   UNL A   1      44.223  34.398  25.983  1.00  0.00     0.031 C 
ATOM     53  C   UNL A   1      41.907  29.757  29.974  1.00  0.00     0.029 A 
ATOM     54  C   UNL A   1      41.455  31.129  30.075  1.00  0.00     0.049 A 
ATOM     55  H   UNL A   1      42.507  32.847  29.506  1.00  0.00     0.167 HD
ATOM     56  C   UNL A   1      44.527  36.257  27.725  1.00  0.00     0.034 A 
ATOM     57  C   UNL A   1      40.300  31.610  30.601  1.00  0.00     0.034 A 
ATOM     58  C   UNL A   1      44.990  36.321  29.094  1.00  0.00     0.049 A 
ATOM     59  C   UNL A   1      40.586  33.007  31.016  1.00  0.00     0.074 A 
ATOM     60  C   UNL A   1      46.187  36.040  29.724  1.00  0.00     0.029 A 
ATOM     61  N   UNL A   1      44.040  36.324  30.093  1.00  0.00    -0.354 N 
ATOM     62  N   UNL A   1      41.451  33.298  31.953  1.00  0.00    -0.248 NA
ATOM     63  C   UNL A   1      40.330  34.084  30.069  1.00  0.00     0.031 C 
ATOM     64  C   UNL A   1      45.813  35.380  30.932  1.00  0.00     0.029 A 
ATOM     65  C   UNL A   1      44.418  35.376  31.015  1.00  0.00     0.049 A 
ATOM     66  H   UNL A   1      43.240  36.898  30.137  1.00  0.00     0.167 HD
ATOM     67  C   UNL A   1      42.176  34.371  31.454  1.00  0.00     0.074 A 
ATOM     68  C   UNL A   1      41.362  34.889  30.352  1.00  0.00     0.031 C 
ATOM     69  C   UNL A   1      43.490  34.563  31.783  1.00  0.00     0.034 A 
BRANCH  56  70
ATOM     70  C   UNL A   1      43.750  37.396  27.115  1.00  0.00     0.023 A 
ATOM     71  C   UNL A   1      44.437  38.606  26.897  1.00  0.00     0.031 A 
ATOM     72  C   UNL A   1      42.346  37.450  26.996  1.00  0.00     0.131 A 
ATOM     73  C   UNL A   1      43.740  39.803  26.664  1.00  0.00     0.055 A 
ATOM     74  C   UNL A   1      41.659  38.630  26.694  1.00  0.00     0.041 A 
ATOM     75  F   UNL A   1      41.562  36.398  27.265  1.00  0.00    -0.206 F 
ATOM     76  C   UNL A   1      42.351  39.821  26.556  1.00  0.00     0.022 A 
BRANCH  73  77
ATOM     77  S   UNL A   1      44.667  41.360  26.688  1.00  0.00     0.124 S 
ATOM     78  O   UNL A   1      43.897  42.182  25.760  1.00  0.00    -0.237 OA
ATOM     79  O   UNL A   1      44.590  41.734  28.096  1.00  0.00    -0.237 OA
ATOM     80  O   UNL A   1      45.993  40.969  26.218  1.00  0.00    -0.744 OA
ENDBRANCH  73  77
ENDBRANCH  56  70
BRANCH  57  81
ATOM     81  C   UNL A   1      38.952  31.000  30.461  1.00  0.00     0.023 A 
ATOM     82  C   UNL A   1      37.926  31.565  29.680  1.00  0.00     0.031 A 
ATOM     83  C   UNL A   1      38.728  29.690  30.950  1.00  0.00     0.131 A 
ATOM     84  C   UNL A   1      36.743  30.831  29.421  1.00  0.00     0.055 A 
ATOM     85  C   UNL A   1      37.557  28.973  30.697  1.00  0.00     0.041 A 
ATOM     86  F   UNL A   1      39.681  29.027  31.626  1.00  0.00    -0.206 F 
ATOM     87  C   UNL A   1      36.561  29.540  29.922  1.00  0.00     0.022 A 
BRANCH  84  88
ATOM     88  S   UNL A   1      35.453  31.517  28.332  1.00  0.00     0.124 S 
ATOM     89  O   UNL A   1      36.197  32.491  27.543  1.00  0.00    -0.237 OA
ATOM     90  O   UNL A   1      34.980  30.333  27.624  1.00  0.00    -0.237 OA
ATOM     91  O   UNL A   1      34.488  32.093  29.269  1.00  0.00    -0.744 OA
ENDBRANCH  84  88
ENDBRANCH  57  81
BRANCH  69  92
ATOM     92  C   UNL A   1      44.089  33.696  32.880  1.00  0.00     0.023 A 
ATOM     93  C   UNL A   1      44.563  32.377  32.686  1.00  0.00     0.031 A 
ATOM     94  C   UNL A   1      44.314  34.283  34.136  1.00  0.00     0.131 A 
ATOM     95  C   UNL A   1      45.214  31.692  33.731  1.00  0.00     0.055 A 
ATOM     96  C   UNL A   1      44.980  33.612  35.163  1.00  0.00     0.041 A 
ATOM     97  F   UNL A   1      43.922  35.546  34.378  1.00  0.00    -0.206 F 
ATOM     98  C   UNL A   1      45.427  32.310  34.966  1.00  0.00     0.022 A 
BRANCH  95  99
ATOM     99  S   UNL A   1      45.786  29.977  33.496  1.00  0.00     0.124 S 
ATOM    100  O   UNL A   1      47.227  30.121  33.319  1.00  0.00    -0.237 OA
ATOM    101  O   UNL A   1      45.356  29.323  34.729  1.00  0.00    -0.237 OA
ATOM    102  O   UNL A   1      45.067  29.541  32.296  1.00  0.00    -0.744 OA
ENDBRANCH  95  99
ENDBRANCH  69  92
ENDBRANCH  43  44
ENDBRANCH  35  38
ENDBRANCH  33  34
ENDBRANCH  32  33
ENDBRANCH  31  32
ENDBRANCH   1  31
TORSDOF 20
ENDMDL
