MODEL 1
REMARK VINA RESULT:     -12.5      0.000      0.000
REMARK SMILES O=C(Cc1cccn1-c1ccc2c(c1)OCCO2)NCCCCCCNC(=O)c1ccc(-c2c3nc(c(-c4cc(S(=O)(=O)[O-])ccc4F)c4ccc([nH]4)c(-c4cc(S(=O)(=O)[O-])ccc4F)c4nc(c(-c5cc(S(=O)(=O)[O-])ccc5F)c5ccc2[nH]5)C=C4)C=C3)cc1
REMARK SMILES IDX 23 1 22 2 21 3 20 4 19 5 1 6 2 7 3 9 4 10 5 11 8 12 6 13
REMARK SMILES IDX 7 14 9 15 10 16 14 17 11 18 13 19 12 20 15 21 18 22 16 23
REMARK SMILES IDX 17 24 24 25 25 26 26 27 27 28 28 30 29 31 30 32 91 33 31 34
REMARK SMILES IDX 90 35 32 36 33 37 34 38 84 39 35 40 89 41 83 42 85 43 36 44
REMARK SMILES IDX 88 45 82 46 81 47 37 49 69 50 49 51 68 52 50 53 53 54 67 55
REMARK SMILES IDX 86 56 51 57 52 58 66 60 87 61 54 62 38 63 39 64 47 65 40 66
REMARK SMILES IDX 46 67 48 68 45 69 41 70 42 71 43 72 44 73 70 74 71 75 79 76
REMARK SMILES IDX 72 77 78 78 80 79 77 80 73 81 74 82 75 83 76 84 55 85 56 86
REMARK SMILES IDX 64 87 57 88 63 89 65 90 62 91 58 92 59 93 60 94 61 95
REMARK H PARENT 19 8 26 29 85 48 53 59
REMARK Flexibility Score: inf
ROOT
ATOM      1  C   UNL A   1      35.368  23.144  25.495  1.00  0.00     0.002 C 
ENDROOT
BRANCH   1   2
ATOM      2  C   UNL A   1      34.633  21.988  26.185  1.00  0.00     0.002 C 
BRANCH   2   3
ATOM      3  C   UNL A   1      34.108  22.248  27.601  1.00  0.00     0.021 C 
BRANCH   3   4
ATOM      4  C   UNL A   1      32.594  22.313  27.746  1.00  0.00     0.116 C 
BRANCH   4   5
ATOM      5  N   UNL A   1      31.865  22.579  26.522  1.00  0.00    -0.356 N 
ATOM      6  O   UNL A   1      31.472  24.780  27.060  1.00  0.00    -0.275 OA
ATOM      7  C   UNL A   1      31.410  23.856  26.250  1.00  0.00     0.225 C 
ATOM      8  H   UNL A   1      31.694  21.849  25.884  1.00  0.00     0.163 HD
BRANCH   7   9
ATOM      9  C   UNL A   1      30.781  24.039  24.887  1.00  0.00     0.154 C 
BRANCH   9  10
ATOM     10  C   UNL A   1      31.716  24.359  23.746  1.00  0.00     0.032 A 
ATOM     11  C   UNL A   1      32.521  23.438  23.084  1.00  0.00     0.024 A 
ATOM     12  N   UNL A   1      31.816  25.557  23.046  1.00  0.00    -0.320 N 
ATOM     13  C   UNL A   1      33.086  24.067  21.956  1.00  0.00     0.020 A 
ATOM     14  C   UNL A   1      32.621  25.359  21.944  1.00  0.00     0.091 A 
BRANCH  12  15
ATOM     15  C   UNL A   1      31.270  26.814  23.368  1.00  0.00     0.049 A 
ATOM     16  C   UNL A   1      31.738  27.513  24.482  1.00  0.00     0.031 A 
ATOM     17  C   UNL A   1      30.257  27.333  22.562  1.00  0.00     0.077 A 
ATOM     18  C   UNL A   1      31.247  28.799  24.732  1.00  0.00     0.052 A 
ATOM     19  C   UNL A   1      29.811  28.630  22.795  1.00  0.00     0.163 A 
ATOM     20  C   UNL A   1      30.306  29.371  23.873  1.00  0.00     0.161 A 
ATOM     21  O   UNL A   1      28.921  29.157  21.891  1.00  0.00    -0.486 OA
ATOM     22  O   UNL A   1      29.951  30.672  24.117  1.00  0.00    -0.486 OA
ATOM     23  C   UNL A   1      29.142  30.570  21.803  1.00  0.00     0.271 C 
ATOM     24  C   UNL A   1      28.986  31.182  23.184  1.00  0.00     0.271 C 
ENDBRANCH  12  15
ENDBRANCH   9  10
ENDBRANCH   7   9
ENDBRANCH   4   5
ENDBRANCH   3   4
ENDBRANCH   2   3
ENDBRANCH   1   2
BRANCH   1  25
ATOM     25  C   UNL A   1      36.887  22.997  25.340  1.00  0.00     0.021 C 
BRANCH  25  26
ATOM     26  C   UNL A   1      37.711  24.016  26.127  1.00  0.00     0.116 C 
BRANCH  26  27
ATOM     27  N   UNL A   1      38.783  23.378  26.870  1.00  0.00    -0.352 N 
ATOM     28  C   UNL A   1      39.875  23.941  27.483  1.00  0.00     0.251 C 
ATOM     29  H   UNL A   1      38.718  22.398  26.944  1.00  0.00     0.163 HD
ATOM     30  O   UNL A   1      40.847  23.236  27.729  1.00  0.00    -0.269 OA
BRANCH  28  31
ATOM     31  C   UNL A   1      39.905  25.378  27.838  1.00  0.00     0.039 A 
ATOM     32  C   UNL A   1      39.532  25.741  29.138  1.00  0.00     0.014 A 
ATOM     33  C   UNL A   1      40.200  26.366  26.891  1.00  0.00     0.014 A 
ATOM     34  C   UNL A   1      39.515  27.084  29.505  1.00  0.00     0.010 A 
ATOM     35  C   UNL A   1      40.207  27.710  27.260  1.00  0.00     0.010 A 
ATOM     36  C   UNL A   1      39.877  28.067  28.572  1.00  0.00    -0.014 A 
BRANCH  36  37
ATOM     37  C   UNL A   1      40.101  29.450  29.056  1.00  0.00     0.031 A 
ATOM     38  C   UNL A   1      38.745  30.124  29.423  1.00  0.00     0.074 A 
ATOM     39  C   UNL A   1      41.399  29.901  29.059  1.00  0.00     0.049 A 
ATOM     40  N   UNL A   1      38.392  31.372  29.416  1.00  0.00    -0.248 NA
ATOM     41  C   UNL A   1      37.571  29.262  29.768  1.00  0.00     0.031 C 
ATOM     42  C   UNL A   1      42.591  29.080  28.725  1.00  0.00     0.029 A 
ATOM     43  N   UNL A   1      41.999  31.115  29.338  1.00  0.00    -0.354 N 
ATOM     44  C   UNL A   1      37.090  31.465  29.982  1.00  0.00     0.074 A 
ATOM     45  C   UNL A   1      36.590  30.128  30.038  1.00  0.00     0.031 C 
ATOM     46  C   UNL A   1      43.726  29.822  28.736  1.00  0.00     0.029 A 
ATOM     47  C   UNL A   1      43.408  31.191  29.089  1.00  0.00     0.049 A 
ATOM     48  H   UNL A   1      41.488  31.882  29.686  1.00  0.00     0.167 HD
ATOM     49  C   UNL A   1      36.582  32.626  30.503  1.00  0.00     0.034 A 
ATOM     50  C   UNL A   1      44.241  32.286  29.135  1.00  0.00     0.034 A 
ATOM     51  C   UNL A   1      37.536  33.666  30.322  1.00  0.00     0.049 A 
ATOM     52  C   UNL A   1      43.390  33.334  29.711  1.00  0.00     0.074 A 
ATOM     53  C   UNL A   1      37.965  34.334  29.210  1.00  0.00     0.029 A 
ATOM     54  N   UNL A   1      38.417  33.881  31.357  1.00  0.00    -0.354 N 
ATOM     55  N   UNL A   1      43.065  33.402  30.963  1.00  0.00    -0.248 NA
ATOM     56  C   UNL A   1      42.811  34.352  28.826  1.00  0.00     0.031 C 
ATOM     57  C   UNL A   1      39.343  34.462  29.451  1.00  0.00     0.029 A 
ATOM     58  C   UNL A   1      39.635  34.131  30.783  1.00  0.00     0.049 A 
ATOM     59  H   UNL A   1      38.212  33.858  32.320  1.00  0.00     0.167 HD
ATOM     60  C   UNL A   1      41.989  34.246  30.941  1.00  0.00     0.074 A 
ATOM     61  C   UNL A   1      42.114  35.034  29.732  1.00  0.00     0.031 C 
ATOM     62  C   UNL A   1      40.834  33.855  31.542  1.00  0.00     0.034 A 
BRANCH  49  63
ATOM     63  C   UNL A   1      35.408  32.970  31.394  1.00  0.00     0.023 A 
ATOM     64  C   UNL A   1      34.552  34.006  30.925  1.00  0.00     0.031 A 
ATOM     65  C   UNL A   1      35.261  32.616  32.739  1.00  0.00     0.131 A 
ATOM     66  C   UNL A   1      33.745  34.750  31.794  1.00  0.00     0.055 A 
ATOM     67  C   UNL A   1      34.390  33.314  33.595  1.00  0.00     0.041 A 
ATOM     68  F   UNL A   1      36.004  31.651  33.297  1.00  0.00    -0.206 F 
ATOM     69  C   UNL A   1      33.662  34.413  33.137  1.00  0.00     0.022 A 
BRANCH  66  70
ATOM     70  S   UNL A   1      32.984  36.276  31.161  1.00  0.00     0.124 S 
ATOM     71  O   UNL A   1      32.891  36.005  29.731  1.00  0.00    -0.237 OA
ATOM     72  O   UNL A   1      31.718  36.309  31.889  1.00  0.00    -0.237 OA
ATOM     73  O   UNL A   1      33.941  37.313  31.536  1.00  0.00    -0.744 OA
ENDBRANCH  66  70
ENDBRANCH  49  63
BRANCH  50  74
ATOM     74  C   UNL A   1      45.656  32.757  28.783  1.00  0.00     0.023 A 
ATOM     75  C   UNL A   1      46.103  33.314  27.572  1.00  0.00     0.031 A 
ATOM     76  C   UNL A   1      46.666  32.711  29.808  1.00  0.00     0.131 A 
ATOM     77  C   UNL A   1      47.428  33.848  27.470  1.00  0.00     0.055 A 
ATOM     78  C   UNL A   1      47.918  33.317  29.733  1.00  0.00     0.041 A 
ATOM     79  F   UNL A   1      46.488  32.062  30.966  1.00  0.00    -0.206 F 
ATOM     80  C   UNL A   1      48.303  33.908  28.560  1.00  0.00     0.022 A 
BRANCH  77  81
ATOM     81  S   UNL A   1      48.086  34.515  25.908  1.00  0.00     0.124 S 
ATOM     82  O   UNL A   1      48.494  35.859  26.301  1.00  0.00    -0.237 OA
ATOM     83  O   UNL A   1      49.160  33.585  25.581  1.00  0.00    -0.237 OA
ATOM     84  O   UNL A   1      46.934  34.459  25.008  1.00  0.00    -0.744 OA
ENDBRANCH  77  81
ENDBRANCH  50  74
BRANCH  62  85
ATOM     85  C   UNL A   1      41.019  32.825  32.664  1.00  0.00     0.023 A 
ATOM     86  C   UNL A   1      40.770  31.457  32.411  1.00  0.00     0.031 A 
ATOM     87  C   UNL A   1      41.296  33.150  34.005  1.00  0.00     0.131 A 
ATOM     88  C   UNL A   1      40.745  30.509  33.454  1.00  0.00     0.055 A 
ATOM     89  C   UNL A   1      41.288  32.206  35.044  1.00  0.00     0.041 A 
ATOM     90  F   UNL A   1      41.573  34.401  34.368  1.00  0.00    -0.206 F 
ATOM     91  C   UNL A   1      41.003  30.877  34.772  1.00  0.00     0.022 A 
BRANCH  88  92
ATOM     92  S   UNL A   1      40.368  28.774  33.070  1.00  0.00     0.124 S 
ATOM     93  O   UNL A   1      38.984  28.837  32.618  1.00  0.00    -0.237 OA
ATOM     94  O   UNL A   1      41.363  28.454  32.050  1.00  0.00    -0.237 OA
ATOM     95  O   UNL A   1      40.568  28.091  34.350  1.00  0.00    -0.744 OA
ENDBRANCH  88  92
ENDBRANCH  62  85
ENDBRANCH  36  37
ENDBRANCH  28  31
ENDBRANCH  26  27
ENDBRANCH  25  26
ENDBRANCH   1  25
TORSDOF 18
ENDMDL
MODEL 2
REMARK VINA RESULT:     -12.3      4.438     10.334
REMARK SMILES O=C(Cc1cccn1-c1ccc2c(c1)OCCO2)NCCCCCCNC(=O)c1ccc(-c2c3nc(c(-c4cc(S(=O)(=O)[O-])ccc4F)c4ccc([nH]4)c(-c4cc(S(=O)(=O)[O-])ccc4F)c4nc(c(-c5cc(S(=O)(=O)[O-])ccc5F)c5ccc2[nH]5)C=C4)C=C3)cc1
REMARK SMILES IDX 23 1 22 2 21 3 20 4 19 5 1 6 2 7 3 9 4 10 5 11 8 12 6 13
REMARK SMILES IDX 7 14 9 15 10 16 14 17 11 18 13 19 12 20 15 21 18 22 16 23
REMARK SMILES IDX 17 24 24 25 25 26 26 27 27 28 28 30 29 31 30 32 91 33 31 34
REMARK SMILES IDX 90 35 32 36 33 37 34 38 84 39 35 40 89 41 83 42 85 43 36 44
REMARK SMILES IDX 88 45 82 46 81 47 37 49 69 50 49 51 68 52 50 53 53 54 67 55
REMARK SMILES IDX 86 56 51 57 52 58 66 60 87 61 54 62 38 63 39 64 47 65 40 66
REMARK SMILES IDX 46 67 48 68 45 69 41 70 42 71 43 72 44 73 70 74 71 75 79 76
REMARK SMILES IDX 72 77 78 78 80 79 77 80 73 81 74 82 75 83 76 84 55 85 56 86
REMARK SMILES IDX 64 87 57 88 63 89 65 90 62 91 58 92 59 93 60 94 61 95
REMARK H PARENT 19 8 26 29 85 48 53 59
REMARK Flexibility Score: inf
ROOT
ATOM      1  C   UNL A   1      32.811  28.219  26.805  1.00  0.00     0.002 C 
ENDROOT
BRANCH   1   2
ATOM      2  C   UNL A   1      31.965  27.718  25.628  1.00  0.00     0.002 C 
BRANCH   2   3
ATOM      3  C   UNL A   1      32.385  28.179  24.228  1.00  0.00     0.021 C 
BRANCH   3   4
ATOM      4  C   UNL A   1      33.466  27.346  23.552  1.00  0.00     0.116 C 
BRANCH   4   5
ATOM      5  N   UNL A   1      33.242  25.914  23.562  1.00  0.00    -0.356 N 
ATOM      6  O   UNL A   1      33.589  25.695  21.300  1.00  0.00    -0.275 OA
ATOM      7  C   UNL A   1      33.395  25.181  22.400  1.00  0.00     0.225 C 
ATOM      8  H   UNL A   1      32.981  25.464  24.397  1.00  0.00     0.163 HD
BRANCH   7   9
ATOM      9  C   UNL A   1      33.265  23.682  22.562  1.00  0.00     0.154 C 
BRANCH   9  10
ATOM     10  C   UNL A   1      32.729  23.187  23.883  1.00  0.00     0.032 A 
ATOM     11  C   UNL A   1      31.385  22.992  24.183  1.00  0.00     0.024 A 
ATOM     12  N   UNL A   1      33.458  22.680  24.954  1.00  0.00    -0.320 N 
ATOM     13  C   UNL A   1      31.294  22.332  25.425  1.00  0.00     0.020 A 
ATOM     14  C   UNL A   1      32.580  22.133  25.867  1.00  0.00     0.091 A 
BRANCH  12  15
ATOM     15  C   UNL A   1      34.847  22.726  25.176  1.00  0.00     0.049 A 
ATOM     16  C   UNL A   1      35.417  23.837  25.801  1.00  0.00     0.031 A 
ATOM     17  C   UNL A   1      35.631  21.653  24.753  1.00  0.00     0.077 A 
ATOM     18  C   UNL A   1      36.785  23.823  26.093  1.00  0.00     0.052 A 
ATOM     19  C   UNL A   1      36.981  21.632  25.091  1.00  0.00     0.163 A 
ATOM     20  C   UNL A   1      37.562  22.710  25.766  1.00  0.00     0.161 A 
ATOM     21  O   UNL A   1      37.684  20.492  24.786  1.00  0.00    -0.486 OA
ATOM     22  O   UNL A   1      38.870  22.721  26.178  1.00  0.00    -0.486 OA
ATOM     23  C   UNL A   1      38.703  20.306  25.776  1.00  0.00     0.271 C 
ATOM     24  C   UNL A   1      39.592  21.537  25.808  1.00  0.00     0.271 C 
ENDBRANCH  12  15
ENDBRANCH   9  10
ENDBRANCH   7   9
ENDBRANCH   4   5
ENDBRANCH   3   4
ENDBRANCH   2   3
ENDBRANCH   1   2
BRANCH   1  25
ATOM     25  C   UNL A   1      33.751  29.399  26.524  1.00  0.00     0.021 C 
BRANCH  25  26
ATOM     26  C   UNL A   1      35.104  29.320  27.227  1.00  0.00     0.116 C 
BRANCH  26  27
ATOM     27  N   UNL A   1      35.475  30.593  27.820  1.00  0.00    -0.352 N 
ATOM     28  C   UNL A   1      36.461  30.877  28.733  1.00  0.00     0.251 C 
ATOM     29  H   UNL A   1      34.941  31.365  27.524  1.00  0.00     0.163 HD
ATOM     30  O   UNL A   1      36.383  31.910  29.387  1.00  0.00    -0.269 OA
BRANCH  28  31
ATOM     31  C   UNL A   1      37.599  29.956  28.950  1.00  0.00     0.039 A 
ATOM     32  C   UNL A   1      38.735  30.116  28.144  1.00  0.00     0.014 A 
ATOM     33  C   UNL A   1      37.528  28.894  29.858  1.00  0.00     0.014 A 
ATOM     34  C   UNL A   1      39.816  29.252  28.293  1.00  0.00     0.010 A 
ATOM     35  C   UNL A   1      38.617  28.041  30.026  1.00  0.00     0.010 A 
ATOM     36  C   UNL A   1      39.766  28.230  29.252  1.00  0.00    -0.014 A 
BRANCH  36  37
ATOM     37  C   UNL A   1      41.016  27.498  29.567  1.00  0.00     0.031 A 
ATOM     38  C   UNL A   1      41.227  26.324  28.564  1.00  0.00     0.074 A 
ATOM     39  C   UNL A   1      41.725  27.927  30.663  1.00  0.00     0.049 A 
ATOM     40  N   UNL A   1      41.843  25.191  28.705  1.00  0.00    -0.248 NA
ATOM     41  C   UNL A   1      40.571  26.386  27.219  1.00  0.00     0.031 C 
ATOM     42  C   UNL A   1      41.395  29.124  31.479  1.00  0.00     0.029 A 
ATOM     43  N   UNL A   1      42.850  27.473  31.324  1.00  0.00    -0.354 N 
ATOM     44  C   UNL A   1      41.873  24.544  27.439  1.00  0.00     0.074 A 
ATOM     45  C   UNL A   1      40.951  25.258  26.612  1.00  0.00     0.031 C 
ATOM     46  C   UNL A   1      42.226  29.245  32.544  1.00  0.00     0.029 A 
ATOM     47  C   UNL A   1      43.189  28.162  32.534  1.00  0.00     0.049 A 
ATOM     48  H   UNL A   1      43.388  26.721  30.984  1.00  0.00     0.167 HD
ATOM     49  C   UNL A   1      42.771  23.560  27.121  1.00  0.00     0.034 A 
ATOM     50  C   UNL A   1      44.154  27.857  33.467  1.00  0.00     0.034 A 
ATOM     51  C   UNL A   1      43.577  23.290  28.262  1.00  0.00     0.049 A 
ATOM     52  C   UNL A   1      44.909  26.771  32.831  1.00  0.00     0.074 A 
ATOM     53  C   UNL A   1      43.305  22.681  29.456  1.00  0.00     0.029 A 
ATOM     54  N   UNL A   1      44.759  23.990  28.361  1.00  0.00    -0.354 N 
ATOM     55  N   UNL A   1      45.755  26.942  31.865  1.00  0.00    -0.248 NA
ATOM     56  C   UNL A   1      44.670  25.387  33.257  1.00  0.00     0.031 C 
ATOM     57  C   UNL A   1      44.023  23.476  30.367  1.00  0.00     0.029 A 
ATOM     58  C   UNL A   1      44.899  24.330  29.679  1.00  0.00     0.049 A 
ATOM     59  H   UNL A   1      45.379  24.203  27.628  1.00  0.00     0.167 HD
ATOM     60  C   UNL A   1      45.877  25.680  31.354  1.00  0.00     0.074 A 
ATOM     61  C   UNL A   1      45.503  24.771  32.419  1.00  0.00     0.031 C 
ATOM     62  C   UNL A   1      45.694  25.488  30.021  1.00  0.00     0.034 A 
BRANCH  49  63
ATOM     63  C   UNL A   1      43.229  22.909  25.835  1.00  0.00     0.023 A 
ATOM     64  C   UNL A   1      43.333  21.490  25.856  1.00  0.00     0.031 A 
ATOM     65  C   UNL A   1      43.855  23.553  24.762  1.00  0.00     0.131 A 
ATOM     66  C   UNL A   1      44.160  20.794  24.966  1.00  0.00     0.055 A 
ATOM     67  C   UNL A   1      44.623  22.843  23.822  1.00  0.00     0.041 A 
ATOM     68  F   UNL A   1      43.823  24.885  24.627  1.00  0.00    -0.206 F 
ATOM     69  C   UNL A   1      44.816  21.466  23.944  1.00  0.00     0.022 A 
BRANCH  66  70
ATOM     70  S   UNL A   1      44.509  19.042  25.311  1.00  0.00     0.124 S 
ATOM     71  O   UNL A   1      44.284  18.421  24.010  1.00  0.00    -0.237 OA
ATOM     72  O   UNL A   1      45.896  19.091  25.764  1.00  0.00    -0.237 OA
ATOM     73  O   UNL A   1      43.532  18.698  26.341  1.00  0.00    -0.744 OA
ENDBRANCH  66  70
ENDBRANCH  49  63
BRANCH  50  74
ATOM     74  C   UNL A   1      44.653  28.223  34.869  1.00  0.00     0.023 A 
ATOM     75  C   UNL A   1      44.514  27.481  36.055  1.00  0.00     0.031 A 
ATOM     76  C   UNL A   1      45.427  29.427  35.025  1.00  0.00     0.131 A 
ATOM     77  C   UNL A   1      45.185  27.900  37.250  1.00  0.00     0.055 A 
ATOM     78  C   UNL A   1      46.153  29.776  36.161  1.00  0.00     0.041 A 
ATOM     79  F   UNL A   1      45.525  30.351  34.060  1.00  0.00    -0.206 F 
ATOM     80  C   UNL A   1      46.048  29.000  37.284  1.00  0.00     0.022 A 
BRANCH  77  81
ATOM     81  S   UNL A   1      44.983  27.022  38.833  1.00  0.00     0.124 S 
ATOM     82  O   UNL A   1      46.121  26.110  38.821  1.00  0.00    -0.237 OA
ATOM     83  O   UNL A   1      45.030  28.099  39.814  1.00  0.00    -0.237 OA
ATOM     84  O   UNL A   1      43.676  26.378  38.694  1.00  0.00    -0.744 OA
ENDBRANCH  77  81
ENDBRANCH  50  74
BRANCH  62  85
ATOM     85  C   UNL A   1      45.965  26.728  29.158  1.00  0.00     0.023 A 
ATOM     86  C   UNL A   1      44.887  27.525  28.712  1.00  0.00     0.031 A 
ATOM     87  C   UNL A   1      47.228  27.079  28.644  1.00  0.00     0.131 A 
ATOM     88  C   UNL A   1      45.074  28.556  27.769  1.00  0.00     0.055 A 
ATOM     89  C   UNL A   1      47.421  28.116  27.717  1.00  0.00     0.041 A 
ATOM     90  F   UNL A   1      48.328  26.422  29.008  1.00  0.00    -0.206 F 
ATOM     91  C   UNL A   1      46.338  28.856  27.268  1.00  0.00     0.022 A 
BRANCH  88  92
ATOM     92  S   UNL A   1      43.639  29.510  27.198  1.00  0.00     0.124 S 
ATOM     93  O   UNL A   1      44.244  30.519  26.337  1.00  0.00    -0.237 OA
ATOM     94  O   UNL A   1      42.831  28.494  26.528  1.00  0.00    -0.237 OA
ATOM     95  O   UNL A   1      43.058  30.027  28.438  1.00  0.00    -0.744 OA
ENDBRANCH  88  92
ENDBRANCH  62  85
ENDBRANCH  36  37
ENDBRANCH  28  31
ENDBRANCH  26  27
ENDBRANCH  25  26
ENDBRANCH   1  25
TORSDOF 18
ENDMDL
MODEL 3
REMARK VINA RESULT:     -11.8      2.781      7.821
REMARK SMILES O=C(Cc1cccn1-c1ccc2c(c1)OCCO2)NCCCCCCNC(=O)c1ccc(-c2c3nc(c(-c4cc(S(=O)(=O)[O-])ccc4F)c4ccc([nH]4)c(-c4cc(S(=O)(=O)[O-])ccc4F)c4nc(c(-c5cc(S(=O)(=O)[O-])ccc5F)c5ccc2[nH]5)C=C4)C=C3)cc1
REMARK SMILES IDX 23 1 22 2 21 3 20 4 19 5 1 6 2 7 3 9 4 10 5 11 8 12 6 13
REMARK SMILES IDX 7 14 9 15 10 16 14 17 11 18 13 19 12 20 15 21 18 22 16 23
REMARK SMILES IDX 17 24 24 25 25 26 26 27 27 28 28 30 29 31 30 32 91 33 31 34
REMARK SMILES IDX 90 35 32 36 33 37 34 38 84 39 35 40 89 41 83 42 85 43 36 44
REMARK SMILES IDX 88 45 82 46 81 47 37 49 69 50 49 51 68 52 50 53 53 54 67 55
REMARK SMILES IDX 86 56 51 57 52 58 66 60 87 61 54 62 38 63 39 64 47 65 40 66
REMARK SMILES IDX 46 67 48 68 45 69 41 70 42 71 43 72 44 73 70 74 71 75 79 76
REMARK SMILES IDX 72 77 78 78 80 79 77 80 73 81 74 82 75 83 76 84 55 85 56 86
REMARK SMILES IDX 64 87 57 88 63 89 65 90 62 91 58 92 59 93 60 94 61 95
REMARK H PARENT 19 8 26 29 85 48 53 59
REMARK Flexibility Score: inf
ROOT
ATOM      1  C   UNL A   1      35.347  23.092  25.836  1.00  0.00     0.002 C 
ENDROOT
BRANCH   1   2
ATOM      2  C   UNL A   1      34.748  21.879  26.556  1.00  0.00     0.002 C 
BRANCH   2   3
ATOM      3  C   UNL A   1      34.115  22.132  27.929  1.00  0.00     0.021 C 
BRANCH   3   4
ATOM      4  C   UNL A   1      32.593  22.137  27.968  1.00  0.00     0.116 C 
BRANCH   4   5
ATOM      5  N   UNL A   1      31.941  22.388  26.698  1.00  0.00    -0.356 N 
ATOM      6  O   UNL A   1      31.438  24.570  27.219  1.00  0.00    -0.275 OA
ATOM      7  C   UNL A   1      31.463  23.651  26.402  1.00  0.00     0.225 C 
ATOM      8  H   UNL A   1      31.840  21.658  26.045  1.00  0.00     0.163 HD
BRANCH   7   9
ATOM      9  C   UNL A   1      30.924  23.823  24.999  1.00  0.00     0.154 C 
BRANCH   9  10
ATOM     10  C   UNL A   1      31.940  23.880  23.884  1.00  0.00     0.032 A 
ATOM     11  C   UNL A   1      32.301  22.811  23.071  1.00  0.00     0.024 A 
ATOM     12  N   UNL A   1      32.555  25.011  23.359  1.00  0.00    -0.320 N 
ATOM     13  C   UNL A   1      33.111  23.297  22.026  1.00  0.00     0.020 A 
ATOM     14  C   UNL A   1      33.234  24.653  22.213  1.00  0.00     0.091 A 
BRANCH  12  15
ATOM     15  C   UNL A   1      32.580  26.321  23.874  1.00  0.00     0.049 A 
ATOM     16  C   UNL A   1      31.623  27.250  23.463  1.00  0.00     0.031 A 
ATOM     17  C   UNL A   1      33.577  26.666  24.786  1.00  0.00     0.077 A 
ATOM     18  C   UNL A   1      31.610  28.518  24.055  1.00  0.00     0.052 A 
ATOM     19  C   UNL A   1      33.525  27.913  25.399  1.00  0.00     0.163 A 
ATOM     20  C   UNL A   1      32.541  28.841  25.044  1.00  0.00     0.161 A 
ATOM     21  O   UNL A   1      34.436  28.157  26.398  1.00  0.00    -0.486 OA
ATOM     22  O   UNL A   1      32.402  30.060  25.655  1.00  0.00    -0.486 OA
ATOM     23  C   UNL A   1      33.835  29.032  27.361  1.00  0.00     0.271 C 
ATOM     24  C   UNL A   1      33.394  30.307  26.663  1.00  0.00     0.271 C 
ENDBRANCH  12  15
ENDBRANCH   9  10
ENDBRANCH   7   9
ENDBRANCH   4   5
ENDBRANCH   3   4
ENDBRANCH   2   3
ENDBRANCH   1   2
BRANCH   1  25
ATOM     25  C   UNL A   1      36.654  22.858  25.067  1.00  0.00     0.021 C 
BRANCH  25  26
ATOM     26  C   UNL A   1      37.779  23.834  25.407  1.00  0.00     0.116 C 
BRANCH  26  27
ATOM     27  N   UNL A   1      38.986  23.138  25.818  1.00  0.00    -0.352 N 
ATOM     28  C   UNL A   1      40.110  23.630  26.435  1.00  0.00     0.251 C 
ATOM     29  H   UNL A   1      38.999  22.173  25.627  1.00  0.00     0.163 HD
ATOM     30  O   UNL A   1      41.152  22.990  26.364  1.00  0.00    -0.269 OA
BRANCH  28  31
ATOM     31  C   UNL A   1      40.088  24.917  27.166  1.00  0.00     0.039 A 
ATOM     32  C   UNL A   1      39.372  24.978  28.368  1.00  0.00     0.014 A 
ATOM     33  C   UNL A   1      40.677  26.074  26.641  1.00  0.00     0.014 A 
ATOM     34  C   UNL A   1      39.299  26.177  29.071  1.00  0.00     0.010 A 
ATOM     35  C   UNL A   1      40.626  27.270  27.354  1.00  0.00     0.010 A 
ATOM     36  C   UNL A   1      39.948  27.317  28.576  1.00  0.00    -0.014 A 
BRANCH  36  37
ATOM     37  C   UNL A   1      40.073  28.498  29.464  1.00  0.00     0.031 A 
ATOM     38  C   UNL A   1      41.211  28.277  30.504  1.00  0.00     0.074 A 
ATOM     39  C   UNL A   1      39.180  29.522  29.260  1.00  0.00     0.049 A 
ATOM     40  N   UNL A   1      41.367  28.753  31.701  1.00  0.00    -0.248 NA
ATOM     41  C   UNL A   1      42.304  27.302  30.196  1.00  0.00     0.031 C 
ATOM     42  C   UNL A   1      38.185  29.583  28.159  1.00  0.00     0.029 A 
ATOM     43  N   UNL A   1      38.912  30.713  29.909  1.00  0.00    -0.354 N 
ATOM     44  C   UNL A   1      42.650  28.359  32.169  1.00  0.00     0.074 A 
ATOM     45  C   UNL A   1      43.108  27.354  31.262  1.00  0.00     0.031 C 
ATOM     46  C   UNL A   1      37.389  30.675  28.267  1.00  0.00     0.029 A 
ATOM     47  C   UNL A   1      37.780  31.449  29.428  1.00  0.00     0.049 A 
ATOM     48  H   UNL A   1      39.465  31.036  30.657  1.00  0.00     0.167 HD
ATOM     49  C   UNL A   1      43.307  29.002  33.186  1.00  0.00     0.034 A 
ATOM     50  C   UNL A   1      37.191  32.578  29.952  1.00  0.00     0.034 A 
ATOM     51  C   UNL A   1      42.472  30.039  33.686  1.00  0.00     0.049 A 
ATOM     52  C   UNL A   1      38.123  32.986  31.010  1.00  0.00     0.074 A 
ATOM     53  C   UNL A   1      41.320  30.016  34.422  1.00  0.00     0.029 A 
ATOM     54  N   UNL A   1      42.636  31.286  33.127  1.00  0.00    -0.354 N 
ATOM     55  N   UNL A   1      39.264  33.559  30.793  1.00  0.00    -0.248 NA
ATOM     56  C   UNL A   1      37.793  32.688  32.408  1.00  0.00     0.031 C 
ATOM     57  C   UNL A   1      40.569  31.048  33.835  1.00  0.00     0.029 A 
ATOM     58  C   UNL A   1      41.381  31.815  32.985  1.00  0.00     0.049 A 
ATOM     59  H   UNL A   1      43.487  31.713  32.878  1.00  0.00     0.167 HD
ATOM     60  C   UNL A   1      39.916  33.373  31.980  1.00  0.00     0.074 A 
ATOM     61  C   UNL A   1      38.890  33.178  32.983  1.00  0.00     0.031 C 
ATOM     62  C   UNL A   1      41.158  32.819  31.969  1.00  0.00     0.034 A 
BRANCH  49  63
ATOM     63  C   UNL A   1      44.731  29.011  33.697  1.00  0.00     0.023 A 
ATOM     64  C   UNL A   1      44.907  28.642  35.060  1.00  0.00     0.031 A 
ATOM     65  C   UNL A   1      45.822  29.639  33.086  1.00  0.00     0.131 A 
ATOM     66  C   UNL A   1      46.028  29.042  35.797  1.00  0.00     0.055 A 
ATOM     67  C   UNL A   1      46.982  29.970  33.810  1.00  0.00     0.041 A 
ATOM     68  F   UNL A   1      45.782  30.028  31.805  1.00  0.00    -0.206 F 
ATOM     69  C   UNL A   1      47.072  29.714  35.179  1.00  0.00     0.022 A 
BRANCH  66  70
ATOM     70  S   UNL A   1      45.982  28.842  37.605  1.00  0.00     0.124 S 
ATOM     71  O   UNL A   1      46.851  29.923  38.056  1.00  0.00    -0.237 OA
ATOM     72  O   UNL A   1      44.559  29.003  37.893  1.00  0.00    -0.237 OA
ATOM     73  O   UNL A   1      46.507  27.495  37.810  1.00  0.00    -0.744 OA
ENDBRANCH  66  70
ENDBRANCH  49  63
BRANCH  50  74
ATOM     74  C   UNL A   1      35.955  33.475  29.831  1.00  0.00     0.023 A 
ATOM     75  C   UNL A   1      35.229  34.087  30.868  1.00  0.00     0.031 A 
ATOM     76  C   UNL A   1      35.489  33.821  28.514  1.00  0.00     0.131 A 
ATOM     77  C   UNL A   1      34.192  35.028  30.564  1.00  0.00     0.055 A 
ATOM     78  C   UNL A   1      34.547  34.806  28.226  1.00  0.00     0.041 A 
ATOM     79  F   UNL A   1      35.934  33.210  27.408  1.00  0.00    -0.206 F 
ATOM     80  C   UNL A   1      33.900  35.431  29.257  1.00  0.00     0.022 A 
BRANCH  77  81
ATOM     81  S   UNL A   1      33.170  35.796  31.861  1.00  0.00     0.124 S 
ATOM     82  O   UNL A   1      34.169  36.503  32.655  1.00  0.00    -0.237 OA
ATOM     83  O   UNL A   1      32.244  36.627  31.101  1.00  0.00    -0.237 OA
ATOM     84  O   UNL A   1      32.555  34.647  32.527  1.00  0.00    -0.744 OA
ENDBRANCH  77  81
ENDBRANCH  50  74
BRANCH  62  85
ATOM     85  C   UNL A   1      41.928  33.013  30.656  1.00  0.00     0.023 A 
ATOM     86  C   UNL A   1      42.323  31.887  29.898  1.00  0.00     0.031 A 
ATOM     87  C   UNL A   1      42.407  34.252  30.190  1.00  0.00     0.131 A 
ATOM     88  C   UNL A   1      43.188  32.011  28.793  1.00  0.00     0.055 A 
ATOM     89  C   UNL A   1      43.257  34.381  29.079  1.00  0.00     0.041 A 
ATOM     90  F   UNL A   1      42.084  35.390  30.802  1.00  0.00    -0.206 F 
ATOM     91  C   UNL A   1      43.659  33.255  28.378  1.00  0.00     0.022 A 
BRANCH  88  92
ATOM     92  S   UNL A   1      43.700  30.519  27.892  1.00  0.00     0.124 S 
ATOM     93  O   UNL A   1      44.271  31.062  26.666  1.00  0.00    -0.237 OA
ATOM     94  O   UNL A   1      44.641  29.898  28.820  1.00  0.00    -0.237 OA
ATOM     95  O   UNL A   1      42.447  29.783  27.714  1.00  0.00    -0.744 OA
ENDBRANCH  88  92
ENDBRANCH  62  85
ENDBRANCH  36  37
ENDBRANCH  28  31
ENDBRANCH  26  27
ENDBRANCH  25  26
ENDBRANCH   1  25
TORSDOF 18
ENDMDL
