MODEL 1
REMARK VINA RESULT:     -10.5      0.000      0.000
REMARK SMILES [NH3+]CCOCC(=O)N[C@H](C(=O)NCCCCCCNC(=O)c1ccc(-c2c3nc(c(-c4cc(S(=O)(=O)[O-])ccc4F)c4ccc([nH]4)c(-c4cc(S(=O)(=O)[O-])ccc4F)c4nc(c(-c5cc(S(=O)(=O)[O-])ccc5F)c5ccc2[nH]5)C=C4)C=C3)cc1)C1CCCCC1
REMARK SMILES IDX 14 1 13 2 12 3 10 4 11 5 9 7 8 8 6 9 7 10 5 12 4 13 3 14
REMARK SMILES IDX 2 15 1 16 85 20 86 21 90 22 87 23 89 24 88 25 15 26 16 27
REMARK SMILES IDX 17 28 18 29 19 30 20 31 21 33 22 34 23 35 84 36 24 37 83 38
REMARK SMILES IDX 25 39 26 40 27 41 77 42 28 43 82 44 76 45 78 46 29 47 81 48
REMARK SMILES IDX 75 49 74 50 30 52 62 53 42 54 61 55 43 56 46 57 60 58 79 59
REMARK SMILES IDX 44 60 45 61 59 63 80 64 47 65 31 66 32 67 40 68 33 69 39 70
REMARK SMILES IDX 41 71 38 72 34 73 35 74 36 75 37 76 63 77 64 78 72 79 65 80
REMARK SMILES IDX 71 81 73 82 70 83 66 84 67 85 68 86 69 87 48 88 49 89 57 90
REMARK SMILES IDX 50 91 56 92 58 93 55 94 51 95 52 96 53 97 54 98
REMARK H PARENT 12 6 8 11 1 17 1 18 1 19 19 32 78 51 46 62
REMARK Flexibility Score: inf
ROOT
ATOM      1  C   UNL A   1      33.541  28.935  26.996  1.00  0.00     0.021 C 
ENDROOT
BRANCH   1   2
ATOM      2  C   UNL A   1      33.510  27.552  26.374  1.00  0.00     0.116 C 
BRANCH   2   3
ATOM      3  N   UNL A   1      33.699  27.589  24.937  1.00  0.00    -0.354 N 
ATOM      4  C   UNL A   1      33.694  26.547  24.050  1.00  0.00     0.242 C 
ATOM      5  O   UNL A   1      33.596  26.805  22.848  1.00  0.00    -0.273 OA
ATOM      6  H   UNL A   1      33.852  28.482  24.549  1.00  0.00     0.163 HD
BRANCH   4   7
ATOM      7  C   UNL A   1      33.688  25.086  24.559  1.00  0.00     0.174 C 
BRANCH   7   8
ATOM      8  N   UNL A   1      32.617  24.292  23.923  1.00  0.00    -0.342 N 
ATOM      9  C   UNL A   1      31.269  24.296  24.115  1.00  0.00     0.246 C 
ATOM     10  O   UNL A   1      30.595  23.517  23.433  1.00  0.00    -0.272 OA
ATOM     11  H   UNL A   1      32.931  23.649  23.246  1.00  0.00     0.164 HD
BRANCH   9  12
ATOM     12  C   UNL A   1      30.580  25.235  25.116  1.00  0.00     0.260 C 
BRANCH  12  13
ATOM     13  O   UNL A   1      29.649  26.150  24.571  1.00  0.00    -0.366 OA
BRANCH  13  14
ATOM     14  C   UNL A   1      30.057  26.772  23.352  1.00  0.00     0.222 C 
BRANCH  14  15
ATOM     15  C   UNL A   1      30.355  28.277  23.475  1.00  0.00     0.287 C 
BRANCH  15  16
ATOM     16  N   UNL A   1      31.262  28.837  22.472  1.00  0.00    -0.356 N 
ATOM     17  H   UNL A   1      31.880  28.104  22.125  1.00  0.00     0.344 HD
ATOM     18  H   UNL A   1      31.818  29.580  22.895  1.00  0.00     0.344 HD
ATOM     19  H   UNL A   1      30.718  29.218  21.698  1.00  0.00     0.344 HD
ENDBRANCH  15  16
ENDBRANCH  14  15
ENDBRANCH  13  14
ENDBRANCH  12  13
ENDBRANCH   9  12
ENDBRANCH   7   8
BRANCH   7  20
ATOM     20  C   UNL A   1      35.148  24.459  24.429  1.00  0.00     0.021 C 
ATOM     21  C   UNL A   1      35.771  24.008  25.769  1.00  0.00     0.006 C 
ATOM     22  C   UNL A   1      35.275  23.330  23.369  1.00  0.00     0.006 C 
ATOM     23  C   UNL A   1      37.149  23.363  25.617  1.00  0.00     0.000 C 
ATOM     24  C   UNL A   1      36.640  22.658  23.287  1.00  0.00     0.000 C 
ATOM     25  C   UNL A   1      37.099  22.186  24.655  1.00  0.00     0.000 C 
ENDBRANCH   7  20
ENDBRANCH   4   7
ENDBRANCH   2   3
ENDBRANCH   1   2
BRANCH   1  26
ATOM     26  C   UNL A   1      32.145  29.530  27.183  1.00  0.00     0.002 C 
BRANCH  26  27
ATOM     27  C   UNL A   1      31.737  30.570  26.128  1.00  0.00     0.002 C 
BRANCH  27  28
ATOM     28  C   UNL A   1      31.603  32.008  26.641  1.00  0.00     0.021 C 
BRANCH  28  29
ATOM     29  C   UNL A   1      32.870  32.560  27.275  1.00  0.00     0.116 C 
BRANCH  29  30
ATOM     30  N   UNL A   1      32.709  33.959  27.626  1.00  0.00    -0.352 N 
ATOM     31  C   UNL A   1      33.268  34.638  28.671  1.00  0.00     0.251 C 
ATOM     32  H   UNL A   1      32.122  34.485  27.036  1.00  0.00     0.163 HD
ATOM     33  O   UNL A   1      32.809  35.727  29.015  1.00  0.00    -0.269 OA
BRANCH  31  34
ATOM     34  C   UNL A   1      34.414  34.040  29.377  1.00  0.00     0.039 A 
ATOM     35  C   UNL A   1      35.709  34.379  28.986  1.00  0.00     0.014 A 
ATOM     36  C   UNL A   1      34.198  33.148  30.434  1.00  0.00     0.014 A 
ATOM     37  C   UNL A   1      36.794  33.839  29.676  1.00  0.00     0.010 A 
ATOM     38  C   UNL A   1      35.276  32.681  31.172  1.00  0.00     0.010 A 
ATOM     39  C   UNL A   1      36.584  33.002  30.785  1.00  0.00    -0.014 A 
BRANCH  39  40
ATOM     40  C   UNL A   1      37.722  32.399  31.521  1.00  0.00     0.031 A 
ATOM     41  C   UNL A   1      38.501  31.281  30.884  1.00  0.00     0.074 A 
ATOM     42  C   UNL A   1      38.010  32.816  32.768  1.00  0.00     0.049 A 
ATOM     43  N   UNL A   1      39.464  30.552  31.384  1.00  0.00    -0.248 NA
ATOM     44  C   UNL A   1      38.122  30.915  29.509  1.00  0.00     0.031 C 
ATOM     45  C   UNL A   1      37.302  33.874  33.490  1.00  0.00     0.029 A 
ATOM     46  N   UNL A   1      38.970  32.395  33.653  1.00  0.00    -0.354 N 
ATOM     47  C   UNL A   1      39.793  29.632  30.394  1.00  0.00     0.074 A 
ATOM     48  C   UNL A   1      38.880  29.851  29.295  1.00  0.00     0.031 C 
ATOM     49  C   UNL A   1      37.868  34.036  34.697  1.00  0.00     0.029 A 
ATOM     50  C   UNL A   1      38.943  33.060  34.856  1.00  0.00     0.049 A 
ATOM     51  H   UNL A   1      39.618  31.683  33.446  1.00  0.00     0.167 HD
ATOM     52  C   UNL A   1      40.784  28.706  30.396  1.00  0.00     0.034 A 
ATOM     53  C   UNL A   1      39.689  32.890  35.965  1.00  0.00     0.034 A 
ATOM     54  C   UNL A   1      41.689  28.515  31.500  1.00  0.00     0.049 A 
ATOM     55  C   UNL A   1      40.762  31.829  35.956  1.00  0.00     0.074 A 
ATOM     56  C   UNL A   1      42.756  27.639  31.599  1.00  0.00     0.029 A 
ATOM     57  N   UNL A   1      41.631  29.207  32.705  1.00  0.00    -0.354 N 
ATOM     58  N   UNL A   1      41.087  30.990  35.000  1.00  0.00    -0.248 NA
ATOM     59  C   UNL A   1      41.576  31.701  37.171  1.00  0.00     0.031 C 
ATOM     60  C   UNL A   1      43.293  27.749  32.886  1.00  0.00     0.029 A 
ATOM     61  C   UNL A   1      42.623  28.757  33.560  1.00  0.00     0.049 A 
ATOM     62  H   UNL A   1      40.980  29.914  32.918  1.00  0.00     0.167 HD
ATOM     63  C   UNL A   1      42.172  30.263  35.485  1.00  0.00     0.074 A 
ATOM     64  C   UNL A   1      42.447  30.769  36.815  1.00  0.00     0.031 C 
ATOM     65  C   UNL A   1      42.883  29.275  34.884  1.00  0.00     0.034 A 
BRANCH  52  66
ATOM     66  C   UNL A   1      40.912  27.823  29.177  1.00  0.00     0.023 A 
ATOM     67  C   UNL A   1      41.956  27.987  28.250  1.00  0.00     0.031 A 
ATOM     68  C   UNL A   1      39.956  26.824  28.916  1.00  0.00     0.131 A 
ATOM     69  C   UNL A   1      41.975  27.227  27.071  1.00  0.00     0.055 A 
ATOM     70  C   UNL A   1      40.031  26.009  27.786  1.00  0.00     0.041 A 
ATOM     71  F   UNL A   1      38.922  26.634  29.750  1.00  0.00    -0.206 F 
ATOM     72  C   UNL A   1      41.036  26.219  26.845  1.00  0.00     0.022 A 
BRANCH  69  73
ATOM     73  S   UNL A   1      43.151  27.683  25.766  1.00  0.00     0.124 S 
ATOM     74  O   UNL A   1      43.989  26.488  25.693  1.00  0.00    -0.237 OA
ATOM     75  O   UNL A   1      42.276  27.921  24.624  1.00  0.00    -0.237 OA
ATOM     76  O   UNL A   1      43.815  28.870  26.303  1.00  0.00    -0.744 OA
ENDBRANCH  69  73
ENDBRANCH  52  66
BRANCH  53  77
ATOM     77  C   UNL A   1      39.449  33.728  37.174  1.00  0.00     0.023 A 
ATOM     78  C   UNL A   1      38.759  33.214  38.284  1.00  0.00     0.031 A 
ATOM     79  C   UNL A   1      39.870  35.069  37.224  1.00  0.00     0.131 A 
ATOM     80  C   UNL A   1      38.464  34.049  39.372  1.00  0.00     0.055 A 
ATOM     81  C   UNL A   1      39.625  35.880  38.335  1.00  0.00     0.041 A 
ATOM     82  F   UNL A   1      40.538  35.612  36.193  1.00  0.00    -0.206 F 
ATOM     83  C   UNL A   1      38.904  35.374  39.411  1.00  0.00     0.022 A 
BRANCH  80  84
ATOM     84  S   UNL A   1      37.407  33.404  40.698  1.00  0.00     0.124 S 
ATOM     85  O   UNL A   1      37.166  34.601  41.494  1.00  0.00    -0.237 OA
ATOM     86  O   UNL A   1      36.265  32.888  39.951  1.00  0.00    -0.237 OA
ATOM     87  O   UNL A   1      38.243  32.388  41.334  1.00  0.00    -0.744 OA
ENDBRANCH  80  84
ENDBRANCH  53  77
BRANCH  65  88
ATOM     88  C   UNL A   1      44.069  28.722  35.637  1.00  0.00     0.023 A 
ATOM     89  C   UNL A   1      43.939  27.680  36.571  1.00  0.00     0.031 A 
ATOM     90  C   UNL A   1      45.353  29.249  35.404  1.00  0.00     0.131 A 
ATOM     91  C   UNL A   1      45.068  27.233  37.276  1.00  0.00     0.055 A 
ATOM     92  C   UNL A   1      46.480  28.755  36.062  1.00  0.00     0.041 A 
ATOM     93  F   UNL A   1      45.532  30.247  34.526  1.00  0.00    -0.206 F 
ATOM     94  C   UNL A   1      46.338  27.750  37.013  1.00  0.00     0.022 A 
BRANCH  91  95
ATOM     95  S   UNL A   1      44.839  26.026  38.611  1.00  0.00     0.124 S 
ATOM     96  O   UNL A   1      46.172  25.975  39.205  1.00  0.00    -0.237 OA
ATOM     97  O   UNL A   1      43.803  26.652  39.425  1.00  0.00    -0.237 OA
ATOM     98  O   UNL A   1      44.428  24.813  37.909  1.00  0.00    -0.744 OA
ENDBRANCH  91  95
ENDBRANCH  65  88
ENDBRANCH  39  40
ENDBRANCH  31  34
ENDBRANCH  29  30
ENDBRANCH  28  29
ENDBRANCH  27  28
ENDBRANCH  26  27
ENDBRANCH   1  26
TORSDOF 23
ENDMDL
MODEL 2
REMARK VINA RESULT:     -10.4      5.088      8.194
REMARK SMILES [NH3+]CCOCC(=O)N[C@H](C(=O)NCCCCCCNC(=O)c1ccc(-c2c3nc(c(-c4cc(S(=O)(=O)[O-])ccc4F)c4ccc([nH]4)c(-c4cc(S(=O)(=O)[O-])ccc4F)c4nc(c(-c5cc(S(=O)(=O)[O-])ccc5F)c5ccc2[nH]5)C=C4)C=C3)cc1)C1CCCCC1
REMARK SMILES IDX 14 1 13 2 12 3 10 4 11 5 9 7 8 8 6 9 7 10 5 12 4 13 3 14
REMARK SMILES IDX 2 15 1 16 85 20 86 21 90 22 87 23 89 24 88 25 15 26 16 27
REMARK SMILES IDX 17 28 18 29 19 30 20 31 21 33 22 34 23 35 84 36 24 37 83 38
REMARK SMILES IDX 25 39 26 40 27 41 77 42 28 43 82 44 76 45 78 46 29 47 81 48
REMARK SMILES IDX 75 49 74 50 30 52 62 53 42 54 61 55 43 56 46 57 60 58 79 59
REMARK SMILES IDX 44 60 45 61 59 63 80 64 47 65 31 66 32 67 40 68 33 69 39 70
REMARK SMILES IDX 41 71 38 72 34 73 35 74 36 75 37 76 63 77 64 78 72 79 65 80
REMARK SMILES IDX 71 81 73 82 70 83 66 84 67 85 68 86 69 87 48 88 49 89 57 90
REMARK SMILES IDX 50 91 56 92 58 93 55 94 51 95 52 96 53 97 54 98
REMARK H PARENT 12 6 8 11 1 17 1 18 1 19 19 32 78 51 46 62
REMARK Flexibility Score: inf
ROOT
ATOM      1  C   UNL A   1      33.237  21.028  25.070  1.00  0.00     0.021 C 
ENDROOT
BRANCH   1   2
ATOM      2  C   UNL A   1      32.240  22.150  24.856  1.00  0.00     0.116 C 
BRANCH   2   3
ATOM      3  N   UNL A   1      31.515  22.484  26.066  1.00  0.00    -0.354 N 
ATOM      4  C   UNL A   1      30.895  23.660  26.391  1.00  0.00     0.242 C 
ATOM      5  O   UNL A   1      30.103  23.660  27.336  1.00  0.00    -0.273 OA
ATOM      6  H   UNL A   1      31.462  21.771  26.743  1.00  0.00     0.163 HD
BRANCH   4   7
ATOM      7  C   UNL A   1      31.096  24.920  25.514  1.00  0.00     0.174 C 
BRANCH   7   8
ATOM      8  N   UNL A   1      29.810  25.452  25.021  1.00  0.00    -0.342 N 
ATOM      9  C   UNL A   1      29.510  26.163  23.898  1.00  0.00     0.246 C 
ATOM     10  O   UNL A   1      28.328  26.482  23.728  1.00  0.00    -0.272 OA
ATOM     11  H   UNL A   1      29.038  25.260  25.602  1.00  0.00     0.164 HD
BRANCH   9  12
ATOM     12  C   UNL A   1      30.569  26.550  22.858  1.00  0.00     0.260 C 
BRANCH  12  13
ATOM     13  O   UNL A   1      31.026  27.888  22.902  1.00  0.00    -0.366 OA
BRANCH  13  14
ATOM     14  C   UNL A   1      30.177  28.793  23.607  1.00  0.00     0.222 C 
BRANCH  14  15
ATOM     15  C   UNL A   1      29.360  29.734  22.704  1.00  0.00     0.287 C 
BRANCH  15  16
ATOM     16  N   UNL A   1      30.132  30.660  21.874  1.00  0.00    -0.356 N 
ATOM     17  H   UNL A   1      29.798  31.611  22.025  1.00  0.00     0.344 HD
ATOM     18  H   UNL A   1      30.018  30.411  20.892  1.00  0.00     0.344 HD
ATOM     19  H   UNL A   1      31.119  30.601  22.128  1.00  0.00     0.344 HD
ENDBRANCH  15  16
ENDBRANCH  14  15
ENDBRANCH  13  14
ENDBRANCH  12  13
ENDBRANCH   9  12
ENDBRANCH   7   8
BRANCH   7  20
ATOM     20  C   UNL A   1      32.003  25.980  26.285  1.00  0.00     0.021 C 
ATOM     21  C   UNL A   1      33.231  26.470  25.486  1.00  0.00     0.006 C 
ATOM     22  C   UNL A   1      31.226  27.189  26.874  1.00  0.00     0.006 C 
ATOM     23  C   UNL A   1      34.059  27.524  26.223  1.00  0.00     0.000 C 
ATOM     24  C   UNL A   1      32.082  28.258  27.541  1.00  0.00     0.000 C 
ATOM     25  C   UNL A   1      33.200  28.715  26.621  1.00  0.00     0.000 C 
ENDBRANCH   7  20
ENDBRANCH   4   7
ENDBRANCH   2   3
ENDBRANCH   1   2
BRANCH   1  26
ATOM     26  C   UNL A   1      34.662  21.421  24.680  1.00  0.00     0.002 C 
BRANCH  26  27
ATOM     27  C   UNL A   1      34.838  22.888  24.258  1.00  0.00     0.002 C 
BRANCH  27  28
ATOM     28  C   UNL A   1      36.227  23.483  24.515  1.00  0.00     0.021 C 
BRANCH  28  29
ATOM     29  C   UNL A   1      36.654  23.453  25.974  1.00  0.00     0.116 C 
BRANCH  29  30
ATOM     30  N   UNL A   1      37.685  22.456  26.193  1.00  0.00    -0.352 N 
ATOM     31  C   UNL A   1      39.012  22.654  26.451  1.00  0.00     0.251 C 
ATOM     32  H   UNL A   1      37.391  21.516  26.151  1.00  0.00     0.163 HD
ATOM     33  O   UNL A   1      39.811  21.728  26.316  1.00  0.00    -0.269 OA
BRANCH  31  34
ATOM     34  C   UNL A   1      39.461  23.989  26.881  1.00  0.00     0.039 A 
ATOM     35  C   UNL A   1      39.999  24.865  25.939  1.00  0.00     0.014 A 
ATOM     36  C   UNL A   1      39.340  24.370  28.222  1.00  0.00     0.014 A 
ATOM     37  C   UNL A   1      40.394  26.141  26.339  1.00  0.00     0.010 A 
ATOM     38  C   UNL A   1      39.654  25.668  28.601  1.00  0.00     0.010 A 
ATOM     39  C   UNL A   1      40.207  26.557  27.669  1.00  0.00    -0.014 A 
BRANCH  39  40
ATOM     40  C   UNL A   1      40.638  27.901  28.124  1.00  0.00     0.031 A 
ATOM     41  C   UNL A   1      42.101  28.251  28.102  1.00  0.00     0.074 A 
ATOM     42  C   UNL A   1      39.729  28.771  28.602  1.00  0.00     0.049 A 
ATOM     43  N   UNL A   1      42.703  29.325  28.541  1.00  0.00    -0.248 NA
ATOM     44  C   UNL A   1      43.011  27.240  27.538  1.00  0.00     0.031 C 
ATOM     45  C   UNL A   1      38.288  28.524  28.693  1.00  0.00     0.029 A 
ATOM     46  N   UNL A   1      39.881  30.036  29.110  1.00  0.00    -0.354 N 
ATOM     47  C   UNL A   1      44.059  29.112  28.324  1.00  0.00     0.074 A 
ATOM     48  C   UNL A   1      44.195  27.779  27.779  1.00  0.00     0.031 C 
ATOM     49  C   UNL A   1      37.688  29.612  29.200  1.00  0.00     0.029 A 
ATOM     50  C   UNL A   1      38.703  30.613  29.520  1.00  0.00     0.049 A 
ATOM     51  H   UNL A   1      40.754  30.489  29.175  1.00  0.00     0.167 HD
ATOM     52  C   UNL A   1      45.094  29.963  28.536  1.00  0.00     0.034 A 
ATOM     53  C   UNL A   1      38.471  31.805  30.103  1.00  0.00     0.034 A 
ATOM     54  C   UNL A   1      44.932  31.291  29.070  1.00  0.00     0.049 A 
ATOM     55  C   UNL A   1      39.641  32.721  30.363  1.00  0.00     0.074 A 
ATOM     56  C   UNL A   1      45.898  32.257  29.289  1.00  0.00     0.029 A 
ATOM     57  N   UNL A   1      43.721  31.843  29.476  1.00  0.00    -0.354 N 
ATOM     58  N   UNL A   1      40.916  32.522  30.118  1.00  0.00    -0.248 NA
ATOM     59  C   UNL A   1      39.341  34.025  30.966  1.00  0.00     0.031 C 
ATOM     60  C   UNL A   1      45.286  33.359  29.894  1.00  0.00     0.029 A 
ATOM     61  C   UNL A   1      43.923  33.121  29.970  1.00  0.00     0.049 A 
ATOM     62  H   UNL A   1      42.849  31.390  29.419  1.00  0.00     0.167 HD
ATOM     63  C   UNL A   1      41.564  33.695  30.501  1.00  0.00     0.074 A 
ATOM     64  C   UNL A   1      40.536  34.595  30.984  1.00  0.00     0.031 C 
ATOM     65  C   UNL A   1      42.885  34.005  30.448  1.00  0.00     0.034 A 
BRANCH  52  66
ATOM     66  C   UNL A   1      46.483  29.463  28.214  1.00  0.00     0.023 A 
ATOM     67  C   UNL A   1      47.272  28.801  29.171  1.00  0.00     0.031 A 
ATOM     68  C   UNL A   1      47.042  29.681  26.942  1.00  0.00     0.131 A 
ATOM     69  C   UNL A   1      48.599  28.456  28.871  1.00  0.00     0.055 A 
ATOM     70  C   UNL A   1      48.332  29.255  26.621  1.00  0.00     0.041 A 
ATOM     71  F   UNL A   1      46.348  30.329  25.993  1.00  0.00    -0.206 F 
ATOM     72  C   UNL A   1      49.125  28.653  27.593  1.00  0.00     0.022 A 
BRANCH  69  73
ATOM     73  S   UNL A   1      49.673  27.894  30.221  1.00  0.00     0.124 S 
ATOM     74  O   UNL A   1      49.442  26.451  30.200  1.00  0.00    -0.237 OA
ATOM     75  O   UNL A   1      50.990  28.336  29.780  1.00  0.00    -0.237 OA
ATOM     76  O   UNL A   1      49.141  28.587  31.393  1.00  0.00    -0.744 OA
ENDBRANCH  69  73
ENDBRANCH  52  66
BRANCH  53  77
ATOM     77  C   UNL A   1      37.086  32.203  30.488  1.00  0.00     0.023 A 
ATOM     78  C   UNL A   1      36.206  32.759  29.546  1.00  0.00     0.031 A 
ATOM     79  C   UNL A   1      36.635  32.072  31.814  1.00  0.00     0.131 A 
ATOM     80  C   UNL A   1      34.941  33.212  29.953  1.00  0.00     0.055 A 
ATOM     81  C   UNL A   1      35.353  32.469  32.200  1.00  0.00     0.041 A 
ATOM     82  F   UNL A   1      37.433  31.542  32.754  1.00  0.00    -0.206 F 
ATOM     83  C   UNL A   1      34.504  33.058  31.269  1.00  0.00     0.022 A 
BRANCH  80  84
ATOM     84  S   UNL A   1      33.911  34.098  28.751  1.00  0.00     0.124 S 
ATOM     85  O   UNL A   1      33.492  33.017  27.867  1.00  0.00    -0.237 OA
ATOM     86  O   UNL A   1      32.874  34.669  29.604  1.00  0.00    -0.237 OA
ATOM     87  O   UNL A   1      34.833  35.066  28.161  1.00  0.00    -0.744 OA
ENDBRANCH  80  84
ENDBRANCH  53  77
BRANCH  65  88
ATOM     88  C   UNL A   1      43.284  35.400  30.864  1.00  0.00     0.023 A 
ATOM     89  C   UNL A   1      43.460  35.754  32.213  1.00  0.00     0.031 A 
ATOM     90  C   UNL A   1      43.497  36.388  29.885  1.00  0.00     0.131 A 
ATOM     91  C   UNL A   1      43.788  37.077  32.548  1.00  0.00     0.055 A 
ATOM     92  C   UNL A   1      43.886  37.685  30.223  1.00  0.00     0.041 A 
ATOM     93  F   UNL A   1      43.338  36.105  28.583  1.00  0.00    -0.206 F 
ATOM     94  C   UNL A   1      44.022  38.038  31.562  1.00  0.00     0.022 A 
BRANCH  91  95
ATOM     95  S   UNL A   1      43.818  37.550  34.299  1.00  0.00     0.124 S 
ATOM     96  O   UNL A   1      42.479  38.101  34.487  1.00  0.00    -0.237 OA
ATOM     97  O   UNL A   1      44.082  36.278  34.962  1.00  0.00    -0.237 OA
ATOM     98  O   UNL A   1      44.904  38.525  34.372  1.00  0.00    -0.744 OA
ENDBRANCH  91  95
ENDBRANCH  65  88
ENDBRANCH  39  40
ENDBRANCH  31  34
ENDBRANCH  29  30
ENDBRANCH  28  29
ENDBRANCH  27  28
ENDBRANCH  26  27
ENDBRANCH   1  26
TORSDOF 23
ENDMDL
MODEL 3
REMARK VINA RESULT:     -10.3      5.548      8.366
REMARK SMILES [NH3+]CCOCC(=O)N[C@H](C(=O)NCCCCCCNC(=O)c1ccc(-c2c3nc(c(-c4cc(S(=O)(=O)[O-])ccc4F)c4ccc([nH]4)c(-c4cc(S(=O)(=O)[O-])ccc4F)c4nc(c(-c5cc(S(=O)(=O)[O-])ccc5F)c5ccc2[nH]5)C=C4)C=C3)cc1)C1CCCCC1
REMARK SMILES IDX 14 1 13 2 12 3 10 4 11 5 9 7 8 8 6 9 7 10 5 12 4 13 3 14
REMARK SMILES IDX 2 15 1 16 85 20 86 21 90 22 87 23 89 24 88 25 15 26 16 27
REMARK SMILES IDX 17 28 18 29 19 30 20 31 21 33 22 34 23 35 84 36 24 37 83 38
REMARK SMILES IDX 25 39 26 40 27 41 77 42 28 43 82 44 76 45 78 46 29 47 81 48
REMARK SMILES IDX 75 49 74 50 30 52 62 53 42 54 61 55 43 56 46 57 60 58 79 59
REMARK SMILES IDX 44 60 45 61 59 63 80 64 47 65 31 66 32 67 40 68 33 69 39 70
REMARK SMILES IDX 41 71 38 72 34 73 35 74 36 75 37 76 63 77 64 78 72 79 65 80
REMARK SMILES IDX 71 81 73 82 70 83 66 84 67 85 68 86 69 87 48 88 49 89 57 90
REMARK SMILES IDX 50 91 56 92 58 93 55 94 51 95 52 96 53 97 54 98
REMARK H PARENT 12 6 8 11 1 17 1 18 1 19 19 32 78 51 46 62
REMARK Flexibility Score: inf
ROOT
ATOM      1  C   UNL A   1      33.183  20.993  25.076  1.00  0.00     0.021 C 
ENDROOT
BRANCH   1   2
ATOM      2  C   UNL A   1      32.152  22.084  24.856  1.00  0.00     0.116 C 
BRANCH   2   3
ATOM      3  N   UNL A   1      31.418  22.401  26.065  1.00  0.00    -0.354 N 
ATOM      4  C   UNL A   1      30.784  23.568  26.396  1.00  0.00     0.242 C 
ATOM      5  O   UNL A   1      29.988  23.553  27.337  1.00  0.00    -0.273 OA
ATOM      6  H   UNL A   1      31.370  21.682  26.738  1.00  0.00     0.163 HD
BRANCH   4   7
ATOM      7  C   UNL A   1      30.976  24.836  25.529  1.00  0.00     0.174 C 
BRANCH   7   8
ATOM      8  N   UNL A   1      29.684  25.376  25.060  1.00  0.00    -0.342 N 
ATOM      9  C   UNL A   1      29.397  26.299  24.100  1.00  0.00     0.246 C 
ATOM     10  O   UNL A   1      28.207  26.567  23.906  1.00  0.00    -0.272 OA
ATOM     11  H   UNL A   1      28.895  25.008  25.520  1.00  0.00     0.164 HD
BRANCH   9  12
ATOM     12  C   UNL A   1      30.486  26.980  23.258  1.00  0.00     0.260 C 
BRANCH  12  13
ATOM     13  O   UNL A   1      30.495  28.394  23.280  1.00  0.00    -0.366 OA
BRANCH  13  14
ATOM     14  C   UNL A   1      29.928  29.020  22.129  1.00  0.00     0.222 C 
BRANCH  14  15
ATOM     15  C   UNL A   1      29.496  30.480  22.346  1.00  0.00     0.287 C 
BRANCH  15  16
ATOM     16  N   UNL A   1      28.956  31.172  21.175  1.00  0.00    -0.356 N 
ATOM     17  H   UNL A   1      29.301  30.726  20.327  1.00  0.00     0.344 HD
ATOM     18  H   UNL A   1      29.252  32.148  21.191  1.00  0.00     0.344 HD
ATOM     19  H   UNL A   1      27.936  31.126  21.194  1.00  0.00     0.344 HD
ENDBRANCH  15  16
ENDBRANCH  14  15
ENDBRANCH  13  14
ENDBRANCH  12  13
ENDBRANCH   9  12
ENDBRANCH   7   8
BRANCH   7  20
ATOM     20  C   UNL A   1      31.897  25.886  26.297  1.00  0.00     0.021 C 
ATOM     21  C   UNL A   1      33.101  26.398  25.477  1.00  0.00     0.006 C 
ATOM     22  C   UNL A   1      31.129  27.079  26.929  1.00  0.00     0.006 C 
ATOM     23  C   UNL A   1      33.943  27.442  26.213  1.00  0.00     0.000 C 
ATOM     24  C   UNL A   1      31.996  28.140  27.595  1.00  0.00     0.000 C 
ATOM     25  C   UNL A   1      33.088  28.620  26.656  1.00  0.00     0.000 C 
ENDBRANCH   7  20
ENDBRANCH   4   7
ENDBRANCH   2   3
ENDBRANCH   1   2
BRANCH   1  26
ATOM     26  C   UNL A   1      34.574  21.387  24.578  1.00  0.00     0.002 C 
BRANCH  26  27
ATOM     27  C   UNL A   1      34.734  22.869  24.204  1.00  0.00     0.002 C 
BRANCH  27  28
ATOM     28  C   UNL A   1      36.154  23.430  24.338  1.00  0.00     0.021 C 
BRANCH  28  29
ATOM     29  C   UNL A   1      36.661  23.498  25.770  1.00  0.00     0.116 C 
BRANCH  29  30
ATOM     30  N   UNL A   1      37.662  22.476  26.016  1.00  0.00    -0.352 N 
ATOM     31  C   UNL A   1      38.980  22.644  26.335  1.00  0.00     0.251 C 
ATOM     32  H   UNL A   1      37.352  21.544  25.944  1.00  0.00     0.163 HD
ATOM     33  O   UNL A   1      39.767  21.705  26.218  1.00  0.00    -0.269 OA
BRANCH  31  34
ATOM     34  C   UNL A   1      39.436  23.962  26.808  1.00  0.00     0.039 A 
ATOM     35  C   UNL A   1      40.020  24.848  25.904  1.00  0.00     0.014 A 
ATOM     36  C   UNL A   1      39.274  24.317  28.152  1.00  0.00     0.014 A 
ATOM     37  C   UNL A   1      40.421  26.109  26.345  1.00  0.00     0.010 A 
ATOM     38  C   UNL A   1      39.595  25.601  28.569  1.00  0.00     0.010 A 
ATOM     39  C   UNL A   1      40.195  26.500  27.675  1.00  0.00    -0.014 A 
BRANCH  39  40
ATOM     40  C   UNL A   1      40.632  27.827  28.173  1.00  0.00     0.031 A 
ATOM     41  C   UNL A   1      42.102  28.123  28.286  1.00  0.00     0.074 A 
ATOM     42  C   UNL A   1      39.715  28.729  28.570  1.00  0.00     0.049 A 
ATOM     43  N   UNL A   1      42.700  29.174  28.783  1.00  0.00    -0.248 NA
ATOM     44  C   UNL A   1      43.022  27.080  27.804  1.00  0.00     0.031 C 
ATOM     45  C   UNL A   1      38.264  28.536  28.528  1.00  0.00     0.029 A 
ATOM     46  N   UNL A   1      39.867  29.988  29.095  1.00  0.00    -0.354 N 
ATOM     47  C   UNL A   1      44.063  28.911  28.689  1.00  0.00     0.074 A 
ATOM     48  C   UNL A   1      44.198  27.575  28.154  1.00  0.00     0.031 C 
ATOM     49  C   UNL A   1      37.661  29.645  28.983  1.00  0.00     0.029 A 
ATOM     50  C   UNL A   1      38.678  30.607  29.398  1.00  0.00     0.049 A 
ATOM     51  H   UNL A   1      40.746  30.408  29.241  1.00  0.00     0.167 HD
ATOM     52  C   UNL A   1      45.104  29.723  28.999  1.00  0.00     0.034 A 
ATOM     53  C   UNL A   1      38.437  31.807  29.962  1.00  0.00     0.034 A 
ATOM     54  C   UNL A   1      44.942  31.056  29.520  1.00  0.00     0.049 A 
ATOM     55  C   UNL A   1      39.612  32.679  30.332  1.00  0.00     0.074 A 
ATOM     56  C   UNL A   1      45.920  31.986  29.831  1.00  0.00     0.029 A 
ATOM     57  N   UNL A   1      43.721  31.652  29.817  1.00  0.00    -0.354 N 
ATOM     58  N   UNL A   1      40.896  32.434  30.203  1.00  0.00    -0.248 NA
ATOM     59  C   UNL A   1      39.305  33.993  30.910  1.00  0.00     0.031 C 
ATOM     60  C   UNL A   1      45.295  33.109  30.382  1.00  0.00     0.029 A 
ATOM     61  C   UNL A   1      43.923  32.921  30.333  1.00  0.00     0.049 A 
ATOM     62  H   UNL A   1      42.841  31.232  29.679  1.00  0.00     0.167 HD
ATOM     63  C   UNL A   1      41.548  33.582  30.648  1.00  0.00     0.074 A 
ATOM     64  C   UNL A   1      40.515  34.519  31.040  1.00  0.00     0.031 C 
ATOM     65  C   UNL A   1      42.879  33.843  30.717  1.00  0.00     0.034 A 
BRANCH  52  66
ATOM     66  C   UNL A   1      46.497  29.172  28.803  1.00  0.00     0.023 A 
ATOM     67  C   UNL A   1      47.064  29.031  27.524  1.00  0.00     0.031 A 
ATOM     68  C   UNL A   1      47.258  28.749  29.908  1.00  0.00     0.131 A 
ATOM     69  C   UNL A   1      48.312  28.408  27.374  1.00  0.00     0.055 A 
ATOM     70  C   UNL A   1      48.538  28.212  29.758  1.00  0.00     0.041 A 
ATOM     71  F   UNL A   1      46.762  28.835  31.152  1.00  0.00    -0.206 F 
ATOM     72  C   UNL A   1      49.066  28.022  28.485  1.00  0.00     0.022 A 
BRANCH  69  73
ATOM     73  S   UNL A   1      48.863  27.964  25.703  1.00  0.00     0.124 S 
ATOM     74  O   UNL A   1      47.733  28.412  24.892  1.00  0.00    -0.237 OA
ATOM     75  O   UNL A   1      50.094  28.732  25.563  1.00  0.00    -0.237 OA
ATOM     76  O   UNL A   1      49.034  26.514  25.773  1.00  0.00    -0.744 OA
ENDBRANCH  69  73
ENDBRANCH  52  66
BRANCH  53  77
ATOM     77  C   UNL A   1      37.039  32.256  30.221  1.00  0.00     0.023 A 
ATOM     78  C   UNL A   1      36.291  32.902  29.224  1.00  0.00     0.031 A 
ATOM     79  C   UNL A   1      36.442  32.082  31.483  1.00  0.00     0.131 A 
ATOM     80  C   UNL A   1      35.012  33.398  29.519  1.00  0.00     0.055 A 
ATOM     81  C   UNL A   1      35.146  32.525  31.754  1.00  0.00     0.041 A 
ATOM     82  F   UNL A   1      37.110  31.467  32.472  1.00  0.00    -0.206 F 
ATOM     83  C   UNL A   1      34.429  33.201  30.772  1.00  0.00     0.022 A 
BRANCH  80  84
ATOM     84  S   UNL A   1      34.158  34.392  28.266  1.00  0.00     0.124 S 
ATOM     85  O   UNL A   1      33.872  35.617  29.004  1.00  0.00    -0.237 OA
ATOM     86  O   UNL A   1      35.168  34.494  27.219  1.00  0.00    -0.237 OA
ATOM     87  O   UNL A   1      32.990  33.581  27.926  1.00  0.00    -0.744 OA
ENDBRANCH  80  84
ENDBRANCH  53  77
BRANCH  65  88
ATOM     88  C   UNL A   1      43.289  35.222  31.174  1.00  0.00     0.023 A 
ATOM     89  C   UNL A   1      43.471  36.284  30.271  1.00  0.00     0.031 A 
ATOM     90  C   UNL A   1      43.495  35.473  32.543  1.00  0.00     0.131 A 
ATOM     91  C   UNL A   1      43.896  37.534  30.744  1.00  0.00     0.055 A 
ATOM     92  C   UNL A   1      43.855  36.736  33.013  1.00  0.00     0.041 A 
ATOM     93  F   UNL A   1      43.340  34.493  33.448  1.00  0.00    -0.206 F 
ATOM     94  C   UNL A   1      44.069  37.772  32.109  1.00  0.00     0.022 A 
BRANCH  91  95
ATOM     95  S   UNL A   1      44.308  38.827  29.540  1.00  0.00     0.124 S 
ATOM     96  O   UNL A   1      43.014  39.471  29.333  1.00  0.00    -0.237 OA
ATOM     97  O   UNL A   1      45.305  39.616  30.256  1.00  0.00    -0.237 OA
ATOM     98  O   UNL A   1      44.816  38.078  28.393  1.00  0.00    -0.744 OA
ENDBRANCH  91  95
ENDBRANCH  65  88
ENDBRANCH  39  40
ENDBRANCH  31  34
ENDBRANCH  29  30
ENDBRANCH  28  29
ENDBRANCH  27  28
ENDBRANCH  26  27
ENDBRANCH   1  26
TORSDOF 23
ENDMDL
