MODEL 1
REMARK VINA RESULT:      -6.8      0.000      0.000
REMARK SMILES CC/C=C/C/C=C/C/C=C/C/C=C/CCSCCCC(=O)NCCCCCCNC(=O)c1ccc(-c2c3nc(c(-c4cc(S(=O)(=O)[O-])ccc4F)c4ccc([nH]4)c(-c4cc(S(=O)(=O)[O-])ccc4F)c4nc(c(-c5cc(S(=O)(=O)[O-])ccc5F)c5ccc2[nH]5)C=C4)C=C3)cc1
REMARK SMILES IDX 18 1 17 2 16 3 15 4 14 5 13 6 12 7 11 8 10 9 9 10 8 11 7 12
REMARK SMILES IDX 6 13 5 14 4 15 3 16 2 17 1 18 19 19 20 20 21 21 22 22 23 24
REMARK SMILES IDX 24 25 25 26 26 27 27 28 28 29 29 30 30 31 31 33 32 34 33 35
REMARK SMILES IDX 94 36 34 37 93 38 35 39 36 40 37 41 87 42 38 43 92 44 86 45
REMARK SMILES IDX 88 46 39 47 91 48 85 49 84 50 40 52 72 53 52 54 71 55 53 56
REMARK SMILES IDX 56 57 70 58 89 59 54 60 55 61 69 63 90 64 57 65 41 66 42 67
REMARK SMILES IDX 50 68 43 69 49 70 51 71 48 72 44 73 45 74 46 75 47 76 73 77
REMARK SMILES IDX 74 78 82 79 75 80 81 81 83 82 80 83 76 84 77 85 78 86 79 87
REMARK SMILES IDX 58 88 59 89 67 90 60 91 66 92 68 93 65 94 61 95 62 96 63 97
REMARK SMILES IDX 64 98
REMARK H PARENT 22 23 29 32 88 51 56 62
REMARK Flexibility Score: inf
ROOT
ATOM      1  C   UNL A   1      36.942  31.460  32.338  1.00  0.00     0.021 C 
ENDROOT
BRANCH   1   2
ATOM      2  C   UNL A   1      35.632  32.231  32.465  1.00  0.00     0.070 C 
BRANCH   2   3
ATOM      3  S   UNL A   1      35.160  33.463  33.763  1.00  0.00    -0.162 SA
BRANCH   3   4
ATOM      4  C   UNL A   1      35.277  35.191  33.128  1.00  0.00     0.073 C 
BRANCH   4   5
ATOM      5  C   UNL A   1      34.048  35.780  32.379  1.00  0.00     0.038 C 
BRANCH   5   6
ATOM      6  C   UNL A   1      33.592  35.024  31.158  1.00  0.00    -0.030 C 
ATOM      7  C   UNL A   1      33.890  35.271  29.870  1.00  0.00    -0.027 C 
BRANCH   7   8
ATOM      8  C   UNL A   1      33.686  34.246  28.769  1.00  0.00     0.054 C 
BRANCH   8   9
ATOM      9  C   UNL A   1      34.856  33.341  28.508  1.00  0.00    -0.027 C 
ATOM     10  C   UNL A   1      36.046  33.485  29.117  1.00  0.00    -0.027 C 
BRANCH  10  11
ATOM     11  C   UNL A   1      37.249  32.630  28.831  1.00  0.00     0.054 C 
BRANCH  11  12
ATOM     12  C   UNL A   1      38.443  33.268  29.478  1.00  0.00    -0.027 C 
ATOM     13  C   UNL A   1      38.995  34.426  29.086  1.00  0.00    -0.027 C 
BRANCH  13  14
ATOM     14  C   UNL A   1      40.321  34.916  29.591  1.00  0.00     0.054 C 
BRANCH  14  15
ATOM     15  C   UNL A   1      41.190  35.272  28.419  1.00  0.00    -0.027 C 
ATOM     16  C   UNL A   1      41.662  36.504  28.174  1.00  0.00    -0.031 C 
BRANCH  16  17
ATOM     17  C   UNL A   1      42.432  36.867  26.939  1.00  0.00     0.023 C 
ATOM     18  C   UNL A   1      43.892  37.129  27.277  1.00  0.00     0.008 C 
ENDBRANCH  16  17
ENDBRANCH  14  15
ENDBRANCH  13  14
ENDBRANCH  11  12
ENDBRANCH  10  11
ENDBRANCH   8   9
ENDBRANCH   7   8
ENDBRANCH   5   6
ENDBRANCH   4   5
ENDBRANCH   3   4
ENDBRANCH   2   3
ENDBRANCH   1   2
BRANCH   1  19
ATOM     19  C   UNL A   1      37.646  30.952  33.577  1.00  0.00     0.101 C 
BRANCH  19  20
ATOM     20  C   UNL A   1      38.869  30.061  33.424  1.00  0.00     0.220 C 
ATOM     21  O   UNL A   1      39.372  29.556  34.435  1.00  0.00    -0.275 OA
ATOM     22  N   UNL A   1      39.425  29.711  32.239  1.00  0.00    -0.356 N 
ATOM     23  H   UNL A   1      40.342  29.364  32.323  1.00  0.00     0.163 HD
BRANCH  22  24
ATOM     24  C   UNL A   1      38.940  29.745  30.874  1.00  0.00     0.116 C 
BRANCH  24  25
ATOM     25  C   UNL A   1      38.092  28.532  30.506  1.00  0.00     0.021 C 
BRANCH  25  26
ATOM     26  C   UNL A   1      38.940  27.255  30.436  1.00  0.00     0.002 C 
BRANCH  26  27
ATOM     27  C   UNL A   1      39.415  26.862  29.029  1.00  0.00     0.002 C 
BRANCH  27  28
ATOM     28  C   UNL A   1      40.404  27.826  28.369  1.00  0.00     0.021 C 
BRANCH  28  29
ATOM     29  C   UNL A   1      40.615  27.619  26.873  1.00  0.00     0.116 C 
BRANCH  29  30
ATOM     30  N   UNL A   1      41.827  26.876  26.575  1.00  0.00    -0.352 N 
ATOM     31  C   UNL A   1      43.141  27.247  26.717  1.00  0.00     0.251 C 
ATOM     32  H   UNL A   1      41.685  25.969  26.220  1.00  0.00     0.163 HD
ATOM     33  O   UNL A   1      44.022  26.518  26.279  1.00  0.00    -0.269 OA
BRANCH  31  34
ATOM     34  C   UNL A   1      43.485  28.535  27.360  1.00  0.00     0.039 A 
ATOM     35  C   UNL A   1      43.047  29.714  26.755  1.00  0.00     0.014 A 
ATOM     36  C   UNL A   1      44.240  28.591  28.535  1.00  0.00     0.014 A 
ATOM     37  C   UNL A   1      43.322  30.944  27.355  1.00  0.00     0.010 A 
ATOM     38  C   UNL A   1      44.447  29.813  29.174  1.00  0.00     0.010 A 
ATOM     39  C   UNL A   1      43.994  31.003  28.588  1.00  0.00    -0.014 A 
BRANCH  39  40
ATOM     40  C   UNL A   1      44.219  32.311  29.258  1.00  0.00     0.031 A 
ATOM     41  C   UNL A   1      45.280  33.253  28.755  1.00  0.00     0.074 A 
ATOM     42  C   UNL A   1      43.469  32.641  30.327  1.00  0.00     0.049 A 
ATOM     43  N   UNL A   1      45.611  34.438  29.201  1.00  0.00    -0.248 NA
ATOM     44  C   UNL A   1      46.091  32.794  27.616  1.00  0.00     0.031 C 
ATOM     45  C   UNL A   1      42.447  31.785  30.936  1.00  0.00     0.029 A 
ATOM     46  N   UNL A   1      43.441  33.781  31.091  1.00  0.00    -0.354 N 
ATOM     47  C   UNL A   1      46.656  34.871  28.392  1.00  0.00     0.074 A 
ATOM     48  C   UNL A   1      46.957  33.786  27.482  1.00  0.00     0.031 C 
ATOM     49  C   UNL A   1      41.870  32.443  31.953  1.00  0.00     0.029 A 
ATOM     50  C   UNL A   1      42.506  33.747  32.102  1.00  0.00     0.049 A 
ATOM     51  H   UNL A   1      44.033  34.551  30.932  1.00  0.00     0.167 HD
ATOM     52  C   UNL A   1      47.284  36.074  28.386  1.00  0.00     0.034 A 
ATOM     53  C   UNL A   1      42.202  34.660  33.046  1.00  0.00     0.034 A 
ATOM     54  C   UNL A   1      46.976  37.142  29.307  1.00  0.00     0.049 A 
ATOM     55  C   UNL A   1      42.936  35.978  33.036  1.00  0.00     0.074 A 
ATOM     56  C   UNL A   1      47.535  38.407  29.379  1.00  0.00     0.029 A 
ATOM     57  N   UNL A   1      46.028  37.071  30.320  1.00  0.00    -0.354 N 
ATOM     58  N   UNL A   1      43.887  36.390  32.228  1.00  0.00    -0.248 NA
ATOM     59  C   UNL A   1      42.539  36.963  34.049  1.00  0.00     0.031 C 
ATOM     60  C   UNL A   1      46.974  39.074  30.473  1.00  0.00     0.029 A 
ATOM     61  C   UNL A   1      46.004  38.259  31.035  1.00  0.00     0.049 A 
ATOM     62  H   UNL A   1      45.455  36.291  30.503  1.00  0.00     0.167 HD
ATOM     63  C   UNL A   1      44.182  37.692  32.624  1.00  0.00     0.074 A 
ATOM     64  C   UNL A   1      43.284  38.005  33.716  1.00  0.00     0.031 C 
ATOM     65  C   UNL A   1      45.113  38.552  32.134  1.00  0.00     0.034 A 
BRANCH  52  66
ATOM     66  C   UNL A   1      48.369  36.286  27.357  1.00  0.00     0.023 A 
ATOM     67  C   UNL A   1      49.711  35.964  27.628  1.00  0.00     0.031 A 
ATOM     68  C   UNL A   1      48.067  36.824  26.093  1.00  0.00     0.131 A 
ATOM     69  C   UNL A   1      50.707  36.245  26.681  1.00  0.00     0.055 A 
ATOM     70  C   UNL A   1      49.051  37.024  25.123  1.00  0.00     0.041 A 
ATOM     71  F   UNL A   1      46.808  37.172  25.781  1.00  0.00    -0.206 F 
ATOM     72  C   UNL A   1      50.383  36.746  25.419  1.00  0.00     0.022 A 
BRANCH  69  73
ATOM     73  S   UNL A   1      52.444  36.069  27.171  1.00  0.00     0.124 S 
ATOM     74  O   UNL A   1      53.136  36.389  25.924  1.00  0.00    -0.237 OA
ATOM     75  O   UNL A   1      52.572  37.050  28.243  1.00  0.00    -0.237 OA
ATOM     76  O   UNL A   1      52.542  34.671  27.588  1.00  0.00    -0.744 OA
ENDBRANCH  69  73
ENDBRANCH  52  66
BRANCH  53  77
ATOM     77  C   UNL A   1      41.175  34.363  34.088  1.00  0.00     0.023 A 
ATOM     78  C   UNL A   1      41.536  33.856  35.346  1.00  0.00     0.031 A 
ATOM     79  C   UNL A   1      39.805  34.527  33.815  1.00  0.00     0.131 A 
ATOM     80  C   UNL A   1      40.540  33.467  36.257  1.00  0.00     0.055 A 
ATOM     81  C   UNL A   1      38.820  34.203  34.750  1.00  0.00     0.041 A 
ATOM     82  F   UNL A   1      39.401  35.011  32.630  1.00  0.00    -0.206 F 
ATOM     83  C   UNL A   1      39.186  33.652  35.974  1.00  0.00     0.022 A 
BRANCH  80  84
ATOM     84  S   UNL A   1      41.039  32.605  37.774  1.00  0.00     0.124 S 
ATOM     85  O   UNL A   1      39.795  32.599  38.535  1.00  0.00    -0.237 OA
ATOM     86  O   UNL A   1      41.483  31.316  37.256  1.00  0.00    -0.237 OA
ATOM     87  O   UNL A   1      42.098  33.455  38.315  1.00  0.00    -0.744 OA
ENDBRANCH  80  84
ENDBRANCH  53  77
BRANCH  65  88
ATOM     88  C   UNL A   1      45.169  39.924  32.761  1.00  0.00     0.023 A 
ATOM     89  C   UNL A   1      44.342  40.973  32.320  1.00  0.00     0.031 A 
ATOM     90  C   UNL A   1      46.089  40.199  33.789  1.00  0.00     0.131 A 
ATOM     91  C   UNL A   1      44.506  42.262  32.847  1.00  0.00     0.055 A 
ATOM     92  C   UNL A   1      46.195  41.466  34.362  1.00  0.00     0.041 A 
ATOM     93  F   UNL A   1      46.906  39.238  34.249  1.00  0.00    -0.206 F 
ATOM     94  C   UNL A   1      45.414  42.512  33.879  1.00  0.00     0.022 A 
BRANCH  91  95
ATOM     95  S   UNL A   1      43.606  43.636  32.076  1.00  0.00     0.124 S 
ATOM     96  O   UNL A   1      42.338  43.611  32.799  1.00  0.00    -0.237 OA
ATOM     97  O   UNL A   1      44.476  44.774  32.356  1.00  0.00    -0.237 OA
ATOM     98  O   UNL A   1      43.527  43.247  30.670  1.00  0.00    -0.744 OA
ENDBRANCH  91  95
ENDBRANCH  65  88
ENDBRANCH  39  40
ENDBRANCH  31  34
ENDBRANCH  29  30
ENDBRANCH  28  29
ENDBRANCH  27  28
ENDBRANCH  26  27
ENDBRANCH  25  26
ENDBRANCH  24  25
ENDBRANCH  22  24
ENDBRANCH  19  20
ENDBRANCH   1  19
TORSDOF 29
ENDMDL
MODEL 2
REMARK VINA RESULT:      -6.8      7.254     13.019
REMARK SMILES CC/C=C/C/C=C/C/C=C/C/C=C/CCSCCCC(=O)NCCCCCCNC(=O)c1ccc(-c2c3nc(c(-c4cc(S(=O)(=O)[O-])ccc4F)c4ccc([nH]4)c(-c4cc(S(=O)(=O)[O-])ccc4F)c4nc(c(-c5cc(S(=O)(=O)[O-])ccc5F)c5ccc2[nH]5)C=C4)C=C3)cc1
REMARK SMILES IDX 18 1 17 2 16 3 15 4 14 5 13 6 12 7 11 8 10 9 9 10 8 11 7 12
REMARK SMILES IDX 6 13 5 14 4 15 3 16 2 17 1 18 19 19 20 20 21 21 22 22 23 24
REMARK SMILES IDX 24 25 25 26 26 27 27 28 28 29 29 30 30 31 31 33 32 34 33 35
REMARK SMILES IDX 94 36 34 37 93 38 35 39 36 40 37 41 87 42 38 43 92 44 86 45
REMARK SMILES IDX 88 46 39 47 91 48 85 49 84 50 40 52 72 53 52 54 71 55 53 56
REMARK SMILES IDX 56 57 70 58 89 59 54 60 55 61 69 63 90 64 57 65 41 66 42 67
REMARK SMILES IDX 50 68 43 69 49 70 51 71 48 72 44 73 45 74 46 75 47 76 73 77
REMARK SMILES IDX 74 78 82 79 75 80 81 81 83 82 80 83 76 84 77 85 78 86 79 87
REMARK SMILES IDX 58 88 59 89 67 90 60 91 66 92 68 93 65 94 61 95 62 96 63 97
REMARK SMILES IDX 64 98
REMARK H PARENT 22 23 29 32 88 51 56 62
REMARK Flexibility Score: inf
ROOT
ATOM      1  C   UNL A   1      46.144  31.028  30.633  1.00  0.00     0.021 C 
ENDROOT
BRANCH   1   2
ATOM      2  C   UNL A   1      45.396  29.698  30.645  1.00  0.00     0.070 C 
BRANCH   2   3
ATOM      3  S   UNL A   1      43.645  29.383  31.154  1.00  0.00    -0.162 SA
BRANCH   3   4
ATOM      4  C   UNL A   1      42.911  27.978  30.212  1.00  0.00     0.073 C 
BRANCH   4   5
ATOM      5  C   UNL A   1      43.574  27.575  28.864  1.00  0.00     0.038 C 
BRANCH   5   6
ATOM      6  C   UNL A   1      42.644  27.053  27.799  1.00  0.00    -0.030 C 
ATOM      7  C   UNL A   1      41.336  26.761  27.911  1.00  0.00    -0.027 C 
BRANCH   7   8
ATOM      8  C   UNL A   1      40.427  26.598  26.706  1.00  0.00     0.054 C 
BRANCH   8   9
ATOM      9  C   UNL A   1      40.008  25.188  26.402  1.00  0.00    -0.027 C 
ATOM     10  C   UNL A   1      39.014  24.560  27.053  1.00  0.00    -0.027 C 
BRANCH  10  11
ATOM     11  C   UNL A   1      38.615  23.132  26.809  1.00  0.00     0.054 C 
BRANCH  11  12
ATOM     12  C   UNL A   1      38.058  23.030  25.420  1.00  0.00    -0.027 C 
ATOM     13  C   UNL A   1      36.917  23.606  25.012  1.00  0.00    -0.027 C 
BRANCH  13  14
ATOM     14  C   UNL A   1      36.264  23.293  23.697  1.00  0.00     0.054 C 
BRANCH  14  15
ATOM     15  C   UNL A   1      34.812  23.673  23.769  1.00  0.00    -0.027 C 
ATOM     16  C   UNL A   1      34.366  24.893  24.102  1.00  0.00    -0.031 C 
BRANCH  16  17
ATOM     17  C   UNL A   1      32.913  25.224  24.281  1.00  0.00     0.023 C 
ATOM     18  C   UNL A   1      32.671  26.708  24.053  1.00  0.00     0.008 C 
ENDBRANCH  16  17
ENDBRANCH  14  15
ENDBRANCH  13  14
ENDBRANCH  11  12
ENDBRANCH  10  11
ENDBRANCH   8   9
ENDBRANCH   7   8
ENDBRANCH   5   6
ENDBRANCH   4   5
ENDBRANCH   3   4
ENDBRANCH   2   3
ENDBRANCH   1   2
BRANCH   1  19
ATOM     19  C   UNL A   1      46.983  31.415  29.435  1.00  0.00     0.101 C 
BRANCH  19  20
ATOM     20  C   UNL A   1      47.853  32.660  29.508  1.00  0.00     0.220 C 
ATOM     21  O   UNL A   1      47.715  33.433  30.463  1.00  0.00    -0.275 OA
ATOM     22  N   UNL A   1      48.839  32.964  28.629  1.00  0.00    -0.356 N 
ATOM     23  H   UNL A   1      49.116  33.907  28.660  1.00  0.00     0.163 HD
BRANCH  22  24
ATOM     24  C   UNL A   1      49.567  32.177  27.653  1.00  0.00     0.116 C 
BRANCH  24  25
ATOM     25  C   UNL A   1      51.074  32.407  27.699  1.00  0.00     0.021 C 
BRANCH  25  26
ATOM     26  C   UNL A   1      51.597  32.411  29.142  1.00  0.00     0.002 C 
BRANCH  26  27
ATOM     27  C   UNL A   1      52.952  33.105  29.345  1.00  0.00     0.002 C 
BRANCH  27  28
ATOM     28  C   UNL A   1      53.617  32.878  30.704  1.00  0.00     0.021 C 
BRANCH  28  29
ATOM     29  C   UNL A   1      53.005  33.653  31.867  1.00  0.00     0.116 C 
BRANCH  29  30
ATOM     30  N   UNL A   1      53.251  33.022  33.152  1.00  0.00    -0.352 N 
ATOM     31  C   UNL A   1      52.731  31.863  33.674  1.00  0.00     0.251 C 
ATOM     32  H   UNL A   1      53.887  33.495  33.736  1.00  0.00     0.163 HD
ATOM     33  O   UNL A   1      52.966  31.572  34.841  1.00  0.00    -0.269 OA
BRANCH  31  34
ATOM     34  C   UNL A   1      51.864  30.997  32.845  1.00  0.00     0.039 A 
ATOM     35  C   UNL A   1      52.353  29.747  32.459  1.00  0.00     0.014 A 
ATOM     36  C   UNL A   1      50.592  31.408  32.434  1.00  0.00     0.014 A 
ATOM     37  C   UNL A   1      51.547  28.890  31.708  1.00  0.00     0.010 A 
ATOM     38  C   UNL A   1      49.760  30.522  31.752  1.00  0.00     0.010 A 
ATOM     39  C   UNL A   1      50.230  29.255  31.376  1.00  0.00    -0.014 A 
BRANCH  39  40
ATOM     40  C   UNL A   1      49.353  28.309  30.639  1.00  0.00     0.031 A 
ATOM     41  C   UNL A   1      49.596  28.020  29.182  1.00  0.00     0.074 A 
ATOM     42  C   UNL A   1      48.330  27.718  31.287  1.00  0.00     0.049 A 
ATOM     43  N   UNL A   1      48.946  27.217  28.380  1.00  0.00    -0.248 NA
ATOM     44  C   UNL A   1      50.700  28.747  28.536  1.00  0.00     0.031 C 
ATOM     45  C   UNL A   1      47.966  27.962  32.686  1.00  0.00     0.029 A 
ATOM     46  N   UNL A   1      47.411  26.790  30.865  1.00  0.00    -0.354 N 
ATOM     47  C   UNL A   1      49.568  27.330  27.141  1.00  0.00     0.074 A 
ATOM     48  C   UNL A   1      50.594  28.342  27.279  1.00  0.00     0.031 C 
ATOM     49  C   UNL A   1      46.927  27.178  33.013  1.00  0.00     0.029 A 
ATOM     50  C   UNL A   1      46.519  26.409  31.843  1.00  0.00     0.049 A 
ATOM     51  H   UNL A   1      47.391  26.430  29.949  1.00  0.00     0.167 HD
ATOM     52  C   UNL A   1      49.328  26.632  26.003  1.00  0.00     0.034 A 
ATOM     53  C   UNL A   1      45.486  25.544  31.798  1.00  0.00     0.034 A 
ATOM     54  C   UNL A   1      48.295  25.632  25.879  1.00  0.00     0.049 A 
ATOM     55  C   UNL A   1      45.223  24.802  30.512  1.00  0.00     0.074 A 
ATOM     56  C   UNL A   1      47.977  24.850  24.781  1.00  0.00     0.029 A 
ATOM     57  N   UNL A   1      47.408  25.274  26.888  1.00  0.00    -0.354 N 
ATOM     58  N   UNL A   1      45.856  24.886  29.364  1.00  0.00    -0.248 NA
ATOM     59  C   UNL A   1      44.120  23.834  30.521  1.00  0.00     0.031 C 
ATOM     60  C   UNL A   1      46.859  24.073  25.104  1.00  0.00     0.029 A 
ATOM     61  C   UNL A   1      46.529  24.305  26.429  1.00  0.00     0.049 A 
ATOM     62  H   UNL A   1      47.405  25.655  27.796  1.00  0.00     0.167 HD
ATOM     63  C   UNL A   1      45.242  23.960  28.524  1.00  0.00     0.074 A 
ATOM     64  C   UNL A   1      44.214  23.309  29.310  1.00  0.00     0.031 C 
ATOM     65  C   UNL A   1      45.499  23.675  27.221  1.00  0.00     0.034 A 
BRANCH  52  66
ATOM     66  C   UNL A   1      50.196  26.937  24.804  1.00  0.00     0.023 A 
ATOM     67  C   UNL A   1      49.683  27.608  23.679  1.00  0.00     0.031 A 
ATOM     68  C   UNL A   1      51.547  26.549  24.776  1.00  0.00     0.131 A 
ATOM     69  C   UNL A   1      50.493  27.809  22.550  1.00  0.00     0.055 A 
ATOM     70  C   UNL A   1      52.371  26.825  23.682  1.00  0.00     0.041 A 
ATOM     71  F   UNL A   1      52.089  25.886  25.810  1.00  0.00    -0.206 F 
ATOM     72  C   UNL A   1      51.840  27.448  22.555  1.00  0.00     0.022 A 
BRANCH  69  73
ATOM     73  S   UNL A   1      49.722  28.429  21.031  1.00  0.00     0.124 S 
ATOM     74  O   UNL A   1      49.924  29.871  21.165  1.00  0.00    -0.237 OA
ATOM     75  O   UNL A   1      50.498  27.769  19.989  1.00  0.00    -0.237 OA
ATOM     76  O   UNL A   1      48.332  27.990  21.148  1.00  0.00    -0.744 OA
ENDBRANCH  69  73
ENDBRANCH  52  66
BRANCH  53  77
ATOM     77  C   UNL A   1      44.613  25.341  32.992  1.00  0.00     0.023 A 
ATOM     78  C   UNL A   1      43.639  26.285  33.354  1.00  0.00     0.031 A 
ATOM     79  C   UNL A   1      44.785  24.222  33.828  1.00  0.00     0.131 A 
ATOM     80  C   UNL A   1      42.921  26.128  34.551  1.00  0.00     0.055 A 
ATOM     81  C   UNL A   1      44.021  24.036  34.981  1.00  0.00     0.041 A 
ATOM     82  F   UNL A   1      45.699  23.286  33.529  1.00  0.00    -0.206 F 
ATOM     83  C   UNL A   1      43.095  25.004  35.359  1.00  0.00     0.022 A 
BRANCH  80  84
ATOM     84  S   UNL A   1      41.841  27.479  35.099  1.00  0.00     0.124 S 
ATOM     85  O   UNL A   1      41.184  26.883  36.257  1.00  0.00    -0.237 OA
ATOM     86  O   UNL A   1      42.802  28.540  35.381  1.00  0.00    -0.237 OA
ATOM     87  O   UNL A   1      40.978  27.714  33.943  1.00  0.00    -0.744 OA
ENDBRANCH  80  84
ENDBRANCH  53  77
BRANCH  65  88
ATOM     88  C   UNL A   1      44.670  22.582  26.588  1.00  0.00     0.023 A 
ATOM     89  C   UNL A   1      45.241  21.362  26.184  1.00  0.00     0.031 A 
ATOM     90  C   UNL A   1      43.298  22.779  26.348  1.00  0.00     0.131 A 
ATOM     91  C   UNL A   1      44.464  20.420  25.494  1.00  0.00     0.055 A 
ATOM     92  C   UNL A   1      42.513  21.806  25.729  1.00  0.00     0.041 A 
ATOM     93  F   UNL A   1      42.698  23.924  26.709  1.00  0.00    -0.206 F 
ATOM     94  C   UNL A   1      43.099  20.626  25.280  1.00  0.00     0.022 A 
BRANCH  91  95
ATOM     95  S   UNL A   1      45.291  18.979  24.766  1.00  0.00     0.124 S 
ATOM     96  O   UNL A   1      46.688  19.399  24.767  1.00  0.00    -0.237 OA
ATOM     97  O   UNL A   1      44.945  17.915  25.704  1.00  0.00    -0.237 OA
ATOM     98  O   UNL A   1      44.678  18.863  23.444  1.00  0.00    -0.744 OA
ENDBRANCH  91  95
ENDBRANCH  65  88
ENDBRANCH  39  40
ENDBRANCH  31  34
ENDBRANCH  29  30
ENDBRANCH  28  29
ENDBRANCH  27  28
ENDBRANCH  26  27
ENDBRANCH  25  26
ENDBRANCH  24  25
ENDBRANCH  22  24
ENDBRANCH  19  20
ENDBRANCH   1  19
TORSDOF 29
ENDMDL
MODEL 3
REMARK VINA RESULT:      -6.7      5.252     12.646
REMARK SMILES CC/C=C/C/C=C/C/C=C/C/C=C/CCSCCCC(=O)NCCCCCCNC(=O)c1ccc(-c2c3nc(c(-c4cc(S(=O)(=O)[O-])ccc4F)c4ccc([nH]4)c(-c4cc(S(=O)(=O)[O-])ccc4F)c4nc(c(-c5cc(S(=O)(=O)[O-])ccc5F)c5ccc2[nH]5)C=C4)C=C3)cc1
REMARK SMILES IDX 18 1 17 2 16 3 15 4 14 5 13 6 12 7 11 8 10 9 9 10 8 11 7 12
REMARK SMILES IDX 6 13 5 14 4 15 3 16 2 17 1 18 19 19 20 20 21 21 22 22 23 24
REMARK SMILES IDX 24 25 25 26 26 27 27 28 28 29 29 30 30 31 31 33 32 34 33 35
REMARK SMILES IDX 94 36 34 37 93 38 35 39 36 40 37 41 87 42 38 43 92 44 86 45
REMARK SMILES IDX 88 46 39 47 91 48 85 49 84 50 40 52 72 53 52 54 71 55 53 56
REMARK SMILES IDX 56 57 70 58 89 59 54 60 55 61 69 63 90 64 57 65 41 66 42 67
REMARK SMILES IDX 50 68 43 69 49 70 51 71 48 72 44 73 45 74 46 75 47 76 73 77
REMARK SMILES IDX 74 78 82 79 75 80 81 81 83 82 80 83 76 84 77 85 78 86 79 87
REMARK SMILES IDX 58 88 59 89 67 90 60 91 66 92 68 93 65 94 61 95 62 96 63 97
REMARK SMILES IDX 64 98
REMARK H PARENT 22 23 29 32 88 51 56 62
REMARK Flexibility Score: inf
ROOT
ATOM      1  C   UNL A   1      44.828  41.474  33.836  1.00  0.00     0.021 C 
ENDROOT
BRANCH   1   2
ATOM      2  C   UNL A   1      43.898  42.171  32.848  1.00  0.00     0.070 C 
BRANCH   2   3
ATOM      3  S   UNL A   1      44.362  43.266  31.429  1.00  0.00    -0.162 SA
BRANCH   3   4
ATOM      4  C   UNL A   1      45.322  42.347  30.152  1.00  0.00     0.073 C 
BRANCH   4   5
ATOM      5  C   UNL A   1      44.547  41.746  28.945  1.00  0.00     0.038 C 
BRANCH   5   6
ATOM      6  C   UNL A   1      44.597  42.539  27.665  1.00  0.00    -0.030 C 
ATOM      7  C   UNL A   1      44.716  42.078  26.407  1.00  0.00    -0.027 C 
BRANCH   7   8
ATOM      8  C   UNL A   1      44.388  42.922  25.189  1.00  0.00     0.054 C 
BRANCH   8   9
ATOM      9  C   UNL A   1      43.134  42.535  24.458  1.00  0.00    -0.027 C 
ATOM     10  C   UNL A   1      42.831  42.987  23.229  1.00  0.00    -0.027 C 
BRANCH  10  11
ATOM     11  C   UNL A   1      41.557  42.663  22.500  1.00  0.00     0.054 C 
BRANCH  11  12
ATOM     12  C   UNL A   1      41.858  42.603  21.031  1.00  0.00    -0.027 C 
ATOM     13  C   UNL A   1      42.164  43.665  20.272  1.00  0.00    -0.027 C 
BRANCH  13  14
ATOM     14  C   UNL A   1      42.223  43.613  18.773  1.00  0.00     0.054 C 
BRANCH  14  15
ATOM     15  C   UNL A   1      41.687  44.902  18.217  1.00  0.00    -0.027 C 
ATOM     16  C   UNL A   1      42.395  45.748  17.453  1.00  0.00    -0.031 C 
BRANCH  16  17
ATOM     17  C   UNL A   1      41.882  47.084  17.002  1.00  0.00     0.023 C 
ATOM     18  C   UNL A   1      43.020  48.089  16.909  1.00  0.00     0.008 C 
ENDBRANCH  16  17
ENDBRANCH  14  15
ENDBRANCH  13  14
ENDBRANCH  11  12
ENDBRANCH  10  11
ENDBRANCH   8   9
ENDBRANCH   7   8
ENDBRANCH   5   6
ENDBRANCH   4   5
ENDBRANCH   3   4
ENDBRANCH   2   3
ENDBRANCH   1   2
BRANCH   1  19
ATOM     19  C   UNL A   1      45.126  42.111  35.175  1.00  0.00     0.101 C 
BRANCH  19  20
ATOM     20  C   UNL A   1      44.113  41.983  36.301  1.00  0.00     0.220 C 
ATOM     21  O   UNL A   1      43.099  42.690  36.279  1.00  0.00    -0.275 OA
ATOM     22  N   UNL A   1      44.197  41.088  37.316  1.00  0.00    -0.356 N 
ATOM     23  H   UNL A   1      43.624  41.310  38.084  1.00  0.00     0.163 HD
BRANCH  22  24
ATOM     24  C   UNL A   1      44.961  39.869  37.495  1.00  0.00     0.116 C 
BRANCH  24  25
ATOM     25  C   UNL A   1      46.045  39.991  38.561  1.00  0.00     0.021 C 
BRANCH  25  26
ATOM     26  C   UNL A   1      47.280  40.728  38.024  1.00  0.00     0.002 C 
BRANCH  26  27
ATOM     27  C   UNL A   1      48.425  40.905  39.031  1.00  0.00     0.002 C 
BRANCH  27  28
ATOM     28  C   UNL A   1      49.780  40.336  38.603  1.00  0.00     0.021 C 
BRANCH  28  29
ATOM     29  C   UNL A   1      49.720  39.024  37.828  1.00  0.00     0.116 C 
BRANCH  29  30
ATOM     30  N   UNL A   1      50.441  39.085  36.568  1.00  0.00    -0.352 N 
ATOM     31  C   UNL A   1      50.098  38.587  35.335  1.00  0.00     0.251 C 
ATOM     32  H   UNL A   1      51.306  39.555  36.603  1.00  0.00     0.163 HD
ATOM     33  O   UNL A   1      50.914  38.627  34.423  1.00  0.00    -0.269 OA
BRANCH  31  34
ATOM     34  C   UNL A   1      48.767  37.973  35.126  1.00  0.00     0.039 A 
ATOM     35  C   UNL A   1      47.679  38.816  34.894  1.00  0.00     0.014 A 
ATOM     36  C   UNL A   1      48.583  36.588  35.171  1.00  0.00     0.014 A 
ATOM     37  C   UNL A   1      46.418  38.269  34.656  1.00  0.00     0.010 A 
ATOM     38  C   UNL A   1      47.340  36.040  34.855  1.00  0.00     0.010 A 
ATOM     39  C   UNL A   1      46.243  36.875  34.600  1.00  0.00    -0.014 A 
BRANCH  39  40
ATOM     40  C   UNL A   1      44.912  36.299  34.273  1.00  0.00     0.031 A 
ATOM     41  C   UNL A   1      43.953  35.924  35.371  1.00  0.00     0.074 A 
ATOM     42  C   UNL A   1      44.576  36.106  32.983  1.00  0.00     0.049 A 
ATOM     43  N   UNL A   1      42.747  35.423  35.279  1.00  0.00    -0.248 NA
ATOM     44  C   UNL A   1      44.417  36.117  36.754  1.00  0.00     0.031 C 
ATOM     45  C   UNL A   1      45.446  36.382  31.836  1.00  0.00     0.029 A 
ATOM     46  N   UNL A   1      43.418  35.639  32.413  1.00  0.00    -0.354 N 
ATOM     47  C   UNL A   1      42.305  35.253  36.587  1.00  0.00     0.074 A 
ATOM     48  C   UNL A   1      43.403  35.628  37.452  1.00  0.00     0.031 C 
ATOM     49  C   UNL A   1      44.780  36.114  30.703  1.00  0.00     0.029 A 
ATOM     50  C   UNL A   1      43.453  35.605  31.036  1.00  0.00     0.049 A 
ATOM     51  H   UNL A   1      42.636  35.356  32.938  1.00  0.00     0.167 HD
ATOM     52  C   UNL A   1      41.085  34.854  37.025  1.00  0.00     0.034 A 
ATOM     53  C   UNL A   1      42.526  35.202  30.146  1.00  0.00     0.034 A 
ATOM     54  C   UNL A   1      40.003  34.476  36.149  1.00  0.00     0.049 A 
ATOM     55  C   UNL A   1      41.187  34.734  30.661  1.00  0.00     0.074 A 
ATOM     56  C   UNL A   1      38.720  34.074  36.483  1.00  0.00     0.029 A 
ATOM     57  N   UNL A   1      40.075  34.449  34.761  1.00  0.00    -0.354 N 
ATOM     58  N   UNL A   1      40.769  34.630  31.902  1.00  0.00    -0.248 NA
ATOM     59  C   UNL A   1      40.189  34.353  29.655  1.00  0.00     0.031 C 
ATOM     60  C   UNL A   1      38.042  33.741  35.306  1.00  0.00     0.029 A 
ATOM     61  C   UNL A   1      38.870  34.014  34.229  1.00  0.00     0.049 A 
ATOM     62  H   UNL A   1      40.866  34.701  34.233  1.00  0.00     0.167 HD
ATOM     63  C   UNL A   1      39.449  34.194  31.821  1.00  0.00     0.074 A 
ATOM     64  C   UNL A   1      39.134  34.091  30.411  1.00  0.00     0.031 C 
ATOM     65  C   UNL A   1      38.576  33.901  32.819  1.00  0.00     0.034 A 
BRANCH  52  66
ATOM     66  C   UNL A   1      40.867  34.800  38.519  1.00  0.00     0.023 A 
ATOM     67  C   UNL A   1      40.488  35.942  39.247  1.00  0.00     0.031 A 
ATOM     68  C   UNL A   1      41.047  33.600  39.231  1.00  0.00     0.131 A 
ATOM     69  C   UNL A   1      40.368  35.879  40.644  1.00  0.00     0.055 A 
ATOM     70  C   UNL A   1      40.846  33.524  40.611  1.00  0.00     0.041 A 
ATOM     71  F   UNL A   1      41.431  32.481  38.596  1.00  0.00    -0.206 F 
ATOM     72  C   UNL A   1      40.517  34.671  41.327  1.00  0.00     0.022 A 
BRANCH  69  73
ATOM     73  S   UNL A   1      40.146  37.425  41.565  1.00  0.00     0.124 S 
ATOM     74  O   UNL A   1      39.613  38.310  40.531  1.00  0.00    -0.237 OA
ATOM     75  O   UNL A   1      39.213  37.036  42.616  1.00  0.00    -0.237 OA
ATOM     76  O   UNL A   1      41.497  37.751  42.018  1.00  0.00    -0.744 OA
ENDBRANCH  69  73
ENDBRANCH  52  66
BRANCH  53  77
ATOM     77  C   UNL A   1      42.825  35.202  28.683  1.00  0.00     0.023 A 
ATOM     78  C   UNL A   1      43.527  34.146  28.081  1.00  0.00     0.031 A 
ATOM     79  C   UNL A   1      42.465  36.296  27.875  1.00  0.00     0.131 A 
ATOM     80  C   UNL A   1      43.904  34.235  26.730  1.00  0.00     0.055 A 
ATOM     81  C   UNL A   1      42.783  36.349  26.516  1.00  0.00     0.041 A 
ATOM     82  F   UNL A   1      41.790  37.333  28.395  1.00  0.00    -0.206 F 
ATOM     83  C   UNL A   1      43.524  35.321  25.941  1.00  0.00     0.022 A 
BRANCH  80  84
ATOM     84  S   UNL A   1      45.005  32.963  26.051  1.00  0.00     0.124 S 
ATOM     85  O   UNL A   1      44.943  31.935  27.083  1.00  0.00    -0.237 OA
ATOM     86  O   UNL A   1      44.353  32.643  24.786  1.00  0.00    -0.237 OA
ATOM     87  O   UNL A   1      46.288  33.652  25.932  1.00  0.00    -0.744 OA
ENDBRANCH  80  84
ENDBRANCH  53  77
BRANCH  65  88
ATOM     88  C   UNL A   1      37.186  33.478  32.405  1.00  0.00     0.023 A 
ATOM     89  C   UNL A   1      36.158  34.416  32.201  1.00  0.00     0.031 A 
ATOM     90  C   UNL A   1      36.875  32.115  32.250  1.00  0.00     0.131 A 
ATOM     91  C   UNL A   1      34.853  33.976  31.933  1.00  0.00     0.055 A 
ATOM     92  C   UNL A   1      35.591  31.688  31.907  1.00  0.00     0.041 A 
ATOM     93  F   UNL A   1      37.814  31.174  32.434  1.00  0.00    -0.206 F 
ATOM     94  C   UNL A   1      34.567  32.619  31.766  1.00  0.00     0.022 A 
BRANCH  91  95
ATOM     95  S   UNL A   1      33.510  35.196  31.931  1.00  0.00     0.124 S 
ATOM     96  O   UNL A   1      33.127  35.222  30.524  1.00  0.00    -0.237 OA
ATOM     97  O   UNL A   1      32.542  34.594  32.844  1.00  0.00    -0.237 OA
ATOM     98  O   UNL A   1      34.152  36.413  32.424  1.00  0.00    -0.744 OA
ENDBRANCH  91  95
ENDBRANCH  65  88
ENDBRANCH  39  40
ENDBRANCH  31  34
ENDBRANCH  29  30
ENDBRANCH  28  29
ENDBRANCH  27  28
ENDBRANCH  26  27
ENDBRANCH  25  26
ENDBRANCH  24  25
ENDBRANCH  22  24
ENDBRANCH  19  20
ENDBRANCH   1  19
TORSDOF 29
ENDMDL
