MODEL 1
REMARK VINA RESULT:     -11.7      0.000      0.000
REMARK SMILES O=C(NCCCCCCNC(=O)[C@@H]1[C@H](C(=O)NCc2cccnc2)[C@H]2C=C[C@@H]1C2)c1ccc(-c2c3nc(c(-c4cc(S(=O)(=O)[O-])ccc4F)c4ccc([nH]4)c(-c4cc(S(=O)(=O)[O-])ccc4F)c4nc(c(-c5cc(S(=O)(=O)[O-])ccc5F)c5ccc2[nH]5)C=C4)C=C3)cc1
REMARK SMILES IDX 6 1 5 2 4 3 3 4 1 5 2 6 30 8 31 9 92 10 32 11 91 12 33 13
REMARK SMILES IDX 34 14 35 15 85 16 36 17 90 18 84 19 86 20 37 21 89 22 83 23
REMARK SMILES IDX 82 24 38 26 70 27 50 28 69 29 51 30 54 31 68 32 87 33 52 34
REMARK SMILES IDX 53 35 67 37 88 38 55 39 39 40 40 41 48 42 41 43 47 44 49 45
REMARK SMILES IDX 46 46 42 47 43 48 44 49 45 50 71 51 72 52 80 53 73 54 79 55
REMARK SMILES IDX 81 56 78 57 74 58 75 59 76 60 77 61 56 62 57 63 65 64 58 65
REMARK SMILES IDX 64 66 66 67 63 68 59 69 60 70 61 71 62 72 7 73 8 74 9 75
REMARK SMILES IDX 10 76 11 77 12 79 13 80 14 81 28 82 25 83 27 84 29 85 26 86
REMARK SMILES IDX 15 87 16 88 17 89 18 91 19 92 20 93 24 94 21 95 23 96 22 97
REMARK H PARENT 3 7 86 25 54 36 10 78 17 90
REMARK Flexibility Score: inf
ROOT
ATOM      1  C   UNL A   1      31.824  30.316  25.682  1.00  0.00     0.002 C 
ENDROOT
BRANCH   1   2
ATOM      2  C   UNL A   1      31.544  31.488  26.622  1.00  0.00     0.021 C 
BRANCH   2   3
ATOM      3  C   UNL A   1      32.785  32.218  27.120  1.00  0.00     0.116 C 
BRANCH   3   4
ATOM      4  N   UNL A   1      32.505  33.603  27.457  1.00  0.00    -0.352 N 
ATOM      5  O   UNL A   1      32.586  35.449  28.752  1.00  0.00    -0.269 OA
ATOM      6  C   UNL A   1      33.068  34.366  28.453  1.00  0.00     0.251 C 
ATOM      7  H   UNL A   1      31.827  34.052  26.902  1.00  0.00     0.163 HD
BRANCH   6   8
ATOM      8  C   UNL A   1      34.260  33.848  29.159  1.00  0.00     0.039 A 
ATOM      9  C   UNL A   1      34.112  32.910  30.185  1.00  0.00     0.014 A 
ATOM     10  C   UNL A   1      35.529  34.297  28.789  1.00  0.00     0.014 A 
ATOM     11  C   UNL A   1      35.222  32.498  30.909  1.00  0.00     0.010 A 
ATOM     12  C   UNL A   1      36.656  33.812  29.462  1.00  0.00     0.010 A 
ATOM     13  C   UNL A   1      36.509  32.908  30.527  1.00  0.00    -0.014 A 
BRANCH  13  14
ATOM     14  C   UNL A   1      37.687  32.259  31.154  1.00  0.00     0.031 A 
ATOM     15  C   UNL A   1      38.417  31.132  30.484  1.00  0.00     0.074 A 
ATOM     16  C   UNL A   1      38.081  32.715  32.362  1.00  0.00     0.049 A 
ATOM     17  N   UNL A   1      39.440  30.445  30.923  1.00  0.00    -0.248 NA
ATOM     18  C   UNL A   1      37.940  30.715  29.158  1.00  0.00     0.031 C 
ATOM     19  C   UNL A   1      37.430  33.804  33.100  1.00  0.00     0.029 A 
ATOM     20  N   UNL A   1      39.112  32.336  33.181  1.00  0.00    -0.354 N 
ATOM     21  C   UNL A   1      39.721  29.503  29.941  1.00  0.00     0.074 A 
ATOM     22  C   UNL A   1      38.749  29.698  28.885  1.00  0.00     0.031 C 
ATOM     23  C   UNL A   1      38.095  34.024  34.243  1.00  0.00     0.029 A 
ATOM     24  C   UNL A   1      39.160  33.038  34.364  1.00  0.00     0.049 A 
ATOM     25  H   UNL A   1      39.756  31.629  32.947  1.00  0.00     0.167 HD
ATOM     26  C   UNL A   1      40.701  28.565  29.933  1.00  0.00     0.034 A 
ATOM     27  C   UNL A   1      39.941  32.880  35.450  1.00  0.00     0.034 A 
ATOM     28  C   UNL A   1      41.661  28.398  30.999  1.00  0.00     0.049 A 
ATOM     29  C   UNL A   1      40.978  31.789  35.427  1.00  0.00     0.074 A 
ATOM     30  C   UNL A   1      42.736  27.526  31.057  1.00  0.00     0.029 A 
ATOM     31  N   UNL A   1      41.654  29.095  32.200  1.00  0.00    -0.354 N 
ATOM     32  N   UNL A   1      41.268  30.947  34.462  1.00  0.00    -0.248 NA
ATOM     33  C   UNL A   1      41.792  31.625  36.637  1.00  0.00     0.031 C 
ATOM     34  C   UNL A   1      43.319  27.632  32.323  1.00  0.00     0.029 A 
ATOM     35  C   UNL A   1      42.668  28.632  33.026  1.00  0.00     0.049 A 
ATOM     36  H   UNL A   1      41.020  29.813  32.432  1.00  0.00     0.167 HD
ATOM     37  C   UNL A   1      42.310  30.164  34.946  1.00  0.00     0.074 A 
ATOM     38  C   UNL A   1      42.620  30.658  36.272  1.00  0.00     0.031 C 
ATOM     39  C   UNL A   1      42.949  29.124  34.354  1.00  0.00     0.034 A 
BRANCH  26  40
ATOM     40  C   UNL A   1      40.766  27.607  28.768  1.00  0.00     0.023 A 
ATOM     41  C   UNL A   1      41.739  27.716  27.761  1.00  0.00     0.031 A 
ATOM     42  C   UNL A   1      39.865  26.526  28.702  1.00  0.00     0.131 A 
ATOM     43  C   UNL A   1      41.770  26.778  26.716  1.00  0.00     0.055 A 
ATOM     44  C   UNL A   1      39.941  25.563  27.695  1.00  0.00     0.041 A 
ATOM     45  F   UNL A   1      38.901  26.385  29.626  1.00  0.00    -0.206 F 
ATOM     46  C   UNL A   1      40.895  25.689  26.691  1.00  0.00     0.022 A 
BRANCH  43  47
ATOM     47  S   UNL A   1      42.918  27.045  25.337  1.00  0.00     0.124 S 
ATOM     48  O   UNL A   1      42.279  28.151  24.628  1.00  0.00    -0.237 OA
ATOM     49  O   UNL A   1      44.166  27.364  26.023  1.00  0.00    -0.237 OA
ATOM     50  O   UNL A   1      42.906  25.769  24.626  1.00  0.00    -0.744 OA
ENDBRANCH  43  47
ENDBRANCH  26  40
BRANCH  27  51
ATOM     51  C   UNL A   1      39.730  33.715  36.667  1.00  0.00     0.023 A 
ATOM     52  C   UNL A   1      40.590  34.780  36.973  1.00  0.00     0.031 A 
ATOM     53  C   UNL A   1      38.706  33.412  37.585  1.00  0.00     0.131 A 
ATOM     54  C   UNL A   1      40.455  35.458  38.193  1.00  0.00     0.055 A 
ATOM     55  C   UNL A   1      38.528  34.140  38.762  1.00  0.00     0.041 A 
ATOM     56  F   UNL A   1      37.855  32.401  37.348  1.00  0.00    -0.206 F 
ATOM     57  C   UNL A   1      39.419  35.157  39.082  1.00  0.00     0.022 A 
BRANCH  54  58
ATOM     58  S   UNL A   1      41.742  36.644  38.668  1.00  0.00     0.124 S 
ATOM     59  O   UNL A   1      40.950  37.737  39.217  1.00  0.00    -0.237 OA
ATOM     60  O   UNL A   1      42.525  35.871  39.627  1.00  0.00    -0.237 OA
ATOM     61  O   UNL A   1      42.417  36.935  37.405  1.00  0.00    -0.744 OA
ENDBRANCH  54  58
ENDBRANCH  27  51
BRANCH  39  62
ATOM     62  C   UNL A   1      44.061  28.475  35.141  1.00  0.00     0.023 A 
ATOM     63  C   UNL A   1      43.802  27.451  36.068  1.00  0.00     0.031 A 
ATOM     64  C   UNL A   1      45.390  28.902  34.978  1.00  0.00     0.131 A 
ATOM     65  C   UNL A   1      44.848  26.928  36.841  1.00  0.00     0.055 A 
ATOM     66  C   UNL A   1      46.437  28.331  35.702  1.00  0.00     0.041 A 
ATOM     67  F   UNL A   1      45.693  29.882  34.111  1.00  0.00    -0.206 F 
ATOM     68  C   UNL A   1      46.167  27.348  36.650  1.00  0.00     0.022 A 
BRANCH  65  69
ATOM     69  S   UNL A   1      44.448  25.762  38.170  1.00  0.00     0.124 S 
ATOM     70  O   UNL A   1      43.216  26.328  38.710  1.00  0.00    -0.237 OA
ATOM     71  O   UNL A   1      44.307  24.500  37.448  1.00  0.00    -0.237 OA
ATOM     72  O   UNL A   1      45.608  25.841  39.056  1.00  0.00    -0.744 OA
ENDBRANCH  65  69
ENDBRANCH  39  62
ENDBRANCH  13  14
ENDBRANCH   6   8
ENDBRANCH   3   4
ENDBRANCH   2   3
ENDBRANCH   1   2
BRANCH   1  73
ATOM     73  C   UNL A   1      32.924  29.362  26.143  1.00  0.00     0.002 C 
BRANCH  73  74
ATOM     74  C   UNL A   1      32.461  27.944  26.489  1.00  0.00     0.021 C 
BRANCH  74  75
ATOM     75  C   UNL A   1      33.239  26.809  25.823  1.00  0.00     0.116 C 
BRANCH  75  76
ATOM     76  N   UNL A   1      32.691  25.495  26.128  1.00  0.00    -0.356 N 
ATOM     77  C   UNL A   1      33.246  24.254  26.014  1.00  0.00     0.224 C 
ATOM     78  H   UNL A   1      31.769  25.502  26.473  1.00  0.00     0.163 HD
ATOM     79  O   UNL A   1      32.661  23.301  26.530  1.00  0.00    -0.275 OA
BRANCH  77  80
ATOM     80  C   UNL A   1      34.595  24.065  25.352  1.00  0.00     0.098 C 
ATOM     81  C   UNL A   1      34.702  23.509  23.914  1.00  0.00     0.098 C 
ATOM     82  C   UNL A   1      35.597  23.134  26.123  1.00  0.00     0.025 C 
ATOM     83  C   UNL A   1      35.923  22.549  23.988  1.00  0.00     0.025 C 
ATOM     84  C   UNL A   1      36.971  23.645  25.738  1.00  0.00    -0.027 C 
ATOM     85  C   UNL A   1      35.691  21.831  25.309  1.00  0.00     0.017 C 
ATOM     86  C   UNL A   1      37.151  23.329  24.444  1.00  0.00    -0.027 C 
BRANCH  81  87
ATOM     87  C   UNL A   1      33.489  22.948  23.169  1.00  0.00     0.224 C 
ATOM     88  O   UNL A   1      33.110  21.805  23.467  1.00  0.00    -0.275 OA
ATOM     89  N   UNL A   1      32.764  23.556  22.194  1.00  0.00    -0.352 N 
ATOM     90  H   UNL A   1      32.240  22.934  21.640  1.00  0.00     0.163 HD
BRANCH  89  91
ATOM     91  C   UNL A   1      32.615  24.942  21.816  1.00  0.00     0.153 C 
BRANCH  91  92
ATOM     92  C   UNL A   1      31.613  25.789  22.543  1.00  0.00    -0.010 A 
ATOM     93  C   UNL A   1      30.603  25.335  23.385  1.00  0.00     0.009 A 
ATOM     94  C   UNL A   1      31.726  27.176  22.382  1.00  0.00     0.116 A 
ATOM     95  C   UNL A   1      29.750  26.263  23.986  1.00  0.00     0.020 A 
ATOM     96  N   UNL A   1      30.931  28.097  22.966  1.00  0.00    -0.264 NA
ATOM     97  C   UNL A   1      29.946  27.615  23.745  1.00  0.00     0.111 A 
ENDBRANCH  91  92
ENDBRANCH  89  91
ENDBRANCH  81  87
ENDBRANCH  77  80
ENDBRANCH  75  76
ENDBRANCH  74  75
ENDBRANCH  73  74
ENDBRANCH   1  73
TORSDOF 19
ENDMDL
MODEL 2
REMARK VINA RESULT:     -11.5      5.569     11.132
REMARK SMILES O=C(NCCCCCCNC(=O)[C@@H]1[C@H](C(=O)NCc2cccnc2)[C@H]2C=C[C@@H]1C2)c1ccc(-c2c3nc(c(-c4cc(S(=O)(=O)[O-])ccc4F)c4ccc([nH]4)c(-c4cc(S(=O)(=O)[O-])ccc4F)c4nc(c(-c5cc(S(=O)(=O)[O-])ccc5F)c5ccc2[nH]5)C=C4)C=C3)cc1
REMARK SMILES IDX 6 1 5 2 4 3 3 4 1 5 2 6 30 8 31 9 92 10 32 11 91 12 33 13
REMARK SMILES IDX 34 14 35 15 85 16 36 17 90 18 84 19 86 20 37 21 89 22 83 23
REMARK SMILES IDX 82 24 38 26 70 27 50 28 69 29 51 30 54 31 68 32 87 33 52 34
REMARK SMILES IDX 53 35 67 37 88 38 55 39 39 40 40 41 48 42 41 43 47 44 49 45
REMARK SMILES IDX 46 46 42 47 43 48 44 49 45 50 71 51 72 52 80 53 73 54 79 55
REMARK SMILES IDX 81 56 78 57 74 58 75 59 76 60 77 61 56 62 57 63 65 64 58 65
REMARK SMILES IDX 64 66 66 67 63 68 59 69 60 70 61 71 62 72 7 73 8 74 9 75
REMARK SMILES IDX 10 76 11 77 12 79 13 80 14 81 28 82 25 83 27 84 29 85 26 86
REMARK SMILES IDX 15 87 16 88 17 89 18 91 19 92 20 93 24 94 21 95 23 96 22 97
REMARK H PARENT 3 7 86 25 54 36 10 78 17 90
REMARK Flexibility Score: inf
ROOT
ATOM      1  C   UNL A   1      36.515  20.794  25.230  1.00  0.00     0.002 C 
ENDROOT
BRANCH   1   2
ATOM      2  C   UNL A   1      37.883  20.201  24.894  1.00  0.00     0.021 C 
BRANCH   2   3
ATOM      3  C   UNL A   1      38.984  20.527  25.895  1.00  0.00     0.116 C 
BRANCH   3   4
ATOM      4  N   UNL A   1      39.969  19.463  25.989  1.00  0.00    -0.352 N 
ATOM      5  O   UNL A   1      42.053  18.599  25.986  1.00  0.00    -0.269 OA
ATOM      6  C   UNL A   1      41.332  19.576  26.129  1.00  0.00     0.251 C 
ATOM      7  H   UNL A   1      39.615  18.545  25.948  1.00  0.00     0.163 HD
BRANCH   6   8
ATOM      8  C   UNL A   1      41.907  20.901  26.448  1.00  0.00     0.039 A 
ATOM      9  C   UNL A   1      42.168  21.814  25.423  1.00  0.00     0.014 A 
ATOM     10  C   UNL A   1      42.180  21.231  27.777  1.00  0.00     0.014 A 
ATOM     11  C   UNL A   1      42.796  23.018  25.713  1.00  0.00     0.010 A 
ATOM     12  C   UNL A   1      42.731  22.482  28.077  1.00  0.00     0.010 A 
ATOM     13  C   UNL A   1      43.042  23.384  27.046  1.00  0.00    -0.014 A 
BRANCH  13  14
ATOM     14  C   UNL A   1      43.479  24.771  27.342  1.00  0.00     0.031 A 
ATOM     15  C   UNL A   1      42.522  25.809  27.853  1.00  0.00     0.074 A 
ATOM     16  C   UNL A   1      44.777  25.076  27.129  1.00  0.00     0.049 A 
ATOM     17  N   UNL A   1      42.749  27.067  28.125  1.00  0.00    -0.248 NA
ATOM     18  C   UNL A   1      41.133  25.386  28.084  1.00  0.00     0.031 C 
ATOM     19  C   UNL A   1      45.786  24.136  26.626  1.00  0.00     0.029 A 
ATOM     20  N   UNL A   1      45.475  26.241  27.306  1.00  0.00    -0.354 N 
ATOM     21  C   UNL A   1      41.533  27.596  28.541  1.00  0.00     0.074 A 
ATOM     22  C   UNL A   1      40.565  26.522  28.473  1.00  0.00     0.031 C 
ATOM     23  C   UNL A   1      46.974  24.753  26.566  1.00  0.00     0.029 A 
ATOM     24  C   UNL A   1      46.798  26.150  26.938  1.00  0.00     0.049 A 
ATOM     25  H   UNL A   1      45.069  27.065  27.662  1.00  0.00     0.167 HD
ATOM     26  C   UNL A   1      41.262  28.865  28.938  1.00  0.00     0.034 A 
ATOM     27  C   UNL A   1      47.756  27.094  26.860  1.00  0.00     0.034 A 
ATOM     28  C   UNL A   1      42.251  29.916  29.002  1.00  0.00     0.049 A 
ATOM     29  C   UNL A   1      47.401  28.502  27.252  1.00  0.00     0.074 A 
ATOM     30  C   UNL A   1      42.095  31.214  29.457  1.00  0.00     0.029 A 
ATOM     31  N   UNL A   1      43.569  29.801  28.580  1.00  0.00    -0.354 N 
ATOM     32  N   UNL A   1      46.258  28.970  27.702  1.00  0.00    -0.248 NA
ATOM     33  C   UNL A   1      48.459  29.511  27.128  1.00  0.00     0.031 C 
ATOM     34  C   UNL A   1      43.287  31.907  29.226  1.00  0.00     0.029 A 
ATOM     35  C   UNL A   1      44.219  31.020  28.710  1.00  0.00     0.049 A 
ATOM     36  H   UNL A   1      43.981  28.975  28.237  1.00  0.00     0.167 HD
ATOM     37  C   UNL A   1      46.469  30.326  27.927  1.00  0.00     0.074 A 
ATOM     38  C   UNL A   1      47.855  30.591  27.600  1.00  0.00     0.031 C 
ATOM     39  C   UNL A   1      45.596  31.270  28.358  1.00  0.00     0.034 A 
BRANCH  26  40
ATOM     40  C   UNL A   1      39.836  29.216  29.289  1.00  0.00     0.023 A 
ATOM     41  C   UNL A   1      39.395  29.322  30.618  1.00  0.00     0.031 A 
ATOM     42  C   UNL A   1      38.916  29.507  28.262  1.00  0.00     0.131 A 
ATOM     43  C   UNL A   1      38.063  29.681  30.885  1.00  0.00     0.055 A 
ATOM     44  C   UNL A   1      37.613  29.924  28.536  1.00  0.00     0.041 A 
ATOM     45  F   UNL A   1      39.277  29.403  26.973  1.00  0.00    -0.206 F 
ATOM     46  C   UNL A   1      37.178  30.007  29.855  1.00  0.00     0.022 A 
BRANCH  43  47
ATOM     47  S   UNL A   1      37.474  29.633  32.600  1.00  0.00     0.124 S 
ATOM     48  O   UNL A   1      36.189  30.319  32.493  1.00  0.00    -0.237 OA
ATOM     49  O   UNL A   1      37.412  28.201  32.873  1.00  0.00    -0.237 OA
ATOM     50  O   UNL A   1      38.503  30.364  33.338  1.00  0.00    -0.744 OA
ENDBRANCH  43  47
ENDBRANCH  26  40
BRANCH  27  51
ATOM     51  C   UNL A   1      49.108  26.762  26.326  1.00  0.00     0.023 A 
ATOM     52  C   UNL A   1      49.533  27.246  25.080  1.00  0.00     0.031 A 
ATOM     53  C   UNL A   1      49.969  25.892  27.022  1.00  0.00     0.131 A 
ATOM     54  C   UNL A   1      50.749  26.805  24.538  1.00  0.00     0.055 A 
ATOM     55  C   UNL A   1      51.213  25.518  26.513  1.00  0.00     0.041 A 
ATOM     56  F   UNL A   1      49.614  25.394  28.217  1.00  0.00    -0.206 F 
ATOM     57  C   UNL A   1      51.600  25.958  25.253  1.00  0.00     0.022 A 
BRANCH  54  58
ATOM     58  S   UNL A   1      51.136  27.242  22.821  1.00  0.00     0.124 S 
ATOM     59  O   UNL A   1      51.192  28.697  22.891  1.00  0.00    -0.237 OA
ATOM     60  O   UNL A   1      52.409  26.559  22.616  1.00  0.00    -0.237 OA
ATOM     61  O   UNL A   1      50.008  26.695  22.069  1.00  0.00    -0.744 OA
ENDBRANCH  54  58
ENDBRANCH  27  51
BRANCH  39  62
ATOM     62  C   UNL A   1      46.136  32.670  28.516  1.00  0.00     0.023 A 
ATOM     63  C   UNL A   1      46.290  33.526  27.412  1.00  0.00     0.031 A 
ATOM     64  C   UNL A   1      46.522  33.145  29.781  1.00  0.00     0.131 A 
ATOM     65  C   UNL A   1      46.871  34.790  27.583  1.00  0.00     0.055 A 
ATOM     66  C   UNL A   1      47.038  34.430  29.956  1.00  0.00     0.041 A 
ATOM     67  F   UNL A   1      46.404  32.368  30.870  1.00  0.00    -0.206 F 
ATOM     68  C   UNL A   1      47.227  35.255  28.851  1.00  0.00     0.022 A 
BRANCH  65  69
ATOM     69  S   UNL A   1      47.246  35.781  26.112  1.00  0.00     0.124 S 
ATOM     70  O   UNL A   1      48.611  36.219  26.380  1.00  0.00    -0.237 OA
ATOM     71  O   UNL A   1      47.088  34.811  25.032  1.00  0.00    -0.237 OA
ATOM     72  O   UNL A   1      46.237  36.839  26.145  1.00  0.00    -0.744 OA
ENDBRANCH  65  69
ENDBRANCH  39  62
ENDBRANCH  13  14
ENDBRANCH   6   8
ENDBRANCH   3   4
ENDBRANCH   2   3
ENDBRANCH   1   2
BRANCH   1  73
ATOM     73  C   UNL A   1      36.552  22.157  25.920  1.00  0.00     0.002 C 
BRANCH  73  74
ATOM     74  C   UNL A   1      35.286  23.005  25.765  1.00  0.00     0.021 C 
BRANCH  74  75
ATOM     75  C   UNL A   1      35.495  24.418  25.219  1.00  0.00     0.116 C 
BRANCH  75  76
ATOM     76  N   UNL A   1      34.483  24.802  24.245  1.00  0.00    -0.356 N 
ATOM     77  C   UNL A   1      33.527  25.774  24.296  1.00  0.00     0.224 C 
ATOM     78  H   UNL A   1      34.489  24.274  23.415  1.00  0.00     0.163 HD
ATOM     79  O   UNL A   1      32.916  26.048  23.262  1.00  0.00    -0.275 OA
BRANCH  77  80
ATOM     80  C   UNL A   1      33.288  26.563  25.566  1.00  0.00     0.098 C 
ATOM     81  C   UNL A   1      31.961  26.426  26.347  1.00  0.00     0.098 C 
ATOM     82  C   UNL A   1      33.408  28.122  25.422  1.00  0.00     0.025 C 
ATOM     83  C   UNL A   1      31.646  27.885  26.782  1.00  0.00     0.025 C 
ATOM     84  C   UNL A   1      33.849  28.602  26.790  1.00  0.00    -0.027 C 
ATOM     85  C   UNL A   1      31.975  28.677  25.526  1.00  0.00     0.017 C 
ATOM     86  C   UNL A   1      32.804  28.424  27.617  1.00  0.00    -0.027 C 
BRANCH  81  87
ATOM     87  C   UNL A   1      30.766  25.652  25.786  1.00  0.00     0.224 C 
ATOM     88  O   UNL A   1      29.939  26.283  25.109  1.00  0.00    -0.275 OA
ATOM     89  N   UNL A   1      30.487  24.332  25.947  1.00  0.00    -0.352 N 
ATOM     90  H   UNL A   1      29.545  24.101  25.782  1.00  0.00     0.163 HD
BRANCH  89  91
ATOM     91  C   UNL A   1      31.310  23.204  26.314  1.00  0.00     0.153 C 
BRANCH  91  92
ATOM     92  C   UNL A   1      31.753  22.251  25.244  1.00  0.00    -0.010 A 
ATOM     93  C   UNL A   1      32.217  20.953  25.433  1.00  0.00     0.009 A 
ATOM     94  C   UNL A   1      31.664  22.704  23.921  1.00  0.00     0.116 A 
ATOM     95  C   UNL A   1      32.593  20.196  24.321  1.00  0.00     0.020 A 
ATOM     96  N   UNL A   1      31.999  21.988  22.826  1.00  0.00    -0.264 NA
ATOM     97  C   UNL A   1      32.473  20.751  23.056  1.00  0.00     0.111 A 
ENDBRANCH  91  92
ENDBRANCH  89  91
ENDBRANCH  81  87
ENDBRANCH  77  80
ENDBRANCH  75  76
ENDBRANCH  74  75
ENDBRANCH  73  74
ENDBRANCH   1  73
TORSDOF 19
ENDMDL
MODEL 3
REMARK VINA RESULT:     -11.5      1.865      2.105
REMARK SMILES O=C(NCCCCCCNC(=O)[C@@H]1[C@H](C(=O)NCc2cccnc2)[C@H]2C=C[C@@H]1C2)c1ccc(-c2c3nc(c(-c4cc(S(=O)(=O)[O-])ccc4F)c4ccc([nH]4)c(-c4cc(S(=O)(=O)[O-])ccc4F)c4nc(c(-c5cc(S(=O)(=O)[O-])ccc5F)c5ccc2[nH]5)C=C4)C=C3)cc1
REMARK SMILES IDX 6 1 5 2 4 3 3 4 1 5 2 6 30 8 31 9 92 10 32 11 91 12 33 13
REMARK SMILES IDX 34 14 35 15 85 16 36 17 90 18 84 19 86 20 37 21 89 22 83 23
REMARK SMILES IDX 82 24 38 26 70 27 50 28 69 29 51 30 54 31 68 32 87 33 52 34
REMARK SMILES IDX 53 35 67 37 88 38 55 39 39 40 40 41 48 42 41 43 47 44 49 45
REMARK SMILES IDX 46 46 42 47 43 48 44 49 45 50 71 51 72 52 80 53 73 54 79 55
REMARK SMILES IDX 81 56 78 57 74 58 75 59 76 60 77 61 56 62 57 63 65 64 58 65
REMARK SMILES IDX 64 66 66 67 63 68 59 69 60 70 61 71 62 72 7 73 8 74 9 75
REMARK SMILES IDX 10 76 11 77 12 79 13 80 14 81 28 82 25 83 27 84 29 85 26 86
REMARK SMILES IDX 15 87 16 88 17 89 18 91 19 92 20 93 24 94 21 95 23 96 22 97
REMARK H PARENT 3 7 86 25 54 36 10 78 17 90
REMARK Flexibility Score: inf
ROOT
ATOM      1  C   UNL A   1      31.863  30.188  25.846  1.00  0.00     0.002 C 
ENDROOT
BRANCH   1   2
ATOM      2  C   UNL A   1      31.605  31.480  26.620  1.00  0.00     0.021 C 
BRANCH   2   3
ATOM      3  C   UNL A   1      32.861  32.213  27.076  1.00  0.00     0.116 C 
BRANCH   3   4
ATOM      4  N   UNL A   1      32.587  33.593  27.438  1.00  0.00    -0.352 N 
ATOM      5  O   UNL A   1      32.662  35.411  28.772  1.00  0.00    -0.269 OA
ATOM      6  C   UNL A   1      33.139  34.331  28.459  1.00  0.00     0.251 C 
ATOM      7  H   UNL A   1      31.921  34.059  26.882  1.00  0.00     0.163 HD
BRANCH   6   8
ATOM      8  C   UNL A   1      34.316  33.788  29.172  1.00  0.00     0.039 A 
ATOM      9  C   UNL A   1      34.143  32.836  30.182  1.00  0.00     0.014 A 
ATOM     10  C   UNL A   1      35.595  34.228  28.826  1.00  0.00     0.014 A 
ATOM     11  C   UNL A   1      35.239  32.400  30.914  1.00  0.00     0.010 A 
ATOM     12  C   UNL A   1      36.707  33.720  29.506  1.00  0.00     0.010 A 
ATOM     13  C   UNL A   1      36.535  32.801  30.555  1.00  0.00    -0.014 A 
BRANCH  13  14
ATOM     14  C   UNL A   1      37.698  32.130  31.188  1.00  0.00     0.031 A 
ATOM     15  C   UNL A   1      38.432  31.012  30.505  1.00  0.00     0.074 A 
ATOM     16  C   UNL A   1      38.074  32.554  32.413  1.00  0.00     0.049 A 
ATOM     17  N   UNL A   1      39.442  30.308  30.946  1.00  0.00    -0.248 NA
ATOM     18  C   UNL A   1      37.975  30.629  29.161  1.00  0.00     0.031 C 
ATOM     19  C   UNL A   1      37.417  33.631  33.164  1.00  0.00     0.029 A 
ATOM     20  N   UNL A   1      39.087  32.149  33.241  1.00  0.00    -0.354 N 
ATOM     21  C   UNL A   1      39.733  29.387  29.947  1.00  0.00     0.074 A 
ATOM     22  C   UNL A   1      38.782  29.613  28.879  1.00  0.00     0.031 C 
ATOM     23  C   UNL A   1      38.063  33.820  34.323  1.00  0.00     0.029 A 
ATOM     24  C   UNL A   1      39.119  32.824  34.440  1.00  0.00     0.049 A 
ATOM     25  H   UNL A   1      39.730  31.443  33.001  1.00  0.00     0.167 HD
ATOM     26  C   UNL A   1      40.707  28.442  29.935  1.00  0.00     0.034 A 
ATOM     27  C   UNL A   1      39.880  32.635  35.535  1.00  0.00     0.034 A 
ATOM     28  C   UNL A   1      41.647  28.243  31.014  1.00  0.00     0.049 A 
ATOM     29  C   UNL A   1      40.909  31.537  35.506  1.00  0.00     0.074 A 
ATOM     30  C   UNL A   1      42.714  27.362  31.070  1.00  0.00     0.029 A 
ATOM     31  N   UNL A   1      41.623  28.913  32.230  1.00  0.00    -0.354 N 
ATOM     32  N   UNL A   1      41.210  30.715  34.527  1.00  0.00    -0.248 NA
ATOM     33  C   UNL A   1      41.700  31.339  36.726  1.00  0.00     0.031 C 
ATOM     34  C   UNL A   1      43.275  27.434  32.348  1.00  0.00     0.029 A 
ATOM     35  C   UNL A   1      42.619  28.423  33.063  1.00  0.00     0.049 A 
ATOM     36  H   UNL A   1      40.990  29.629  32.467  1.00  0.00     0.167 HD
ATOM     37  C   UNL A   1      42.237  29.913  35.011  1.00  0.00     0.074 A 
ATOM     38  C   UNL A   1      42.528  30.374  36.353  1.00  0.00     0.031 C 
ATOM     39  C   UNL A   1      42.879  28.882  34.406  1.00  0.00     0.034 A 
BRANCH  26  40
ATOM     40  C   UNL A   1      40.786  27.510  28.750  1.00  0.00     0.023 A 
ATOM     41  C   UNL A   1      41.767  27.645  27.754  1.00  0.00     0.031 A 
ATOM     42  C   UNL A   1      39.889  26.428  28.652  1.00  0.00     0.131 A 
ATOM     43  C   UNL A   1      41.811  26.731  26.688  1.00  0.00     0.055 A 
ATOM     44  C   UNL A   1      39.978  25.488  27.624  1.00  0.00     0.041 A 
ATOM     45  F   UNL A   1      38.918  26.262  29.564  1.00  0.00    -0.206 F 
ATOM     46  C   UNL A   1      40.940  25.640  26.631  1.00  0.00     0.022 A 
BRANCH  43  47
ATOM     47  S   UNL A   1      42.969  27.034  25.326  1.00  0.00     0.124 S 
ATOM     48  O   UNL A   1      42.312  28.126  24.613  1.00  0.00    -0.237 OA
ATOM     49  O   UNL A   1      44.200  27.381  26.029  1.00  0.00    -0.237 OA
ATOM     50  O   UNL A   1      42.999  25.760  24.609  1.00  0.00    -0.744 OA
ENDBRANCH  43  47
ENDBRANCH  26  40
BRANCH  27  51
ATOM     51  C   UNL A   1      39.653  33.443  36.768  1.00  0.00     0.023 A 
ATOM     52  C   UNL A   1      39.058  32.877  37.905  1.00  0.00     0.031 A 
ATOM     53  C   UNL A   1      39.958  34.817  36.801  1.00  0.00     0.131 A 
ATOM     54  C   UNL A   1      38.727  33.692  38.998  1.00  0.00     0.055 A 
ATOM     55  C   UNL A   1      39.697  35.607  37.921  1.00  0.00     0.041 A 
ATOM     56  F   UNL A   1      40.525  35.415  35.739  1.00  0.00    -0.206 F 
ATOM     57  C   UNL A   1      39.058  35.049  39.021  1.00  0.00     0.022 A 
BRANCH  54  58
ATOM     58  S   UNL A   1      37.726  32.979  40.332  1.00  0.00     0.124 S 
ATOM     59  O   UNL A   1      36.381  33.079  39.778  1.00  0.00    -0.237 OA
ATOM     60  O   UNL A   1      38.279  31.633  40.437  1.00  0.00    -0.237 OA
ATOM     61  O   UNL A   1      38.000  33.856  41.468  1.00  0.00    -0.744 OA
ENDBRANCH  54  58
ENDBRANCH  27  51
BRANCH  39  62
ATOM     62  C   UNL A   1      43.973  28.207  35.197  1.00  0.00     0.023 A 
ATOM     63  C   UNL A   1      45.302  28.661  35.145  1.00  0.00     0.031 A 
ATOM     64  C   UNL A   1      43.686  27.086  35.994  1.00  0.00     0.131 A 
ATOM     65  C   UNL A   1      46.306  27.961  35.829  1.00  0.00     0.055 A 
ATOM     66  C   UNL A   1      44.679  26.433  36.725  1.00  0.00     0.041 A 
ATOM     67  F   UNL A   1      42.435  26.605  36.075  1.00  0.00    -0.206 F 
ATOM     68  C   UNL A   1      46.000  26.862  36.634  1.00  0.00     0.022 A 
BRANCH  65  69
ATOM     69  S   UNL A   1      48.034  28.448  35.571  1.00  0.00     0.124 S 
ATOM     70  O   UNL A   1      47.918  29.418  34.488  1.00  0.00    -0.237 OA
ATOM     71  O   UNL A   1      48.404  28.990  36.875  1.00  0.00    -0.237 OA
ATOM     72  O   UNL A   1      48.693  27.193  35.213  1.00  0.00    -0.744 OA
ENDBRANCH  65  69
ENDBRANCH  39  62
ENDBRANCH  13  14
ENDBRANCH   6   8
ENDBRANCH   3   4
ENDBRANCH   2   3
ENDBRANCH   1   2
BRANCH   1  73
ATOM     73  C   UNL A   1      31.807  28.909  26.680  1.00  0.00     0.002 C 
BRANCH  73  74
ATOM     74  C   UNL A   1      33.165  28.321  27.071  1.00  0.00     0.021 C 
BRANCH  74  75
ATOM     75  C   UNL A   1      33.720  27.248  26.133  1.00  0.00     0.116 C 
BRANCH  75  76
ATOM     76  N   UNL A   1      32.906  26.041  26.113  1.00  0.00    -0.356 N 
ATOM     77  C   UNL A   1      33.235  24.754  25.800  1.00  0.00     0.224 C 
ATOM     78  H   UNL A   1      31.964  26.174  26.365  1.00  0.00     0.163 HD
ATOM     79  O   UNL A   1      32.423  23.864  26.056  1.00  0.00    -0.275 OA
BRANCH  77  80
ATOM     80  C   UNL A   1      34.602  24.416  25.243  1.00  0.00     0.098 C 
ATOM     81  C   UNL A   1      34.783  24.060  23.749  1.00  0.00     0.098 C 
ATOM     82  C   UNL A   1      35.335  23.217  25.942  1.00  0.00     0.025 C 
ATOM     83  C   UNL A   1      35.807  22.891  23.778  1.00  0.00     0.025 C 
ATOM     84  C   UNL A   1      36.811  23.516  25.770  1.00  0.00    -0.027 C 
ATOM     85  C   UNL A   1      35.304  22.048  24.940  1.00  0.00     0.017 C 
ATOM     86  C   UNL A   1      37.087  23.359  24.463  1.00  0.00    -0.027 C 
BRANCH  81  87
ATOM     87  C   UNL A   1      33.588  23.844  22.817  1.00  0.00     0.224 C 
ATOM     88  O   UNL A   1      33.258  22.674  22.569  1.00  0.00    -0.275 OA
ATOM     89  N   UNL A   1      32.834  24.795  22.206  1.00  0.00    -0.352 N 
ATOM     90  H   UNL A   1      32.333  24.465  21.426  1.00  0.00     0.163 HD
BRANCH  89  91
ATOM     91  C   UNL A   1      32.628  26.197  22.484  1.00  0.00     0.153 C 
BRANCH  91  92
ATOM     92  C   UNL A   1      31.245  26.675  22.814  1.00  0.00    -0.010 A 
ATOM     93  C   UNL A   1      30.327  26.040  23.644  1.00  0.00     0.009 A 
ATOM     94  C   UNL A   1      30.851  27.898  22.254  1.00  0.00     0.116 A 
ATOM     95  C   UNL A   1      29.074  26.624  23.845  1.00  0.00     0.020 A 
ATOM     96  N   UNL A   1      29.657  28.496  22.447  1.00  0.00    -0.264 NA
ATOM     97  C   UNL A   1      28.787  27.833  23.229  1.00  0.00     0.111 A 
ENDBRANCH  91  92
ENDBRANCH  89  91
ENDBRANCH  81  87
ENDBRANCH  77  80
ENDBRANCH  75  76
ENDBRANCH  74  75
ENDBRANCH  73  74
ENDBRANCH   1  73
TORSDOF 19
ENDMDL
