MODEL 1
REMARK VINA RESULT:     -12.8      0.000      0.000
REMARK SMILES COc1ccc([C@@H](C(=O)NCCCCCCNC(=O)c2ccc(-c3c4nc(c(-c5cc(S(=O)(=O)[O-])ccc5F)c5ccc([nH]5)c(-c5cc(S(=O)(=O)[O-])ccc5F)c5nc(c(-c6cc(S(=O)(=O)[O-])ccc6F)c6ccc3[nH]6)C=C5)C=C4)cc2)[NH+]2CCC(C(N)=O)CC2)c(C)c1
REMARK SMILES IDX 14 1 13 2 12 3 11 4 10 5 8 6 9 7 7 9 6 10 3 11 4 12 94 13
REMARK SMILES IDX 5 14 92 15 93 16 2 17 1 18 83 19 84 20 91 21 85 23 90 24
REMARK SMILES IDX 86 25 87 26 88 27 89 28 15 31 16 32 17 33 18 34 19 36 20 37
REMARK SMILES IDX 21 38 82 39 22 40 81 41 23 42 24 43 25 44 75 45 26 46 80 47
REMARK SMILES IDX 74 48 76 49 27 50 79 51 73 52 72 53 28 55 60 56 40 57 59 58
REMARK SMILES IDX 41 59 44 60 58 61 77 62 42 63 43 64 57 66 78 67 45 68 29 69
REMARK SMILES IDX 30 70 38 71 31 72 37 73 39 74 36 75 32 76 33 77 34 78 35 79
REMARK SMILES IDX 61 80 62 81 70 82 63 83 69 84 71 85 68 86 64 87 65 88 66 89
REMARK SMILES IDX 67 90 46 91 47 92 55 93 48 94 54 95 56 96 53 97 49 98 50 99
REMARK SMILES IDX 51 100 52 101
REMARK H PARENT 10 8 83 22 88 29 88 30 17 35 76 54 44 65
REMARK Flexibility Score: inf
ROOT
ATOM      1  C   UNL A   1      38.004  24.016  26.310  1.00  0.00     0.002 C 
ENDROOT
BRANCH   1   2
ATOM      2  C   UNL A   1      36.527  23.752  25.977  1.00  0.00     0.002 C 
BRANCH   2   3
ATOM      3  C   UNL A   1      36.092  23.952  24.517  1.00  0.00     0.021 C 
BRANCH   3   4
ATOM      4  C   UNL A   1      36.137  22.704  23.634  1.00  0.00     0.116 C 
BRANCH   4   5
ATOM      5  N   UNL A   1      36.720  21.561  24.306  1.00  0.00    -0.351 N 
ATOM      6  C   UNL A   1      36.145  20.423  24.807  1.00  0.00     0.283 C 
ATOM      7  O   UNL A   1      36.930  19.571  25.239  1.00  0.00    -0.268 OA
ATOM      8  H   UNL A   1      37.696  21.610  24.424  1.00  0.00     0.163 HD
BRANCH   6   9
ATOM      9  C   UNL A   1      34.597  20.212  24.738  1.00  0.00     0.305 C 
BRANCH   9  10
ATOM     10  C   UNL A   1      33.731  21.333  25.336  1.00  0.00     0.022 A 
ATOM     11  C   UNL A   1      32.348  23.417  26.684  1.00  0.00     0.119 A 
ATOM     12  C   UNL A   1      33.219  22.605  27.390  1.00  0.00     0.047 A 
ATOM     13  C   UNL A   1      32.134  23.167  25.329  1.00  0.00     0.050 A 
ATOM     14  C   UNL A   1      33.905  21.587  26.723  1.00  0.00     0.014 A 
ATOM     15  C   UNL A   1      32.803  22.133  24.637  1.00  0.00    -0.038 A 
ATOM     16  C   UNL A   1      32.477  22.020  23.172  1.00  0.00     0.045 C 
BRANCH  11  17
ATOM     17  O   UNL A   1      31.628  24.454  27.204  1.00  0.00    -0.497 OA
ATOM     18  C   UNL A   1      31.681  25.680  26.485  1.00  0.00     0.278 C 
ENDBRANCH  11  17
ENDBRANCH   9  10
BRANCH   9  19
ATOM     19  N   UNL A   1      34.196  18.817  25.141  1.00  0.00    -0.321 N 
ATOM     20  C   UNL A   1      32.745  18.599  25.175  1.00  0.00     0.263 C 
ATOM     21  C   UNL A   1      34.886  17.782  24.362  1.00  0.00     0.263 C 
ATOM     22  H   UNL A   1      34.508  18.726  26.108  1.00  0.00     0.349 HD
ATOM     23  C   UNL A   1      32.391  17.214  25.723  1.00  0.00     0.075 C 
ATOM     24  C   UNL A   1      34.573  16.373  24.876  1.00  0.00     0.075 C 
ATOM     25  C   UNL A   1      33.065  16.136  24.879  1.00  0.00     0.089 C 
BRANCH  25  26
ATOM     26  C   UNL A   1      32.710  14.758  25.403  1.00  0.00     0.220 C 
ATOM     27  N   UNL A   1      31.401  14.611  25.765  1.00  0.00    -0.369 N 
ATOM     28  O   UNL A   1      33.501  13.831  25.528  1.00  0.00    -0.275 OA
ATOM     29  H   UNL A   1      30.774  15.363  25.660  1.00  0.00     0.159 HD
ATOM     30  H   UNL A   1      31.085  13.754  26.132  1.00  0.00     0.159 HD
ENDBRANCH  25  26
ENDBRANCH   9  19
ENDBRANCH   6   9
ENDBRANCH   4   5
ENDBRANCH   3   4
ENDBRANCH   2   3
ENDBRANCH   1   2
BRANCH   1  31
ATOM     31  C   UNL A   1      38.950  22.821  26.182  1.00  0.00     0.021 C 
BRANCH  31  32
ATOM     32  C   UNL A   1      40.026  22.755  27.260  1.00  0.00     0.116 C 
BRANCH  32  33
ATOM     33  N   UNL A   1      41.346  23.198  26.822  1.00  0.00    -0.352 N 
ATOM     34  C   UNL A   1      41.813  24.494  26.655  1.00  0.00     0.251 C 
ATOM     35  H   UNL A   1      41.991  22.482  26.619  1.00  0.00     0.163 HD
ATOM     36  O   UNL A   1      42.934  24.725  26.236  1.00  0.00    -0.269 OA
BRANCH  34  37
ATOM     37  C   UNL A   1      40.944  25.610  27.102  1.00  0.00     0.039 A 
ATOM     38  C   UNL A   1      40.889  26.754  26.299  1.00  0.00     0.014 A 
ATOM     39  C   UNL A   1      40.432  25.621  28.394  1.00  0.00     0.014 A 
ATOM     40  C   UNL A   1      40.547  27.973  26.880  1.00  0.00     0.010 A 
ATOM     41  C   UNL A   1      40.206  26.841  28.997  1.00  0.00     0.010 A 
ATOM     42  C   UNL A   1      40.326  28.025  28.255  1.00  0.00    -0.014 A 
BRANCH  42  43
ATOM     43  C   UNL A   1      40.382  29.263  29.026  1.00  0.00     0.031 A 
ATOM     44  C   UNL A   1      39.272  30.237  28.993  1.00  0.00     0.074 A 
ATOM     45  C   UNL A   1      41.423  29.478  29.864  1.00  0.00     0.049 A 
ATOM     46  N   UNL A   1      39.389  31.484  29.302  1.00  0.00    -0.248 NA
ATOM     47  C   UNL A   1      37.925  29.883  28.561  1.00  0.00     0.031 C 
ATOM     48  C   UNL A   1      41.513  30.475  30.926  1.00  0.00     0.029 A 
ATOM     49  N   UNL A   1      42.718  28.974  29.750  1.00  0.00    -0.354 N 
ATOM     50  C   UNL A   1      38.124  32.013  29.414  1.00  0.00     0.074 A 
ATOM     51  C   UNL A   1      37.253  30.996  28.872  1.00  0.00     0.031 C 
ATOM     52  C   UNL A   1      42.806  30.709  31.195  1.00  0.00     0.029 A 
ATOM     53  C   UNL A   1      43.590  29.973  30.221  1.00  0.00     0.049 A 
ATOM     54  H   UNL A   1      42.974  28.089  29.405  1.00  0.00     0.167 HD
ATOM     55  C   UNL A   1      37.945  33.188  30.083  1.00  0.00     0.034 A 
ATOM     56  C   UNL A   1      44.547  30.514  29.414  1.00  0.00     0.034 A 
ATOM     57  C   UNL A   1      39.220  33.769  30.506  1.00  0.00     0.049 A 
ATOM     58  C   UNL A   1      44.395  32.004  29.205  1.00  0.00     0.074 A 
ATOM     59  C   UNL A   1      39.881  33.817  31.723  1.00  0.00     0.029 A 
ATOM     60  N   UNL A   1      40.139  34.183  29.547  1.00  0.00    -0.354 N 
ATOM     61  N   UNL A   1      43.315  32.679  29.487  1.00  0.00    -0.248 NA
ATOM     62  C   UNL A   1      45.447  32.849  28.650  1.00  0.00     0.031 C 
ATOM     63  C   UNL A   1      41.218  34.226  31.484  1.00  0.00     0.029 A 
ATOM     64  C   UNL A   1      41.365  34.450  30.126  1.00  0.00     0.049 A 
ATOM     65  H   UNL A   1      39.942  34.274  28.587  1.00  0.00     0.167 HD
ATOM     66  C   UNL A   1      43.489  34.000  29.154  1.00  0.00     0.074 A 
ATOM     67  C   UNL A   1      44.853  34.056  28.657  1.00  0.00     0.031 C 
ATOM     68  C   UNL A   1      42.485  34.919  29.316  1.00  0.00     0.034 A 
BRANCH  55  69
ATOM     69  C   UNL A   1      36.607  33.655  30.621  1.00  0.00     0.023 A 
ATOM     70  C   UNL A   1      35.666  34.226  29.736  1.00  0.00     0.031 A 
ATOM     71  C   UNL A   1      36.209  33.617  31.971  1.00  0.00     0.131 A 
ATOM     72  C   UNL A   1      34.479  34.823  30.202  1.00  0.00     0.055 A 
ATOM     73  C   UNL A   1      35.058  34.262  32.445  1.00  0.00     0.041 A 
ATOM     74  F   UNL A   1      36.884  32.906  32.884  1.00  0.00    -0.206 F 
ATOM     75  C   UNL A   1      34.192  34.884  31.561  1.00  0.00     0.022 A 
BRANCH  72  76
ATOM     76  S   UNL A   1      33.309  35.518  29.003  1.00  0.00     0.124 S 
ATOM     77  O   UNL A   1      32.778  34.323  28.357  1.00  0.00    -0.237 OA
ATOM     78  O   UNL A   1      32.387  36.255  29.860  1.00  0.00    -0.237 OA
ATOM     79  O   UNL A   1      34.156  36.353  28.149  1.00  0.00    -0.744 OA
ENDBRANCH  72  76
ENDBRANCH  55  69
BRANCH  56  80
ATOM     80  C   UNL A   1      45.104  29.539  28.438  1.00  0.00     0.023 A 
ATOM     81  C   UNL A   1      46.035  28.601  28.938  1.00  0.00     0.031 A 
ATOM     82  C   UNL A   1      44.464  29.248  27.227  1.00  0.00     0.131 A 
ATOM     83  C   UNL A   1      46.176  27.350  28.323  1.00  0.00     0.055 A 
ATOM     84  C   UNL A   1      44.657  28.019  26.582  1.00  0.00     0.041 A 
ATOM     85  F   UNL A   1      43.543  30.082  26.723  1.00  0.00    -0.206 F 
ATOM     86  C   UNL A   1      45.481  27.046  27.152  1.00  0.00     0.022 A 
BRANCH  83  87
ATOM     87  S   UNL A   1      47.065  26.044  29.226  1.00  0.00     0.124 S 
ATOM     88  O   UNL A   1      46.068  24.981  29.275  1.00  0.00    -0.237 OA
ATOM     89  O   UNL A   1      48.222  25.795  28.368  1.00  0.00    -0.237 OA
ATOM     90  O   UNL A   1      47.386  26.669  30.506  1.00  0.00    -0.744 OA
ENDBRANCH  83  87
ENDBRANCH  56  80
BRANCH  68  91
ATOM     91  C   UNL A   1      42.474  36.358  28.822  1.00  0.00     0.023 A 
ATOM     92  C   UNL A   1      43.049  37.432  29.516  1.00  0.00     0.031 A 
ATOM     93  C   UNL A   1      41.914  36.691  27.559  1.00  0.00     0.131 A 
ATOM     94  C   UNL A   1      42.993  38.749  29.014  1.00  0.00     0.055 A 
ATOM     95  C   UNL A   1      41.921  37.986  27.030  1.00  0.00     0.041 A 
ATOM     96  F   UNL A   1      41.342  35.771  26.770  1.00  0.00    -0.206 F 
ATOM     97  C   UNL A   1      42.451  39.031  27.765  1.00  0.00     0.022 A 
BRANCH  94  98
ATOM     98  S   UNL A   1      43.601  40.095  30.064  1.00  0.00     0.124 S 
ATOM     99  O   UNL A   1      42.410  40.929  30.204  1.00  0.00    -0.237 OA
ATOM    100  O   UNL A   1      44.022  39.387  31.268  1.00  0.00    -0.237 OA
ATOM    101  O   UNL A   1      44.683  40.686  29.279  1.00  0.00    -0.744 OA
ENDBRANCH  94  98
ENDBRANCH  68  91
ENDBRANCH  42  43
ENDBRANCH  34  37
ENDBRANCH  32  33
ENDBRANCH  31  32
ENDBRANCH   1  31
TORSDOF 20
ENDMDL
MODEL 2
REMARK VINA RESULT:     -11.7      4.603     10.440
REMARK SMILES COc1ccc([C@@H](C(=O)NCCCCCCNC(=O)c2ccc(-c3c4nc(c(-c5cc(S(=O)(=O)[O-])ccc5F)c5ccc([nH]5)c(-c5cc(S(=O)(=O)[O-])ccc5F)c5nc(c(-c6cc(S(=O)(=O)[O-])ccc6F)c6ccc3[nH]6)C=C5)C=C4)cc2)[NH+]2CCC(C(N)=O)CC2)c(C)c1
REMARK SMILES IDX 14 1 13 2 12 3 11 4 10 5 8 6 9 7 7 9 6 10 3 11 4 12 94 13
REMARK SMILES IDX 5 14 92 15 93 16 2 17 1 18 83 19 84 20 91 21 85 23 90 24
REMARK SMILES IDX 86 25 87 26 88 27 89 28 15 31 16 32 17 33 18 34 19 36 20 37
REMARK SMILES IDX 21 38 82 39 22 40 81 41 23 42 24 43 25 44 75 45 26 46 80 47
REMARK SMILES IDX 74 48 76 49 27 50 79 51 73 52 72 53 28 55 60 56 40 57 59 58
REMARK SMILES IDX 41 59 44 60 58 61 77 62 42 63 43 64 57 66 78 67 45 68 29 69
REMARK SMILES IDX 30 70 38 71 31 72 37 73 39 74 36 75 32 76 33 77 34 78 35 79
REMARK SMILES IDX 61 80 62 81 70 82 63 83 69 84 71 85 68 86 64 87 65 88 66 89
REMARK SMILES IDX 67 90 46 91 47 92 55 93 48 94 54 95 56 96 53 97 49 98 50 99
REMARK SMILES IDX 51 100 52 101
REMARK H PARENT 10 8 83 22 88 29 88 30 17 35 76 54 44 65
REMARK Flexibility Score: inf
ROOT
ATOM      1  C   UNL A   1      34.736  33.224  27.996  1.00  0.00     0.002 C 
ENDROOT
BRANCH   1   2
ATOM      2  C   UNL A   1      34.513  31.738  28.316  1.00  0.00     0.002 C 
BRANCH   2   3
ATOM      3  C   UNL A   1      33.651  30.932  27.331  1.00  0.00     0.021 C 
BRANCH   3   4
ATOM      4  C   UNL A   1      33.969  29.439  27.237  1.00  0.00     0.116 C 
BRANCH   4   5
ATOM      5  N   UNL A   1      32.854  28.602  27.629  1.00  0.00    -0.351 N 
ATOM      6  C   UNL A   1      32.033  27.795  26.888  1.00  0.00     0.283 C 
ATOM      7  O   UNL A   1      31.225  27.116  27.532  1.00  0.00    -0.268 OA
ATOM      8  H   UNL A   1      32.652  28.615  28.592  1.00  0.00     0.163 HD
BRANCH   6   9
ATOM      9  C   UNL A   1      32.195  27.697  25.336  1.00  0.00     0.305 C 
BRANCH   9  10
ATOM     10  C   UNL A   1      30.981  28.130  24.497  1.00  0.00     0.022 A 
ATOM     11  C   UNL A   1      28.914  29.192  22.861  1.00  0.00     0.119 A 
ATOM     12  C   UNL A   1      29.901  30.032  23.350  1.00  0.00     0.047 A 
ATOM     13  C   UNL A   1      28.932  27.844  23.219  1.00  0.00     0.050 A 
ATOM     14  C   UNL A   1      30.921  29.506  24.147  1.00  0.00     0.014 A 
ATOM     15  C   UNL A   1      29.944  27.293  24.036  1.00  0.00    -0.038 A 
ATOM     16  C   UNL A   1      29.826  25.816  24.300  1.00  0.00     0.045 C 
BRANCH  11  17
ATOM     17  O   UNL A   1      27.873  29.568  22.063  1.00  0.00    -0.497 OA
ATOM     18  C   UNL A   1      28.104  30.686  21.214  1.00  0.00     0.278 C 
ENDBRANCH  11  17
ENDBRANCH   9  10
BRANCH   9  19
ATOM     19  N   UNL A   1      32.827  26.397  24.911  1.00  0.00    -0.321 N 
ATOM     20  C   UNL A   1      33.413  26.428  23.566  1.00  0.00     0.263 C 
ATOM     21  C   UNL A   1      33.772  25.876  25.907  1.00  0.00     0.263 C 
ATOM     22  H   UNL A   1      32.051  25.737  24.855  1.00  0.00     0.349 HD
ATOM     23  C   UNL A   1      33.916  25.050  23.132  1.00  0.00     0.075 C 
ATOM     24  C   UNL A   1      34.300  24.489  25.525  1.00  0.00     0.075 C 
ATOM     25  C   UNL A   1      34.939  24.531  24.139  1.00  0.00     0.089 C 
BRANCH  25  26
ATOM     26  C   UNL A   1      35.456  23.171  23.712  1.00  0.00     0.220 C 
ATOM     27  N   UNL A   1      35.027  22.134  24.491  1.00  0.00    -0.369 N 
ATOM     28  O   UNL A   1      36.213  22.973  22.769  1.00  0.00    -0.275 OA
ATOM     29  H   UNL A   1      34.419  22.305  25.247  1.00  0.00     0.159 HD
ATOM     30  H   UNL A   1      35.326  21.217  24.298  1.00  0.00     0.159 HD
ENDBRANCH  25  26
ENDBRANCH   9  19
ENDBRANCH   6   9
ENDBRANCH   4   5
ENDBRANCH   3   4
ENDBRANCH   2   3
ENDBRANCH   1   2
BRANCH   1  31
ATOM     31  C   UNL A   1      34.242  34.222  29.044  1.00  0.00     0.021 C 
BRANCH  31  32
ATOM     32  C   UNL A   1      34.350  33.727  30.482  1.00  0.00     0.116 C 
BRANCH  32  33
ATOM     33  N   UNL A   1      35.300  34.469  31.306  1.00  0.00    -0.352 N 
ATOM     34  C   UNL A   1      36.597  34.119  31.660  1.00  0.00     0.251 C 
ATOM     35  H   UNL A   1      34.980  35.331  31.657  1.00  0.00     0.163 HD
ATOM     36  O   UNL A   1      37.271  34.816  32.398  1.00  0.00    -0.269 OA
BRANCH  34  37
ATOM     37  C   UNL A   1      37.190  32.916  31.030  1.00  0.00     0.039 A 
ATOM     38  C   UNL A   1      37.209  31.732  31.775  1.00  0.00     0.014 A 
ATOM     39  C   UNL A   1      37.938  33.035  29.864  1.00  0.00     0.014 A 
ATOM     40  C   UNL A   1      38.168  30.765  31.485  1.00  0.00     0.010 A 
ATOM     41  C   UNL A   1      38.960  32.134  29.648  1.00  0.00     0.010 A 
ATOM     42  C   UNL A   1      39.116  31.031  30.498  1.00  0.00    -0.014 A 
BRANCH  42  43
ATOM     43  C   UNL A   1      40.385  30.316  30.398  1.00  0.00     0.031 A 
ATOM     44  C   UNL A   1      40.454  28.957  29.822  1.00  0.00     0.074 A 
ATOM     45  C   UNL A   1      41.531  30.945  30.744  1.00  0.00     0.049 A 
ATOM     46  N   UNL A   1      41.412  28.121  30.045  1.00  0.00    -0.248 NA
ATOM     47  C   UNL A   1      39.410  28.409  28.965  1.00  0.00     0.031 C 
ATOM     48  C   UNL A   1      42.897  30.532  30.432  1.00  0.00     0.029 A 
ATOM     49  N   UNL A   1      41.684  31.978  31.668  1.00  0.00    -0.354 N 
ATOM     50  C   UNL A   1      41.283  27.083  29.151  1.00  0.00     0.074 A 
ATOM     51  C   UNL A   1      39.983  27.274  28.553  1.00  0.00     0.031 C 
ATOM     52  C   UNL A   1      43.734  31.096  31.315  1.00  0.00     0.029 A 
ATOM     53  C   UNL A   1      42.923  31.780  32.305  1.00  0.00     0.049 A 
ATOM     54  H   UNL A   1      41.046  32.707  31.842  1.00  0.00     0.167 HD
ATOM     55  C   UNL A   1      42.349  26.265  28.916  1.00  0.00     0.034 A 
ATOM     56  C   UNL A   1      43.002  31.587  33.653  1.00  0.00     0.034 A 
ATOM     57  C   UNL A   1      43.484  26.593  29.782  1.00  0.00     0.049 A 
ATOM     58  C   UNL A   1      43.603  30.256  34.043  1.00  0.00     0.074 A 
ATOM     59  C   UNL A   1      44.669  27.278  29.570  1.00  0.00     0.029 A 
ATOM     60  N   UNL A   1      43.366  26.434  31.159  1.00  0.00    -0.354 N 
ATOM     61  N   UNL A   1      43.753  29.250  33.225  1.00  0.00    -0.248 NA
ATOM     62  C   UNL A   1      44.072  29.950  35.389  1.00  0.00     0.031 C 
ATOM     63  C   UNL A   1      45.244  27.566  30.834  1.00  0.00     0.029 A 
ATOM     64  C   UNL A   1      44.424  27.035  31.814  1.00  0.00     0.049 A 
ATOM     65  H   UNL A   1      42.630  25.957  31.605  1.00  0.00     0.167 HD
ATOM     66  C   UNL A   1      44.300  28.182  33.894  1.00  0.00     0.074 A 
ATOM     67  C   UNL A   1      44.503  28.684  35.243  1.00  0.00     0.031 C 
ATOM     68  C   UNL A   1      44.526  26.983  33.269  1.00  0.00     0.034 A 
BRANCH  55  69
ATOM     69  C   UNL A   1      42.473  25.374  27.697  1.00  0.00     0.023 A 
ATOM     70  C   UNL A   1      41.967  24.056  27.749  1.00  0.00     0.031 A 
ATOM     71  C   UNL A   1      43.104  25.722  26.488  1.00  0.00     0.131 A 
ATOM     72  C   UNL A   1      42.197  23.133  26.710  1.00  0.00     0.055 A 
ATOM     73  C   UNL A   1      43.387  24.791  25.478  1.00  0.00     0.041 A 
ATOM     74  F   UNL A   1      43.426  26.992  26.202  1.00  0.00    -0.206 F 
ATOM     75  C   UNL A   1      42.945  23.483  25.592  1.00  0.00     0.022 A 
BRANCH  72  76
ATOM     76  S   UNL A   1      41.497  21.465  26.839  1.00  0.00     0.124 S 
ATOM     77  O   UNL A   1      40.081  21.736  27.057  1.00  0.00    -0.237 OA
ATOM     78  O   UNL A   1      41.854  20.879  25.551  1.00  0.00    -0.237 OA
ATOM     79  O   UNL A   1      42.197  20.893  27.989  1.00  0.00    -0.744 OA
ENDBRANCH  72  76
ENDBRANCH  55  69
BRANCH  56  80
ATOM     80  C   UNL A   1      41.968  32.344  34.410  1.00  0.00     0.023 A 
ATOM     81  C   UNL A   1      40.666  31.800  34.425  1.00  0.00     0.031 A 
ATOM     82  C   UNL A   1      42.303  33.274  35.402  1.00  0.00     0.131 A 
ATOM     83  C   UNL A   1      39.804  32.057  35.499  1.00  0.00     0.055 A 
ATOM     84  C   UNL A   1      41.413  33.577  36.441  1.00  0.00     0.041 A 
ATOM     85  F   UNL A   1      43.537  33.796  35.462  1.00  0.00    -0.206 F 
ATOM     86  C   UNL A   1      40.175  32.935  36.519  1.00  0.00     0.022 A 
BRANCH  83  87
ATOM     87  S   UNL A   1      38.318  31.023  35.677  1.00  0.00     0.124 S 
ATOM     88  O   UNL A   1      38.324  30.731  37.106  1.00  0.00    -0.237 OA
ATOM     89  O   UNL A   1      37.254  31.912  35.212  1.00  0.00    -0.237 OA
ATOM     90  O   UNL A   1      38.583  29.887  34.798  1.00  0.00    -0.744 OA
ENDBRANCH  83  87
ENDBRANCH  56  80
BRANCH  68  91
ATOM     91  C   UNL A   1      44.944  25.675  33.923  1.00  0.00     0.023 A 
ATOM     92  C   UNL A   1      46.276  25.263  34.074  1.00  0.00     0.031 A 
ATOM     93  C   UNL A   1      43.977  24.801  34.488  1.00  0.00     0.131 A 
ATOM     94  C   UNL A   1      46.602  24.030  34.676  1.00  0.00     0.055 A 
ATOM     95  C   UNL A   1      44.306  23.611  35.148  1.00  0.00     0.041 A 
ATOM     96  F   UNL A   1      42.664  25.065  34.439  1.00  0.00    -0.206 F 
ATOM     97  C   UNL A   1      45.627  23.209  35.233  1.00  0.00     0.022 A 
BRANCH  94  98
ATOM     98  S   UNL A   1      48.334  23.499  34.664  1.00  0.00     0.124 S 
ATOM     99  O   UNL A   1      48.211  22.074  34.368  1.00  0.00    -0.237 OA
ATOM    100  O   UNL A   1      48.905  24.318  33.600  1.00  0.00    -0.237 OA
ATOM    101  O   UNL A   1      48.803  23.814  36.011  1.00  0.00    -0.744 OA
ENDBRANCH  94  98
ENDBRANCH  68  91
ENDBRANCH  42  43
ENDBRANCH  34  37
ENDBRANCH  32  33
ENDBRANCH  31  32
ENDBRANCH   1  31
TORSDOF 20
ENDMDL
MODEL 3
REMARK VINA RESULT:     -11.6      4.040      9.459
REMARK SMILES COc1ccc([C@@H](C(=O)NCCCCCCNC(=O)c2ccc(-c3c4nc(c(-c5cc(S(=O)(=O)[O-])ccc5F)c5ccc([nH]5)c(-c5cc(S(=O)(=O)[O-])ccc5F)c5nc(c(-c6cc(S(=O)(=O)[O-])ccc6F)c6ccc3[nH]6)C=C5)C=C4)cc2)[NH+]2CCC(C(N)=O)CC2)c(C)c1
REMARK SMILES IDX 14 1 13 2 12 3 11 4 10 5 8 6 9 7 7 9 6 10 3 11 4 12 94 13
REMARK SMILES IDX 5 14 92 15 93 16 2 17 1 18 83 19 84 20 91 21 85 23 90 24
REMARK SMILES IDX 86 25 87 26 88 27 89 28 15 31 16 32 17 33 18 34 19 36 20 37
REMARK SMILES IDX 21 38 82 39 22 40 81 41 23 42 24 43 25 44 75 45 26 46 80 47
REMARK SMILES IDX 74 48 76 49 27 50 79 51 73 52 72 53 28 55 60 56 40 57 59 58
REMARK SMILES IDX 41 59 44 60 58 61 77 62 42 63 43 64 57 66 78 67 45 68 29 69
REMARK SMILES IDX 30 70 38 71 31 72 37 73 39 74 36 75 32 76 33 77 34 78 35 79
REMARK SMILES IDX 61 80 62 81 70 82 63 83 69 84 71 85 68 86 64 87 65 88 66 89
REMARK SMILES IDX 67 90 46 91 47 92 55 93 48 94 54 95 56 96 53 97 49 98 50 99
REMARK SMILES IDX 51 100 52 101
REMARK H PARENT 10 8 83 22 88 29 88 30 17 35 76 54 44 65
REMARK Flexibility Score: inf
ROOT
ATOM      1  C   UNL A   1      34.998  29.414  27.106  1.00  0.00     0.002 C 
ENDROOT
BRANCH   1   2
ATOM      2  C   UNL A   1      33.839  28.405  27.066  1.00  0.00     0.002 C 
BRANCH   2   3
ATOM      3  C   UNL A   1      33.596  27.671  25.738  1.00  0.00     0.021 C 
BRANCH   3   4
ATOM      4  C   UNL A   1      33.456  26.151  25.835  1.00  0.00     0.116 C 
BRANCH   4   5
ATOM      5  N   UNL A   1      34.565  25.445  25.226  1.00  0.00    -0.351 N 
ATOM      6  C   UNL A   1      34.595  24.523  24.214  1.00  0.00     0.283 C 
ATOM      7  O   UNL A   1      35.721  24.173  23.842  1.00  0.00    -0.268 OA
ATOM      8  H   UNL A   1      35.447  25.666  25.603  1.00  0.00     0.163 HD
BRANCH   6   9
ATOM      9  C   UNL A   1      33.274  24.032  23.538  1.00  0.00     0.305 C 
BRANCH   9  10
ATOM     10  C   UNL A   1      32.141  25.068  23.429  1.00  0.00     0.022 A 
ATOM     11  C   UNL A   1      29.925  26.845  23.499  1.00  0.00     0.119 A 
ATOM     12  C   UNL A   1      29.847  25.626  24.152  1.00  0.00     0.047 A 
ATOM     13  C   UNL A   1      31.080  27.158  22.783  1.00  0.00     0.050 A 
ATOM     14  C   UNL A   1      30.941  24.758  24.123  1.00  0.00     0.014 A 
ATOM     15  C   UNL A   1      32.192  26.289  22.726  1.00  0.00    -0.038 A 
ATOM     16  C   UNL A   1      33.366  26.795  21.932  1.00  0.00     0.045 C 
BRANCH  11  17
ATOM     17  O   UNL A   1      28.942  27.790  23.459  1.00  0.00    -0.497 OA
ATOM     18  C   UNL A   1      29.170  28.900  22.598  1.00  0.00     0.278 C 
ENDBRANCH  11  17
ENDBRANCH   9  10
BRANCH   9  19
ATOM     19  N   UNL A   1      32.847  22.677  24.038  1.00  0.00    -0.321 N 
ATOM     20  C   UNL A   1      32.937  21.613  23.031  1.00  0.00     0.263 C 
ATOM     21  C   UNL A   1      33.513  22.302  25.291  1.00  0.00     0.263 C 
ATOM     22  H   UNL A   1      31.853  22.777  24.241  1.00  0.00     0.349 HD
ATOM     23  C   UNL A   1      32.364  20.291  23.548  1.00  0.00     0.075 C 
ATOM     24  C   UNL A   1      32.969  20.986  25.858  1.00  0.00     0.075 C 
ATOM     25  C   UNL A   1      33.093  19.873  24.821  1.00  0.00     0.089 C 
BRANCH  25  26
ATOM     26  C   UNL A   1      32.543  18.557  25.336  1.00  0.00     0.220 C 
ATOM     27  N   UNL A   1      32.819  18.304  26.649  1.00  0.00    -0.369 N 
ATOM     28  O   UNL A   1      31.918  17.747  24.661  1.00  0.00    -0.275 OA
ATOM     29  H   UNL A   1      33.323  18.962  27.182  1.00  0.00     0.159 HD
ATOM     30  H   UNL A   1      32.516  17.465  27.063  1.00  0.00     0.159 HD
ENDBRANCH  25  26
ENDBRANCH   9  19
ENDBRANCH   6   9
ENDBRANCH   4   5
ENDBRANCH   3   4
ENDBRANCH   2   3
ENDBRANCH   1   2
BRANCH   1  31
ATOM     31  C   UNL A   1      34.616  30.871  27.370  1.00  0.00     0.021 C 
BRANCH  31  32
ATOM     32  C   UNL A   1      34.611  31.261  28.844  1.00  0.00     0.116 C 
BRANCH  32  33
ATOM     33  N   UNL A   1      33.892  32.497  29.138  1.00  0.00    -0.352 N 
ATOM     34  C   UNL A   1      34.345  33.621  29.815  1.00  0.00     0.251 C 
ATOM     35  H   UNL A   1      32.963  32.539  28.814  1.00  0.00     0.163 HD
ATOM     36  O   UNL A   1      33.619  34.576  30.033  1.00  0.00    -0.269 OA
BRANCH  34  37
ATOM     37  C   UNL A   1      35.780  33.682  30.182  1.00  0.00     0.039 A 
ATOM     38  C   UNL A   1      36.692  34.046  29.186  1.00  0.00     0.014 A 
ATOM     39  C   UNL A   1      36.218  33.133  31.382  1.00  0.00     0.014 A 
ATOM     40  C   UNL A   1      38.017  33.629  29.295  1.00  0.00     0.010 A 
ATOM     41  C   UNL A   1      37.498  32.621  31.438  1.00  0.00     0.010 A 
ATOM     42  C   UNL A   1      38.379  32.813  30.366  1.00  0.00    -0.014 A 
BRANCH  42  43
ATOM     43  C   UNL A   1      39.582  31.986  30.367  1.00  0.00     0.031 A 
ATOM     44  C   UNL A   1      39.591  30.647  29.742  1.00  0.00     0.074 A 
ATOM     45  C   UNL A   1      40.737  32.492  30.858  1.00  0.00     0.049 A 
ATOM     46  N   UNL A   1      40.440  29.717  30.027  1.00  0.00    -0.248 NA
ATOM     47  C   UNL A   1      38.600  30.229  28.758  1.00  0.00     0.031 C 
ATOM     48  C   UNL A   1      42.085  31.963  30.673  1.00  0.00     0.029 A 
ATOM     49  N   UNL A   1      40.881  33.474  31.837  1.00  0.00    -0.354 N 
ATOM     50  C   UNL A   1      40.316  28.727  29.081  1.00  0.00     0.074 A 
ATOM     51  C   UNL A   1      39.109  29.060  28.359  1.00  0.00     0.031 C 
ATOM     52  C   UNL A   1      42.869  32.415  31.662  1.00  0.00     0.029 A 
ATOM     53  C   UNL A   1      42.021  33.139  32.591  1.00  0.00     0.049 A 
ATOM     54  H   UNL A   1      40.297  34.253  31.976  1.00  0.00     0.167 HD
ATOM     55  C   UNL A   1      41.323  27.821  28.923  1.00  0.00     0.034 A 
ATOM     56  C   UNL A   1      41.937  32.894  33.929  1.00  0.00     0.034 A 
ATOM     57  C   UNL A   1      42.382  28.010  29.915  1.00  0.00     0.049 A 
ATOM     58  C   UNL A   1      42.370  31.500  34.322  1.00  0.00     0.074 A 
ATOM     59  C   UNL A   1      43.640  28.588  29.858  1.00  0.00     0.029 A 
ATOM     60  N   UNL A   1      42.102  27.816  31.264  1.00  0.00    -0.354 N 
ATOM     61  N   UNL A   1      42.517  30.512  33.481  1.00  0.00    -0.248 NA
ATOM     62  C   UNL A   1      42.661  31.105  35.695  1.00  0.00     0.031 C 
ATOM     63  C   UNL A   1      44.099  28.778  31.187  1.00  0.00     0.029 A 
ATOM     64  C   UNL A   1      43.133  28.293  32.052  1.00  0.00     0.049 A 
ATOM     65  H   UNL A   1      41.282  27.397  31.610  1.00  0.00     0.167 HD
ATOM     66  C   UNL A   1      42.890  29.376  34.156  1.00  0.00     0.074 A 
ATOM     67  C   UNL A   1      42.990  29.810  35.539  1.00  0.00     0.031 C 
ATOM     68  C   UNL A   1      43.073  28.183  33.505  1.00  0.00     0.034 A 
BRANCH  55  69
ATOM     69  C   UNL A   1      41.496  26.963  27.685  1.00  0.00     0.023 A 
ATOM     70  C   UNL A   1      41.496  25.557  27.812  1.00  0.00     0.031 A 
ATOM     71  C   UNL A   1      41.711  27.444  26.379  1.00  0.00     0.131 A 
ATOM     72  C   UNL A   1      41.815  24.716  26.728  1.00  0.00     0.055 A 
ATOM     73  C   UNL A   1      42.087  26.614  25.313  1.00  0.00     0.041 A 
ATOM     74  F   UNL A   1      41.512  28.731  26.061  1.00  0.00    -0.206 F 
ATOM     75  C   UNL A   1      42.155  25.242  25.487  1.00  0.00     0.022 A 
BRANCH  72  76
ATOM     76  S   UNL A   1      41.774  22.917  26.963  1.00  0.00     0.124 S 
ATOM     77  O   UNL A   1      42.605  22.440  25.863  1.00  0.00    -0.237 OA
ATOM     78  O   UNL A   1      42.327  22.768  28.304  1.00  0.00    -0.237 OA
ATOM     79  O   UNL A   1      40.352  22.593  26.844  1.00  0.00    -0.744 OA
ENDBRANCH  72  76
ENDBRANCH  55  69
BRANCH  56  80
ATOM     80  C   UNL A   1      40.900  33.719  34.607  1.00  0.00     0.023 A 
ATOM     81  C   UNL A   1      39.765  33.036  35.097  1.00  0.00     0.031 A 
ATOM     82  C   UNL A   1      41.182  34.986  35.132  1.00  0.00     0.131 A 
ATOM     83  C   UNL A   1      39.052  33.543  36.191  1.00  0.00     0.055 A 
ATOM     84  C   UNL A   1      40.426  35.518  36.186  1.00  0.00     0.041 A 
ATOM     85  F   UNL A   1      42.267  35.666  34.733  1.00  0.00    -0.206 F 
ATOM     86  C   UNL A   1      39.385  34.778  36.750  1.00  0.00     0.022 A 
BRANCH  83  87
ATOM     87  S   UNL A   1      37.873  32.445  37.035  1.00  0.00     0.124 S 
ATOM     88  O   UNL A   1      37.729  31.360  36.070  1.00  0.00    -0.237 OA
ATOM     89  O   UNL A   1      38.577  32.111  38.271  1.00  0.00    -0.237 OA
ATOM     90  O   UNL A   1      36.693  33.286  37.220  1.00  0.00    -0.744 OA
ENDBRANCH  83  87
ENDBRANCH  56  80
BRANCH  68  91
ATOM     91  C   UNL A   1      43.299  26.820  34.142  1.00  0.00     0.023 A 
ATOM     92  C   UNL A   1      44.538  26.164  34.177  1.00  0.00     0.031 A 
ATOM     93  C   UNL A   1      42.243  26.143  34.809  1.00  0.00     0.131 A 
ATOM     94  C   UNL A   1      44.682  24.892  34.769  1.00  0.00     0.055 A 
ATOM     95  C   UNL A   1      42.404  24.913  35.457  1.00  0.00     0.041 A 
ATOM     96  F   UNL A   1      41.004  26.649  34.877  1.00  0.00    -0.206 F 
ATOM     97  C   UNL A   1      43.628  24.270  35.427  1.00  0.00     0.022 A 
BRANCH  94  98
ATOM     98  S   UNL A   1      46.277  24.046  34.607  1.00  0.00     0.124 S 
ATOM     99  O   UNL A   1      46.912  24.803  33.532  1.00  0.00    -0.237 OA
ATOM    100  O   UNL A   1      46.860  24.220  35.933  1.00  0.00    -0.237 OA
ATOM    101  O   UNL A   1      45.908  22.674  34.264  1.00  0.00    -0.744 OA
ENDBRANCH  94  98
ENDBRANCH  68  91
ENDBRANCH  42  43
ENDBRANCH  34  37
ENDBRANCH  32  33
ENDBRANCH  31  32
ENDBRANCH   1  31
TORSDOF 20
ENDMDL
