MODEL 1
REMARK VINA RESULT:     -11.8      0.000      0.000
REMARK SMILES C[C@H]1[C@H]([NH+]2CCC(CC(=O)NCCCCCCNC(=O)c3ccc(-c4c5nc(c(-c6cc(S(=O)(=O)[O-])ccc6F)c6ccc([nH]6)c(-c6cc(S(=O)(=O)[O-])ccc6F)c6nc(c(-c7cc(S(=O)(=O)[O-])ccc7F)c7ccc4[nH]7)C=C6)C=C5)cc3)CC2)CCC[C@@H]1C
REMARK SMILES IDX 15 1 14 2 13 3 12 4 11 5 9 6 10 7 8 9 7 10 4 11 5 12 85 13
REMARK SMILES IDX 6 15 84 16 3 17 1 18 2 19 89 20 86 21 88 22 90 23 87 24
REMARK SMILES IDX 16 25 17 26 18 27 19 28 20 30 21 31 22 32 83 33 23 34 82 35
REMARK SMILES IDX 24 36 25 37 26 38 76 39 27 40 81 41 75 42 77 43 28 44 80 45
REMARK SMILES IDX 74 46 73 47 29 49 61 50 41 51 60 52 42 53 45 54 59 55 78 56
REMARK SMILES IDX 43 57 44 58 58 60 79 61 46 62 30 63 31 64 39 65 32 66 38 67
REMARK SMILES IDX 40 68 37 69 33 70 34 71 35 72 36 73 62 74 63 75 71 76 64 77
REMARK SMILES IDX 70 78 72 79 69 80 65 81 66 82 67 83 68 84 47 85 48 86 56 87
REMARK SMILES IDX 49 88 55 89 57 90 54 91 50 92 51 93 52 94 53 95
REMARK H PARENT 11 8 4 14 18 29 77 48 45 59
REMARK Flexibility Score: inf
ROOT
ATOM      1  C   UNL A   1      32.397  30.090  25.554  1.00  0.00     0.002 C 
ENDROOT
BRANCH   1   2
ATOM      2  C   UNL A   1      31.709  28.724  25.633  1.00  0.00     0.002 C 
BRANCH   2   3
ATOM      3  C   UNL A   1      32.186  27.848  26.788  1.00  0.00     0.021 C 
BRANCH   3   4
ATOM      4  C   UNL A   1      32.690  26.464  26.358  1.00  0.00     0.116 C 
BRANCH   4   5
ATOM      5  N   UNL A   1      31.748  25.420  26.729  1.00  0.00    -0.356 N 
ATOM      6  C   UNL A   1      30.620  24.968  26.110  1.00  0.00     0.220 C 
ATOM      7  O   UNL A   1      29.969  24.083  26.671  1.00  0.00    -0.275 OA
ATOM      8  H   UNL A   1      31.961  24.961  27.574  1.00  0.00     0.163 HD
BRANCH   6   9
ATOM      9  C   UNL A   1      30.182  25.504  24.757  1.00  0.00     0.104 C 
BRANCH   9  10
ATOM     10  C   UNL A   1      30.814  24.800  23.528  1.00  0.00     0.009 C 
ATOM     11  N   UNL A   1      33.318  23.223  23.198  1.00  0.00    -0.332 N 
ATOM     12  C   UNL A   1      32.020  22.569  23.084  1.00  0.00     0.262 C 
ATOM     13  C   UNL A   1      33.270  24.550  22.613  1.00  0.00     0.262 C 
ATOM     14  H   UNL A   1      33.942  22.659  22.622  1.00  0.00     0.348 HD
ATOM     15  C   UNL A   1      30.889  23.290  23.804  1.00  0.00     0.066 C 
ATOM     16  C   UNL A   1      32.165  25.433  23.180  1.00  0.00     0.066 C 
BRANCH  11  17
ATOM     17  C   UNL A   1      34.218  22.958  24.350  1.00  0.00     0.187 C 
ATOM     18  C   UNL A   1      34.159  20.429  24.880  1.00  0.00     0.014 C 
ATOM     19  C   UNL A   1      35.019  21.607  24.386  1.00  0.00     0.047 C 
ATOM     20  C   UNL A   1      36.311  21.595  25.258  1.00  0.00    -0.006 C 
ATOM     21  C   UNL A   1      35.104  24.214  24.535  1.00  0.00     0.065 C 
ATOM     22  C   UNL A   1      37.096  22.898  25.189  1.00  0.00     0.004 C 
ATOM     23  C   UNL A   1      37.220  20.414  24.884  1.00  0.00     0.008 C 
ATOM     24  C   UNL A   1      36.192  24.053  25.580  1.00  0.00     0.006 C 
ENDBRANCH  11  17
ENDBRANCH   9  10
ENDBRANCH   6   9
ENDBRANCH   4   5
ENDBRANCH   3   4
ENDBRANCH   2   3
ENDBRANCH   1   2
BRANCH   1  25
ATOM     25  C   UNL A   1      31.911  31.136  26.565  1.00  0.00     0.021 C 
BRANCH  25  26
ATOM     26  C   UNL A   1      33.010  31.787  27.404  1.00  0.00     0.116 C 
BRANCH  26  27
ATOM     27  N   UNL A   1      32.788  33.215  27.576  1.00  0.00    -0.352 N 
ATOM     28  C   UNL A   1      33.328  34.083  28.493  1.00  0.00     0.251 C 
ATOM     29  H   UNL A   1      32.154  33.619  26.941  1.00  0.00     0.163 HD
ATOM     30  O   UNL A   1      32.830  35.192  28.650  1.00  0.00    -0.269 OA
BRANCH  28  31
ATOM     31  C   UNL A   1      34.498  33.667  29.296  1.00  0.00     0.039 A 
ATOM     32  C   UNL A   1      34.306  32.829  30.396  1.00  0.00     0.014 A 
ATOM     33  C   UNL A   1      35.781  34.110  28.961  1.00  0.00     0.014 A 
ATOM     34  C   UNL A   1      35.412  32.370  31.114  1.00  0.00     0.010 A 
ATOM     35  C   UNL A   1      36.886  33.597  29.635  1.00  0.00     0.010 A 
ATOM     36  C   UNL A   1      36.714  32.714  30.712  1.00  0.00    -0.014 A 
BRANCH  36  37
ATOM     37  C   UNL A   1      37.910  32.141  31.384  1.00  0.00     0.031 A 
ATOM     38  C   UNL A   1      38.681  31.027  30.733  1.00  0.00     0.074 A 
ATOM     39  C   UNL A   1      38.250  32.574  32.614  1.00  0.00     0.049 A 
ATOM     40  N   UNL A   1      39.682  30.329  31.203  1.00  0.00    -0.248 NA
ATOM     41  C   UNL A   1      38.252  30.630  29.383  1.00  0.00     0.031 C 
ATOM     42  C   UNL A   1      37.559  33.631  33.357  1.00  0.00     0.029 A 
ATOM     43  N   UNL A   1      39.252  32.176  33.463  1.00  0.00    -0.354 N 
ATOM     44  C   UNL A   1      39.999  29.404  30.213  1.00  0.00     0.074 A 
ATOM     45  C   UNL A   1      39.044  29.595  29.143  1.00  0.00     0.031 C 
ATOM     46  C   UNL A   1      38.169  33.810  34.538  1.00  0.00     0.029 A 
ATOM     47  C   UNL A   1      39.255  32.844  34.666  1.00  0.00     0.049 A 
ATOM     48  H   UNL A   1      39.905  31.476  33.234  1.00  0.00     0.167 HD
ATOM     49  C   UNL A   1      41.007  28.497  30.195  1.00  0.00     0.034 A 
ATOM     50  C   UNL A   1      40.029  32.681  35.759  1.00  0.00     0.034 A 
ATOM     51  C   UNL A   1      41.950  28.324  31.273  1.00  0.00     0.049 A 
ATOM     52  C   UNL A   1      41.101  31.620  35.739  1.00  0.00     0.074 A 
ATOM     53  C   UNL A   1      43.040  27.473  31.335  1.00  0.00     0.029 A 
ATOM     54  N   UNL A   1      41.908  29.002  32.485  1.00  0.00    -0.354 N 
ATOM     55  N   UNL A   1      41.420  30.787  34.774  1.00  0.00    -0.248 NA
ATOM     56  C   UNL A   1      41.917  31.477  36.951  1.00  0.00     0.031 C 
ATOM     57  C   UNL A   1      43.604  27.575  32.611  1.00  0.00     0.029 A 
ATOM     58  C   UNL A   1      42.924  28.554  33.317  1.00  0.00     0.049 A 
ATOM     59  H   UNL A   1      41.252  29.698  32.720  1.00  0.00     0.167 HD
ATOM     60  C   UNL A   1      42.493  30.043  35.256  1.00  0.00     0.074 A 
ATOM     61  C   UNL A   1      42.776  30.535  36.589  1.00  0.00     0.031 C 
ATOM     62  C   UNL A   1      43.185  29.044  34.650  1.00  0.00     0.034 A 
BRANCH  49  63
ATOM     63  C   UNL A   1      41.118  27.603  28.981  1.00  0.00     0.023 A 
ATOM     64  C   UNL A   1      42.109  27.804  28.005  1.00  0.00     0.031 A 
ATOM     65  C   UNL A   1      40.212  26.545  28.791  1.00  0.00     0.131 A 
ATOM     66  C   UNL A   1      42.125  27.009  26.848  1.00  0.00     0.055 A 
ATOM     67  C   UNL A   1      40.286  25.702  27.679  1.00  0.00     0.041 A 
ATOM     68  F   UNL A   1      39.230  26.316  29.676  1.00  0.00    -0.206 F 
ATOM     69  C   UNL A   1      41.238  25.942  26.692  1.00  0.00     0.022 A 
BRANCH  66  70
ATOM     70  S   UNL A   1      43.225  27.485  25.488  1.00  0.00     0.124 S 
ATOM     71  O   UNL A   1      42.305  28.190  24.598  1.00  0.00    -0.237 OA
ATOM     72  O   UNL A   1      44.221  28.310  26.162  1.00  0.00    -0.237 OA
ATOM     73  O   UNL A   1      43.715  26.204  24.979  1.00  0.00    -0.744 OA
ENDBRANCH  66  70
ENDBRANCH  49  63
BRANCH  50  74
ATOM     74  C   UNL A   1      39.808  33.518  36.974  1.00  0.00     0.023 A 
ATOM     75  C   UNL A   1      39.170  32.992  38.108  1.00  0.00     0.031 A 
ATOM     76  C   UNL A   1      40.190  34.872  37.003  1.00  0.00     0.131 A 
ATOM     77  C   UNL A   1      38.890  33.823  39.203  1.00  0.00     0.055 A 
ATOM     78  C   UNL A   1      39.964  35.679  38.119  1.00  0.00     0.041 A 
ATOM     79  F   UNL A   1      40.803  35.429  35.947  1.00  0.00    -0.206 F 
ATOM     80  C   UNL A   1      39.297  35.159  39.224  1.00  0.00     0.022 A 
BRANCH  77  81
ATOM     81  S   UNL A   1      37.896  33.157  40.566  1.00  0.00     0.124 S 
ATOM     82  O   UNL A   1      38.121  34.151  41.609  1.00  0.00    -0.237 OA
ATOM     83  O   UNL A   1      36.560  33.130  39.981  1.00  0.00    -0.237 OA
ATOM     84  O   UNL A   1      38.493  31.846  40.813  1.00  0.00    -0.744 OA
ENDBRANCH  77  81
ENDBRANCH  50  74
BRANCH  62  85
ATOM     85  C   UNL A   1      44.340  28.443  35.415  1.00  0.00     0.023 A 
ATOM     86  C   UNL A   1      44.142  27.478  36.416  1.00  0.00     0.031 A 
ATOM     87  C   UNL A   1      45.659  28.836  35.125  1.00  0.00     0.131 A 
ATOM     88  C   UNL A   1      45.242  26.971  37.125  1.00  0.00     0.055 A 
ATOM     89  C   UNL A   1      46.754  28.282  35.790  1.00  0.00     0.041 A 
ATOM     90  F   UNL A   1      45.907  29.757  34.180  1.00  0.00    -0.206 F 
ATOM     91  C   UNL A   1      46.548  27.351  36.804  1.00  0.00     0.022 A 
BRANCH  88  92
ATOM     92  S   UNL A   1      44.939  25.863  38.529  1.00  0.00     0.124 S 
ATOM     93  O   UNL A   1      46.226  25.887  39.216  1.00  0.00    -0.237 OA
ATOM     94  O   UNL A   1      43.837  26.526  39.219  1.00  0.00    -0.237 OA
ATOM     95  O   UNL A   1      44.597  24.591  37.894  1.00  0.00    -0.744 OA
ENDBRANCH  88  92
ENDBRANCH  62  85
ENDBRANCH  36  37
ENDBRANCH  28  31
ENDBRANCH  26  27
ENDBRANCH  25  26
ENDBRANCH   1  25
TORSDOF 18
ENDMDL
MODEL 2
REMARK VINA RESULT:     -11.7      2.431      3.466
REMARK SMILES C[C@H]1[C@H]([NH+]2CCC(CC(=O)NCCCCCCNC(=O)c3ccc(-c4c5nc(c(-c6cc(S(=O)(=O)[O-])ccc6F)c6ccc([nH]6)c(-c6cc(S(=O)(=O)[O-])ccc6F)c6nc(c(-c7cc(S(=O)(=O)[O-])ccc7F)c7ccc4[nH]7)C=C6)C=C5)cc3)CC2)CCC[C@@H]1C
REMARK SMILES IDX 15 1 14 2 13 3 12 4 11 5 9 6 10 7 8 9 7 10 4 11 5 12 85 13
REMARK SMILES IDX 6 15 84 16 3 17 1 18 2 19 89 20 86 21 88 22 90 23 87 24
REMARK SMILES IDX 16 25 17 26 18 27 19 28 20 30 21 31 22 32 83 33 23 34 82 35
REMARK SMILES IDX 24 36 25 37 26 38 76 39 27 40 81 41 75 42 77 43 28 44 80 45
REMARK SMILES IDX 74 46 73 47 29 49 61 50 41 51 60 52 42 53 45 54 59 55 78 56
REMARK SMILES IDX 43 57 44 58 58 60 79 61 46 62 30 63 31 64 39 65 32 66 38 67
REMARK SMILES IDX 40 68 37 69 33 70 34 71 35 72 36 73 62 74 63 75 71 76 64 77
REMARK SMILES IDX 70 78 72 79 69 80 65 81 66 82 67 83 68 84 47 85 48 86 56 87
REMARK SMILES IDX 49 88 55 89 57 90 54 91 50 92 51 93 52 94 53 95
REMARK H PARENT 11 8 4 14 18 29 77 48 45 59
REMARK Flexibility Score: inf
ROOT
ATOM      1  C   UNL A   1      31.622  27.163  25.512  1.00  0.00     0.002 C 
ENDROOT
BRANCH   1   2
ATOM      2  C   UNL A   1      30.330  26.538  24.979  1.00  0.00     0.002 C 
BRANCH   2   3
ATOM      3  C   UNL A   1      30.530  25.617  23.778  1.00  0.00     0.021 C 
BRANCH   3   4
ATOM      4  C   UNL A   1      31.613  26.089  22.799  1.00  0.00     0.116 C 
BRANCH   4   5
ATOM      5  N   UNL A   1      32.480  24.990  22.400  1.00  0.00    -0.356 N 
ATOM      6  C   UNL A   1      33.639  24.519  22.942  1.00  0.00     0.220 C 
ATOM      7  O   UNL A   1      34.204  23.583  22.371  1.00  0.00    -0.275 OA
ATOM      8  H   UNL A   1      32.175  24.502  21.601  1.00  0.00     0.163 HD
BRANCH   6   9
ATOM      9  C   UNL A   1      34.214  25.098  24.225  1.00  0.00     0.104 C 
BRANCH   9  10
ATOM     10  C   UNL A   1      34.107  24.184  25.472  1.00  0.00     0.009 C 
ATOM     11  N   UNL A   1      33.878  21.229  25.769  1.00  0.00    -0.332 N 
ATOM     12  C   UNL A   1      35.089  21.917  26.201  1.00  0.00     0.262 C 
ATOM     13  C   UNL A   1      32.707  22.034  26.062  1.00  0.00     0.262 C 
ATOM     14  H   UNL A   1      33.830  20.398  26.358  1.00  0.00     0.348 HD
ATOM     15  C   UNL A   1      35.330  23.253  25.512  1.00  0.00     0.066 C 
ATOM     16  C   UNL A   1      32.767  23.442  25.484  1.00  0.00     0.066 C 
BRANCH  11  17
ATOM     17  C   UNL A   1      33.879  20.334  24.584  1.00  0.00     0.187 C 
ATOM     18  C   UNL A   1      35.921  18.756  24.741  1.00  0.00     0.014 C 
ATOM     19  C   UNL A   1      34.383  18.857  24.755  1.00  0.00     0.047 C 
ATOM     20  C   UNL A   1      33.874  17.827  23.701  1.00  0.00    -0.006 C 
ATOM     21  C   UNL A   1      32.481  20.445  23.928  1.00  0.00     0.065 C 
ATOM     22  C   UNL A   1      32.424  18.053  23.292  1.00  0.00     0.004 C 
ATOM     23  C   UNL A   1      34.061  16.386  24.199  1.00  0.00     0.008 C 
ATOM     24  C   UNL A   1      32.259  19.473  22.784  1.00  0.00     0.006 C 
ENDBRANCH  11  17
ENDBRANCH   9  10
ENDBRANCH   6   9
ENDBRANCH   4   5
ENDBRANCH   3   4
ENDBRANCH   2   3
ENDBRANCH   1   2
BRANCH   1  25
ATOM     25  C   UNL A   1      31.689  28.694  25.455  1.00  0.00     0.021 C 
BRANCH  25  26
ATOM     26  C   UNL A   1      32.341  29.361  26.666  1.00  0.00     0.116 C 
BRANCH  26  27
ATOM     27  N   UNL A   1      32.230  30.811  26.613  1.00  0.00    -0.352 N 
ATOM     28  C   UNL A   1      33.022  31.774  27.190  1.00  0.00     0.251 C 
ATOM     29  H   UNL A   1      31.473  31.153  26.085  1.00  0.00     0.163 HD
ATOM     30  O   UNL A   1      32.627  32.933  27.250  1.00  0.00    -0.269 OA
BRANCH  28  31
ATOM     31  C   UNL A   1      34.339  31.402  27.749  1.00  0.00     0.039 A 
ATOM     32  C   UNL A   1      35.326  32.381  27.877  1.00  0.00     0.014 A 
ATOM     33  C   UNL A   1      34.596  30.084  28.141  1.00  0.00     0.014 A 
ATOM     34  C   UNL A   1      36.546  32.056  28.474  1.00  0.00     0.010 A 
ATOM     35  C   UNL A   1      35.786  29.779  28.796  1.00  0.00     0.010 A 
ATOM     36  C   UNL A   1      36.770  30.764  28.979  1.00  0.00    -0.014 A 
BRANCH  36  37
ATOM     37  C   UNL A   1      38.009  30.427  29.726  1.00  0.00     0.031 A 
ATOM     38  C   UNL A   1      39.008  29.468  29.140  1.00  0.00     0.074 A 
ATOM     39  C   UNL A   1      38.193  30.927  30.963  1.00  0.00     0.049 A 
ATOM     40  N   UNL A   1      40.091  28.969  29.679  1.00  0.00    -0.248 NA
ATOM     41  C   UNL A   1      38.736  28.985  27.778  1.00  0.00     0.031 C 
ATOM     42  C   UNL A   1      37.280  31.846  31.646  1.00  0.00     0.029 A 
ATOM     43  N   UNL A   1      39.201  30.728  31.875  1.00  0.00    -0.354 N 
ATOM     44  C   UNL A   1      40.627  28.109  28.727  1.00  0.00     0.074 A 
ATOM     45  C   UNL A   1      39.716  28.111  27.602  1.00  0.00     0.031 C 
ATOM     46  C   UNL A   1      37.778  32.146  32.856  1.00  0.00     0.029 A 
ATOM     47  C   UNL A   1      39.013  31.397  33.062  1.00  0.00     0.049 A 
ATOM     48  H   UNL A   1      39.983  30.157  31.695  1.00  0.00     0.167 HD
ATOM     49  C   UNL A   1      41.783  27.402  28.782  1.00  0.00     0.034 A 
ATOM     50  C   UNL A   1      39.739  31.390  34.199  1.00  0.00     0.034 A 
ATOM     51  C   UNL A   1      42.679  27.415  29.913  1.00  0.00     0.049 A 
ATOM     52  C   UNL A   1      40.986  30.543  34.258  1.00  0.00     0.074 A 
ATOM     53  C   UNL A   1      43.900  26.779  30.051  1.00  0.00     0.029 A 
ATOM     54  N   UNL A   1      42.443  28.086  31.107  1.00  0.00    -0.354 N 
ATOM     55  N   UNL A   1      41.507  29.774  33.329  1.00  0.00    -0.248 NA
ATOM     56  C   UNL A   1      41.744  30.564  35.516  1.00  0.00     0.031 C 
ATOM     57  C   UNL A   1      44.362  26.996  31.354  1.00  0.00     0.029 A 
ATOM     58  C   UNL A   1      43.475  27.840  32.002  1.00  0.00     0.049 A 
ATOM     59  H   UNL A   1      41.659  28.652  31.291  1.00  0.00     0.167 HD
ATOM     60  C   UNL A   1      42.669  29.243  33.884  1.00  0.00     0.074 A 
ATOM     61  C   UNL A   1      42.780  29.793  35.220  1.00  0.00     0.031 C 
ATOM     62  C   UNL A   1      43.565  28.383  33.337  1.00  0.00     0.034 A 
BRANCH  49  63
ATOM     63  C   UNL A   1      42.125  26.532  27.594  1.00  0.00     0.023 A 
ATOM     64  C   UNL A   1      41.717  25.189  27.520  1.00  0.00     0.031 A 
ATOM     65  C   UNL A   1      42.884  27.049  26.528  1.00  0.00     0.131 A 
ATOM     66  C   UNL A   1      42.130  24.390  26.442  1.00  0.00     0.055 A 
ATOM     67  C   UNL A   1      43.219  26.271  25.417  1.00  0.00     0.041 A 
ATOM     68  F   UNL A   1      43.322  28.316  26.551  1.00  0.00    -0.206 F 
ATOM     69  C   UNL A   1      42.854  24.928  25.377  1.00  0.00     0.022 A 
BRANCH  66  70
ATOM     70  S   UNL A   1      41.832  22.603  26.529  1.00  0.00     0.124 S 
ATOM     71  O   UNL A   1      42.515  22.131  25.327  1.00  0.00    -0.237 OA
ATOM     72  O   UNL A   1      42.450  22.242  27.800  1.00  0.00    -0.237 OA
ATOM     73  O   UNL A   1      40.374  22.496  26.491  1.00  0.00    -0.744 OA
ENDBRANCH  66  70
ENDBRANCH  49  63
BRANCH  50  74
ATOM     74  C   UNL A   1      39.300  32.183  35.383  1.00  0.00     0.023 A 
ATOM     75  C   UNL A   1      39.740  33.502  35.573  1.00  0.00     0.031 A 
ATOM     76  C   UNL A   1      38.468  31.618  36.368  1.00  0.00     0.131 A 
ATOM     77  C   UNL A   1      39.389  34.196  36.741  1.00  0.00     0.055 A 
ATOM     78  C   UNL A   1      38.072  32.334  37.498  1.00  0.00     0.041 A 
ATOM     79  F   UNL A   1      38.017  30.361  36.238  1.00  0.00    -0.206 F 
ATOM     80  C   UNL A   1      38.544  33.628  37.697  1.00  0.00     0.022 A 
BRANCH  77  81
ATOM     81  S   UNL A   1      40.133  35.823  37.041  1.00  0.00     0.124 S 
ATOM     82  O   UNL A   1      39.663  36.580  35.886  1.00  0.00    -0.237 OA
ATOM     83  O   UNL A   1      39.553  36.188  38.328  1.00  0.00    -0.237 OA
ATOM     84  O   UNL A   1      41.567  35.542  37.062  1.00  0.00    -0.744 OA
ENDBRANCH  77  81
ENDBRANCH  50  74
BRANCH  62  85
ATOM     85  C   UNL A   1      44.765  28.012  34.175  1.00  0.00     0.023 A 
ATOM     86  C   UNL A   1      44.767  26.876  35.002  1.00  0.00     0.031 A 
ATOM     87  C   UNL A   1      45.927  28.803  34.136  1.00  0.00     0.131 A 
ATOM     88  C   UNL A   1      45.891  26.587  35.790  1.00  0.00     0.055 A 
ATOM     89  C   UNL A   1      47.065  28.476  34.873  1.00  0.00     0.041 A 
ATOM     90  F   UNL A   1      45.979  29.902  33.366  1.00  0.00    -0.206 F 
ATOM     91  C   UNL A   1      47.048  27.368  35.715  1.00  0.00     0.022 A 
BRANCH  88  92
ATOM     92  S   UNL A   1      45.797  25.218  36.977  1.00  0.00     0.124 S 
ATOM     93  O   UNL A   1      45.979  24.056  36.113  1.00  0.00    -0.237 OA
ATOM     94  O   UNL A   1      46.899  25.515  37.886  1.00  0.00    -0.237 OA
ATOM     95  O   UNL A   1      44.462  25.359  37.556  1.00  0.00    -0.744 OA
ENDBRANCH  88  92
ENDBRANCH  62  85
ENDBRANCH  36  37
ENDBRANCH  28  31
ENDBRANCH  26  27
ENDBRANCH  25  26
ENDBRANCH   1  25
TORSDOF 18
ENDMDL
MODEL 3
REMARK VINA RESULT:     -11.7      3.451      8.250
REMARK SMILES C[C@H]1[C@H]([NH+]2CCC(CC(=O)NCCCCCCNC(=O)c3ccc(-c4c5nc(c(-c6cc(S(=O)(=O)[O-])ccc6F)c6ccc([nH]6)c(-c6cc(S(=O)(=O)[O-])ccc6F)c6nc(c(-c7cc(S(=O)(=O)[O-])ccc7F)c7ccc4[nH]7)C=C6)C=C5)cc3)CC2)CCC[C@@H]1C
REMARK SMILES IDX 15 1 14 2 13 3 12 4 11 5 9 6 10 7 8 9 7 10 4 11 5 12 85 13
REMARK SMILES IDX 6 15 84 16 3 17 1 18 2 19 89 20 86 21 88 22 90 23 87 24
REMARK SMILES IDX 16 25 17 26 18 27 19 28 20 30 21 31 22 32 83 33 23 34 82 35
REMARK SMILES IDX 24 36 25 37 26 38 76 39 27 40 81 41 75 42 77 43 28 44 80 45
REMARK SMILES IDX 74 46 73 47 29 49 61 50 41 51 60 52 42 53 45 54 59 55 78 56
REMARK SMILES IDX 43 57 44 58 58 60 79 61 46 62 30 63 31 64 39 65 32 66 38 67
REMARK SMILES IDX 40 68 37 69 33 70 34 71 35 72 36 73 62 74 63 75 71 76 64 77
REMARK SMILES IDX 70 78 72 79 69 80 65 81 66 82 67 83 68 84 47 85 48 86 56 87
REMARK SMILES IDX 49 88 55 89 57 90 54 91 50 92 51 93 52 94 53 95
REMARK H PARENT 11 8 4 14 18 29 77 48 45 59
REMARK Flexibility Score: inf
ROOT
ATOM      1  C   UNL A   1      32.113  29.097  24.907  1.00  0.00     0.002 C 
ENDROOT
BRANCH   1   2
ATOM      2  C   UNL A   1      31.198  28.280  23.992  1.00  0.00     0.002 C 
BRANCH   2   3
ATOM      3  C   UNL A   1      31.869  27.064  23.357  1.00  0.00     0.021 C 
BRANCH   3   4
ATOM      4  C   UNL A   1      31.056  25.768  23.473  1.00  0.00     0.116 C 
BRANCH   4   5
ATOM      5  N   UNL A   1      30.219  25.774  24.663  1.00  0.00    -0.356 N 
ATOM      6  C   UNL A   1      30.451  25.315  25.925  1.00  0.00     0.220 C 
ATOM      7  O   UNL A   1      29.539  25.408  26.751  1.00  0.00    -0.275 OA
ATOM      8  H   UNL A   1      29.332  26.182  24.534  1.00  0.00     0.163 HD
BRANCH   6   9
ATOM      9  C   UNL A   1      31.795  24.730  26.328  1.00  0.00     0.104 C 
BRANCH   9  10
ATOM     10  C   UNL A   1      31.841  23.184  26.435  1.00  0.00     0.009 C 
ATOM     11  N   UNL A   1      33.916  21.190  25.669  1.00  0.00    -0.332 N 
ATOM     12  C   UNL A   1      33.605  21.420  27.075  1.00  0.00     0.262 C 
ATOM     13  C   UNL A   1      32.710  21.257  24.866  1.00  0.00     0.262 C 
ATOM     14  H   UNL A   1      34.252  20.228  25.634  1.00  0.00     0.348 HD
ATOM     15  C   UNL A   1      32.997  22.785  27.367  1.00  0.00     0.066 C 
ATOM     16  C   UNL A   1      31.923  22.549  25.043  1.00  0.00     0.066 C 
BRANCH  11  17
ATOM     17  C   UNL A   1      35.214  21.616  25.085  1.00  0.00     0.187 C 
ATOM     18  C   UNL A   1      35.296  24.199  25.046  1.00  0.00     0.014 C 
ATOM     19  C   UNL A   1      35.901  22.914  25.641  1.00  0.00     0.047 C 
ATOM     20  C   UNL A   1      37.442  23.023  25.429  1.00  0.00    -0.006 C 
ATOM     21  C   UNL A   1      36.139  20.374  25.077  1.00  0.00     0.065 C 
ATOM     22  C   UNL A   1      38.168  21.695  25.593  1.00  0.00     0.004 C 
ATOM     23  C   UNL A   1      38.056  24.077  26.364  1.00  0.00     0.008 C 
ATOM     24  C   UNL A   1      37.565  20.670  24.650  1.00  0.00     0.006 C 
ENDBRANCH  11  17
ENDBRANCH   9  10
ENDBRANCH   6   9
ENDBRANCH   4   5
ENDBRANCH   3   4
ENDBRANCH   2   3
ENDBRANCH   1   2
BRANCH   1  25
ATOM     25  C   UNL A   1      32.947  28.284  25.906  1.00  0.00     0.021 C 
BRANCH  25  26
ATOM     26  C   UNL A   1      34.217  28.974  26.404  1.00  0.00     0.116 C 
BRANCH  26  27
ATOM     27  N   UNL A   1      33.984  30.373  26.727  1.00  0.00    -0.352 N 
ATOM     28  C   UNL A   1      34.575  31.165  27.681  1.00  0.00     0.251 C 
ATOM     29  H   UNL A   1      33.299  30.820  26.179  1.00  0.00     0.163 HD
ATOM     30  O   UNL A   1      34.071  32.242  27.978  1.00  0.00    -0.269 OA
BRANCH  28  31
ATOM     31  C   UNL A   1      35.806  30.703  28.356  1.00  0.00     0.039 A 
ATOM     32  C   UNL A   1      35.711  29.742  29.365  1.00  0.00     0.014 A 
ATOM     33  C   UNL A   1      37.052  31.224  27.992  1.00  0.00     0.014 A 
ATOM     34  C   UNL A   1      36.876  29.245  29.955  1.00  0.00     0.010 A 
ATOM     35  C   UNL A   1      38.213  30.678  28.533  1.00  0.00     0.010 A 
ATOM     36  C   UNL A   1      38.137  29.676  29.513  1.00  0.00    -0.014 A 
BRANCH  36  37
ATOM     37  C   UNL A   1      39.391  29.074  30.038  1.00  0.00     0.031 A 
ATOM     38  C   UNL A   1      40.080  29.680  31.228  1.00  0.00     0.074 A 
ATOM     39  C   UNL A   1      39.944  28.028  29.392  1.00  0.00     0.049 A 
ATOM     40  N   UNL A   1      41.230  29.366  31.767  1.00  0.00    -0.248 NA
ATOM     41  C   UNL A   1      39.396  30.806  31.882  1.00  0.00     0.031 C 
ATOM     42  C   UNL A   1      39.380  27.372  28.210  1.00  0.00     0.029 A 
ATOM     43  N   UNL A   1      41.108  27.339  29.627  1.00  0.00    -0.354 N 
ATOM     44  C   UNL A   1      41.413  30.258  32.818  1.00  0.00     0.074 A 
ATOM     45  C   UNL A   1      40.283  31.162  32.800  1.00  0.00     0.031 C 
ATOM     46  C   UNL A   1      40.186  26.366  27.837  1.00  0.00     0.029 A 
ATOM     47  C   UNL A   1      41.353  26.340  28.713  1.00  0.00     0.049 A 
ATOM     48  H   UNL A   1      41.711  27.542  30.378  1.00  0.00     0.167 HD
ATOM     49  C   UNL A   1      42.422  30.303  33.723  1.00  0.00     0.034 A 
ATOM     50  C   UNL A   1      42.409  25.512  28.578  1.00  0.00     0.034 A 
ATOM     51  C   UNL A   1      43.540  29.391  33.724  1.00  0.00     0.049 A 
ATOM     52  C   UNL A   1      43.549  25.625  29.559  1.00  0.00     0.074 A 
ATOM     53  C   UNL A   1      44.587  29.314  34.625  1.00  0.00     0.029 A 
ATOM     54  N   UNL A   1      43.767  28.408  32.769  1.00  0.00    -0.354 N 
ATOM     55  N   UNL A   1      43.684  26.442  30.579  1.00  0.00    -0.248 NA
ATOM     56  C   UNL A   1      44.679  24.705  29.373  1.00  0.00     0.031 C 
ATOM     57  C   UNL A   1      45.487  28.344  34.171  1.00  0.00     0.029 A 
ATOM     58  C   UNL A   1      44.960  27.752  33.034  1.00  0.00     0.049 A 
ATOM     59  H   UNL A   1      43.168  28.207  32.013  1.00  0.00     0.167 HD
ATOM     60  C   UNL A   1      44.900  26.113  31.170  1.00  0.00     0.074 A 
ATOM     61  C   UNL A   1      45.451  25.014  30.404  1.00  0.00     0.031 C 
ATOM     62  C   UNL A   1      45.505  26.667  32.253  1.00  0.00     0.034 A 
BRANCH  49  63
ATOM     63  C   UNL A   1      42.374  31.394  34.768  1.00  0.00     0.023 A 
ATOM     64  C   UNL A   1      42.984  32.643  34.561  1.00  0.00     0.031 A 
ATOM     65  C   UNL A   1      41.721  31.177  35.995  1.00  0.00     0.131 A 
ATOM     66  C   UNL A   1      42.993  33.599  35.589  1.00  0.00     0.055 A 
ATOM     67  C   UNL A   1      41.660  32.163  36.982  1.00  0.00     0.041 A 
ATOM     68  F   UNL A   1      41.139  29.998  36.261  1.00  0.00    -0.206 F 
ATOM     69  C   UNL A   1      42.311  33.378  36.787  1.00  0.00     0.022 A 
BRANCH  66  70
ATOM     70  S   UNL A   1      44.033  35.070  35.392  1.00  0.00     0.124 S 
ATOM     71  O   UNL A   1      45.247  34.671  36.101  1.00  0.00    -0.237 OA
ATOM     72  O   UNL A   1      44.148  35.183  33.942  1.00  0.00    -0.237 OA
ATOM     73  O   UNL A   1      43.259  36.127  36.041  1.00  0.00    -0.744 OA
ENDBRANCH  66  70
ENDBRANCH  49  63
BRANCH  50  74
ATOM     74  C   UNL A   1      42.458  24.522  27.463  1.00  0.00     0.023 A 
ATOM     75  C   UNL A   1      41.957  23.222  27.628  1.00  0.00     0.031 A 
ATOM     76  C   UNL A   1      43.051  24.848  26.229  1.00  0.00     0.131 A 
ATOM     77  C   UNL A   1      42.098  22.281  26.596  1.00  0.00     0.055 A 
ATOM     78  C   UNL A   1      43.135  23.926  25.184  1.00  0.00     0.041 A 
ATOM     79  F   UNL A   1      43.548  26.076  26.016  1.00  0.00    -0.206 F 
ATOM     80  C   UNL A   1      42.668  22.628  25.370  1.00  0.00     0.022 A 
BRANCH  77  81
ATOM     81  S   UNL A   1      41.612  20.563  26.917  1.00  0.00     0.124 S 
ATOM     82  O   UNL A   1      41.219  20.114  25.586  1.00  0.00    -0.237 OA
ATOM     83  O   UNL A   1      42.846  19.995  27.449  1.00  0.00    -0.237 OA
ATOM     84  O   UNL A   1      40.522  20.692  27.881  1.00  0.00    -0.744 OA
ENDBRANCH  77  81
ENDBRANCH  50  74
BRANCH  62  85
ATOM     85  C   UNL A   1      46.818  26.065  32.691  1.00  0.00     0.023 A 
ATOM     86  C   UNL A   1      46.875  24.991  33.595  1.00  0.00     0.031 A 
ATOM     87  C   UNL A   1      48.031  26.568  32.184  1.00  0.00     0.131 A 
ATOM     88  C   UNL A   1      48.119  24.484  34.001  1.00  0.00     0.055 A 
ATOM     89  C   UNL A   1      49.262  26.019  32.543  1.00  0.00     0.041 A 
ATOM     90  F   UNL A   1      48.036  27.596  31.320  1.00  0.00    -0.206 F 
ATOM     91  C   UNL A   1      49.312  24.978  33.464  1.00  0.00     0.022 A 
BRANCH  88  92
ATOM     92  S   UNL A   1      48.164  23.220  35.302  1.00  0.00     0.124 S 
ATOM     93  O   UNL A   1      48.753  22.085  34.600  1.00  0.00    -0.237 OA
ATOM     94  O   UNL A   1      49.004  23.846  36.318  1.00  0.00    -0.237 OA
ATOM     95  O   UNL A   1      46.759  23.061  35.673  1.00  0.00    -0.744 OA
ENDBRANCH  88  92
ENDBRANCH  62  85
ENDBRANCH  36  37
ENDBRANCH  28  31
ENDBRANCH  26  27
ENDBRANCH  25  26
ENDBRANCH   1  25
TORSDOF 18
ENDMDL
