MODEL 1
REMARK VINA RESULT:     -11.2      0.000      0.000
REMARK SMILES COCCCN1C(=O)CC[C@@H](C(=O)NCCCCCCNC(=O)c2ccc(-c3c4nc(c(-c5cc(S(=O)(=O)[O-])ccc5F)c5ccc([nH]5)c(-c5cc(S(=O)(=O)[O-])ccc5F)c5nc(c(-c6cc(S(=O)(=O)[O-])ccc6F)c6ccc3[nH]6)C=C5)C=C4)cc2)[C@@H]1c1ccc(F)cc1
REMARK SMILES IDX 17 1 16 2 15 3 14 4 12 5 13 6 11 8 6 9 7 10 87 11 8 12 9 13
REMARK SMILES IDX 10 14 5 15 4 16 3 17 2 18 1 19 88 20 89 21 94 22 90 23 93 24
REMARK SMILES IDX 91 25 92 26 18 27 19 28 20 29 21 30 22 31 23 33 24 34 25 35
REMARK SMILES IDX 86 36 26 37 85 38 27 39 28 40 29 41 79 42 30 43 84 44 78 45
REMARK SMILES IDX 80 46 31 47 83 48 77 49 76 50 32 52 64 53 44 54 63 55 45 56
REMARK SMILES IDX 48 57 62 58 81 59 46 60 47 61 61 63 82 64 49 65 33 66 34 67
REMARK SMILES IDX 42 68 35 69 41 70 43 71 40 72 36 73 37 74 38 75 39 76 65 77
REMARK SMILES IDX 66 78 74 79 67 80 73 81 75 82 72 83 68 84 69 85 70 86 71 87
REMARK SMILES IDX 50 88 51 89 59 90 52 91 58 92 60 93 57 94 53 95 54 96 55 97
REMARK SMILES IDX 56 98
REMARK H PARENT 14 7 21 32 80 51 48 62
REMARK Flexibility Score: inf
ROOT
ATOM      1  C   UNL A   1      30.585  27.148  24.167  1.00  0.00     0.002 C 
ENDROOT
BRANCH   1   2
ATOM      2  C   UNL A   1      29.812  25.974  24.779  1.00  0.00     0.021 C 
BRANCH   2   3
ATOM      3  C   UNL A   1      30.390  25.439  26.086  1.00  0.00     0.116 C 
BRANCH   3   4
ATOM      4  N   UNL A   1      30.134  24.019  26.249  1.00  0.00    -0.356 N 
ATOM      5  C   UNL A   1      30.921  22.939  25.987  1.00  0.00     0.225 C 
ATOM      6  O   UNL A   1      30.401  21.828  26.084  1.00  0.00    -0.275 OA
ATOM      7  H   UNL A   1      29.245  23.802  26.609  1.00  0.00     0.163 HD
BRANCH   5   8
ATOM      8  C   UNL A   1      32.388  23.131  25.605  1.00  0.00     0.106 C 
ATOM      9  N   UNL A   1      32.704  20.867  24.568  1.00  0.00    -0.335 N 
ATOM     10  C   UNL A   1      32.317  21.325  23.313  1.00  0.00     0.223 C 
ATOM     11  C   UNL A   1      33.128  21.784  25.636  1.00  0.00     0.128 C 
ATOM     12  O   UNL A   1      32.057  20.559  22.381  1.00  0.00    -0.275 OA
ATOM     13  C   UNL A   1      32.145  22.818  23.095  1.00  0.00     0.101 C 
ATOM     14  C   UNL A   1      32.551  23.752  24.221  1.00  0.00     0.026 C 
BRANCH   9  15
ATOM     15  C   UNL A   1      32.545  19.429  24.866  1.00  0.00     0.122 C 
BRANCH  15  16
ATOM     16  C   UNL A   1      33.504  18.429  24.199  1.00  0.00     0.050 C 
BRANCH  16  17
ATOM     17  C   UNL A   1      32.995  17.012  23.923  1.00  0.00     0.161 C 
BRANCH  17  18
ATOM     18  O   UNL A   1      33.988  16.000  24.087  1.00  0.00    -0.385 OA
ATOM     19  C   UNL A   1      34.584  15.946  25.372  1.00  0.00     0.194 C 
ENDBRANCH  17  18
ENDBRANCH  16  17
ENDBRANCH  15  16
ENDBRANCH   9  15
BRANCH  11  20
ATOM     20  C   UNL A   1      34.655  21.942  25.712  1.00  0.00    -0.024 A 
ATOM     21  C   UNL A   1      35.272  23.095  26.232  1.00  0.00     0.009 A 
ATOM     22  C   UNL A   1      35.482  20.952  25.144  1.00  0.00     0.009 A 
ATOM     23  C   UNL A   1      36.650  23.291  26.108  1.00  0.00     0.039 A 
ATOM     24  C   UNL A   1      36.863  21.140  25.040  1.00  0.00     0.039 A 
ATOM     25  C   UNL A   1      37.430  22.317  25.504  1.00  0.00     0.123 A 
ATOM     26  F   UNL A   1      38.746  22.522  25.354  1.00  0.00    -0.207 F 
ENDBRANCH  11  20
ENDBRANCH   5   8
ENDBRANCH   3   4
ENDBRANCH   2   3
ENDBRANCH   1   2
BRANCH   1  27
ATOM     27  C   UNL A   1      31.860  27.559  24.909  1.00  0.00     0.002 C 
BRANCH  27  28
ATOM     28  C   UNL A   1      31.729  28.789  25.809  1.00  0.00     0.021 C 
BRANCH  28  29
ATOM     29  C   UNL A   1      32.922  29.740  25.779  1.00  0.00     0.116 C 
BRANCH  29  30
ATOM     30  N   UNL A   1      32.568  31.086  26.188  1.00  0.00    -0.352 N 
ATOM     31  C   UNL A   1      33.128  31.879  27.159  1.00  0.00     0.251 C 
ATOM     32  H   UNL A   1      31.814  31.489  25.698  1.00  0.00     0.163 HD
ATOM     33  O   UNL A   1      32.565  32.920  27.481  1.00  0.00    -0.269 OA
BRANCH  31  34
ATOM     34  C   UNL A   1      34.388  31.473  27.827  1.00  0.00     0.039 A 
ATOM     35  C   UNL A   1      34.500  30.166  28.309  1.00  0.00     0.014 A 
ATOM     36  C   UNL A   1      35.439  32.376  28.016  1.00  0.00     0.014 A 
ATOM     37  C   UNL A   1      35.673  29.760  28.949  1.00  0.00     0.010 A 
ATOM     38  C   UNL A   1      36.639  31.945  28.578  1.00  0.00     0.010 A 
ATOM     39  C   UNL A   1      36.760  30.640  29.076  1.00  0.00    -0.014 A 
BRANCH  39  40
ATOM     40  C   UNL A   1      38.003  30.222  29.781  1.00  0.00     0.031 A 
ATOM     41  C   UNL A   1      38.254  30.677  31.196  1.00  0.00     0.074 A 
ATOM     42  C   UNL A   1      38.910  29.454  29.147  1.00  0.00     0.049 A 
ATOM     43  N   UNL A   1      39.278  30.437  31.976  1.00  0.00    -0.248 NA
ATOM     44  C   UNL A   1      37.233  31.546  31.802  1.00  0.00     0.031 C 
ATOM     45  C   UNL A   1      38.801  28.986  27.762  1.00  0.00     0.029 A 
ATOM     46  N   UNL A   1      40.102  28.928  29.580  1.00  0.00    -0.354 N 
ATOM     47  C   UNL A   1      39.028  31.130  33.156  1.00  0.00     0.074 A 
ATOM     48  C   UNL A   1      37.796  31.862  32.957  1.00  0.00     0.031 C 
ATOM     49  C   UNL A   1      39.861  28.212  27.475  1.00  0.00     0.029 A 
ATOM     50  C   UNL A   1      40.745  28.162  28.635  1.00  0.00     0.049 A 
ATOM     51  H   UNL A   1      40.462  29.085  30.483  1.00  0.00     0.167 HD
ATOM     52  C   UNL A   1      39.741  31.132  34.311  1.00  0.00     0.034 A 
ATOM     53  C   UNL A   1      41.913  27.494  28.699  1.00  0.00     0.034 A 
ATOM     54  C   UNL A   1      40.962  30.386  34.498  1.00  0.00     0.049 A 
ATOM     55  C   UNL A   1      42.694  27.516  29.990  1.00  0.00     0.074 A 
ATOM     56  C   UNL A   1      41.744  30.281  35.634  1.00  0.00     0.029 A 
ATOM     57  N   UNL A   1      41.581  29.615  33.520  1.00  0.00    -0.354 N 
ATOM     58  N   UNL A   1      42.417  28.136  31.116  1.00  0.00    -0.248 NA
ATOM     59  C   UNL A   1      43.931  26.728  30.026  1.00  0.00     0.031 C 
ATOM     60  C   UNL A   1      42.870  29.509  35.325  1.00  0.00     0.029 A 
ATOM     61  C   UNL A   1      42.747  29.056  34.021  1.00  0.00     0.049 A 
ATOM     62  H   UNL A   1      41.240  29.486  32.606  1.00  0.00     0.167 HD
ATOM     63  C   UNL A   1      43.430  27.779  32.003  1.00  0.00     0.074 A 
ATOM     64  C   UNL A   1      44.304  26.872  31.288  1.00  0.00     0.031 C 
ATOM     65  C   UNL A   1      43.618  28.162  33.293  1.00  0.00     0.034 A 
BRANCH  52  66
ATOM     66  C   UNL A   1      39.223  31.989  35.445  1.00  0.00     0.023 A 
ATOM     67  C   UNL A   1      39.614  33.333  35.596  1.00  0.00     0.031 A 
ATOM     68  C   UNL A   1      38.356  31.449  36.412  1.00  0.00     0.131 A 
ATOM     69  C   UNL A   1      39.211  34.060  36.726  1.00  0.00     0.055 A 
ATOM     70  C   UNL A   1      37.884  32.207  37.486  1.00  0.00     0.041 A 
ATOM     71  F   UNL A   1      37.965  30.168  36.339  1.00  0.00    -0.206 F 
ATOM     72  C   UNL A   1      38.325  33.516  37.658  1.00  0.00     0.022 A 
BRANCH  69  73
ATOM     73  S   UNL A   1      39.990  35.667  37.045  1.00  0.00     0.124 S 
ATOM     74  O   UNL A   1      39.315  36.082  38.272  1.00  0.00    -0.237 OA
ATOM     75  O   UNL A   1      41.399  35.314  37.179  1.00  0.00    -0.237 OA
ATOM     76  O   UNL A   1      39.653  36.454  35.861  1.00  0.00    -0.744 OA
ENDBRANCH  69  73
ENDBRANCH  52  66
BRANCH  53  77
ATOM     77  C   UNL A   1      42.423  26.740  27.516  1.00  0.00     0.023 A 
ATOM     78  C   UNL A   1      42.212  25.357  27.389  1.00  0.00     0.031 A 
ATOM     79  C   UNL A   1      43.178  27.383  26.519  1.00  0.00     0.131 A 
ATOM     80  C   UNL A   1      42.796  24.653  26.324  1.00  0.00     0.055 A 
ATOM     81  C   UNL A   1      43.707  26.689  25.428  1.00  0.00     0.041 A 
ATOM     82  F   UNL A   1      43.407  28.704  26.586  1.00  0.00    -0.206 F 
ATOM     83  C   UNL A   1      43.530  25.312  25.336  1.00  0.00     0.022 A 
BRANCH  80  84
ATOM     84  S   UNL A   1      42.663  22.844  26.303  1.00  0.00     0.124 S 
ATOM     85  O   UNL A   1      42.762  22.556  24.877  1.00  0.00    -0.237 OA
ATOM     86  O   UNL A   1      43.805  22.447  27.120  1.00  0.00    -0.237 OA
ATOM     87  O   UNL A   1      41.354  22.593  26.902  1.00  0.00    -0.744 OA
ENDBRANCH  80  84
ENDBRANCH  53  77
BRANCH  65  88
ATOM     88  C   UNL A   1      44.795  27.550  34.021  1.00  0.00     0.023 A 
ATOM     89  C   UNL A   1      46.067  28.149  34.012  1.00  0.00     0.031 A 
ATOM     90  C   UNL A   1      44.649  26.324  34.695  1.00  0.00     0.131 A 
ATOM     91  C   UNL A   1      47.159  27.480  34.585  1.00  0.00     0.055 A 
ATOM     92  C   UNL A   1      45.724  25.702  35.332  1.00  0.00     0.041 A 
ATOM     93  F   UNL A   1      43.460  25.703  34.737  1.00  0.00    -0.206 F 
ATOM     94  C   UNL A   1      46.993  26.269  35.260  1.00  0.00     0.022 A 
BRANCH  91  95
ATOM     95  S   UNL A   1      48.826  28.142  34.305  1.00  0.00     0.124 S 
ATOM     96  O   UNL A   1      49.146  27.607  32.986  1.00  0.00    -0.237 OA
ATOM     97  O   UNL A   1      48.602  29.583  34.370  1.00  0.00    -0.237 OA
ATOM     98  O   UNL A   1      49.606  27.584  35.408  1.00  0.00    -0.744 OA
ENDBRANCH  91  95
ENDBRANCH  65  88
ENDBRANCH  39  40
ENDBRANCH  31  34
ENDBRANCH  29  30
ENDBRANCH  28  29
ENDBRANCH  27  28
ENDBRANCH   1  27
TORSDOF 21
ENDMDL
MODEL 2
REMARK VINA RESULT:     -11.2      2.390      7.755
REMARK SMILES COCCCN1C(=O)CC[C@@H](C(=O)NCCCCCCNC(=O)c2ccc(-c3c4nc(c(-c5cc(S(=O)(=O)[O-])ccc5F)c5ccc([nH]5)c(-c5cc(S(=O)(=O)[O-])ccc5F)c5nc(c(-c6cc(S(=O)(=O)[O-])ccc6F)c6ccc3[nH]6)C=C5)C=C4)cc2)[C@@H]1c1ccc(F)cc1
REMARK SMILES IDX 17 1 16 2 15 3 14 4 12 5 13 6 11 8 6 9 7 10 87 11 8 12 9 13
REMARK SMILES IDX 10 14 5 15 4 16 3 17 2 18 1 19 88 20 89 21 94 22 90 23 93 24
REMARK SMILES IDX 91 25 92 26 18 27 19 28 20 29 21 30 22 31 23 33 24 34 25 35
REMARK SMILES IDX 86 36 26 37 85 38 27 39 28 40 29 41 79 42 30 43 84 44 78 45
REMARK SMILES IDX 80 46 31 47 83 48 77 49 76 50 32 52 64 53 44 54 63 55 45 56
REMARK SMILES IDX 48 57 62 58 81 59 46 60 47 61 61 63 82 64 49 65 33 66 34 67
REMARK SMILES IDX 42 68 35 69 41 70 43 71 40 72 36 73 37 74 38 75 39 76 65 77
REMARK SMILES IDX 66 78 74 79 67 80 73 81 75 82 72 83 68 84 69 85 70 86 71 87
REMARK SMILES IDX 50 88 51 89 59 90 52 91 58 92 60 93 57 94 53 95 54 96 55 97
REMARK SMILES IDX 56 98
REMARK H PARENT 14 7 21 32 80 51 48 62
REMARK Flexibility Score: inf
ROOT
ATOM      1  C   UNL A   1      31.446  29.707  25.381  1.00  0.00     0.002 C 
ENDROOT
BRANCH   1   2
ATOM      2  C   UNL A   1      32.752  29.367  24.655  1.00  0.00     0.021 C 
BRANCH   2   3
ATOM      3  C   UNL A   1      33.375  28.031  25.051  1.00  0.00     0.116 C 
BRANCH   3   4
ATOM      4  N   UNL A   1      32.383  26.974  25.127  1.00  0.00    -0.356 N 
ATOM      5  C   UNL A   1      32.453  25.662  24.769  1.00  0.00     0.225 C 
ATOM      6  O   UNL A   1      31.409  25.011  24.808  1.00  0.00    -0.275 OA
ATOM      7  H   UNL A   1      31.516  27.251  25.500  1.00  0.00     0.163 HD
BRANCH   5   8
ATOM      8  C   UNL A   1      33.790  25.048  24.353  1.00  0.00     0.106 C 
ATOM      9  N   UNL A   1      33.053  22.653  24.492  1.00  0.00    -0.335 N 
ATOM     10  C   UNL A   1      32.636  22.645  23.165  1.00  0.00     0.223 C 
ATOM     11  C   UNL A   1      33.974  23.673  25.014  1.00  0.00     0.128 C 
ATOM     12  O   UNL A   1      31.945  21.738  22.694  1.00  0.00    -0.275 OA
ATOM     13  C   UNL A   1      32.989  23.825  22.275  1.00  0.00     0.101 C 
ATOM     14  C   UNL A   1      33.912  24.890  22.841  1.00  0.00     0.026 C 
BRANCH   9  15
ATOM     15  C   UNL A   1      32.433  21.688  25.423  1.00  0.00     0.122 C 
BRANCH  15  16
ATOM     16  C   UNL A   1      33.145  20.349  25.676  1.00  0.00     0.050 C 
BRANCH  16  17
ATOM     17  C   UNL A   1      32.619  19.103  24.958  1.00  0.00     0.161 C 
BRANCH  17  18
ATOM     18  O   UNL A   1      32.404  17.988  25.821  1.00  0.00    -0.385 OA
ATOM     19  C   UNL A   1      33.137  16.821  25.489  1.00  0.00     0.194 C 
ENDBRANCH  17  18
ENDBRANCH  16  17
ENDBRANCH  15  16
ENDBRANCH   9  15
BRANCH  11  20
ATOM     20  C   UNL A   1      35.437  23.204  25.021  1.00  0.00    -0.024 A 
ATOM     21  C   UNL A   1      35.863  22.042  24.350  1.00  0.00     0.009 A 
ATOM     22  C   UNL A   1      36.380  23.889  25.815  1.00  0.00     0.009 A 
ATOM     23  C   UNL A   1      37.152  21.536  24.536  1.00  0.00     0.039 A 
ATOM     24  C   UNL A   1      37.676  23.393  25.983  1.00  0.00     0.039 A 
ATOM     25  C   UNL A   1      38.042  22.210  25.359  1.00  0.00     0.123 A 
ATOM     26  F   UNL A   1      39.266  21.705  25.564  1.00  0.00    -0.207 F 
ENDBRANCH  11  20
ENDBRANCH   5   8
ENDBRANCH   3   4
ENDBRANCH   2   3
ENDBRANCH   1   2
BRANCH   1  27
ATOM     27  C   UNL A   1      31.605  30.391  26.743  1.00  0.00     0.002 C 
BRANCH  27  28
ATOM     28  C   UNL A   1      31.542  31.919  26.722  1.00  0.00     0.021 C 
BRANCH  28  29
ATOM     29  C   UNL A   1      32.835  32.623  27.118  1.00  0.00     0.116 C 
BRANCH  29  30
ATOM     30  N   UNL A   1      32.607  33.976  27.589  1.00  0.00    -0.352 N 
ATOM     31  C   UNL A   1      33.155  34.630  28.666  1.00  0.00     0.251 C 
ATOM     32  H   UNL A   1      31.966  34.503  27.060  1.00  0.00     0.163 HD
ATOM     33  O   UNL A   1      32.693  35.713  29.008  1.00  0.00    -0.269 OA
BRANCH  31  34
ATOM     34  C   UNL A   1      34.277  34.023  29.422  1.00  0.00     0.039 A 
ATOM     35  C   UNL A   1      35.585  34.373  29.077  1.00  0.00     0.014 A 
ATOM     36  C   UNL A   1      34.053  33.089  30.438  1.00  0.00     0.014 A 
ATOM     37  C   UNL A   1      36.661  33.810  29.767  1.00  0.00     0.010 A 
ATOM     38  C   UNL A   1      35.123  32.594  31.181  1.00  0.00     0.010 A 
ATOM     39  C   UNL A   1      36.441  32.927  30.837  1.00  0.00    -0.014 A 
BRANCH  39  40
ATOM     40  C   UNL A   1      37.583  32.303  31.559  1.00  0.00     0.031 A 
ATOM     41  C   UNL A   1      38.353  31.177  30.918  1.00  0.00     0.074 A 
ATOM     42  C   UNL A   1      37.912  32.731  32.794  1.00  0.00     0.049 A 
ATOM     43  N   UNL A   1      39.365  30.492  31.386  1.00  0.00    -0.248 NA
ATOM     44  C   UNL A   1      37.903  30.743  29.587  1.00  0.00     0.031 C 
ATOM     45  C   UNL A   1      37.215  33.783  33.538  1.00  0.00     0.029 A 
ATOM     46  N   UNL A   1      38.918  32.339  33.641  1.00  0.00    -0.354 N 
ATOM     47  C   UNL A   1      39.666  29.544  30.414  1.00  0.00     0.074 A 
ATOM     48  C   UNL A   1      38.678  29.692  29.367  1.00  0.00     0.031 C 
ATOM     49  C   UNL A   1      37.837  33.978  34.711  1.00  0.00     0.029 A 
ATOM     50  C   UNL A   1      38.950  33.041  34.825  1.00  0.00     0.049 A 
ATOM     51  H   UNL A   1      39.558  31.623  33.422  1.00  0.00     0.167 HD
ATOM     52  C   UNL A   1      40.689  28.653  30.378  1.00  0.00     0.034 A 
ATOM     53  C   UNL A   1      39.783  32.940  35.879  1.00  0.00     0.034 A 
ATOM     54  C   UNL A   1      41.675  28.526  31.425  1.00  0.00     0.049 A 
ATOM     55  C   UNL A   1      40.909  31.937  35.822  1.00  0.00     0.074 A 
ATOM     56  C   UNL A   1      42.775  27.688  31.478  1.00  0.00     0.029 A 
ATOM     57  N   UNL A   1      41.679  29.257  32.607  1.00  0.00    -0.354 N 
ATOM     58  N   UNL A   1      41.210  31.081  34.871  1.00  0.00    -0.248 NA
ATOM     59  C   UNL A   1      41.821  31.904  36.971  1.00  0.00     0.031 C 
ATOM     60  C   UNL A   1      43.401  27.861  32.718  1.00  0.00     0.029 A 
ATOM     61  C   UNL A   1      42.746  28.871  33.404  1.00  0.00     0.049 A 
ATOM     62  H   UNL A   1      41.019  29.949  32.844  1.00  0.00     0.167 HD
ATOM     63  C   UNL A   1      42.370  30.436  35.295  1.00  0.00     0.074 A 
ATOM     64  C   UNL A   1      42.723  31.021  36.572  1.00  0.00     0.031 C 
ATOM     65  C   UNL A   1      43.081  29.454  34.683  1.00  0.00     0.034 A 
BRANCH  52  66
ATOM     66  C   UNL A   1      40.770  27.734  29.179  1.00  0.00     0.023 A 
ATOM     67  C   UNL A   1      41.701  27.946  28.145  1.00  0.00     0.031 A 
ATOM     68  C   UNL A   1      39.881  26.653  29.045  1.00  0.00     0.131 A 
ATOM     69  C   UNL A   1      41.665  27.149  26.991  1.00  0.00     0.055 A 
ATOM     70  C   UNL A   1      39.912  25.805  27.936  1.00  0.00     0.041 A 
ATOM     71  F   UNL A   1      38.954  26.411  29.984  1.00  0.00    -0.206 F 
ATOM     72  C   UNL A   1      40.796  26.060  26.892  1.00  0.00     0.022 A 
BRANCH  69  73
ATOM     73  S   UNL A   1      42.656  27.653  25.558  1.00  0.00     0.124 S 
ATOM     74  O   UNL A   1      42.606  26.451  24.729  1.00  0.00    -0.237 OA
ATOM     75  O   UNL A   1      41.920  28.807  25.055  1.00  0.00    -0.237 OA
ATOM     76  O   UNL A   1      43.966  27.950  26.133  1.00  0.00    -0.744 OA
ENDBRANCH  69  73
ENDBRANCH  52  66
BRANCH  53  77
ATOM     77  C   UNL A   1      39.600  33.808  37.078  1.00  0.00     0.023 A 
ATOM     78  C   UNL A   1      39.009  33.312  38.252  1.00  0.00     0.031 A 
ATOM     79  C   UNL A   1      39.965  35.167  37.050  1.00  0.00     0.131 A 
ATOM     80  C   UNL A   1      38.748  34.177  39.326  1.00  0.00     0.055 A 
ATOM     81  C   UNL A   1      39.758  36.010  38.144  1.00  0.00     0.041 A 
ATOM     82  F   UNL A   1      40.538  35.694  35.957  1.00  0.00    -0.206 F 
ATOM     83  C   UNL A   1      39.131  35.519  39.286  1.00  0.00     0.022 A 
BRANCH  80  84
ATOM     84  S   UNL A   1      37.810  33.543  40.744  1.00  0.00     0.124 S 
ATOM     85  O   UNL A   1      38.868  32.972  41.569  1.00  0.00    -0.237 OA
ATOM     86  O   UNL A   1      37.180  34.755  41.256  1.00  0.00    -0.237 OA
ATOM     87  O   UNL A   1      36.896  32.576  40.140  1.00  0.00    -0.744 OA
ENDBRANCH  80  84
ENDBRANCH  53  77
BRANCH  65  88
ATOM     88  C   UNL A   1      44.344  28.993  35.376  1.00  0.00     0.023 A 
ATOM     89  C   UNL A   1      45.566  29.671  35.221  1.00  0.00     0.031 A 
ATOM     90  C   UNL A   1      44.333  27.829  36.166  1.00  0.00     0.131 A 
ATOM     91  C   UNL A   1      46.740  29.133  35.771  1.00  0.00     0.055 A 
ATOM     92  C   UNL A   1      45.490  27.342  36.776  1.00  0.00     0.041 A 
ATOM     93  F   UNL A   1      43.197  27.137  36.350  1.00  0.00    -0.206 F 
ATOM     94  C   UNL A   1      46.707  27.982  36.562  1.00  0.00     0.022 A 
BRANCH  91  95
ATOM     95  S   UNL A   1      48.332  29.875  35.312  1.00  0.00     0.124 S 
ATOM     96  O   UNL A   1      48.159  31.256  35.751  1.00  0.00    -0.237 OA
ATOM     97  O   UNL A   1      49.279  29.075  36.082  1.00  0.00    -0.237 OA
ATOM     98  O   UNL A   1      48.393  29.686  33.864  1.00  0.00    -0.744 OA
ENDBRANCH  91  95
ENDBRANCH  65  88
ENDBRANCH  39  40
ENDBRANCH  31  34
ENDBRANCH  29  30
ENDBRANCH  28  29
ENDBRANCH  27  28
ENDBRANCH   1  27
TORSDOF 21
ENDMDL
MODEL 3
REMARK VINA RESULT:     -11.2      1.745      2.031
REMARK SMILES COCCCN1C(=O)CC[C@@H](C(=O)NCCCCCCNC(=O)c2ccc(-c3c4nc(c(-c5cc(S(=O)(=O)[O-])ccc5F)c5ccc([nH]5)c(-c5cc(S(=O)(=O)[O-])ccc5F)c5nc(c(-c6cc(S(=O)(=O)[O-])ccc6F)c6ccc3[nH]6)C=C5)C=C4)cc2)[C@@H]1c1ccc(F)cc1
REMARK SMILES IDX 17 1 16 2 15 3 14 4 12 5 13 6 11 8 6 9 7 10 87 11 8 12 9 13
REMARK SMILES IDX 10 14 5 15 4 16 3 17 2 18 1 19 88 20 89 21 94 22 90 23 93 24
REMARK SMILES IDX 91 25 92 26 18 27 19 28 20 29 21 30 22 31 23 33 24 34 25 35
REMARK SMILES IDX 86 36 26 37 85 38 27 39 28 40 29 41 79 42 30 43 84 44 78 45
REMARK SMILES IDX 80 46 31 47 83 48 77 49 76 50 32 52 64 53 44 54 63 55 45 56
REMARK SMILES IDX 48 57 62 58 81 59 46 60 47 61 61 63 82 64 49 65 33 66 34 67
REMARK SMILES IDX 42 68 35 69 41 70 43 71 40 72 36 73 37 74 38 75 39 76 65 77
REMARK SMILES IDX 66 78 74 79 67 80 73 81 75 82 72 83 68 84 69 85 70 86 71 87
REMARK SMILES IDX 50 88 51 89 59 90 52 91 58 92 60 93 57 94 53 95 54 96 55 97
REMARK SMILES IDX 56 98
REMARK H PARENT 14 7 21 32 80 51 48 62
REMARK Flexibility Score: inf
ROOT
ATOM      1  C   UNL A   1      30.673  27.266  24.446  1.00  0.00     0.002 C 
ENDROOT
BRANCH   1   2
ATOM      2  C   UNL A   1      29.863  26.076  24.972  1.00  0.00     0.021 C 
BRANCH   2   3
ATOM      3  C   UNL A   1      30.442  25.410  26.218  1.00  0.00     0.116 C 
BRANCH   3   4
ATOM      4  N   UNL A   1      30.166  23.985  26.247  1.00  0.00    -0.356 N 
ATOM      5  C   UNL A   1      30.940  22.922  25.892  1.00  0.00     0.225 C 
ATOM      6  O   UNL A   1      30.404  21.814  25.881  1.00  0.00    -0.275 OA
ATOM      7  H   UNL A   1      29.270  23.748  26.577  1.00  0.00     0.163 HD
BRANCH   5   8
ATOM      8  C   UNL A   1      32.414  23.128  25.543  1.00  0.00     0.106 C 
ATOM      9  N   UNL A   1      32.752  20.899  24.439  1.00  0.00    -0.335 N 
ATOM     10  C   UNL A   1      32.386  21.397  23.193  1.00  0.00     0.223 C 
ATOM     11  C   UNL A   1      33.155  21.782  25.544  1.00  0.00     0.128 C 
ATOM     12  O   UNL A   1      32.144  20.661  22.232  1.00  0.00    -0.275 OA
ATOM     13  C   UNL A   1      32.215  22.897  23.020  1.00  0.00     0.101 C 
ATOM     14  C   UNL A   1      32.601  23.794  24.183  1.00  0.00     0.026 C 
BRANCH   9  15
ATOM     15  C   UNL A   1      32.590  19.452  24.687  1.00  0.00     0.122 C 
BRANCH  15  16
ATOM     16  C   UNL A   1      33.614  18.482  24.076  1.00  0.00     0.050 C 
BRANCH  16  17
ATOM     17  C   UNL A   1      33.117  17.119  23.586  1.00  0.00     0.161 C 
BRANCH  17  18
ATOM     18  O   UNL A   1      33.008  16.140  24.617  1.00  0.00    -0.385 OA
ATOM     19  C   UNL A   1      34.185  15.937  25.380  1.00  0.00     0.194 C 
ENDBRANCH  17  18
ENDBRANCH  16  17
ENDBRANCH  15  16
ENDBRANCH   9  15
BRANCH  11  20
ATOM     20  C   UNL A   1      34.680  21.938  25.652  1.00  0.00    -0.024 A 
ATOM     21  C   UNL A   1      35.287  23.080  26.208  1.00  0.00     0.009 A 
ATOM     22  C   UNL A   1      35.519  20.961  25.078  1.00  0.00     0.009 A 
ATOM     23  C   UNL A   1      36.666  23.279  26.115  1.00  0.00     0.039 A 
ATOM     24  C   UNL A   1      36.901  21.152  25.003  1.00  0.00     0.039 A 
ATOM     25  C   UNL A   1      37.459  22.319  25.503  1.00  0.00     0.123 A 
ATOM     26  F   UNL A   1      38.776  22.528  25.383  1.00  0.00    -0.207 F 
ENDBRANCH  11  20
ENDBRANCH   5   8
ENDBRANCH   3   4
ENDBRANCH   2   3
ENDBRANCH   1   2
BRANCH   1  27
ATOM     27  C   UNL A   1      32.102  27.387  24.986  1.00  0.00     0.002 C 
BRANCH  27  28
ATOM     28  C   UNL A   1      32.317  28.478  26.036  1.00  0.00     0.021 C 
BRANCH  28  29
ATOM     29  C   UNL A   1      33.206  29.635  25.590  1.00  0.00     0.116 C 
BRANCH  29  30
ATOM     30  N   UNL A   1      32.758  30.911  26.114  1.00  0.00    -0.352 N 
ATOM     31  C   UNL A   1      33.252  31.648  27.162  1.00  0.00     0.251 C 
ATOM     32  H   UNL A   1      31.985  31.308  25.649  1.00  0.00     0.163 HD
ATOM     33  O   UNL A   1      32.617  32.615  27.568  1.00  0.00    -0.269 OA
BRANCH  31  34
ATOM     34  C   UNL A   1      34.529  31.265  27.813  1.00  0.00     0.039 A 
ATOM     35  C   UNL A   1      34.658  29.973  28.328  1.00  0.00     0.014 A 
ATOM     36  C   UNL A   1      35.580  32.177  27.951  1.00  0.00     0.014 A 
ATOM     37  C   UNL A   1      35.847  29.589  28.953  1.00  0.00     0.010 A 
ATOM     38  C   UNL A   1      36.795  31.766  28.498  1.00  0.00     0.010 A 
ATOM     39  C   UNL A   1      36.933  30.476  29.030  1.00  0.00    -0.014 A 
BRANCH  39  40
ATOM     40  C   UNL A   1      38.193  30.083  29.718  1.00  0.00     0.031 A 
ATOM     41  C   UNL A   1      38.485  30.598  31.104  1.00  0.00     0.074 A 
ATOM     42  C   UNL A   1      39.080  29.285  29.092  1.00  0.00     0.049 A 
ATOM     43  N   UNL A   1      39.530  30.387  31.865  1.00  0.00    -0.248 NA
ATOM     44  C   UNL A   1      37.485  31.497  31.699  1.00  0.00     0.031 C 
ATOM     45  C   UNL A   1      38.931  28.758  27.733  1.00  0.00     0.029 A 
ATOM     46  N   UNL A   1      40.281  28.773  29.515  1.00  0.00    -0.354 N 
ATOM     47  C   UNL A   1      39.316  31.132  33.021  1.00  0.00     0.074 A 
ATOM     48  C   UNL A   1      38.081  31.860  32.824  1.00  0.00     0.031 C 
ATOM     49  C   UNL A   1      39.979  27.968  27.450  1.00  0.00     0.029 A 
ATOM     50  C   UNL A   1      40.895  27.963  28.587  1.00  0.00     0.049 A 
ATOM     51  H   UNL A   1      40.667  28.966  30.400  1.00  0.00     0.167 HD
ATOM     52  C   UNL A   1      40.060  31.180  34.154  1.00  0.00     0.034 A 
ATOM     53  C   UNL A   1      42.063  27.292  28.647  1.00  0.00     0.034 A 
ATOM     54  C   UNL A   1      41.283  30.437  34.339  1.00  0.00     0.049 A 
ATOM     55  C   UNL A   1      42.879  27.367  29.914  1.00  0.00     0.074 A 
ATOM     56  C   UNL A   1      42.097  30.378  35.457  1.00  0.00     0.029 A 
ATOM     57  N   UNL A   1      41.872  29.622  33.379  1.00  0.00    -0.354 N 
ATOM     58  N   UNL A   1      42.636  28.036  31.019  1.00  0.00    -0.248 NA
ATOM     59  C   UNL A   1      44.114  26.576  29.950  1.00  0.00     0.031 C 
ATOM     60  C   UNL A   1      43.211  29.588  35.150  1.00  0.00     0.029 A 
ATOM     61  C   UNL A   1      43.050  29.079  33.871  1.00  0.00     0.049 A 
ATOM     62  H   UNL A   1      41.506  29.455  32.481  1.00  0.00     0.167 HD
ATOM     63  C   UNL A   1      43.672  27.714  31.893  1.00  0.00     0.074 A 
ATOM     64  C   UNL A   1      44.522  26.772  31.193  1.00  0.00     0.031 C 
ATOM     65  C   UNL A   1      43.897  28.150  33.159  1.00  0.00     0.034 A 
BRANCH  52  66
ATOM     66  C   UNL A   1      39.577  32.088  35.264  1.00  0.00     0.023 A 
ATOM     67  C   UNL A   1      38.915  31.583  36.399  1.00  0.00     0.031 A 
ATOM     68  C   UNL A   1      39.747  33.481  35.173  1.00  0.00     0.131 A 
ATOM     69  C   UNL A   1      38.374  32.463  37.347  1.00  0.00     0.055 A 
ATOM     70  C   UNL A   1      39.287  34.347  36.168  1.00  0.00     0.041 A 
ATOM     71  F   UNL A   1      40.349  34.028  34.106  1.00  0.00    -0.206 F 
ATOM     72  C   UNL A   1      38.580  33.841  37.255  1.00  0.00     0.022 A 
BRANCH  69  73
ATOM     73  S   UNL A   1      37.259  31.795  38.613  1.00  0.00     0.124 S 
ATOM     74  O   UNL A   1      36.122  32.706  38.513  1.00  0.00    -0.237 OA
ATOM     75  O   UNL A   1      37.029  30.434  38.145  1.00  0.00    -0.237 OA
ATOM     76  O   UNL A   1      38.032  31.910  39.847  1.00  0.00    -0.744 OA
ENDBRANCH  69  73
ENDBRANCH  52  66
BRANCH  53  77
ATOM     77  C   UNL A   1      42.537  26.486  27.484  1.00  0.00     0.023 A 
ATOM     78  C   UNL A   1      42.292  25.105  27.409  1.00  0.00     0.031 A 
ATOM     79  C   UNL A   1      43.291  27.076  26.453  1.00  0.00     0.131 A 
ATOM     80  C   UNL A   1      42.843  24.351  26.361  1.00  0.00     0.055 A 
ATOM     81  C   UNL A   1      43.786  26.332  25.381  1.00  0.00     0.041 A 
ATOM     82  F   UNL A   1      43.550  28.393  26.470  1.00  0.00    -0.206 F 
ATOM     83  C   UNL A   1      43.576  24.957  25.339  1.00  0.00     0.022 A 
BRANCH  80  84
ATOM     84  S   UNL A   1      42.668  22.545  26.406  1.00  0.00     0.124 S 
ATOM     85  O   UNL A   1      41.398  22.387  27.104  1.00  0.00    -0.237 OA
ATOM     86  O   UNL A   1      42.669  22.206  24.987  1.00  0.00    -0.237 OA
ATOM     87  O   UNL A   1      43.849  22.109  27.149  1.00  0.00    -0.744 OA
ENDBRANCH  80  84
ENDBRANCH  53  77
BRANCH  65  88
ATOM     88  C   UNL A   1      45.091  27.565  33.880  1.00  0.00     0.023 A 
ATOM     89  C   UNL A   1      45.000  26.376  34.625  1.00  0.00     0.031 A 
ATOM     90  C   UNL A   1      46.328  28.236  33.860  1.00  0.00     0.131 A 
ATOM     91  C   UNL A   1      46.094  25.942  35.388  1.00  0.00     0.055 A 
ATOM     92  C   UNL A   1      47.437  27.756  34.558  1.00  0.00     0.041 A 
ATOM     93  F   UNL A   1      46.477  29.377  33.168  1.00  0.00    -0.206 F 
ATOM     94  C   UNL A   1      47.318  26.615  35.346  1.00  0.00     0.022 A 
BRANCH  91  95
ATOM     95  S   UNL A   1      45.851  24.573  36.553  1.00  0.00     0.124 S 
ATOM     96  O   UNL A   1      46.366  23.436  35.796  1.00  0.00    -0.237 OA
ATOM     97  O   UNL A   1      46.654  24.993  37.697  1.00  0.00    -0.237 OA
ATOM     98  O   UNL A   1      44.406  24.566  36.778  1.00  0.00    -0.744 OA
ENDBRANCH  91  95
ENDBRANCH  65  88
ENDBRANCH  39  40
ENDBRANCH  31  34
ENDBRANCH  29  30
ENDBRANCH  28  29
ENDBRANCH  27  28
ENDBRANCH   1  27
TORSDOF 21
ENDMDL
