MODEL 1
REMARK VINA RESULT:     -11.0      0.000      0.000
REMARK SMILES Cc1ccsc1CNS(=O)(=O)c1ccc(C(=O)NCCCCCCNC(=O)c2ccc(-c3c4nc(c(-c5cc(S(=O)(=O)[O-])ccc5F)c5ccc([nH]5)c(-c5cc(S(=O)(=O)[O-])ccc5F)c5nc(c(-c6cc(S(=O)(=O)[O-])ccc6F)c6ccc3[nH]6)C=C5)C=C4)cc2)s1
REMARK SMILES IDX 21 1 20 2 19 3 18 4 16 5 17 6 15 8 12 9 13 10 91 11 14 12
REMARK SMILES IDX 9 13 10 14 11 15 8 16 7 18 6 19 1 20 2 21 3 22 4 23 5 24
REMARK SMILES IDX 22 25 23 26 24 27 25 28 26 29 27 31 28 32 29 33 90 34 30 35
REMARK SMILES IDX 89 36 31 37 32 38 33 39 83 40 34 41 88 42 82 43 84 44 35 45
REMARK SMILES IDX 87 46 81 47 80 48 36 50 68 51 48 52 67 53 49 54 52 55 66 56
REMARK SMILES IDX 85 57 50 58 51 59 65 61 86 62 53 63 37 64 38 65 46 66 39 67
REMARK SMILES IDX 45 68 47 69 44 70 40 71 41 72 42 73 43 74 69 75 70 76 78 77
REMARK SMILES IDX 71 78 77 79 79 80 76 81 72 82 73 83 74 84 75 85 54 86 55 87
REMARK SMILES IDX 63 88 56 89 62 90 64 91 61 92 57 93 58 94 59 95 60 96
REMARK H PARENT 18 7 8 17 25 30 84 49 52 60
REMARK Flexibility Score: inf
ROOT
ATOM      1  C   UNL A   1      31.933  28.989  23.813  1.00  0.00     0.002 C 
ENDROOT
BRANCH   1   2
ATOM      2  C   UNL A   1      30.828  28.713  22.782  1.00  0.00     0.021 C 
BRANCH   2   3
ATOM      3  C   UNL A   1      30.650  27.225  22.479  1.00  0.00     0.116 C 
BRANCH   3   4
ATOM      4  N   UNL A   1      31.809  26.718  21.778  1.00  0.00    -0.351 N 
ATOM      5  C   UNL A   1      32.773  25.806  22.125  1.00  0.00     0.261 C 
ATOM      6  O   UNL A   1      33.645  25.629  21.268  1.00  0.00    -0.268 OA
ATOM      7  H   UNL A   1      31.929  27.101  20.880  1.00  0.00     0.163 HD
BRANCH   5   8
ATOM      8  C   UNL A   1      32.726  25.065  23.381  1.00  0.00     0.093 A 
ATOM      9  C   UNL A   1      33.519  23.602  25.238  1.00  0.00     0.135 A 
ATOM     10  C   UNL A   1      32.157  23.815  25.280  1.00  0.00     0.034 A 
ATOM     11  S   UNL A   1      34.239  24.532  24.012  1.00  0.00    -0.117 S 
ATOM     12  C   UNL A   1      31.710  24.694  24.244  1.00  0.00     0.027 A 
BRANCH   9  13
ATOM     13  S   UNL A   1      34.579  22.575  26.224  1.00  0.00     0.250 S 
ATOM     14  O   UNL A   1      34.060  22.694  27.570  1.00  0.00    -0.206 OA
ATOM     15  O   UNL A   1      35.918  23.012  25.899  1.00  0.00    -0.206 OA
BRANCH  13  16
ATOM     16  N   UNL A   1      34.489  20.957  25.784  1.00  0.00    -0.205 NA
ATOM     17  H   UNL A   1      34.777  20.886  24.807  1.00  0.00     0.141 HD
BRANCH  16  18
ATOM     18  C   UNL A   1      33.179  20.304  25.908  1.00  0.00     0.145 C 
BRANCH  18  19
ATOM     19  C   UNL A   1      32.982  19.359  24.752  1.00  0.00     0.022 A 
ATOM     20  C   UNL A   1      32.140  20.975  22.928  1.00  0.00     0.045 C 
ATOM     21  C   UNL A   1      32.535  19.636  23.465  1.00  0.00    -0.036 A 
ATOM     22  C   UNL A   1      32.504  18.446  22.662  1.00  0.00     0.015 A 
ATOM     23  C   UNL A   1      32.938  17.332  23.340  1.00  0.00     0.065 A 
ATOM     24  S   UNL A   1      33.403  17.700  24.935  1.00  0.00    -0.147 S 
ENDBRANCH  18  19
ENDBRANCH  16  18
ENDBRANCH  13  16
ENDBRANCH   9  13
ENDBRANCH   5   8
ENDBRANCH   3   4
ENDBRANCH   2   3
ENDBRANCH   1   2
BRANCH   1  25
ATOM     25  C   UNL A   1      31.486  28.898  25.278  1.00  0.00     0.002 C 
BRANCH  25  26
ATOM     26  C   UNL A   1      32.225  27.852  26.120  1.00  0.00     0.021 C 
BRANCH  26  27
ATOM     27  C   UNL A   1      33.341  28.415  26.997  1.00  0.00     0.116 C 
BRANCH  27  28
ATOM     28  N   UNL A   1      33.321  29.866  27.021  1.00  0.00    -0.352 N 
ATOM     29  C   UNL A   1      34.191  30.750  27.607  1.00  0.00     0.251 C 
ATOM     30  H   UNL A   1      32.566  30.279  26.544  1.00  0.00     0.163 HD
ATOM     31  O   UNL A   1      33.856  31.926  27.724  1.00  0.00    -0.269 OA
BRANCH  29  32
ATOM     32  C   UNL A   1      35.510  30.298  28.103  1.00  0.00     0.039 A 
ATOM     33  C   UNL A   1      35.577  29.699  29.365  1.00  0.00     0.014 A 
ATOM     34  C   UNL A   1      36.683  30.506  27.370  1.00  0.00     0.014 A 
ATOM     35  C   UNL A   1      36.809  29.279  29.870  1.00  0.00     0.010 A 
ATOM     36  C   UNL A   1      37.902  30.024  27.846  1.00  0.00     0.010 A 
ATOM     37  C   UNL A   1      37.980  29.416  29.107  1.00  0.00    -0.014 A 
BRANCH  37  38
ATOM     38  C   UNL A   1      39.279  28.920  29.634  1.00  0.00     0.031 A 
ATOM     39  C   UNL A   1      39.921  29.570  30.829  1.00  0.00     0.074 A 
ATOM     40  C   UNL A   1      39.884  27.886  29.019  1.00  0.00     0.049 A 
ATOM     41  N   UNL A   1      41.024  29.242  31.454  1.00  0.00    -0.248 NA
ATOM     42  C   UNL A   1      39.252  30.758  31.377  1.00  0.00     0.031 C 
ATOM     43  C   UNL A   1      39.386  27.215  27.815  1.00  0.00     0.029 A 
ATOM     44  N   UNL A   1      41.039  27.210  29.320  1.00  0.00    -0.354 N 
ATOM     45  C   UNL A   1      41.182  30.183  32.468  1.00  0.00     0.074 A 
ATOM     46  C   UNL A   1      40.096  31.131  32.327  1.00  0.00     0.031 C 
ATOM     47  C   UNL A   1      40.208  26.200  27.505  1.00  0.00     0.029 A 
ATOM     48  C   UNL A   1      41.306  26.165  28.465  1.00  0.00     0.049 A 
ATOM     49  H   UNL A   1      41.621  27.450  30.076  1.00  0.00     0.167 HD
ATOM     50  C   UNL A   1      42.128  30.236  33.439  1.00  0.00     0.034 A 
ATOM     51  C   UNL A   1      42.317  25.275  28.461  1.00  0.00     0.034 A 
ATOM     52  C   UNL A   1      43.202  29.278  33.565  1.00  0.00     0.049 A 
ATOM     53  C   UNL A   1      43.350  25.347  29.555  1.00  0.00     0.074 A 
ATOM     54  C   UNL A   1      44.183  29.202  34.540  1.00  0.00     0.029 A 
ATOM     55  N   UNL A   1      43.444  28.232  32.682  1.00  0.00    -0.354 N 
ATOM     56  N   UNL A   1      43.444  26.200  30.549  1.00  0.00    -0.248 NA
ATOM     57  C   UNL A   1      44.400  24.322  29.537  1.00  0.00     0.031 C 
ATOM     58  C   UNL A   1      45.052  28.155  34.210  1.00  0.00     0.029 A 
ATOM     59  C   UNL A   1      44.574  27.527  33.071  1.00  0.00     0.049 A 
ATOM     60  H   UNL A   1      42.893  28.022  31.893  1.00  0.00     0.167 HD
ATOM     61  C   UNL A   1      44.555  25.799  31.288  1.00  0.00     0.074 A 
ATOM     62  C   UNL A   1      45.073  24.611  30.639  1.00  0.00     0.031 C 
ATOM     63  C   UNL A   1      45.098  26.360  32.399  1.00  0.00     0.034 A 
BRANCH  50  64
ATOM     64  C   UNL A   1      42.053  31.382  34.423  1.00  0.00     0.023 A 
ATOM     65  C   UNL A   1      41.075  31.425  35.434  1.00  0.00     0.031 A 
ATOM     66  C   UNL A   1      42.950  32.460  34.334  1.00  0.00     0.131 A 
ATOM     67  C   UNL A   1      40.969  32.554  36.262  1.00  0.00     0.055 A 
ATOM     68  C   UNL A   1      42.892  33.544  35.215  1.00  0.00     0.041 A 
ATOM     69  F   UNL A   1      43.893  32.489  33.379  1.00  0.00    -0.206 F 
ATOM     70  C   UNL A   1      41.887  33.602  36.176  1.00  0.00     0.022 A 
BRANCH  67  71
ATOM     71  S   UNL A   1      39.526  32.697  37.353  1.00  0.00     0.124 S 
ATOM     72  O   UNL A   1      38.770  31.498  36.999  1.00  0.00    -0.237 OA
ATOM     73  O   UNL A   1      40.132  32.703  38.679  1.00  0.00    -0.237 OA
ATOM     74  O   UNL A   1      38.910  33.956  36.942  1.00  0.00    -0.744 OA
ENDBRANCH  67  71
ENDBRANCH  50  64
BRANCH  51  75
ATOM     75  C   UNL A   1      42.399  24.233  27.398  1.00  0.00     0.023 A 
ATOM     76  C   UNL A   1      41.837  22.961  27.583  1.00  0.00     0.031 A 
ATOM     77  C   UNL A   1      43.075  24.487  26.190  1.00  0.00     0.131 A 
ATOM     78  C   UNL A   1      41.999  21.974  26.598  1.00  0.00     0.055 A 
ATOM     79  C   UNL A   1      43.189  23.518  25.192  1.00  0.00     0.041 A 
ATOM     80  F   UNL A   1      43.623  25.691  25.958  1.00  0.00    -0.206 F 
ATOM     81  C   UNL A   1      42.661  22.248  25.399  1.00  0.00     0.022 A 
BRANCH  78  82
ATOM     82  S   UNL A   1      41.397  20.298  26.941  1.00  0.00     0.124 S 
ATOM     83  O   UNL A   1      40.778  20.466  28.250  1.00  0.00    -0.237 OA
ATOM     84  O   UNL A   1      40.487  20.068  25.824  1.00  0.00    -0.237 OA
ATOM     85  O   UNL A   1      42.616  19.490  26.925  1.00  0.00    -0.744 OA
ENDBRANCH  78  82
ENDBRANCH  51  75
BRANCH  63  86
ATOM     86  C   UNL A   1      46.307  25.669  32.983  1.00  0.00     0.023 A 
ATOM     87  C   UNL A   1      47.608  25.953  32.529  1.00  0.00     0.031 A 
ATOM     88  C   UNL A   1      46.155  24.677  33.967  1.00  0.00     0.131 A 
ATOM     89  C   UNL A   1      48.694  25.201  32.999  1.00  0.00     0.055 A 
ATOM     90  C   UNL A   1      47.248  23.979  34.483  1.00  0.00     0.041 A 
ATOM     91  F   UNL A   1      44.937  24.361  34.436  1.00  0.00    -0.206 F 
ATOM     92  C   UNL A   1      48.524  24.226  33.984  1.00  0.00     0.022 A 
BRANCH  89  93
ATOM     93  S   UNL A   1      50.312  25.422  32.207  1.00  0.00     0.124 S 
ATOM     94  O   UNL A   1      50.589  24.080  31.703  1.00  0.00    -0.237 OA
ATOM     95  O   UNL A   1      50.027  26.436  31.197  1.00  0.00    -0.237 OA
ATOM     96  O   UNL A   1      51.172  25.862  33.303  1.00  0.00    -0.744 OA
ENDBRANCH  89  93
ENDBRANCH  63  86
ENDBRANCH  37  38
ENDBRANCH  29  32
ENDBRANCH  27  28
ENDBRANCH  26  27
ENDBRANCH  25  26
ENDBRANCH   1  25
TORSDOF 20
ENDMDL
MODEL 2
REMARK VINA RESULT:     -10.9      2.190      2.565
REMARK SMILES Cc1ccsc1CNS(=O)(=O)c1ccc(C(=O)NCCCCCCNC(=O)c2ccc(-c3c4nc(c(-c5cc(S(=O)(=O)[O-])ccc5F)c5ccc([nH]5)c(-c5cc(S(=O)(=O)[O-])ccc5F)c5nc(c(-c6cc(S(=O)(=O)[O-])ccc6F)c6ccc3[nH]6)C=C5)C=C4)cc2)s1
REMARK SMILES IDX 21 1 20 2 19 3 18 4 16 5 17 6 15 8 12 9 13 10 91 11 14 12
REMARK SMILES IDX 9 13 10 14 11 15 8 16 7 18 6 19 1 20 2 21 3 22 4 23 5 24
REMARK SMILES IDX 22 25 23 26 24 27 25 28 26 29 27 31 28 32 29 33 90 34 30 35
REMARK SMILES IDX 89 36 31 37 32 38 33 39 83 40 34 41 88 42 82 43 84 44 35 45
REMARK SMILES IDX 87 46 81 47 80 48 36 50 68 51 48 52 67 53 49 54 52 55 66 56
REMARK SMILES IDX 85 57 50 58 51 59 65 61 86 62 53 63 37 64 38 65 46 66 39 67
REMARK SMILES IDX 45 68 47 69 44 70 40 71 41 72 42 73 43 74 69 75 70 76 78 77
REMARK SMILES IDX 71 78 77 79 79 80 76 81 72 82 73 83 74 84 75 85 54 86 55 87
REMARK SMILES IDX 63 88 56 89 62 90 64 91 61 92 57 93 58 94 59 95 60 96
REMARK H PARENT 18 7 8 17 25 30 84 49 52 60
REMARK Flexibility Score: inf
ROOT
ATOM      1  C   UNL A   1      33.026  28.200  24.657  1.00  0.00     0.002 C 
ENDROOT
BRANCH   1   2
ATOM      2  C   UNL A   1      32.294  29.078  23.632  1.00  0.00     0.021 C 
BRANCH   2   3
ATOM      3  C   UNL A   1      31.546  28.266  22.574  1.00  0.00     0.116 C 
BRANCH   3   4
ATOM      4  N   UNL A   1      30.144  28.174  22.916  1.00  0.00    -0.351 N 
ATOM      5  C   UNL A   1      29.386  27.159  23.441  1.00  0.00     0.261 C 
ATOM      6  O   UNL A   1      28.190  27.431  23.585  1.00  0.00    -0.268 OA
ATOM      7  H   UNL A   1      29.636  28.998  22.738  1.00  0.00     0.163 HD
BRANCH   5   8
ATOM      8  C   UNL A   1      29.969  25.885  23.851  1.00  0.00     0.093 A 
ATOM      9  C   UNL A   1      30.841  24.124  25.386  1.00  0.00     0.135 A 
ATOM     10  C   UNL A   1      31.160  23.878  24.066  1.00  0.00     0.034 A 
ATOM     11  S   UNL A   1      29.824  25.478  25.519  1.00  0.00    -0.117 S 
ATOM     12  C   UNL A   1      30.618  24.862  23.182  1.00  0.00     0.027 A 
BRANCH   9  13
ATOM     13  S   UNL A   1      31.289  23.279  26.880  1.00  0.00     0.250 S 
ATOM     14  O   UNL A   1      30.066  22.652  27.332  1.00  0.00    -0.206 OA
ATOM     15  O   UNL A   1      31.955  24.281  27.682  1.00  0.00    -0.206 OA
BRANCH  13  16
ATOM     16  N   UNL A   1      32.417  22.062  26.612  1.00  0.00    -0.205 NA
ATOM     17  H   UNL A   1      32.064  21.212  27.051  1.00  0.00     0.141 HD
BRANCH  16  18
ATOM     18  C   UNL A   1      33.777  22.291  27.119  1.00  0.00     0.145 C 
BRANCH  18  19
ATOM     19  C   UNL A   1      34.720  22.455  25.955  1.00  0.00     0.022 A 
ATOM     20  C   UNL A   1      34.501  24.980  25.488  1.00  0.00     0.045 C 
ATOM     21  C   UNL A   1      35.039  23.606  25.245  1.00  0.00    -0.036 A 
ATOM     22  C   UNL A   1      35.998  23.327  24.213  1.00  0.00     0.015 A 
ATOM     23  C   UNL A   1      36.384  22.008  24.184  1.00  0.00     0.065 A 
ATOM     24  S   UNL A   1      35.620  21.096  25.401  1.00  0.00    -0.147 S 
ENDBRANCH  18  19
ENDBRANCH  16  18
ENDBRANCH  13  16
ENDBRANCH   9  13
ENDBRANCH   5   8
ENDBRANCH   3   4
ENDBRANCH   2   3
ENDBRANCH   1   2
BRANCH   1  25
ATOM     25  C   UNL A   1      32.253  27.945  25.958  1.00  0.00     0.002 C 
BRANCH  25  26
ATOM     26  C   UNL A   1      32.508  28.960  27.077  1.00  0.00     0.021 C 
BRANCH  26  27
ATOM     27  C   UNL A   1      33.839  29.701  26.972  1.00  0.00     0.116 C 
BRANCH  27  28
ATOM     28  N   UNL A   1      33.728  31.068  27.449  1.00  0.00    -0.352 N 
ATOM     29  C   UNL A   1      34.501  31.750  28.355  1.00  0.00     0.251 C 
ATOM     30  H   UNL A   1      32.984  31.584  27.065  1.00  0.00     0.163 HD
ATOM     31  O   UNL A   1      34.088  32.814  28.807  1.00  0.00    -0.269 OA
BRANCH  29  32
ATOM     32  C   UNL A   1      35.809  31.211  28.793  1.00  0.00     0.039 A 
ATOM     33  C   UNL A   1      35.820  30.084  29.620  1.00  0.00     0.014 A 
ATOM     34  C   UNL A   1      37.013  31.834  28.448  1.00  0.00     0.014 A 
ATOM     35  C   UNL A   1      37.037  29.563  30.066  1.00  0.00     0.010 A 
ATOM     36  C   UNL A   1      38.228  31.272  28.838  1.00  0.00     0.010 A 
ATOM     37  C   UNL A   1      38.253  30.137  29.661  1.00  0.00    -0.014 A 
BRANCH  37  38
ATOM     38  C   UNL A   1      39.543  29.544  30.102  1.00  0.00     0.031 A 
ATOM     39  C   UNL A   1      40.265  30.084  31.306  1.00  0.00     0.074 A 
ATOM     40  C   UNL A   1      40.068  28.521  29.400  1.00  0.00     0.049 A 
ATOM     41  N   UNL A   1      41.373  29.663  31.863  1.00  0.00    -0.248 NA
ATOM     42  C   UNL A   1      39.682  31.268  31.953  1.00  0.00     0.031 C 
ATOM     43  C   UNL A   1      39.489  27.953  28.180  1.00  0.00     0.029 A 
ATOM     44  N   UNL A   1      41.197  27.771  29.611  1.00  0.00    -0.354 N 
ATOM     45  C   UNL A   1      41.620  30.529  32.924  1.00  0.00     0.074 A 
ATOM     46  C   UNL A   1      40.581  31.537  32.887  1.00  0.00     0.031 C 
ATOM     47  C   UNL A   1      40.244  26.919  27.775  1.00  0.00     0.029 A 
ATOM     48  C   UNL A   1      41.375  26.769  28.684  1.00  0.00     0.049 A 
ATOM     49  H   UNL A   1      41.820  27.933  30.354  1.00  0.00     0.167 HD
ATOM     50  C   UNL A   1      42.604  30.473  33.856  1.00  0.00     0.034 A 
ATOM     51  C   UNL A   1      42.336  25.831  28.583  1.00  0.00     0.034 A 
ATOM     52  C   UNL A   1      43.630  29.456  33.878  1.00  0.00     0.049 A 
ATOM     53  C   UNL A   1      43.414  25.782  29.635  1.00  0.00     0.074 A 
ATOM     54  C   UNL A   1      44.643  29.270  34.805  1.00  0.00     0.029 A 
ATOM     55  N   UNL A   1      43.782  28.457  32.924  1.00  0.00    -0.354 N 
ATOM     56  N   UNL A   1      43.592  26.565  30.674  1.00  0.00    -0.248 NA
ATOM     57  C   UNL A   1      44.406  24.709  29.510  1.00  0.00     0.031 C 
ATOM     58  C   UNL A   1      45.442  28.204  34.375  1.00  0.00     0.029 A 
ATOM     59  C   UNL A   1      44.887  27.673  33.222  1.00  0.00     0.049 A 
ATOM     60  H   UNL A   1      43.190  28.325  32.148  1.00  0.00     0.167 HD
ATOM     61  C   UNL A   1      44.707  26.063  31.339  1.00  0.00     0.074 A 
ATOM     62  C   UNL A   1      45.136  24.894  30.598  1.00  0.00     0.031 C 
ATOM     63  C   UNL A   1      45.323  26.526  32.458  1.00  0.00     0.034 A 
BRANCH  50  64
ATOM     64  C   UNL A   1      42.628  31.558  34.910  1.00  0.00     0.023 A 
ATOM     65  C   UNL A   1      41.712  31.571  35.977  1.00  0.00     0.031 A 
ATOM     66  C   UNL A   1      43.559  32.608  34.833  1.00  0.00     0.131 A 
ATOM     67  C   UNL A   1      41.696  32.649  36.877  1.00  0.00     0.055 A 
ATOM     68  C   UNL A   1      43.592  33.636  35.779  1.00  0.00     0.041 A 
ATOM     69  F   UNL A   1      44.447  32.664  33.827  1.00  0.00    -0.206 F 
ATOM     70  C   UNL A   1      42.645  33.669  36.800  1.00  0.00     0.022 A 
BRANCH  67  71
ATOM     71  S   UNL A   1      40.324  32.772  38.058  1.00  0.00     0.124 S 
ATOM     72  O   UNL A   1      40.031  34.203  38.020  1.00  0.00    -0.237 OA
ATOM     73  O   UNL A   1      39.319  31.898  37.466  1.00  0.00    -0.237 OA
ATOM     74  O   UNL A   1      40.906  32.297  39.311  1.00  0.00    -0.744 OA
ENDBRANCH  67  71
ENDBRANCH  50  64
BRANCH  51  75
ATOM     75  C   UNL A   1      42.322  24.855  27.456  1.00  0.00     0.023 A 
ATOM     76  C   UNL A   1      41.539  23.692  27.512  1.00  0.00     0.031 A 
ATOM     77  C   UNL A   1      43.122  25.058  26.317  1.00  0.00     0.131 A 
ATOM     78  C   UNL A   1      41.606  22.752  26.472  1.00  0.00     0.055 A 
ATOM     79  C   UNL A   1      43.146  24.144  25.262  1.00  0.00     0.041 A 
ATOM     80  F   UNL A   1      43.883  26.159  26.207  1.00  0.00    -0.206 F 
ATOM     81  C   UNL A   1      42.395  22.976  25.342  1.00  0.00     0.022 A 
BRANCH  78  82
ATOM     82  S   UNL A   1      40.704  21.189  26.655  1.00  0.00     0.124 S 
ATOM     83  O   UNL A   1      39.381  21.549  26.159  1.00  0.00    -0.237 OA
ATOM     84  O   UNL A   1      41.483  20.289  25.812  1.00  0.00    -0.237 OA
ATOM     85  O   UNL A   1      40.781  20.919  28.090  1.00  0.00    -0.744 OA
ENDBRANCH  78  82
ENDBRANCH  51  75
BRANCH  63  86
ATOM     86  C   UNL A   1      46.516  25.739  32.948  1.00  0.00     0.023 A 
ATOM     87  C   UNL A   1      46.373  24.679  33.861  1.00  0.00     0.031 A 
ATOM     88  C   UNL A   1      47.815  26.087  32.538  1.00  0.00     0.131 A 
ATOM     89  C   UNL A   1      47.511  24.057  34.394  1.00  0.00     0.055 A 
ATOM     90  C   UNL A   1      48.941  25.418  33.019  1.00  0.00     0.041 A 
ATOM     91  F   UNL A   1      48.012  27.092  31.670  1.00  0.00    -0.206 F 
ATOM     92  C   UNL A   1      48.794  24.409  33.968  1.00  0.00     0.022 A 
BRANCH  89  93
ATOM     93  S   UNL A   1      47.297  22.873  35.753  1.00  0.00     0.124 S 
ATOM     94  O   UNL A   1      47.740  21.625  35.140  1.00  0.00    -0.237 OA
ATOM     95  O   UNL A   1      48.171  23.422  36.784  1.00  0.00    -0.237 OA
ATOM     96  O   UNL A   1      45.868  22.945  36.048  1.00  0.00    -0.744 OA
ENDBRANCH  89  93
ENDBRANCH  63  86
ENDBRANCH  37  38
ENDBRANCH  29  32
ENDBRANCH  27  28
ENDBRANCH  26  27
ENDBRANCH  25  26
ENDBRANCH   1  25
TORSDOF 20
ENDMDL
MODEL 3
REMARK VINA RESULT:     -10.8      3.442      8.483
REMARK SMILES Cc1ccsc1CNS(=O)(=O)c1ccc(C(=O)NCCCCCCNC(=O)c2ccc(-c3c4nc(c(-c5cc(S(=O)(=O)[O-])ccc5F)c5ccc([nH]5)c(-c5cc(S(=O)(=O)[O-])ccc5F)c5nc(c(-c6cc(S(=O)(=O)[O-])ccc6F)c6ccc3[nH]6)C=C5)C=C4)cc2)s1
REMARK SMILES IDX 21 1 20 2 19 3 18 4 16 5 17 6 15 8 12 9 13 10 91 11 14 12
REMARK SMILES IDX 9 13 10 14 11 15 8 16 7 18 6 19 1 20 2 21 3 22 4 23 5 24
REMARK SMILES IDX 22 25 23 26 24 27 25 28 26 29 27 31 28 32 29 33 90 34 30 35
REMARK SMILES IDX 89 36 31 37 32 38 33 39 83 40 34 41 88 42 82 43 84 44 35 45
REMARK SMILES IDX 87 46 81 47 80 48 36 50 68 51 48 52 67 53 49 54 52 55 66 56
REMARK SMILES IDX 85 57 50 58 51 59 65 61 86 62 53 63 37 64 38 65 46 66 39 67
REMARK SMILES IDX 45 68 47 69 44 70 40 71 41 72 42 73 43 74 69 75 70 76 78 77
REMARK SMILES IDX 71 78 77 79 79 80 76 81 72 82 73 83 74 84 75 85 54 86 55 87
REMARK SMILES IDX 63 88 56 89 62 90 64 91 61 92 57 93 58 94 59 95 60 96
REMARK H PARENT 18 7 8 17 25 30 84 49 52 60
REMARK Flexibility Score: inf
ROOT
ATOM      1  C   UNL A   1      32.171  30.136  25.745  1.00  0.00     0.002 C 
ENDROOT
BRANCH   1   2
ATOM      2  C   UNL A   1      31.708  29.235  24.591  1.00  0.00     0.021 C 
BRANCH   2   3
ATOM      3  C   UNL A   1      32.855  28.785  23.685  1.00  0.00     0.116 C 
BRANCH   3   4
ATOM      4  N   UNL A   1      32.346  27.967  22.607  1.00  0.00    -0.351 N 
ATOM      5  C   UNL A   1      32.271  26.608  22.434  1.00  0.00     0.261 C 
ATOM      6  O   UNL A   1      31.785  26.253  21.355  1.00  0.00    -0.268 OA
ATOM      7  H   UNL A   1      31.983  28.484  21.853  1.00  0.00     0.163 HD
BRANCH   5   8
ATOM      8  C   UNL A   1      32.681  25.669  23.472  1.00  0.00     0.093 A 
ATOM      9  C   UNL A   1      32.447  23.948  25.261  1.00  0.00     0.135 A 
ATOM     10  C   UNL A   1      33.711  24.501  25.224  1.00  0.00     0.034 A 
ATOM     11  S   UNL A   1      31.500  24.517  23.971  1.00  0.00    -0.117 S 
ATOM     12  C   UNL A   1      33.858  25.452  24.166  1.00  0.00     0.027 A 
BRANCH   9  13
ATOM     13  S   UNL A   1      31.707  22.784  26.378  1.00  0.00     0.250 S 
ATOM     14  O   UNL A   1      30.290  22.850  26.093  1.00  0.00    -0.206 OA
ATOM     15  O   UNL A   1      32.225  23.143  27.678  1.00  0.00    -0.206 OA
BRANCH  13  16
ATOM     16  N   UNL A   1      32.213  21.209  26.086  1.00  0.00    -0.205 NA
ATOM     17  H   UNL A   1      33.143  21.103  26.493  1.00  0.00     0.141 HD
BRANCH  16  18
ATOM     18  C   UNL A   1      32.294  20.784  24.682  1.00  0.00     0.145 C 
BRANCH  18  19
ATOM     19  C   UNL A   1      33.198  19.584  24.576  1.00  0.00     0.022 A 
ATOM     20  C   UNL A   1      35.507  20.666  24.956  1.00  0.00     0.045 C 
ATOM     21  C   UNL A   1      34.582  19.521  24.692  1.00  0.00    -0.036 A 
ATOM     22  C   UNL A   1      35.051  18.172  24.538  1.00  0.00     0.015 A 
ATOM     23  C   UNL A   1      34.034  17.271  24.335  1.00  0.00     0.065 A 
ATOM     24  S   UNL A   1      32.507  18.024  24.346  1.00  0.00    -0.147 S 
ENDBRANCH  18  19
ENDBRANCH  16  18
ENDBRANCH  13  16
ENDBRANCH   9  13
ENDBRANCH   5   8
ENDBRANCH   3   4
ENDBRANCH   2   3
ENDBRANCH   1   2
BRANCH   1  25
ATOM     25  C   UNL A   1      31.068  31.001  26.371  1.00  0.00     0.002 C 
BRANCH  25  26
ATOM     26  C   UNL A   1      31.405  32.490  26.503  1.00  0.00     0.021 C 
BRANCH  26  27
ATOM     27  C   UNL A   1      32.673  32.787  27.300  1.00  0.00     0.116 C 
BRANCH  27  28
ATOM     28  N   UNL A   1      32.781  34.198  27.625  1.00  0.00    -0.352 N 
ATOM     29  C   UNL A   1      33.509  34.823  28.605  1.00  0.00     0.251 C 
ATOM     30  H   UNL A   1      32.249  34.798  27.054  1.00  0.00     0.163 HD
ATOM     31  O   UNL A   1      33.266  35.997  28.870  1.00  0.00    -0.269 OA
BRANCH  29  32
ATOM     32  C   UNL A   1      34.567  34.097  29.343  1.00  0.00     0.039 A 
ATOM     33  C   UNL A   1      35.900  34.319  28.987  1.00  0.00     0.014 A 
ATOM     34  C   UNL A   1      34.260  33.162  30.338  1.00  0.00     0.014 A 
ATOM     35  C   UNL A   1      36.920  33.636  29.652  1.00  0.00     0.010 A 
ATOM     36  C   UNL A   1      35.282  32.532  31.047  1.00  0.00     0.010 A 
ATOM     37  C   UNL A   1      36.624  32.753  30.703  1.00  0.00    -0.014 A 
BRANCH  37  38
ATOM     38  C   UNL A   1      37.720  32.068  31.437  1.00  0.00     0.031 A 
ATOM     39  C   UNL A   1      38.513  30.970  30.783  1.00  0.00     0.074 A 
ATOM     40  C   UNL A   1      37.990  32.435  32.705  1.00  0.00     0.049 A 
ATOM     41  N   UNL A   1      39.533  30.295  31.251  1.00  0.00    -0.248 NA
ATOM     42  C   UNL A   1      38.088  30.556  29.438  1.00  0.00     0.031 C 
ATOM     43  C   UNL A   1      37.248  33.446  33.464  1.00  0.00     0.029 A 
ATOM     44  N   UNL A   1      38.960  32.012  33.577  1.00  0.00    -0.354 N 
ATOM     45  C   UNL A   1      39.872  29.378  30.261  1.00  0.00     0.074 A 
ATOM     46  C   UNL A   1      38.903  29.540  29.197  1.00  0.00     0.031 C 
ATOM     47  C   UNL A   1      37.816  33.593  34.671  1.00  0.00     0.029 A 
ATOM     48  C   UNL A   1      38.939  32.669  34.787  1.00  0.00     0.049 A 
ATOM     49  H   UNL A   1      39.610  31.307  33.358  1.00  0.00     0.167 HD
ATOM     50  C   UNL A   1      40.907  28.502  30.231  1.00  0.00     0.034 A 
ATOM     51  C   UNL A   1      39.739  32.546  35.863  1.00  0.00     0.034 A 
ATOM     52  C   UNL A   1      41.866  28.357  31.303  1.00  0.00     0.049 A 
ATOM     53  C   UNL A   1      40.889  31.573  35.803  1.00  0.00     0.074 A 
ATOM     54  C   UNL A   1      42.984  27.542  31.358  1.00  0.00     0.029 A 
ATOM     55  N   UNL A   1      41.814  29.037  32.514  1.00  0.00    -0.354 N 
ATOM     56  N   UNL A   1      41.239  30.764  34.830  1.00  0.00    -0.248 NA
ATOM     57  C   UNL A   1      41.763  31.516  36.980  1.00  0.00     0.031 C 
ATOM     58  C   UNL A   1      43.568  27.680  32.623  1.00  0.00     0.029 A 
ATOM     59  C   UNL A   1      42.861  28.637  33.333  1.00  0.00     0.049 A 
ATOM     60  H   UNL A   1      41.133  29.706  32.757  1.00  0.00     0.167 HD
ATOM     61  C   UNL A   1      42.389  30.115  35.272  1.00  0.00     0.074 A 
ATOM     62  C   UNL A   1      42.686  30.654  36.584  1.00  0.00     0.031 C 
ATOM     63  C   UNL A   1      43.131  29.161  34.653  1.00  0.00     0.034 A 
BRANCH  50  64
ATOM     64  C   UNL A   1      41.037  27.618  29.011  1.00  0.00     0.023 A 
ATOM     65  C   UNL A   1      42.021  27.849  28.033  1.00  0.00     0.031 A 
ATOM     66  C   UNL A   1      40.149  26.548  28.806  1.00  0.00     0.131 A 
ATOM     67  C   UNL A   1      42.045  27.073  26.863  1.00  0.00     0.055 A 
ATOM     68  C   UNL A   1      40.229  25.726  27.679  1.00  0.00     0.041 A 
ATOM     69  F   UNL A   1      39.174  26.288  29.693  1.00  0.00    -0.206 F 
ATOM     70  C   UNL A   1      41.172  25.997  26.690  1.00  0.00     0.022 A 
BRANCH  67  71
ATOM     71  S   UNL A   1      43.137  27.583  25.507  1.00  0.00     0.124 S 
ATOM     72  O   UNL A   1      43.639  26.295  25.032  1.00  0.00    -0.237 OA
ATOM     73  O   UNL A   1      42.222  28.282  24.612  1.00  0.00    -0.237 OA
ATOM     74  O   UNL A   1      44.131  28.426  26.166  1.00  0.00    -0.744 OA
ENDBRANCH  67  71
ENDBRANCH  50  64
BRANCH  51  75
ATOM     75  C   UNL A   1      39.494  33.367  37.082  1.00  0.00     0.023 A 
ATOM     76  C   UNL A   1      38.858  32.823  38.209  1.00  0.00     0.031 A 
ATOM     77  C   UNL A   1      39.865  34.724  37.124  1.00  0.00     0.131 A 
ATOM     78  C   UNL A   1      38.569  33.641  39.312  1.00  0.00     0.055 A 
ATOM     79  C   UNL A   1      39.621  35.520  38.244  1.00  0.00     0.041 A 
ATOM     80  F   UNL A   1      40.485  35.291  36.078  1.00  0.00    -0.206 F 
ATOM     81  C   UNL A   1      38.957  34.982  39.342  1.00  0.00     0.022 A 
BRANCH  78  82
ATOM     82  S   UNL A   1      37.605  32.943  40.681  1.00  0.00     0.124 S 
ATOM     83  O   UNL A   1      36.245  33.031  40.163  1.00  0.00    -0.237 OA
ATOM     84  O   UNL A   1      38.164  31.600  40.791  1.00  0.00    -0.237 OA
ATOM     85  O   UNL A   1      37.907  33.835  41.799  1.00  0.00    -0.744 OA
ENDBRANCH  78  82
ENDBRANCH  51  75
BRANCH  63  86
ATOM     86  C   UNL A   1      44.348  28.663  35.396  1.00  0.00     0.023 A 
ATOM     87  C   UNL A   1      44.266  27.596  36.309  1.00  0.00     0.031 A 
ATOM     88  C   UNL A   1      45.592  29.295  35.229  1.00  0.00     0.131 A 
ATOM     89  C   UNL A   1      45.386  27.246  37.077  1.00  0.00     0.055 A 
ATOM     90  C   UNL A   1      46.721  28.896  35.946  1.00  0.00     0.041 A 
ATOM     91  F   UNL A   1      45.729  30.321  34.373  1.00  0.00    -0.206 F 
ATOM     92  C   UNL A   1      46.617  27.879  36.891  1.00  0.00     0.022 A 
BRANCH  89  93
ATOM     93  S   UNL A   1      45.176  26.042  38.418  1.00  0.00     0.124 S 
ATOM     94  O   UNL A   1      44.220  25.103  37.837  1.00  0.00    -0.237 OA
ATOM     95  O   UNL A   1      46.533  25.539  38.600  1.00  0.00    -0.237 OA
ATOM     96  O   UNL A   1      44.660  26.846  39.523  1.00  0.00    -0.744 OA
ENDBRANCH  89  93
ENDBRANCH  63  86
ENDBRANCH  37  38
ENDBRANCH  29  32
ENDBRANCH  27  28
ENDBRANCH  26  27
ENDBRANCH  25  26
ENDBRANCH   1  25
TORSDOF 20
ENDMDL
