MODEL 1
REMARK VINA RESULT:     -12.1      0.000      0.000
REMARK SMILES Cc1cc(Br)cc2c1O[C@H](C(F)(F)F)C(C(=O)NCCCCCCNC(=O)c1ccc(-c3c4nc(c(-c5cc(S(=O)(=O)[O-])ccc5F)c5ccc([nH]5)c(-c5cc(S(=O)(=O)[O-])ccc5F)c5nc(c(-c6cc(S(=O)(=O)[O-])ccc6F)c6ccc3[nH]6)C=C5)C=C4)cc1)=C2
REMARK SMILES IDX 22 1 21 2 20 3 19 4 18 5 16 6 17 7 15 9 1 10 2 11 3 12 8 13
REMARK SMILES IDX 4 14 7 15 9 16 5 17 6 18 91 19 10 20 11 21 12 22 13 23 14 24
REMARK SMILES IDX 23 25 24 26 25 27 26 28 27 30 28 31 29 32 90 33 30 34 89 35
REMARK SMILES IDX 31 36 32 37 33 38 83 39 34 40 88 41 82 42 84 43 35 44 87 45
REMARK SMILES IDX 81 46 80 47 36 49 68 50 48 51 67 52 49 53 52 54 66 55 85 56
REMARK SMILES IDX 50 57 51 58 65 60 86 61 53 62 37 63 38 64 46 65 39 66 45 67
REMARK SMILES IDX 47 68 44 69 40 70 41 71 42 72 43 73 69 74 70 75 78 76 71 77
REMARK SMILES IDX 77 78 79 79 76 80 72 81 73 82 74 83 75 84 54 85 55 86 63 87
REMARK SMILES IDX 56 88 62 89 64 90 61 91 57 92 58 93 59 94 60 95
REMARK H PARENT 18 8 25 29 84 48 52 59
REMARK Flexibility Score: inf
ROOT
ATOM      1  C   UNL A   1      35.384  23.112  23.568  1.00  0.00     0.002 C 
ENDROOT
BRANCH   1   2
ATOM      2  C   UNL A   1      34.099  22.366  23.183  1.00  0.00     0.002 C 
BRANCH   2   3
ATOM      3  C   UNL A   1      33.196  21.977  24.356  1.00  0.00     0.021 C 
BRANCH   3   4
ATOM      4  C   UNL A   1      31.750  22.440  24.200  1.00  0.00     0.116 C 
BRANCH   4   5
ATOM      5  N   UNL A   1      31.109  22.656  25.486  1.00  0.00    -0.352 N 
ATOM      6  C   UNL A   1      30.737  23.712  26.243  1.00  0.00     0.251 C 
ATOM      7  O   UNL A   1      30.165  23.426  27.301  1.00  0.00    -0.270 OA
ATOM      8  H   UNL A   1      30.886  21.803  25.923  1.00  0.00     0.163 HD
BRANCH   6   9
ATOM      9  C   UNL A   1      30.964  25.148  25.898  1.00  0.00     0.067 C 
ATOM     10  C   UNL A   1      32.290  30.105  25.736  1.00  0.00     0.048 C 
ATOM     11  C   UNL A   1      31.318  29.243  24.981  1.00  0.00    -0.007 A 
ATOM     12  C   UNL A   1      30.524  29.786  23.964  1.00  0.00     0.023 A 
ATOM     13  C   UNL A   1      31.167  27.886  25.303  1.00  0.00     0.130 A 
ATOM     14  C   UNL A   1      29.609  28.979  23.286  1.00  0.00     0.019 A 
ATOM     15  C   UNL A   1      30.244  27.079  24.632  1.00  0.00     0.019 A 
ATOM     16  O   UNL A   1      31.924  27.412  26.335  1.00  0.00    -0.475 OA
ATOM     17  Br  UNL A   1      28.540  29.729  21.917  1.00  0.00    -0.051 Br
ATOM     18  C   UNL A   1      29.462  27.631  23.615  1.00  0.00     0.027 A 
ATOM     19  C   UNL A   1      30.082  25.687  25.035  1.00  0.00     0.025 C 
ATOM     20  C   UNL A   1      32.105  25.975  26.417  1.00  0.00     0.314 C 
BRANCH  20  21
ATOM     21  C   UNL A   1      33.451  25.597  25.772  1.00  0.00     0.429 C 
ATOM     22  F   UNL A   1      34.361  26.584  25.955  1.00  0.00    -0.167 F 
ATOM     23  F   UNL A   1      33.988  24.476  26.308  1.00  0.00    -0.167 F 
ATOM     24  F   UNL A   1      33.345  25.383  24.441  1.00  0.00    -0.167 F 
ENDBRANCH  20  21
ENDBRANCH   6   9
ENDBRANCH   4   5
ENDBRANCH   3   4
ENDBRANCH   2   3
ENDBRANCH   1   2
BRANCH   1  25
ATOM     25  C   UNL A   1      36.570  22.224  23.959  1.00  0.00     0.021 C 
BRANCH  25  26
ATOM     26  C   UNL A   1      36.777  22.060  25.462  1.00  0.00     0.116 C 
BRANCH  26  27
ATOM     27  N   UNL A   1      37.683  20.966  25.759  1.00  0.00    -0.352 N 
ATOM     28  C   UNL A   1      39.011  21.004  26.088  1.00  0.00     0.251 C 
ATOM     29  H   UNL A   1      37.285  20.067  25.718  1.00  0.00     0.163 HD
ATOM     30  O   UNL A   1      39.672  19.963  26.054  1.00  0.00    -0.269 OA
BRANCH  28  31
ATOM     31  C   UNL A   1      39.650  22.277  26.478  1.00  0.00     0.039 A 
ATOM     32  C   UNL A   1      39.274  23.452  25.821  1.00  0.00     0.014 A 
ATOM     33  C   UNL A   1      40.657  22.306  27.449  1.00  0.00     0.014 A 
ATOM     34  C   UNL A   1      39.884  24.661  26.160  1.00  0.00     0.010 A 
ATOM     35  C   UNL A   1      41.224  23.520  27.826  1.00  0.00     0.010 A 
ATOM     36  C   UNL A   1      40.853  24.707  27.174  1.00  0.00    -0.014 A 
BRANCH  36  37
ATOM     37  C   UNL A   1      41.536  25.973  27.532  1.00  0.00     0.031 A 
ATOM     38  C   UNL A   1      40.806  27.005  28.346  1.00  0.00     0.074 A 
ATOM     39  C   UNL A   1      42.789  26.209  27.099  1.00  0.00     0.049 A 
ATOM     40  N   UNL A   1      41.169  28.221  28.663  1.00  0.00    -0.248 NA
ATOM     41  C   UNL A   1      39.478  26.622  28.855  1.00  0.00     0.031 C 
ATOM     42  C   UNL A   1      43.599  25.280  26.309  1.00  0.00     0.029 A 
ATOM     43  N   UNL A   1      43.598  27.304  27.258  1.00  0.00    -0.354 N 
ATOM     44  C   UNL A   1      40.115  28.751  29.399  1.00  0.00     0.074 A 
ATOM     45  C   UNL A   1      39.079  27.742  29.439  1.00  0.00     0.031 C 
ATOM     46  C   UNL A   1      44.800  25.835  26.075  1.00  0.00     0.029 A 
ATOM     47  C   UNL A   1      44.826  27.175  26.654  1.00  0.00     0.049 A 
ATOM     48  H   UNL A   1      43.325  28.107  27.759  1.00  0.00     0.167 HD
ATOM     49  C   UNL A   1      40.030  29.962  30.002  1.00  0.00     0.034 A 
ATOM     50  C   UNL A   1      45.850  28.046  26.564  1.00  0.00     0.034 A 
ATOM     51  C   UNL A   1      41.077  30.953  29.966  1.00  0.00     0.049 A 
ATOM     52  C   UNL A   1      45.712  29.404  27.198  1.00  0.00     0.074 A 
ATOM     53  C   UNL A   1      41.098  32.205  30.553  1.00  0.00     0.029 A 
ATOM     54  N   UNL A   1      42.292  30.799  29.312  1.00  0.00    -0.354 N 
ATOM     55  N   UNL A   1      44.695  29.905  27.864  1.00  0.00    -0.248 NA
ATOM     56  C   UNL A   1      46.856  30.315  27.066  1.00  0.00     0.031 C 
ATOM     57  C   UNL A   1      42.302  32.830  30.212  1.00  0.00     0.029 A 
ATOM     58  C   UNL A   1      43.061  31.942  29.465  1.00  0.00     0.049 A 
ATOM     59  H   UNL A   1      42.568  29.996  28.813  1.00  0.00     0.167 HD
ATOM     60  C   UNL A   1      45.086  31.185  28.243  1.00  0.00     0.074 A 
ATOM     61  C   UNL A   1      46.434  31.373  27.745  1.00  0.00     0.031 C 
ATOM     62  C   UNL A   1      44.393  32.122  28.939  1.00  0.00     0.034 A 
BRANCH  49  63
ATOM     63  C   UNL A   1      38.753  30.285  30.732  1.00  0.00     0.023 A 
ATOM     64  C   UNL A   1      37.703  30.979  30.105  1.00  0.00     0.031 A 
ATOM     65  C   UNL A   1      38.581  29.895  32.071  1.00  0.00     0.131 A 
ATOM     66  C   UNL A   1      36.549  31.306  30.832  1.00  0.00     0.055 A 
ATOM     67  C   UNL A   1      37.402  30.164  32.770  1.00  0.00     0.041 A 
ATOM     68  F   UNL A   1      39.559  29.248  32.725  1.00  0.00    -0.206 F 
ATOM     69  C   UNL A   1      36.381  30.881  32.152  1.00  0.00     0.022 A 
BRANCH  66  70
ATOM     70  S   UNL A   1      35.303  32.369  30.055  1.00  0.00     0.124 S 
ATOM     71  O   UNL A   1      34.395  32.621  31.172  1.00  0.00    -0.237 OA
ATOM     72  O   UNL A   1      36.093  33.509  29.604  1.00  0.00    -0.237 OA
ATOM     73  O   UNL A   1      34.754  31.532  28.990  1.00  0.00    -0.744 OA
ENDBRANCH  66  70
ENDBRANCH  49  63
BRANCH  50  74
ATOM     74  C   UNL A   1      47.092  27.667  25.836  1.00  0.00     0.023 A 
ATOM     75  C   UNL A   1      47.207  27.879  24.454  1.00  0.00     0.031 A 
ATOM     76  C   UNL A   1      48.177  27.081  26.511  1.00  0.00     0.131 A 
ATOM     77  C   UNL A   1      48.374  27.483  23.783  1.00  0.00     0.055 A 
ATOM     78  C   UNL A   1      49.351  26.724  25.845  1.00  0.00     0.041 A 
ATOM     79  F   UNL A   1      48.117  26.866  27.835  1.00  0.00    -0.206 F 
ATOM     80  C   UNL A   1      49.451  26.918  24.470  1.00  0.00     0.022 A 
BRANCH  77  81
ATOM     81  S   UNL A   1      48.456  27.691  21.983  1.00  0.00     0.124 S 
ATOM     82  O   UNL A   1      48.659  26.318  21.535  1.00  0.00    -0.237 OA
ATOM     83  O   UNL A   1      47.154  28.279  21.684  1.00  0.00    -0.237 OA
ATOM     84  O   UNL A   1      49.596  28.586  21.796  1.00  0.00    -0.744 OA
ENDBRANCH  77  81
ENDBRANCH  50  74
BRANCH  62  85
ATOM     85  C   UNL A   1      45.095  33.426  29.214  1.00  0.00     0.023 A 
ATOM     86  C   UNL A   1      45.079  34.477  28.281  1.00  0.00     0.031 A 
ATOM     87  C   UNL A   1      45.789  33.619  30.422  1.00  0.00     0.131 A 
ATOM     88  C   UNL A   1      45.785  35.658  28.551  1.00  0.00     0.055 A 
ATOM     89  C   UNL A   1      46.444  34.817  30.707  1.00  0.00     0.041 A 
ATOM     90  F   UNL A   1      45.835  32.647  31.346  1.00  0.00    -0.206 F 
ATOM     91  C   UNL A   1      46.454  35.842  29.764  1.00  0.00     0.022 A 
BRANCH  88  92
ATOM     92  S   UNL A   1      45.879  36.927  27.259  1.00  0.00     0.124 S 
ATOM     93  O   UNL A   1      46.770  37.911  27.866  1.00  0.00    -0.237 OA
ATOM     94  O   UNL A   1      46.425  36.185  26.128  1.00  0.00    -0.237 OA
ATOM     95  O   UNL A   1      44.491  37.361  27.103  1.00  0.00    -0.744 OA
ENDBRANCH  88  92
ENDBRANCH  62  85
ENDBRANCH  36  37
ENDBRANCH  28  31
ENDBRANCH  26  27
ENDBRANCH  25  26
ENDBRANCH   1  25
TORSDOF 17
ENDMDL
MODEL 2
REMARK VINA RESULT:     -12.1      5.641     10.480
REMARK SMILES Cc1cc(Br)cc2c1O[C@H](C(F)(F)F)C(C(=O)NCCCCCCNC(=O)c1ccc(-c3c4nc(c(-c5cc(S(=O)(=O)[O-])ccc5F)c5ccc([nH]5)c(-c5cc(S(=O)(=O)[O-])ccc5F)c5nc(c(-c6cc(S(=O)(=O)[O-])ccc6F)c6ccc3[nH]6)C=C5)C=C4)cc1)=C2
REMARK SMILES IDX 22 1 21 2 20 3 19 4 18 5 16 6 17 7 15 9 1 10 2 11 3 12 8 13
REMARK SMILES IDX 4 14 7 15 9 16 5 17 6 18 91 19 10 20 11 21 12 22 13 23 14 24
REMARK SMILES IDX 23 25 24 26 25 27 26 28 27 30 28 31 29 32 90 33 30 34 89 35
REMARK SMILES IDX 31 36 32 37 33 38 83 39 34 40 88 41 82 42 84 43 35 44 87 45
REMARK SMILES IDX 81 46 80 47 36 49 68 50 48 51 67 52 49 53 52 54 66 55 85 56
REMARK SMILES IDX 50 57 51 58 65 60 86 61 53 62 37 63 38 64 46 65 39 66 45 67
REMARK SMILES IDX 47 68 44 69 40 70 41 71 42 72 43 73 69 74 70 75 78 76 71 77
REMARK SMILES IDX 77 78 79 79 76 80 72 81 73 82 74 83 75 84 54 85 55 86 63 87
REMARK SMILES IDX 56 88 62 89 64 90 61 91 57 92 58 93 59 94 60 95
REMARK H PARENT 18 8 25 29 84 48 52 59
REMARK Flexibility Score: inf
ROOT
ATOM      1  C   UNL A   1      31.797  30.182  26.098  1.00  0.00     0.002 C 
ENDROOT
BRANCH   1   2
ATOM      2  C   UNL A   1      32.953  29.409  26.747  1.00  0.00     0.002 C 
BRANCH   2   3
ATOM      3  C   UNL A   1      33.847  28.636  25.773  1.00  0.00     0.021 C 
BRANCH   3   4
ATOM      4  C   UNL A   1      33.815  27.124  25.975  1.00  0.00     0.116 C 
BRANCH   4   5
ATOM      5  N   UNL A   1      33.743  26.411  24.712  1.00  0.00    -0.352 N 
ATOM      6  C   UNL A   1      32.838  26.233  23.723  1.00  0.00     0.251 C 
ATOM      7  O   UNL A   1      33.225  25.545  22.772  1.00  0.00    -0.270 OA
ATOM      8  H   UNL A   1      34.580  25.926  24.525  1.00  0.00     0.163 HD
BRANCH   6   9
ATOM      9  C   UNL A   1      31.452  26.792  23.707  1.00  0.00     0.067 C 
ATOM     10  C   UNL A   1      26.381  27.591  23.653  1.00  0.00     0.048 C 
ATOM     11  C   UNL A   1      27.591  28.440  23.382  1.00  0.00    -0.007 A 
ATOM     12  C   UNL A   1      27.452  29.786  23.023  1.00  0.00     0.023 A 
ATOM     13  C   UNL A   1      28.880  27.892  23.452  1.00  0.00     0.130 A 
ATOM     14  C   UNL A   1      28.582  30.558  22.751  1.00  0.00     0.019 A 
ATOM     15  C   UNL A   1      30.013  28.660  23.171  1.00  0.00     0.019 A 
ATOM     16  O   UNL A   1      28.965  26.563  23.756  1.00  0.00    -0.475 OA
ATOM     17  Br  UNL A   1      28.377  32.374  22.263  1.00  0.00    -0.051 Br
ATOM     18  C   UNL A   1      29.861  30.003  22.820  1.00  0.00     0.027 A 
ATOM     19  C   UNL A   1      31.330  28.034  23.205  1.00  0.00     0.025 C 
ATOM     20  C   UNL A   1      30.243  26.076  24.239  1.00  0.00     0.314 C 
BRANCH  20  21
ATOM     21  C   UNL A   1      30.215  26.024  25.778  1.00  0.00     0.429 C 
ATOM     22  F   UNL A   1      31.129  25.136  26.241  1.00  0.00    -0.167 F 
ATOM     23  F   UNL A   1      30.518  27.216  26.344  1.00  0.00    -0.167 F 
ATOM     24  F   UNL A   1      29.008  25.655  26.262  1.00  0.00    -0.167 F 
ENDBRANCH  20  21
ENDBRANCH   6   9
ENDBRANCH   4   5
ENDBRANCH   3   4
ENDBRANCH   2   3
ENDBRANCH   1   2
BRANCH   1  25
ATOM     25  C   UNL A   1      31.664  31.648  26.522  1.00  0.00     0.021 C 
BRANCH  25  26
ATOM     26  C   UNL A   1      32.912  32.241  27.169  1.00  0.00     0.116 C 
BRANCH  26  27
ATOM     27  N   UNL A   1      32.702  33.621  27.568  1.00  0.00    -0.352 N 
ATOM     28  C   UNL A   1      33.262  34.322  28.602  1.00  0.00     0.251 C 
ATOM     29  H   UNL A   1      32.064  34.127  27.014  1.00  0.00     0.163 HD
ATOM     30  O   UNL A   1      32.770  35.402  28.937  1.00  0.00    -0.269 OA
BRANCH  28  31
ATOM     31  C   UNL A   1      34.441  33.790  29.314  1.00  0.00     0.039 A 
ATOM     32  C   UNL A   1      35.712  34.245  28.953  1.00  0.00     0.014 A 
ATOM     33  C   UNL A   1      34.301  32.804  30.297  1.00  0.00     0.014 A 
ATOM     34  C   UNL A   1      36.841  33.736  29.599  1.00  0.00     0.010 A 
ATOM     35  C   UNL A   1      35.420  32.339  30.980  1.00  0.00     0.010 A 
ATOM     36  C   UNL A   1      36.702  32.790  30.626  1.00  0.00    -0.014 A 
BRANCH  36  37
ATOM     37  C   UNL A   1      37.886  32.212  31.308  1.00  0.00     0.031 A 
ATOM     38  C   UNL A   1      38.632  31.077  30.662  1.00  0.00     0.074 A 
ATOM     39  C   UNL A   1      38.264  32.679  32.512  1.00  0.00     0.049 A 
ATOM     40  N   UNL A   1      39.610  30.351  31.139  1.00  0.00    -0.248 NA
ATOM     41  C   UNL A   1      38.206  30.697  29.305  1.00  0.00     0.031 C 
ATOM     42  C   UNL A   1      37.621  33.780  33.233  1.00  0.00     0.029 A 
ATOM     43  N   UNL A   1      39.278  32.283  33.346  1.00  0.00    -0.354 N 
ATOM     44  C   UNL A   1      39.911  29.424  30.147  1.00  0.00     0.074 A 
ATOM     45  C   UNL A   1      38.979  29.649  29.063  1.00  0.00     0.031 C 
ATOM     46  C   UNL A   1      38.273  33.987  34.389  1.00  0.00     0.029 A 
ATOM     47  C   UNL A   1      39.346  33.005  34.514  1.00  0.00     0.049 A 
ATOM     48  H   UNL A   1      39.900  31.550  33.128  1.00  0.00     0.167 HD
ATOM     49  C   UNL A   1      40.888  28.485  30.135  1.00  0.00     0.034 A 
ATOM     50  C   UNL A   1      40.170  32.877  35.572  1.00  0.00     0.034 A 
ATOM     51  C   UNL A   1      41.820  28.282  31.216  1.00  0.00     0.049 A 
ATOM     52  C   UNL A   1      41.215  31.793  35.558  1.00  0.00     0.074 A 
ATOM     53  C   UNL A   1      42.855  27.368  31.301  1.00  0.00     0.029 A 
ATOM     54  N   UNL A   1      41.834  29.010  32.399  1.00  0.00    -0.354 N 
ATOM     55  N   UNL A   1      41.467  30.902  34.625  1.00  0.00    -0.248 NA
ATOM     56  C   UNL A   1      42.084  31.697  36.737  1.00  0.00     0.031 C 
ATOM     57  C   UNL A   1      43.461  27.507  32.554  1.00  0.00     0.029 A 
ATOM     58  C   UNL A   1      42.846  28.551  33.227  1.00  0.00     0.049 A 
ATOM     59  H   UNL A   1      41.215  29.744  32.618  1.00  0.00     0.167 HD
ATOM     60  C   UNL A   1      42.534  30.148  35.103  1.00  0.00     0.074 A 
ATOM     61  C   UNL A   1      42.887  30.699  36.396  1.00  0.00     0.031 C 
ATOM     62  C   UNL A   1      43.167  29.095  34.525  1.00  0.00     0.034 A 
BRANCH  49  63
ATOM     63  C   UNL A   1      40.982  27.597  28.922  1.00  0.00     0.023 A 
ATOM     64  C   UNL A   1      41.967  27.797  27.940  1.00  0.00     0.031 A 
ATOM     65  C   UNL A   1      40.075  26.538  28.744  1.00  0.00     0.131 A 
ATOM     66  C   UNL A   1      41.992  26.981  26.800  1.00  0.00     0.055 A 
ATOM     67  C   UNL A   1      40.147  25.687  27.639  1.00  0.00     0.041 A 
ATOM     68  F   UNL A   1      39.101  26.315  29.641  1.00  0.00    -0.206 F 
ATOM     69  C   UNL A   1      41.105  25.912  26.654  1.00  0.00     0.022 A 
BRANCH  66  70
ATOM     70  S   UNL A   1      43.148  27.388  25.463  1.00  0.00     0.124 S 
ATOM     71  O   UNL A   1      42.349  28.306  24.654  1.00  0.00    -0.237 OA
ATOM     72  O   UNL A   1      44.270  27.981  26.181  1.00  0.00    -0.237 OA
ATOM     73  O   UNL A   1      43.421  26.094  24.839  1.00  0.00    -0.744 OA
ENDBRANCH  66  70
ENDBRANCH  49  63
BRANCH  50  74
ATOM     74  C   UNL A   1      40.036  33.791  36.739  1.00  0.00     0.023 A 
ATOM     75  C   UNL A   1      39.501  33.332  37.952  1.00  0.00     0.031 A 
ATOM     76  C   UNL A   1      40.431  35.137  36.655  1.00  0.00     0.131 A 
ATOM     77  C   UNL A   1      39.352  34.219  39.029  1.00  0.00     0.055 A 
ATOM     78  C   UNL A   1      40.315  36.007  37.741  1.00  0.00     0.041 A 
ATOM     79  F   UNL A   1      40.955  35.621  35.518  1.00  0.00    -0.206 F 
ATOM     80  C   UNL A   1      39.767  35.550  38.936  1.00  0.00     0.022 A 
BRANCH  77  81
ATOM     81  S   UNL A   1      38.579  33.615  40.554  1.00  0.00     0.124 S 
ATOM     82  O   UNL A   1      37.172  33.569  40.175  1.00  0.00    -0.237 OA
ATOM     83  O   UNL A   1      39.237  32.326  40.741  1.00  0.00    -0.237 OA
ATOM     84  O   UNL A   1      38.928  34.635  41.540  1.00  0.00    -0.744 OA
ENDBRANCH  77  81
ENDBRANCH  50  74
BRANCH  62  85
ATOM     85  C   UNL A   1      44.315  28.486  35.287  1.00  0.00     0.023 A 
ATOM     86  C   UNL A   1      44.102  27.499  36.264  1.00  0.00     0.031 A 
ATOM     87  C   UNL A   1      45.635  28.898  35.033  1.00  0.00     0.131 A 
ATOM     88  C   UNL A   1      45.191  26.991  36.988  1.00  0.00     0.055 A 
ATOM     89  C   UNL A   1      46.718  28.348  35.717  1.00  0.00     0.041 A 
ATOM     90  F   UNL A   1      45.891  29.837  34.108  1.00  0.00    -0.206 F 
ATOM     91  C   UNL A   1      46.499  27.396  36.710  1.00  0.00     0.022 A 
BRANCH  88  92
ATOM     92  S   UNL A   1      44.865  25.841  38.352  1.00  0.00     0.124 S 
ATOM     93  O   UNL A   1      46.191  25.286  38.604  1.00  0.00    -0.237 OA
ATOM     94  O   UNL A   1      44.337  26.723  39.387  1.00  0.00    -0.237 OA
ATOM     95  O   UNL A   1      43.897  24.903  37.786  1.00  0.00    -0.744 OA
ENDBRANCH  88  92
ENDBRANCH  62  85
ENDBRANCH  36  37
ENDBRANCH  28  31
ENDBRANCH  26  27
ENDBRANCH  25  26
ENDBRANCH   1  25
TORSDOF 17
ENDMDL
MODEL 3
REMARK VINA RESULT:     -12.0      5.358     10.150
REMARK SMILES Cc1cc(Br)cc2c1O[C@H](C(F)(F)F)C(C(=O)NCCCCCCNC(=O)c1ccc(-c3c4nc(c(-c5cc(S(=O)(=O)[O-])ccc5F)c5ccc([nH]5)c(-c5cc(S(=O)(=O)[O-])ccc5F)c5nc(c(-c6cc(S(=O)(=O)[O-])ccc6F)c6ccc3[nH]6)C=C5)C=C4)cc1)=C2
REMARK SMILES IDX 22 1 21 2 20 3 19 4 18 5 16 6 17 7 15 9 1 10 2 11 3 12 8 13
REMARK SMILES IDX 4 14 7 15 9 16 5 17 6 18 91 19 10 20 11 21 12 22 13 23 14 24
REMARK SMILES IDX 23 25 24 26 25 27 26 28 27 30 28 31 29 32 90 33 30 34 89 35
REMARK SMILES IDX 31 36 32 37 33 38 83 39 34 40 88 41 82 42 84 43 35 44 87 45
REMARK SMILES IDX 81 46 80 47 36 49 68 50 48 51 67 52 49 53 52 54 66 55 85 56
REMARK SMILES IDX 50 57 51 58 65 60 86 61 53 62 37 63 38 64 46 65 39 66 45 67
REMARK SMILES IDX 47 68 44 69 40 70 41 71 42 72 43 73 69 74 70 75 78 76 71 77
REMARK SMILES IDX 77 78 79 79 76 80 72 81 73 82 74 83 75 84 54 85 55 86 63 87
REMARK SMILES IDX 56 88 62 89 64 90 61 91 57 92 58 93 59 94 60 95
REMARK H PARENT 18 8 25 29 84 48 52 59
REMARK Flexibility Score: inf
ROOT
ATOM      1  C   UNL A   1      31.015  28.256  25.324  1.00  0.00     0.002 C 
ENDROOT
BRANCH   1   2
ATOM      2  C   UNL A   1      30.766  27.990  23.833  1.00  0.00     0.002 C 
BRANCH   2   3
ATOM      3  C   UNL A   1      29.817  26.828  23.528  1.00  0.00     0.021 C 
BRANCH   3   4
ATOM      4  C   UNL A   1      30.523  25.487  23.351  1.00  0.00     0.116 C 
BRANCH   4   5
ATOM      5  N   UNL A   1      31.459  25.512  22.240  1.00  0.00    -0.352 N 
ATOM      6  C   UNL A   1      32.608  24.888  21.897  1.00  0.00     0.251 C 
ATOM      7  O   UNL A   1      33.070  25.202  20.794  1.00  0.00    -0.270 OA
ATOM      8  H   UNL A   1      31.180  26.157  21.550  1.00  0.00     0.163 HD
BRANCH   6   9
ATOM      9  C   UNL A   1      33.329  23.881  22.734  1.00  0.00     0.067 C 
ATOM     10  C   UNL A   1      36.734  21.085  25.369  1.00  0.00     0.048 C 
ATOM     11  C   UNL A   1      35.336  20.857  24.869  1.00  0.00    -0.007 A 
ATOM     12  C   UNL A   1      34.682  19.642  25.108  1.00  0.00     0.023 A 
ATOM     13  C   UNL A   1      34.672  21.844  24.126  1.00  0.00     0.130 A 
ATOM     14  C   UNL A   1      33.392  19.433  24.617  1.00  0.00     0.019 A 
ATOM     15  C   UNL A   1      33.384  21.634  23.626  1.00  0.00     0.019 A 
ATOM     16  O   UNL A   1      35.366  22.992  23.873  1.00  0.00    -0.475 OA
ATOM     17  Br  UNL A   1      32.524  17.786  24.946  1.00  0.00    -0.051 Br
ATOM     18  C   UNL A   1      32.741  20.420  23.876  1.00  0.00     0.027 A 
ATOM     19  C   UNL A   1      32.753  22.668  22.813  1.00  0.00     0.025 C 
ATOM     20  C   UNL A   1      34.597  24.161  23.491  1.00  0.00     0.314 C 
BRANCH  20  21
ATOM     21  C   UNL A   1      34.362  25.040  24.733  1.00  0.00     0.429 C 
ATOM     22  F   UNL A   1      34.403  26.354  24.401  1.00  0.00    -0.167 F 
ATOM     23  F   UNL A   1      33.152  24.826  25.301  1.00  0.00    -0.167 F 
ATOM     24  F   UNL A   1      35.290  24.834  25.695  1.00  0.00    -0.167 F 
ENDBRANCH  20  21
ENDBRANCH   6   9
ENDBRANCH   4   5
ENDBRANCH   3   4
ENDBRANCH   2   3
ENDBRANCH   1   2
BRANCH   1  25
ATOM     25  C   UNL A   1      32.480  28.183  25.771  1.00  0.00     0.021 C 
BRANCH  25  26
ATOM     26  C   UNL A   1      33.351  29.342  25.296  1.00  0.00     0.116 C 
BRANCH  26  27
ATOM     27  N   UNL A   1      32.852  30.617  25.780  1.00  0.00    -0.352 N 
ATOM     28  C   UNL A   1      33.236  31.339  26.878  1.00  0.00     0.251 C 
ATOM     29  H   UNL A   1      32.133  31.019  25.241  1.00  0.00     0.163 HD
ATOM     30  O   UNL A   1      32.525  32.268  27.269  1.00  0.00    -0.269 OA
BRANCH  28  31
ATOM     31  C   UNL A   1      34.487  31.010  27.590  1.00  0.00     0.039 A 
ATOM     32  C   UNL A   1      34.660  29.718  28.093  1.00  0.00     0.014 A 
ATOM     33  C   UNL A   1      35.464  31.986  27.810  1.00  0.00     0.014 A 
ATOM     34  C   UNL A   1      35.826  29.395  28.790  1.00  0.00     0.010 A 
ATOM     35  C   UNL A   1      36.651  31.649  28.454  1.00  0.00     0.010 A 
ATOM     36  C   UNL A   1      36.836  30.354  28.963  1.00  0.00    -0.014 A 
BRANCH  36  37
ATOM     37  C   UNL A   1      38.071  30.045  29.724  1.00  0.00     0.031 A 
ATOM     38  C   UNL A   1      39.076  29.087  29.148  1.00  0.00     0.074 A 
ATOM     39  C   UNL A   1      38.269  30.592  30.938  1.00  0.00     0.049 A 
ATOM     40  N   UNL A   1      40.154  28.587  29.695  1.00  0.00    -0.248 NA
ATOM     41  C   UNL A   1      38.823  28.613  27.777  1.00  0.00     0.031 C 
ATOM     42  C   UNL A   1      37.367  31.540  31.596  1.00  0.00     0.029 A 
ATOM     43  N   UNL A   1      39.291  30.427  31.837  1.00  0.00    -0.354 N 
ATOM     44  C   UNL A   1      40.702  27.735  28.743  1.00  0.00     0.074 A 
ATOM     45  C   UNL A   1      39.811  27.748  27.603  1.00  0.00     0.031 C 
ATOM     46  C   UNL A   1      37.890  31.891  32.783  1.00  0.00     0.029 A 
ATOM     47  C   UNL A   1      39.135  31.158  32.991  1.00  0.00     0.049 A 
ATOM     48  H   UNL A   1      40.064  29.839  31.671  1.00  0.00     0.167 HD
ATOM     49  C   UNL A   1      41.853  27.023  28.808  1.00  0.00     0.034 A 
ATOM     50  C   UNL A   1      39.902  31.216  34.097  1.00  0.00     0.034 A 
ATOM     51  C   UNL A   1      42.740  27.031  29.944  1.00  0.00     0.049 A 
ATOM     52  C   UNL A   1      41.150  30.377  34.166  1.00  0.00     0.074 A 
ATOM     53  C   UNL A   1      43.936  26.356  30.108  1.00  0.00     0.029 A 
ATOM     54  N   UNL A   1      42.528  27.756  31.110  1.00  0.00    -0.354 N 
ATOM     55  N   UNL A   1      41.639  29.550  33.270  1.00  0.00    -0.248 NA
ATOM     56  C   UNL A   1      41.946  30.476  35.395  1.00  0.00     0.031 C 
ATOM     57  C   UNL A   1      44.423  26.631  31.391  1.00  0.00     0.029 A 
ATOM     58  C   UNL A   1      43.563  27.529  32.005  1.00  0.00     0.049 A 
ATOM     59  H   UNL A   1      41.757  28.345  31.277  1.00  0.00     0.167 HD
ATOM     60  C   UNL A   1      42.810  29.042  33.823  1.00  0.00     0.074 A 
ATOM     61  C   UNL A   1      42.960  29.667  35.123  1.00  0.00     0.031 C 
ATOM     62  C   UNL A   1      43.683  28.140  33.306  1.00  0.00     0.034 A 
BRANCH  49  63
ATOM     63  C   UNL A   1      42.204  26.163  27.622  1.00  0.00     0.023 A 
ATOM     64  C   UNL A   1      41.796  24.820  27.542  1.00  0.00     0.031 A 
ATOM     65  C   UNL A   1      42.957  26.690  26.558  1.00  0.00     0.131 A 
ATOM     66  C   UNL A   1      42.184  24.036  26.446  1.00  0.00     0.055 A 
ATOM     67  C   UNL A   1      43.283  25.923  25.438  1.00  0.00     0.041 A 
ATOM     68  F   UNL A   1      43.390  27.960  26.592  1.00  0.00    -0.206 F 
ATOM     69  C   UNL A   1      42.904  24.585  25.382  1.00  0.00     0.022 A 
BRANCH  66  70
ATOM     70  S   UNL A   1      41.810  22.262  26.469  1.00  0.00     0.124 S 
ATOM     71  O   UNL A   1      42.646  21.772  25.375  1.00  0.00    -0.237 OA
ATOM     72  O   UNL A   1      42.219  21.867  27.812  1.00  0.00    -0.237 OA
ATOM     73  O   UNL A   1      40.371  22.212  26.216  1.00  0.00    -0.744 OA
ENDBRANCH  66  70
ENDBRANCH  49  63
BRANCH  50  74
ATOM     74  C   UNL A   1      39.509  32.092  35.234  1.00  0.00     0.023 A 
ATOM     75  C   UNL A   1      38.729  31.593  36.288  1.00  0.00     0.031 A 
ATOM     76  C   UNL A   1      39.899  33.442  35.278  1.00  0.00     0.131 A 
ATOM     77  C   UNL A   1      38.341  32.445  37.333  1.00  0.00     0.055 A 
ATOM     78  C   UNL A   1      39.542  34.276  36.339  1.00  0.00     0.041 A 
ATOM     79  F   UNL A   1      40.651  33.963  34.296  1.00  0.00    -0.206 F 
ATOM     80  C   UNL A   1      38.752  33.780  37.372  1.00  0.00     0.022 A 
BRANCH  77  81
ATOM     81  S   UNL A   1      37.263  31.790  38.636  1.00  0.00     0.124 S 
ATOM     82  O   UNL A   1      36.122  32.696  38.559  1.00  0.00    -0.237 OA
ATOM     83  O   UNL A   1      37.029  30.423  38.181  1.00  0.00    -0.237 OA
ATOM     84  O   UNL A   1      38.076  31.910  39.843  1.00  0.00    -0.744 OA
ENDBRANCH  77  81
ENDBRANCH  50  74
BRANCH  62  85
ATOM     85  C   UNL A   1      44.885  27.794  34.146  1.00  0.00     0.023 A 
ATOM     86  C   UNL A   1      44.861  26.716  35.047  1.00  0.00     0.031 A 
ATOM     87  C   UNL A   1      46.065  28.550  34.044  1.00  0.00     0.131 A 
ATOM     88  C   UNL A   1      45.982  26.454  35.848  1.00  0.00     0.055 A 
ATOM     89  C   UNL A   1      47.196  28.250  34.803  1.00  0.00     0.041 A 
ATOM     90  F   UNL A   1      46.139  29.589  33.197  1.00  0.00    -0.206 F 
ATOM     91  C   UNL A   1      47.155  27.203  35.720  1.00  0.00     0.022 A 
BRANCH  88  92
ATOM     92  S   UNL A   1      45.861  25.161  37.114  1.00  0.00     0.124 S 
ATOM     93  O   UNL A   1      46.450  25.820  38.276  1.00  0.00    -0.237 OA
ATOM     94  O   UNL A   1      44.424  24.919  37.180  1.00  0.00    -0.237 OA
ATOM     95  O   UNL A   1      46.649  24.062  36.559  1.00  0.00    -0.744 OA
ENDBRANCH  88  92
ENDBRANCH  62  85
ENDBRANCH  36  37
ENDBRANCH  28  31
ENDBRANCH  26  27
ENDBRANCH  25  26
ENDBRANCH   1  25
TORSDOF 17
ENDMDL
