MODEL 1
REMARK VINA RESULT:     -10.9      0.000      0.000
REMARK SMILES Cc1cc(NC(=O)CC2(CC(=O)NCCCCCCNC(=O)c3ccc(-c4c5nc(c(-c6cc(S(=O)(=O)[O-])ccc6F)c6ccc([nH]6)c(-c6cc(S(=O)(=O)[O-])ccc6F)c6nc(c(-c7cc(S(=O)(=O)[O-])ccc7F)c7ccc4[nH]7)C=C6)C=C5)cc3)CCCC2)ccn1
REMARK SMILES IDX 16 1 15 2 14 3 13 4 11 5 12 6 10 8 9 9 86 10 89 11 87 12
REMARK SMILES IDX 88 13 8 14 6 15 5 16 7 18 4 19 1 20 2 21 3 22 92 23 91 24
REMARK SMILES IDX 90 25 17 26 18 27 19 28 20 29 21 30 22 32 23 33 24 34 85 35
REMARK SMILES IDX 25 36 84 37 26 38 27 39 28 40 78 41 29 42 83 43 77 44 79 45
REMARK SMILES IDX 30 46 82 47 76 48 75 49 31 51 63 52 43 53 62 54 44 55 47 56
REMARK SMILES IDX 61 57 80 58 45 59 46 60 60 62 81 63 48 64 32 65 33 66 41 67
REMARK SMILES IDX 34 68 40 69 42 70 39 71 35 72 36 73 37 74 38 75 64 76 65 77
REMARK SMILES IDX 73 78 66 79 72 80 74 81 71 82 67 83 68 84 69 85 70 86 49 87
REMARK SMILES IDX 50 88 58 89 51 90 57 91 59 92 56 93 52 94 53 95 54 96 55 97
REMARK H PARENT 13 7 5 17 20 31 79 50 47 61
REMARK Flexibility Score: inf
ROOT
ATOM      1  C   UNL A   1      37.759  21.951  25.203  1.00  0.00     0.002 C 
ENDROOT
BRANCH   1   2
ATOM      2  C   UNL A   1      36.480  22.505  25.829  1.00  0.00     0.021 C 
BRANCH   2   3
ATOM      3  C   UNL A   1      35.419  21.440  26.097  1.00  0.00     0.116 C 
BRANCH   3   4
ATOM      4  N   UNL A   1      34.634  21.803  27.255  1.00  0.00    -0.356 N 
ATOM      5  C   UNL A   1      33.332  22.180  27.338  1.00  0.00     0.220 C 
ATOM      6  O   UNL A   1      32.895  22.498  28.445  1.00  0.00    -0.275 OA
ATOM      7  H   UNL A   1      35.116  21.773  28.113  1.00  0.00     0.163 HD
BRANCH   5   8
ATOM      8  C   UNL A   1      32.431  22.155  26.113  1.00  0.00     0.107 C 
BRANCH   8   9
ATOM      9  C   UNL A   1      32.269  23.447  25.249  1.00  0.00    -0.012 C 
ATOM     10  C   UNL A   1      31.204  23.120  24.171  1.00  0.00     0.008 C 
ATOM     11  C   UNL A   1      33.463  23.742  24.315  1.00  0.00     0.008 C 
ATOM     12  C   UNL A   1      31.930  22.296  23.107  1.00  0.00     0.001 C 
ATOM     13  C   UNL A   1      33.377  22.769  23.144  1.00  0.00     0.001 C 
BRANCH   9  14
ATOM     14  C   UNL A   1      32.002  24.704  26.133  1.00  0.00     0.108 C 
BRANCH  14  15
ATOM     15  C   UNL A   1      30.793  25.562  25.818  1.00  0.00     0.224 C 
ATOM     16  N   UNL A   1      30.764  26.463  24.793  1.00  0.00    -0.326 N 
ATOM     17  H   UNL A   1      29.915  26.957  24.727  1.00  0.00     0.169 HD
ATOM     18  O   UNL A   1      29.753  25.427  26.469  1.00  0.00    -0.275 OA
BRANCH  16  19
ATOM     19  C   UNL A   1      31.704  26.828  23.815  1.00  0.00     0.044 A 
ATOM     20  C   UNL A   1      32.581  25.521  20.378  1.00  0.00     0.067 C 
ATOM     21  C   UNL A   1      32.591  26.331  21.637  1.00  0.00     0.039 A 
ATOM     22  C   UNL A   1      31.579  26.189  22.579  1.00  0.00     0.049 A 
ATOM     23  N   UNL A   1      33.674  27.110  21.850  1.00  0.00    -0.261 NA
ATOM     24  C   UNL A   1      33.734  27.782  23.018  1.00  0.00     0.113 A 
ATOM     25  C   UNL A   1      32.775  27.687  24.013  1.00  0.00     0.046 A 
ENDBRANCH  16  19
ENDBRANCH  14  15
ENDBRANCH   9  14
ENDBRANCH   8   9
ENDBRANCH   5   8
ENDBRANCH   3   4
ENDBRANCH   2   3
ENDBRANCH   1   2
BRANCH   1  26
ATOM     26  C   UNL A   1      37.608  20.556  24.588  1.00  0.00     0.002 C 
BRANCH  26  27
ATOM     27  C   UNL A   1      38.602  19.510  25.103  1.00  0.00     0.021 C 
BRANCH  27  28
ATOM     28  C   UNL A   1      39.579  20.029  26.155  1.00  0.00     0.116 C 
BRANCH  28  29
ATOM     29  N   UNL A   1      40.802  19.247  26.177  1.00  0.00    -0.352 N 
ATOM     30  C   UNL A   1      42.106  19.673  26.187  1.00  0.00     0.251 C 
ATOM     31  H   UNL A   1      40.677  18.270  26.187  1.00  0.00     0.163 HD
ATOM     32  O   UNL A   1      43.007  18.886  25.922  1.00  0.00    -0.269 OA
BRANCH  30  33
ATOM     33  C   UNL A   1      42.411  21.082  26.512  1.00  0.00     0.039 A 
ATOM     34  C   UNL A   1      42.600  21.993  25.471  1.00  0.00     0.014 A 
ATOM     35  C   UNL A   1      42.533  21.496  27.842  1.00  0.00     0.014 A 
ATOM     36  C   UNL A   1      42.866  23.331  25.765  1.00  0.00     0.010 A 
ATOM     37  C   UNL A   1      42.728  22.842  28.133  1.00  0.00     0.010 A 
ATOM     38  C   UNL A   1      42.907  23.772  27.098  1.00  0.00    -0.014 A 
BRANCH  38  39
ATOM     39  C   UNL A   1      43.159  25.197  27.429  1.00  0.00     0.031 A 
ATOM     40  C   UNL A   1      44.541  25.772  27.265  1.00  0.00     0.074 A 
ATOM     41  C   UNL A   1      42.163  25.953  27.931  1.00  0.00     0.049 A 
ATOM     42  N   UNL A   1      44.985  26.962  27.575  1.00  0.00    -0.248 NA
ATOM     43  C   UNL A   1      45.563  24.876  26.704  1.00  0.00     0.031 C 
ATOM     44  C   UNL A   1      40.793  25.494  28.168  1.00  0.00     0.029 A 
ATOM     45  N   UNL A   1      42.148  27.262  28.341  1.00  0.00    -0.354 N 
ATOM     46  C   UNL A   1      46.340  26.955  27.258  1.00  0.00     0.074 A 
ATOM     47  C   UNL A   1      46.654  25.621  26.794  1.00  0.00     0.031 C 
ATOM     48  C   UNL A   1      40.067  26.510  28.662  1.00  0.00     0.029 A 
ATOM     49  C   UNL A   1      40.928  27.678  28.821  1.00  0.00     0.049 A 
ATOM     50  H   UNL A   1      42.937  27.849  28.296  1.00  0.00     0.167 HD
ATOM     51  C   UNL A   1      47.231  27.975  27.324  1.00  0.00     0.034 A 
ATOM     52  C   UNL A   1      40.549  28.862  29.341  1.00  0.00     0.034 A 
ATOM     53  C   UNL A   1      46.896  29.302  27.781  1.00  0.00     0.049 A 
ATOM     54  C   UNL A   1      41.565  29.975  29.428  1.00  0.00     0.074 A 
ATOM     55  C   UNL A   1      47.707  30.422  27.848  1.00  0.00     0.029 A 
ATOM     56  N   UNL A   1      45.648  29.689  28.253  1.00  0.00    -0.354 N 
ATOM     57  N   UNL A   1      42.832  29.964  29.084  1.00  0.00    -0.248 NA
ATOM     58  C   UNL A   1      41.094  31.259  29.960  1.00  0.00     0.031 C 
ATOM     59  C   UNL A   1      46.970  31.464  28.422  1.00  0.00     0.029 A 
ATOM     60  C   UNL A   1      45.675  31.021  28.639  1.00  0.00     0.049 A 
ATOM     61  H   UNL A   1      44.858  29.103  28.305  1.00  0.00     0.167 HD
ATOM     62  C   UNL A   1      43.300  31.253  29.330  1.00  0.00     0.074 A 
ATOM     63  C   UNL A   1      42.177  32.013  29.835  1.00  0.00     0.031 C 
ATOM     64  C   UNL A   1      44.546  31.763  29.150  1.00  0.00     0.034 A 
BRANCH  51  65
ATOM     65  C   UNL A   1      48.655  27.680  26.915  1.00  0.00     0.023 A 
ATOM     66  C   UNL A   1      49.115  27.932  25.610  1.00  0.00     0.031 A 
ATOM     67  C   UNL A   1      49.560  27.113  27.830  1.00  0.00     0.131 A 
ATOM     68  C   UNL A   1      50.411  27.547  25.235  1.00  0.00     0.055 A 
ATOM     69  C   UNL A   1      50.876  26.810  27.475  1.00  0.00     0.041 A 
ATOM     70  F   UNL A   1      49.175  26.829  29.085  1.00  0.00    -0.206 F 
ATOM     71  C   UNL A   1      51.304  27.011  26.166  1.00  0.00     0.022 A 
BRANCH  68  72
ATOM     72  S   UNL A   1      50.862  27.617  23.480  1.00  0.00     0.124 S 
ATOM     73  O   UNL A   1      51.186  29.032  23.316  1.00  0.00    -0.237 OA
ATOM     74  O   UNL A   1      51.987  26.691  23.407  1.00  0.00    -0.237 OA
ATOM     75  O   UNL A   1      49.648  27.180  22.796  1.00  0.00    -0.744 OA
ENDBRANCH  68  72
ENDBRANCH  51  65
BRANCH  52  76
ATOM     76  C   UNL A   1      39.155  29.061  29.832  1.00  0.00     0.023 A 
ATOM     77  C   UNL A   1      38.189  29.693  29.034  1.00  0.00     0.031 A 
ATOM     78  C   UNL A   1      38.780  28.657  31.126  1.00  0.00     0.131 A 
ATOM     79  C   UNL A   1      36.911  29.948  29.553  1.00  0.00     0.055 A 
ATOM     80  C   UNL A   1      37.490  28.863  31.618  1.00  0.00     0.041 A 
ATOM     81  F   UNL A   1      39.662  28.042  31.930  1.00  0.00    -0.206 F 
ATOM     82  C   UNL A   1      36.551  29.526  30.835  1.00  0.00     0.022 A 
BRANCH  79  83
ATOM     83  S   UNL A   1      35.749  30.923  28.558  1.00  0.00     0.124 S 
ATOM     84  O   UNL A   1      34.904  31.519  29.586  1.00  0.00    -0.237 OA
ATOM     85  O   UNL A   1      36.645  31.834  27.854  1.00  0.00    -0.237 OA
ATOM     86  O   UNL A   1      35.098  29.920  27.717  1.00  0.00    -0.744 OA
ENDBRANCH  79  83
ENDBRANCH  52  76
BRANCH  64  87
ATOM     87  C   UNL A   1      44.738  33.227  29.460  1.00  0.00     0.023 A 
ATOM     88  C   UNL A   1      44.472  34.228  28.510  1.00  0.00     0.031 A 
ATOM     89  C   UNL A   1      45.205  33.624  30.726  1.00  0.00     0.131 A 
ATOM     90  C   UNL A   1      44.729  35.572  28.820  1.00  0.00     0.055 A 
ATOM     91  C   UNL A   1      45.399  34.967  31.050  1.00  0.00     0.041 A 
ATOM     92  F   UNL A   1      45.477  32.710  31.671  1.00  0.00    -0.206 F 
ATOM     93  C   UNL A   1      45.174  35.949  30.090  1.00  0.00     0.022 A 
BRANCH  90  94
ATOM     94  S   UNL A   1      44.561  36.816  27.511  1.00  0.00     0.124 S 
ATOM     95  O   UNL A   1      43.422  36.308  26.754  1.00  0.00    -0.237 OA
ATOM     96  O   UNL A   1      44.326  38.040  28.272  1.00  0.00    -0.237 OA
ATOM     97  O   UNL A   1      45.845  36.757  26.815  1.00  0.00    -0.744 OA
ENDBRANCH  90  94
ENDBRANCH  64  87
ENDBRANCH  38  39
ENDBRANCH  30  33
ENDBRANCH  28  29
ENDBRANCH  27  28
ENDBRANCH  26  27
ENDBRANCH   1  26
TORSDOF 20
ENDMDL
MODEL 2
REMARK VINA RESULT:     -10.9      1.891      7.710
REMARK SMILES Cc1cc(NC(=O)CC2(CC(=O)NCCCCCCNC(=O)c3ccc(-c4c5nc(c(-c6cc(S(=O)(=O)[O-])ccc6F)c6ccc([nH]6)c(-c6cc(S(=O)(=O)[O-])ccc6F)c6nc(c(-c7cc(S(=O)(=O)[O-])ccc7F)c7ccc4[nH]7)C=C6)C=C5)cc3)CCCC2)ccn1
REMARK SMILES IDX 16 1 15 2 14 3 13 4 11 5 12 6 10 8 9 9 86 10 89 11 87 12
REMARK SMILES IDX 88 13 8 14 6 15 5 16 7 18 4 19 1 20 2 21 3 22 92 23 91 24
REMARK SMILES IDX 90 25 17 26 18 27 19 28 20 29 21 30 22 32 23 33 24 34 85 35
REMARK SMILES IDX 25 36 84 37 26 38 27 39 28 40 78 41 29 42 83 43 77 44 79 45
REMARK SMILES IDX 30 46 82 47 76 48 75 49 31 51 63 52 43 53 62 54 44 55 47 56
REMARK SMILES IDX 61 57 80 58 45 59 46 60 60 62 81 63 48 64 32 65 33 66 41 67
REMARK SMILES IDX 34 68 40 69 42 70 39 71 35 72 36 73 37 74 38 75 64 76 65 77
REMARK SMILES IDX 73 78 66 79 72 80 74 81 71 82 67 83 68 84 69 85 70 86 49 87
REMARK SMILES IDX 50 88 58 89 51 90 57 91 59 92 56 93 52 94 53 95 54 96 55 97
REMARK H PARENT 13 7 5 17 20 31 79 50 47 61
REMARK Flexibility Score: inf
ROOT
ATOM      1  C   UNL A   1      37.288  21.830  24.390  1.00  0.00     0.002 C 
ENDROOT
BRANCH   1   2
ATOM      2  C   UNL A   1      37.744  22.880  25.402  1.00  0.00     0.021 C 
BRANCH   2   3
ATOM      3  C   UNL A   1      36.591  23.603  26.096  1.00  0.00     0.116 C 
BRANCH   3   4
ATOM      4  N   UNL A   1      35.598  22.649  26.532  1.00  0.00    -0.356 N 
ATOM      5  C   UNL A   1      34.243  22.735  26.511  1.00  0.00     0.220 C 
ATOM      6  O   UNL A   1      33.600  21.801  26.993  1.00  0.00    -0.275 OA
ATOM      7  H   UNL A   1      35.957  21.809  26.899  1.00  0.00     0.163 HD
BRANCH   5   8
ATOM      8  C   UNL A   1      33.545  23.919  25.860  1.00  0.00     0.107 C 
BRANCH   8   9
ATOM      9  C   UNL A   1      32.618  23.682  24.623  1.00  0.00    -0.012 C 
ATOM     10  C   UNL A   1      33.222  22.482  23.850  1.00  0.00     0.008 C 
ATOM     11  C   UNL A   1      32.742  24.757  23.520  1.00  0.00     0.008 C 
ATOM     12  C   UNL A   1      34.408  23.047  23.066  1.00  0.00     0.001 C 
ATOM     13  C   UNL A   1      34.049  24.499  22.779  1.00  0.00     0.001 C 
BRANCH   9  14
ATOM     14  C   UNL A   1      31.120  23.562  25.038  1.00  0.00     0.108 C 
BRANCH  14  15
ATOM     15  C   UNL A   1      30.708  24.072  26.404  1.00  0.00     0.224 C 
ATOM     16  N   UNL A   1      30.676  25.397  26.728  1.00  0.00    -0.326 N 
ATOM     17  H   UNL A   1      30.405  25.569  27.659  1.00  0.00     0.169 HD
ATOM     18  O   UNL A   1      30.330  23.278  27.272  1.00  0.00    -0.275 OA
BRANCH  16  19
ATOM     19  C   UNL A   1      30.954  26.565  25.999  1.00  0.00     0.044 A 
ATOM     20  C   UNL A   1      29.706  27.998  22.730  1.00  0.00     0.067 C 
ATOM     21  C   UNL A   1      30.465  27.822  24.010  1.00  0.00     0.039 A 
ATOM     22  C   UNL A   1      30.124  26.812  24.902  1.00  0.00     0.049 A 
ATOM     23  N   UNL A   1      31.545  28.613  24.189  1.00  0.00    -0.261 NA
ATOM     24  C   UNL A   1      32.285  28.409  25.298  1.00  0.00     0.113 A 
ATOM     25  C   UNL A   1      32.022  27.419  26.229  1.00  0.00     0.046 A 
ENDBRANCH  16  19
ENDBRANCH  14  15
ENDBRANCH   9  14
ENDBRANCH   8   9
ENDBRANCH   5   8
ENDBRANCH   3   4
ENDBRANCH   2   3
ENDBRANCH   1   2
BRANCH   1  26
ATOM     26  C   UNL A   1      37.106  20.426  24.974  1.00  0.00     0.002 C 
BRANCH  26  27
ATOM     27  C   UNL A   1      38.370  19.562  24.990  1.00  0.00     0.021 C 
BRANCH  27  28
ATOM     28  C   UNL A   1      39.457  20.048  25.945  1.00  0.00     0.116 C 
BRANCH  28  29
ATOM     29  N   UNL A   1      40.586  19.134  25.976  1.00  0.00    -0.352 N 
ATOM     30  C   UNL A   1      41.929  19.413  25.982  1.00  0.00     0.251 C 
ATOM     31  H   UNL A   1      40.353  18.177  25.994  1.00  0.00     0.163 HD
ATOM     32  O   UNL A   1      42.737  18.527  25.725  1.00  0.00    -0.269 OA
BRANCH  30  33
ATOM     33  C   UNL A   1      42.389  20.782  26.294  1.00  0.00     0.039 A 
ATOM     34  C   UNL A   1      42.626  21.133  27.624  1.00  0.00     0.014 A 
ATOM     35  C   UNL A   1      42.560  21.724  25.274  1.00  0.00     0.014 A 
ATOM     36  C   UNL A   1      43.082  22.416  27.928  1.00  0.00     0.010 A 
ATOM     37  C   UNL A   1      43.081  22.979  25.572  1.00  0.00     0.010 A 
ATOM     38  C   UNL A   1      43.338  23.342  26.903  1.00  0.00    -0.014 A 
BRANCH  38  39
ATOM     39  C   UNL A   1      43.850  24.703  27.205  1.00  0.00     0.031 A 
ATOM     40  C   UNL A   1      42.919  25.750  27.754  1.00  0.00     0.074 A 
ATOM     41  C   UNL A   1      45.133  25.008  26.932  1.00  0.00     0.049 A 
ATOM     42  N   UNL A   1      43.149  27.013  28.004  1.00  0.00    -0.248 NA
ATOM     43  C   UNL A   1      41.538  25.324  28.027  1.00  0.00     0.031 C 
ATOM     44  C   UNL A   1      46.119  24.084  26.366  1.00  0.00     0.029 A 
ATOM     45  N   UNL A   1      45.829  26.181  27.084  1.00  0.00    -0.354 N 
ATOM     46  C   UNL A   1      41.940  27.536  28.454  1.00  0.00     0.074 A 
ATOM     47  C   UNL A   1      40.968  26.467  28.378  1.00  0.00     0.031 C 
ATOM     48  C   UNL A   1      47.295  24.720  26.237  1.00  0.00     0.029 A 
ATOM     49  C   UNL A   1      47.138  26.106  26.667  1.00  0.00     0.049 A 
ATOM     50  H   UNL A   1      45.429  26.999  27.456  1.00  0.00     0.167 HD
ATOM     51  C   UNL A   1      41.674  28.784  28.912  1.00  0.00     0.034 A 
ATOM     52  C   UNL A   1      48.099  27.051  26.624  1.00  0.00     0.034 A 
ATOM     53  C   UNL A   1      42.661  29.835  28.990  1.00  0.00     0.049 A 
ATOM     54  C   UNL A   1      47.773  28.439  27.116  1.00  0.00     0.074 A 
ATOM     55  C   UNL A   1      42.514  31.122  29.477  1.00  0.00     0.029 A 
ATOM     56  N   UNL A   1      43.979  29.721  28.565  1.00  0.00    -0.354 N 
ATOM     57  N   UNL A   1      46.635  28.907  27.577  1.00  0.00    -0.248 NA
ATOM     58  C   UNL A   1      48.863  29.422  27.091  1.00  0.00     0.031 C 
ATOM     59  C   UNL A   1      43.721  31.804  29.285  1.00  0.00     0.029 A 
ATOM     60  C   UNL A   1      44.646  30.922  28.752  1.00  0.00     0.049 A 
ATOM     61  H   UNL A   1      44.381  28.906  28.185  1.00  0.00     0.167 HD
ATOM     62  C   UNL A   1      46.886  30.231  27.929  1.00  0.00     0.074 A 
ATOM     63  C   UNL A   1      48.282  30.480  27.639  1.00  0.00     0.031 C 
ATOM     64  C   UNL A   1      46.039  31.156  28.449  1.00  0.00     0.034 A 
BRANCH  51  65
ATOM     65  C   UNL A   1      40.256  29.080  29.338  1.00  0.00     0.023 A 
ATOM     66  C   UNL A   1      39.863  29.020  30.687  1.00  0.00     0.031 A 
ATOM     67  C   UNL A   1      39.273  29.398  28.384  1.00  0.00     0.131 A 
ATOM     68  C   UNL A   1      38.515  29.195  31.035  1.00  0.00     0.055 A 
ATOM     69  C   UNL A   1      37.949  29.656  28.745  1.00  0.00     0.041 A 
ATOM     70  F   UNL A   1      39.581  29.450  27.077  1.00  0.00    -0.206 F 
ATOM     71  C   UNL A   1      37.560  29.539  30.076  1.00  0.00     0.022 A 
BRANCH  68  72
ATOM     72  S   UNL A   1      38.003  28.821  32.734  1.00  0.00     0.124 S 
ATOM     73  O   UNL A   1      38.099  27.363  32.755  1.00  0.00    -0.237 OA
ATOM     74  O   UNL A   1      38.995  29.538  33.527  1.00  0.00    -0.237 OA
ATOM     75  O   UNL A   1      36.644  29.350  32.807  1.00  0.00    -0.744 OA
ENDBRANCH  68  72
ENDBRANCH  51  65
BRANCH  52  76
ATOM     76  C   UNL A   1      49.452  26.728  26.088  1.00  0.00     0.023 A 
ATOM     77  C   UNL A   1      49.851  27.165  24.816  1.00  0.00     0.031 A 
ATOM     78  C   UNL A   1      50.352  25.940  26.828  1.00  0.00     0.131 A 
ATOM     79  C   UNL A   1      51.095  26.772  24.299  1.00  0.00     0.055 A 
ATOM     80  C   UNL A   1      51.612  25.597  26.332  1.00  0.00     0.041 A 
ATOM     81  F   UNL A   1      50.025  25.500  28.052  1.00  0.00    -0.206 F 
ATOM     82  C   UNL A   1      51.983  26.002  25.053  1.00  0.00     0.022 A 
BRANCH  79  83
ATOM     83  S   UNL A   1      51.501  27.209  22.586  1.00  0.00     0.124 S 
ATOM     84  O   UNL A   1      51.746  28.642  22.695  1.00  0.00    -0.237 OA
ATOM     85  O   UNL A   1      52.670  26.374  22.331  1.00  0.00    -0.237 OA
ATOM     86  O   UNL A   1      50.297  26.835  21.846  1.00  0.00    -0.744 OA
ENDBRANCH  79  83
ENDBRANCH  52  76
BRANCH  64  87
ATOM     87  C   UNL A   1      46.621  32.509  28.778  1.00  0.00     0.023 A 
ATOM     88  C   UNL A   1      46.620  33.563  27.849  1.00  0.00     0.031 A 
ATOM     89  C   UNL A   1      47.195  32.741  30.042  1.00  0.00     0.131 A 
ATOM     90  C   UNL A   1      47.233  34.783  28.176  1.00  0.00     0.055 A 
ATOM     91  C   UNL A   1      47.746  33.975  30.383  1.00  0.00     0.041 A 
ATOM     92  F   UNL A   1      47.224  31.768  30.967  1.00  0.00    -0.206 F 
ATOM     93  C   UNL A   1      47.780  35.001  29.443  1.00  0.00     0.022 A 
BRANCH  90  94
ATOM     94  S   UNL A   1      47.388  36.053  26.890  1.00  0.00     0.124 S 
ATOM     95  O   UNL A   1      48.764  35.867  26.445  1.00  0.00    -0.237 OA
ATOM     96  O   UNL A   1      46.352  35.661  25.939  1.00  0.00    -0.237 OA
ATOM     97  O   UNL A   1      47.130  37.301  27.607  1.00  0.00    -0.744 OA
ENDBRANCH  90  94
ENDBRANCH  64  87
ENDBRANCH  38  39
ENDBRANCH  30  33
ENDBRANCH  28  29
ENDBRANCH  27  28
ENDBRANCH  26  27
ENDBRANCH   1  26
TORSDOF 20
ENDMDL
MODEL 3
REMARK VINA RESULT:     -10.7      2.449      2.891
REMARK SMILES Cc1cc(NC(=O)CC2(CC(=O)NCCCCCCNC(=O)c3ccc(-c4c5nc(c(-c6cc(S(=O)(=O)[O-])ccc6F)c6ccc([nH]6)c(-c6cc(S(=O)(=O)[O-])ccc6F)c6nc(c(-c7cc(S(=O)(=O)[O-])ccc7F)c7ccc4[nH]7)C=C6)C=C5)cc3)CCCC2)ccn1
REMARK SMILES IDX 16 1 15 2 14 3 13 4 11 5 12 6 10 8 9 9 86 10 89 11 87 12
REMARK SMILES IDX 88 13 8 14 6 15 5 16 7 18 4 19 1 20 2 21 3 22 92 23 91 24
REMARK SMILES IDX 90 25 17 26 18 27 19 28 20 29 21 30 22 32 23 33 24 34 85 35
REMARK SMILES IDX 25 36 84 37 26 38 27 39 28 40 78 41 29 42 83 43 77 44 79 45
REMARK SMILES IDX 30 46 82 47 76 48 75 49 31 51 63 52 43 53 62 54 44 55 47 56
REMARK SMILES IDX 61 57 80 58 45 59 46 60 60 62 81 63 48 64 32 65 33 66 41 67
REMARK SMILES IDX 34 68 40 69 42 70 39 71 35 72 36 73 37 74 38 75 64 76 65 77
REMARK SMILES IDX 73 78 66 79 72 80 74 81 71 82 67 83 68 84 69 85 70 86 49 87
REMARK SMILES IDX 50 88 58 89 51 90 57 91 59 92 56 93 52 94 53 95 54 96 55 97
REMARK H PARENT 13 7 5 17 20 31 79 50 47 61
REMARK Flexibility Score: inf
ROOT
ATOM      1  C   UNL A   1      37.451  21.860  24.588  1.00  0.00     0.002 C 
ENDROOT
BRANCH   1   2
ATOM      2  C   UNL A   1      37.615  22.813  25.771  1.00  0.00     0.021 C 
BRANCH   2   3
ATOM      3  C   UNL A   1      36.378  23.666  26.046  1.00  0.00     0.116 C 
BRANCH   3   4
ATOM      4  N   UNL A   1      35.402  22.900  26.786  1.00  0.00    -0.356 N 
ATOM      5  C   UNL A   1      34.048  23.005  26.804  1.00  0.00     0.220 C 
ATOM      6  O   UNL A   1      33.424  22.265  27.567  1.00  0.00    -0.275 OA
ATOM      7  H   UNL A   1      35.774  22.195  27.364  1.00  0.00     0.163 HD
BRANCH   5   8
ATOM      8  C   UNL A   1      33.326  23.965  25.872  1.00  0.00     0.107 C 
BRANCH   8   9
ATOM      9  C   UNL A   1      32.437  23.396  24.718  1.00  0.00    -0.012 C 
ATOM     10  C   UNL A   1      33.201  22.178  24.140  1.00  0.00     0.008 C 
ATOM     11  C   UNL A   1      32.403  24.275  23.448  1.00  0.00     0.008 C 
ATOM     12  C   UNL A   1      34.291  22.760  23.241  1.00  0.00     0.001 C 
ATOM     13  C   UNL A   1      33.731  24.078  22.724  1.00  0.00     0.001 C 
BRANCH   9  14
ATOM     14  C   UNL A   1      30.972  23.141  25.189  1.00  0.00     0.108 C 
BRANCH  14  15
ATOM     15  C   UNL A   1      30.469  23.885  26.410  1.00  0.00     0.224 C 
ATOM     16  N   UNL A   1      30.173  25.217  26.403  1.00  0.00    -0.326 N 
ATOM     17  H   UNL A   1      29.874  25.559  27.277  1.00  0.00     0.169 HD
ATOM     18  O   UNL A   1      30.259  23.274  27.463  1.00  0.00    -0.275 OA
BRANCH  16  19
ATOM     19  C   UNL A   1      30.210  26.199  25.399  1.00  0.00     0.044 A 
ATOM     20  C   UNL A   1      32.040  29.481  24.979  1.00  0.00     0.067 C 
ATOM     21  C   UNL A   1      31.136  28.312  24.728  1.00  0.00     0.039 A 
ATOM     22  C   UNL A   1      31.177  27.195  25.554  1.00  0.00     0.049 A 
ATOM     23  N   UNL A   1      30.225  28.450  23.740  1.00  0.00    -0.261 NA
ATOM     24  C   UNL A   1      29.352  27.439  23.557  1.00  0.00     0.113 A 
ATOM     25  C   UNL A   1      29.317  26.299  24.342  1.00  0.00     0.046 A 
ENDBRANCH  16  19
ENDBRANCH  14  15
ENDBRANCH   9  14
ENDBRANCH   8   9
ENDBRANCH   5   8
ENDBRANCH   3   4
ENDBRANCH   2   3
ENDBRANCH   1   2
BRANCH   1  26
ATOM     26  C   UNL A   1      37.177  20.405  24.982  1.00  0.00     0.002 C 
BRANCH  26  27
ATOM     27  C   UNL A   1      38.427  19.541  25.176  1.00  0.00     0.021 C 
BRANCH  27  28
ATOM     28  C   UNL A   1      39.581  20.246  25.885  1.00  0.00     0.116 C 
BRANCH  28  29
ATOM     29  N   UNL A   1      40.709  19.353  26.082  1.00  0.00    -0.352 N 
ATOM     30  C   UNL A   1      42.045  19.650  26.174  1.00  0.00     0.251 C 
ATOM     31  H   UNL A   1      40.482  18.398  26.161  1.00  0.00     0.163 HD
ATOM     32  O   UNL A   1      42.877  18.757  26.057  1.00  0.00    -0.269 OA
BRANCH  30  33
ATOM     33  C   UNL A   1      42.469  21.046  26.407  1.00  0.00     0.039 A 
ATOM     34  C   UNL A   1      42.636  21.896  25.312  1.00  0.00     0.014 A 
ATOM     35  C   UNL A   1      42.723  21.505  27.703  1.00  0.00     0.014 A 
ATOM     36  C   UNL A   1      43.014  23.223  25.521  1.00  0.00     0.010 A 
ATOM     37  C   UNL A   1      43.032  22.846  27.914  1.00  0.00     0.010 A 
ATOM     38  C   UNL A   1      43.190  23.716  26.824  1.00  0.00    -0.014 A 
BRANCH  38  39
ATOM     39  C   UNL A   1      43.564  25.133  27.068  1.00  0.00     0.031 A 
ATOM     40  C   UNL A   1      44.968  25.596  26.788  1.00  0.00     0.074 A 
ATOM     41  C   UNL A   1      42.659  25.981  27.591  1.00  0.00     0.049 A 
ATOM     42  N   UNL A   1      45.515  26.764  27.010  1.00  0.00    -0.248 NA
ATOM     43  C   UNL A   1      45.885  24.602  26.211  1.00  0.00     0.031 C 
ATOM     44  C   UNL A   1      41.278  25.635  27.936  1.00  0.00     0.029 A 
ATOM     45  N   UNL A   1      42.763  27.306  27.935  1.00  0.00    -0.354 N 
ATOM     46  C   UNL A   1      46.842  26.643  26.609  1.00  0.00     0.074 A 
ATOM     47  C   UNL A   1      47.030  25.269  26.194  1.00  0.00     0.031 C 
ATOM     48  C   UNL A   1      40.660  26.724  28.423  1.00  0.00     0.029 A 
ATOM     49  C   UNL A   1      41.609  27.832  28.469  1.00  0.00     0.049 A 
ATOM     50  H   UNL A   1      43.587  27.830  27.812  1.00  0.00     0.167 HD
ATOM     51  C   UNL A   1      47.805  27.596  26.568  1.00  0.00     0.034 A 
ATOM     52  C   UNL A   1      41.350  29.063  28.952  1.00  0.00     0.034 A 
ATOM     53  C   UNL A   1      47.595  28.964  26.978  1.00  0.00     0.049 A 
ATOM     54  C   UNL A   1      42.444  30.100  28.919  1.00  0.00     0.074 A 
ATOM     55  C   UNL A   1      48.485  30.023  26.938  1.00  0.00     0.029 A 
ATOM     56  N   UNL A   1      46.411  29.462  27.507  1.00  0.00    -0.354 N 
ATOM     57  N   UNL A   1      43.683  29.981  28.498  1.00  0.00    -0.248 NA
ATOM     58  C   UNL A   1      42.102  31.439  29.414  1.00  0.00     0.031 C 
ATOM     59  C   UNL A   1      47.863  31.142  27.503  1.00  0.00     0.029 A 
ATOM     60  C   UNL A   1      46.557  30.805  27.823  1.00  0.00     0.049 A 
ATOM     61  H   UNL A   1      45.588  28.939  27.638  1.00  0.00     0.167 HD
ATOM     62  C   UNL A   1      44.256  31.242  28.648  1.00  0.00     0.074 A 
ATOM     63  C   UNL A   1      43.224  32.105  29.184  1.00  0.00     0.031 C 
ATOM     64  C   UNL A   1      45.520  31.650  28.365  1.00  0.00     0.034 A 
BRANCH  51  65
ATOM     65  C   UNL A   1      49.175  27.179  26.086  1.00  0.00     0.023 A 
ATOM     66  C   UNL A   1      50.210  26.866  26.985  1.00  0.00     0.031 A 
ATOM     67  C   UNL A   1      49.461  27.118  24.710  1.00  0.00     0.131 A 
ATOM     68  C   UNL A   1      51.498  26.587  26.504  1.00  0.00     0.055 A 
ATOM     69  C   UNL A   1      50.723  26.756  24.235  1.00  0.00     0.041 A 
ATOM     70  F   UNL A   1      48.520  27.425  23.802  1.00  0.00    -0.206 F 
ATOM     71  C   UNL A   1      51.755  26.504  25.133  1.00  0.00     0.022 A 
BRANCH  68  72
ATOM     72  S   UNL A   1      52.863  26.482  27.692  1.00  0.00     0.124 S 
ATOM     73  O   UNL A   1      53.625  25.352  27.166  1.00  0.00    -0.237 OA
ATOM     74  O   UNL A   1      53.492  27.792  27.566  1.00  0.00    -0.237 OA
ATOM     75  O   UNL A   1      52.191  26.233  28.966  1.00  0.00    -0.744 OA
ENDBRANCH  68  72
ENDBRANCH  51  65
BRANCH  52  76
ATOM     76  C   UNL A   1      40.009  29.385  29.518  1.00  0.00     0.023 A 
ATOM     77  C   UNL A   1      39.793  29.407  30.905  1.00  0.00     0.031 A 
ATOM     78  C   UNL A   1      38.910  29.636  28.676  1.00  0.00     0.131 A 
ATOM     79  C   UNL A   1      38.502  29.624  31.409  1.00  0.00     0.055 A 
ATOM     80  C   UNL A   1      37.638  29.907  29.184  1.00  0.00     0.041 A 
ATOM     81  F   UNL A   1      39.060  29.634  27.342  1.00  0.00    -0.206 F 
ATOM     82  C   UNL A   1      37.426  29.887  30.559  1.00  0.00     0.022 A 
BRANCH  79  83
ATOM     83  S   UNL A   1      38.231  29.469  33.196  1.00  0.00     0.124 S 
ATOM     84  O   UNL A   1      37.133  28.511  33.248  1.00  0.00    -0.237 OA
ATOM     85  O   UNL A   1      39.528  28.984  33.657  1.00  0.00    -0.237 OA
ATOM     86  O   UNL A   1      37.895  30.830  33.608  1.00  0.00    -0.744 OA
ENDBRANCH  79  83
ENDBRANCH  52  76
BRANCH  64  87
ATOM     87  C   UNL A   1      45.834  33.109  28.589  1.00  0.00     0.023 A 
ATOM     88  C   UNL A   1      46.339  33.580  29.813  1.00  0.00     0.031 A 
ATOM     89  C   UNL A   1      45.614  34.043  27.561  1.00  0.00     0.131 A 
ATOM     90  C   UNL A   1      46.554  34.955  29.998  1.00  0.00     0.055 A 
ATOM     91  C   UNL A   1      45.889  35.400  27.730  1.00  0.00     0.041 A 
ATOM     92  F   UNL A   1      45.131  33.648  26.372  1.00  0.00    -0.206 F 
ATOM     93  C   UNL A   1      46.349  35.865  28.958  1.00  0.00     0.022 A 
BRANCH  90  94
ATOM     94  S   UNL A   1      47.019  35.550  31.647  1.00  0.00     0.124 S 
ATOM     95  O   UNL A   1      45.847  36.330  32.030  1.00  0.00    -0.237 OA
ATOM     96  O   UNL A   1      47.223  34.305  32.382  1.00  0.00    -0.237 OA
ATOM     97  O   UNL A   1      48.230  36.330  31.402  1.00  0.00    -0.744 OA
ENDBRANCH  90  94
ENDBRANCH  64  87
ENDBRANCH  38  39
ENDBRANCH  30  33
ENDBRANCH  28  29
ENDBRANCH  27  28
ENDBRANCH  26  27
ENDBRANCH   1  26
TORSDOF 20
ENDMDL
