MODEL 1
REMARK VINA RESULT:     -11.6      0.000      0.000
REMARK SMILES C/C(=N/OCc1ccccc1Nc1c(Cl)cccc1Cl)C(=O)NCCCCCCNC(=O)c1ccc(-c2c3nc(c(-c4cc(S(=O)(=O)[O-])ccc4F)c4ccc([nH]4)c(-c4cc(S(=O)(=O)[O-])ccc4F)c4nc(c(-c5cc(S(=O)(=O)[O-])ccc5F)c5ccc2[nH]5)C=C4)C=C3)cc1
REMARK SMILES IDX 25 1 24 2 23 3 21 4 22 5 2 7 1 8 3 9 4 10 5 11 6 12 7 13
REMARK SMILES IDX 11 14 8 15 10 16 9 17 12 18 13 20 14 21 19 22 15 23 16 24
REMARK SMILES IDX 18 25 20 26 17 27 26 28 27 29 28 30 29 31 30 32 31 33 32 35
REMARK SMILES IDX 33 36 34 37 95 38 35 39 94 40 36 41 37 42 38 43 88 44 39 45
REMARK SMILES IDX 93 46 87 47 89 48 40 49 92 50 86 51 85 52 41 54 73 55 53 56
REMARK SMILES IDX 72 57 54 58 57 59 71 60 90 61 55 62 56 63 70 65 91 66 58 67
REMARK SMILES IDX 42 68 43 69 51 70 44 71 50 72 52 73 49 74 45 75 46 76 47 77
REMARK SMILES IDX 48 78 74 79 75 80 83 81 76 82 82 83 84 84 81 85 77 86 78 87
REMARK SMILES IDX 79 88 80 89 59 90 60 91 68 92 61 93 67 94 69 95 66 96 62 97
REMARK SMILES IDX 63 98 64 99 65 100
REMARK H PARENT 23 6 12 19 30 34 89 53 57 64
REMARK Flexibility Score: inf
ROOT
ATOM      1  C   UNL A   1      30.679  26.108  25.613  1.00  0.00     0.021 C 
ENDROOT
BRANCH   1   2
ATOM      2  C   UNL A   1      30.607  24.792  24.825  1.00  0.00     0.116 C 
BRANCH   2   3
ATOM      3  N   UNL A   1      30.777  25.071  23.417  1.00  0.00    -0.351 N 
ATOM      4  C   UNL A   1      31.873  24.977  22.605  1.00  0.00     0.268 C 
ATOM      5  O   UNL A   1      31.812  25.544  21.510  1.00  0.00    -0.268 OA
ATOM      6  H   UNL A   1      29.960  25.383  22.964  1.00  0.00     0.163 HD
BRANCH   4   7
ATOM      7  C   UNL A   1      33.114  24.135  22.853  1.00  0.00     0.141 C 
ATOM      8  C   UNL A   1      34.389  24.958  22.880  1.00  0.00     0.077 C 
ATOM      9  N   UNL A   1      33.273  22.865  23.091  1.00  0.00    -0.086 NA
BRANCH   9  10
ATOM     10  O   UNL A   1      32.133  22.079  23.034  1.00  0.00    -0.390 OA
BRANCH  10  11
ATOM     11  C   UNL A   1      32.085  21.161  24.145  1.00  0.00     0.302 C 
BRANCH  11  12
ATOM     12  C   UNL A   1      32.816  19.838  23.939  1.00  0.00     0.016 A 
ATOM     13  C   UNL A   1      32.352  18.955  22.942  1.00  0.00     0.009 A 
ATOM     14  C   UNL A   1      33.887  19.431  24.773  1.00  0.00     0.045 A 
ATOM     15  C   UNL A   1      32.896  17.676  22.808  1.00  0.00     0.001 A 
ATOM     16  C   UNL A   1      34.377  18.121  24.655  1.00  0.00     0.026 A 
ATOM     17  C   UNL A   1      33.896  17.253  23.676  1.00  0.00     0.002 A 
BRANCH  14  18
ATOM     18  N   UNL A   1      34.373  20.307  25.762  1.00  0.00    -0.353 N 
ATOM     19  H   UNL A   1      33.924  20.192  26.632  1.00  0.00     0.167 HD
BRANCH  18  20
ATOM     20  C   UNL A   1      35.364  21.315  25.782  1.00  0.00     0.076 A 
ATOM     21  C   UNL A   1      34.965  22.630  26.119  1.00  0.00     0.066 A 
ATOM     22  C   UNL A   1      36.681  21.148  25.311  1.00  0.00     0.066 A 
ATOM     23  Cl  UNL A   1      33.328  22.976  26.577  1.00  0.00    -0.082 Cl
ATOM     24  C   UNL A   1      35.852  23.709  26.058  1.00  0.00     0.023 A 
ATOM     25  C   UNL A   1      37.574  22.230  25.268  1.00  0.00     0.023 A 
ATOM     26  Cl  UNL A   1      37.255  19.668  24.615  1.00  0.00    -0.082 Cl
ATOM     27  C   UNL A   1      37.163  23.506  25.644  1.00  0.00     0.003 A 
ENDBRANCH  18  20
ENDBRANCH  14  18
ENDBRANCH  11  12
ENDBRANCH  10  11
ENDBRANCH   9  10
ENDBRANCH   4   7
ENDBRANCH   2   3
ENDBRANCH   1   2
BRANCH   1  28
ATOM     28  C   UNL A   1      31.895  26.200  26.541  1.00  0.00     0.002 C 
BRANCH  28  29
ATOM     29  C   UNL A   1      33.214  26.498  25.821  1.00  0.00     0.002 C 
BRANCH  29  30
ATOM     30  C   UNL A   1      33.754  27.919  26.016  1.00  0.00     0.021 C 
BRANCH  30  31
ATOM     31  C   UNL A   1      33.273  28.617  27.287  1.00  0.00     0.116 C 
BRANCH  31  32
ATOM     32  N   UNL A   1      33.386  30.061  27.173  1.00  0.00    -0.352 N 
ATOM     33  C   UNL A   1      34.320  30.911  27.710  1.00  0.00     0.251 C 
ATOM     34  H   UNL A   1      32.689  30.494  26.629  1.00  0.00     0.163 HD
ATOM     35  O   UNL A   1      34.083  32.114  27.752  1.00  0.00    -0.269 OA
BRANCH  33  36
ATOM     36  C   UNL A   1      35.599  30.384  28.239  1.00  0.00     0.039 A 
ATOM     37  C   UNL A   1      36.746  30.482  27.446  1.00  0.00     0.014 A 
ATOM     38  C   UNL A   1      35.660  29.742  29.480  1.00  0.00     0.014 A 
ATOM     39  C   UNL A   1      37.958  29.968  27.911  1.00  0.00     0.010 A 
ATOM     40  C   UNL A   1      36.884  29.286  29.970  1.00  0.00     0.010 A 
ATOM     41  C   UNL A   1      38.042  29.383  29.185  1.00  0.00    -0.014 A 
BRANCH  41  42
ATOM     42  C   UNL A   1      39.336  28.859  29.696  1.00  0.00     0.031 A 
ATOM     43  C   UNL A   1      40.027  29.533  30.850  1.00  0.00     0.074 A 
ATOM     44  C   UNL A   1      39.903  27.795  29.092  1.00  0.00     0.049 A 
ATOM     45  N   UNL A   1      41.164  29.233  31.423  1.00  0.00    -0.248 NA
ATOM     46  C   UNL A   1      39.364  30.719  31.415  1.00  0.00     0.031 C 
ATOM     47  C   UNL A   1      39.350  27.091  27.933  1.00  0.00     0.029 A 
ATOM     48  N   UNL A   1      41.066  27.123  29.365  1.00  0.00    -0.354 N 
ATOM     49  C   UNL A   1      41.359  30.195  32.410  1.00  0.00     0.074 A 
ATOM     50  C   UNL A   1      40.251  31.121  32.314  1.00  0.00     0.031 C 
ATOM     51  C   UNL A   1      40.162  26.071  27.611  1.00  0.00     0.029 A 
ATOM     52  C   UNL A   1      41.307  26.068  28.516  1.00  0.00     0.049 A 
ATOM     53  H   UNL A   1      41.673  27.373  30.099  1.00  0.00     0.167 HD
ATOM     54  C   UNL A   1      42.359  30.285  33.324  1.00  0.00     0.034 A 
ATOM     55  C   UNL A   1      42.334  25.198  28.471  1.00  0.00     0.034 A 
ATOM     56  C   UNL A   1      43.451  29.344  33.412  1.00  0.00     0.049 A 
ATOM     57  C   UNL A   1      43.427  25.311  29.502  1.00  0.00     0.074 A 
ATOM     58  C   UNL A   1      44.485  29.305  34.332  1.00  0.00     0.029 A 
ATOM     59  N   UNL A   1      43.655  28.279  32.544  1.00  0.00    -0.354 N 
ATOM     60  N   UNL A   1      43.564  26.191  30.467  1.00  0.00    -0.248 NA
ATOM     61  C   UNL A   1      44.492  24.302  29.448  1.00  0.00     0.031 C 
ATOM     62  C   UNL A   1      45.344  28.256  33.985  1.00  0.00     0.029 A 
ATOM     63  C   UNL A   1      44.811  27.595  32.890  1.00  0.00     0.049 A 
ATOM     64  H   UNL A   1      43.066  28.044  31.792  1.00  0.00     0.167 HD
ATOM     65  C   UNL A   1      44.721  25.825  31.151  1.00  0.00     0.074 A 
ATOM     66  C   UNL A   1      45.225  24.632  30.501  1.00  0.00     0.031 C 
ATOM     67  C   UNL A   1      45.312  26.419  32.219  1.00  0.00     0.034 A 
BRANCH  54  68
ATOM     68  C   UNL A   1      42.324  31.454  34.279  1.00  0.00     0.023 A 
ATOM     69  C   UNL A   1      41.449  31.485  35.380  1.00  0.00     0.031 A 
ATOM     70  C   UNL A   1      43.159  32.567  34.074  1.00  0.00     0.131 A 
ATOM     71  C   UNL A   1      41.377  32.630  36.187  1.00  0.00     0.055 A 
ATOM     72  C   UNL A   1      43.138  33.672  34.929  1.00  0.00     0.041 A 
ATOM     73  F   UNL A   1      44.003  32.606  33.030  1.00  0.00    -0.206 F 
ATOM     74  C   UNL A   1      42.232  33.714  35.985  1.00  0.00     0.022 A 
BRANCH  71  75
ATOM     75  S   UNL A   1      40.051  32.738  37.422  1.00  0.00     0.124 S 
ATOM     76  O   UNL A   1      40.797  32.585  38.669  1.00  0.00    -0.237 OA
ATOM     77  O   UNL A   1      39.492  34.061  37.169  1.00  0.00    -0.237 OA
ATOM     78  O   UNL A   1      39.177  31.617  37.086  1.00  0.00    -0.744 OA
ENDBRANCH  71  75
ENDBRANCH  54  68
BRANCH  55  79
ATOM     79  C   UNL A   1      42.384  24.142  27.420  1.00  0.00     0.023 A 
ATOM     80  C   UNL A   1      41.804  22.881  27.632  1.00  0.00     0.031 A 
ATOM     81  C   UNL A   1      43.044  24.368  26.200  1.00  0.00     0.131 A 
ATOM     82  C   UNL A   1      41.938  21.878  26.660  1.00  0.00     0.055 A 
ATOM     83  C   UNL A   1      43.132  23.383  25.215  1.00  0.00     0.041 A 
ATOM     84  F   UNL A   1      43.606  25.561  25.943  1.00  0.00    -0.206 F 
ATOM     85  C   UNL A   1      42.588  22.124  25.449  1.00  0.00     0.022 A 
BRANCH  82  86
ATOM     86  S   UNL A   1      41.317  20.216  27.037  1.00  0.00     0.124 S 
ATOM     87  O   UNL A   1      40.797  20.390  28.388  1.00  0.00    -0.237 OA
ATOM     88  O   UNL A   1      40.323  20.020  25.986  1.00  0.00    -0.237 OA
ATOM     89  O   UNL A   1      42.508  19.376  26.929  1.00  0.00    -0.744 OA
ENDBRANCH  82  86
ENDBRANCH  55  79
BRANCH  67  90
ATOM     90  C   UNL A   1      46.556  25.756  32.759  1.00  0.00     0.023 A 
ATOM     91  C   UNL A   1      47.818  25.968  32.176  1.00  0.00     0.031 A 
ATOM     92  C   UNL A   1      46.471  24.870  33.848  1.00  0.00     0.131 A 
ATOM     93  C   UNL A   1      48.931  25.253  32.639  1.00  0.00     0.055 A 
ATOM     94  C   UNL A   1      47.596  24.209  34.346  1.00  0.00     0.041 A 
ATOM     95  F   UNL A   1      45.293  24.629  34.443  1.00  0.00    -0.206 F 
ATOM     96  C   UNL A   1      48.831  24.385  33.729  1.00  0.00     0.022 A 
BRANCH  93  97
ATOM     97  S   UNL A   1      50.492  25.385  31.724  1.00  0.00     0.124 S 
ATOM     98  O   UNL A   1      50.088  26.139  30.542  1.00  0.00    -0.237 OA
ATOM     99  O   UNL A   1      51.348  26.095  32.670  1.00  0.00    -0.237 OA
ATOM    100  O   UNL A   1      50.864  23.994  31.476  1.00  0.00    -0.744 OA
ENDBRANCH  93  97
ENDBRANCH  67  90
ENDBRANCH  41  42
ENDBRANCH  33  36
ENDBRANCH  31  32
ENDBRANCH  30  31
ENDBRANCH  29  30
ENDBRANCH  28  29
ENDBRANCH   1  28
TORSDOF 21
ENDMDL
MODEL 2
REMARK VINA RESULT:     -11.4      1.861      2.329
REMARK SMILES C/C(=N/OCc1ccccc1Nc1c(Cl)cccc1Cl)C(=O)NCCCCCCNC(=O)c1ccc(-c2c3nc(c(-c4cc(S(=O)(=O)[O-])ccc4F)c4ccc([nH]4)c(-c4cc(S(=O)(=O)[O-])ccc4F)c4nc(c(-c5cc(S(=O)(=O)[O-])ccc5F)c5ccc2[nH]5)C=C4)C=C3)cc1
REMARK SMILES IDX 25 1 24 2 23 3 21 4 22 5 2 7 1 8 3 9 4 10 5 11 6 12 7 13
REMARK SMILES IDX 11 14 8 15 10 16 9 17 12 18 13 20 14 21 19 22 15 23 16 24
REMARK SMILES IDX 18 25 20 26 17 27 26 28 27 29 28 30 29 31 30 32 31 33 32 35
REMARK SMILES IDX 33 36 34 37 95 38 35 39 94 40 36 41 37 42 38 43 88 44 39 45
REMARK SMILES IDX 93 46 87 47 89 48 40 49 92 50 86 51 85 52 41 54 73 55 53 56
REMARK SMILES IDX 72 57 54 58 57 59 71 60 90 61 55 62 56 63 70 65 91 66 58 67
REMARK SMILES IDX 42 68 43 69 51 70 44 71 50 72 52 73 49 74 45 75 46 76 47 77
REMARK SMILES IDX 48 78 74 79 75 80 83 81 76 82 82 83 84 84 81 85 77 86 78 87
REMARK SMILES IDX 79 88 80 89 59 90 60 91 68 92 61 93 67 94 69 95 66 96 62 97
REMARK SMILES IDX 63 98 64 99 65 100
REMARK H PARENT 23 6 12 19 30 34 89 53 57 64
REMARK Flexibility Score: inf
ROOT
ATOM      1  C   UNL A   1      30.603  26.869  25.039  1.00  0.00     0.021 C 
ENDROOT
BRANCH   1   2
ATOM      2  C   UNL A   1      30.214  25.504  24.454  1.00  0.00     0.116 C 
BRANCH   2   3
ATOM      3  N   UNL A   1      30.616  25.449  23.068  1.00  0.00    -0.351 N 
ATOM      4  C   UNL A   1      31.852  25.342  22.490  1.00  0.00     0.268 C 
ATOM      5  O   UNL A   1      31.934  25.599  21.286  1.00  0.00    -0.268 OA
ATOM      6  H   UNL A   1      29.870  25.495  22.427  1.00  0.00     0.163 HD
BRANCH   4   7
ATOM      7  C   UNL A   1      33.115  24.809  23.148  1.00  0.00     0.141 C 
ATOM      8  C   UNL A   1      34.044  25.914  23.617  1.00  0.00     0.077 C 
ATOM      9  N   UNL A   1      33.514  23.601  23.420  1.00  0.00    -0.086 NA
BRANCH   9  10
ATOM     10  O   UNL A   1      32.707  22.568  22.968  1.00  0.00    -0.390 OA
BRANCH  10  11
ATOM     11  C   UNL A   1      32.395  21.654  24.039  1.00  0.00     0.302 C 
BRANCH  11  12
ATOM     12  C   UNL A   1      32.877  20.220  23.843  1.00  0.00     0.016 A 
ATOM     13  C   UNL A   1      32.262  19.427  22.852  1.00  0.00     0.009 A 
ATOM     14  C   UNL A   1      33.859  19.634  24.680  1.00  0.00     0.045 A 
ATOM     15  C   UNL A   1      32.568  18.070  22.728  1.00  0.00     0.001 A 
ATOM     16  C   UNL A   1      34.106  18.257  24.573  1.00  0.00     0.026 A 
ATOM     17  C   UNL A   1      33.476  17.482  23.599  1.00  0.00     0.002 A 
BRANCH  14  18
ATOM     18  N   UNL A   1      34.494  20.416  25.664  1.00  0.00    -0.353 N 
ATOM     19  H   UNL A   1      34.212  20.186  26.579  1.00  0.00     0.167 HD
BRANCH  18  20
ATOM     20  C   UNL A   1      35.449  21.458  25.626  1.00  0.00     0.076 A 
ATOM     21  C   UNL A   1      36.778  21.127  25.271  1.00  0.00     0.066 A 
ATOM     22  C   UNL A   1      35.219  22.767  26.093  1.00  0.00     0.066 A 
ATOM     23  Cl  UNL A   1      37.203  19.507  24.816  1.00  0.00    -0.082 Cl
ATOM     24  C   UNL A   1      37.809  22.069  25.313  1.00  0.00     0.023 A 
ATOM     25  C   UNL A   1      36.254  23.715  26.116  1.00  0.00     0.023 A 
ATOM     26  Cl  UNL A   1      33.722  23.267  26.806  1.00  0.00    -0.082 Cl
ATOM     27  C   UNL A   1      37.544  23.370  25.723  1.00  0.00     0.003 A 
ENDBRANCH  18  20
ENDBRANCH  14  18
ENDBRANCH  11  12
ENDBRANCH  10  11
ENDBRANCH   9  10
ENDBRANCH   4   7
ENDBRANCH   2   3
ENDBRANCH   1   2
BRANCH   1  28
ATOM     28  C   UNL A   1      31.021  26.808  26.512  1.00  0.00     0.002 C 
BRANCH  28  29
ATOM     29  C   UNL A   1      31.818  28.027  26.989  1.00  0.00     0.002 C 
BRANCH  29  30
ATOM     30  C   UNL A   1      33.341  27.889  26.885  1.00  0.00     0.021 C 
BRANCH  30  31
ATOM     31  C   UNL A   1      34.013  28.906  25.964  1.00  0.00     0.116 C 
BRANCH  31  32
ATOM     32  N   UNL A   1      33.856  30.260  26.467  1.00  0.00    -0.352 N 
ATOM     33  C   UNL A   1      34.495  30.888  27.506  1.00  0.00     0.251 C 
ATOM     34  H   UNL A   1      33.191  30.809  25.991  1.00  0.00     0.163 HD
ATOM     35  O   UNL A   1      34.021  31.922  27.966  1.00  0.00    -0.269 OA
BRANCH  33  36
ATOM     36  C   UNL A   1      35.742  30.324  28.071  1.00  0.00     0.039 A 
ATOM     37  C   UNL A   1      36.929  30.454  27.344  1.00  0.00     0.014 A 
ATOM     38  C   UNL A   1      35.737  29.616  29.278  1.00  0.00     0.014 A 
ATOM     39  C   UNL A   1      38.113  29.907  27.843  1.00  0.00     0.010 A 
ATOM     40  C   UNL A   1      36.931  29.126  29.805  1.00  0.00     0.010 A 
ATOM     41  C   UNL A   1      38.128  29.255  29.087  1.00  0.00    -0.014 A 
BRANCH  41  42
ATOM     42  C   UNL A   1      39.392  28.694  29.634  1.00  0.00     0.031 A 
ATOM     43  C   UNL A   1      40.045  29.323  30.835  1.00  0.00     0.074 A 
ATOM     44  C   UNL A   1      39.966  27.638  29.024  1.00  0.00     0.049 A 
ATOM     45  N   UNL A   1      41.152  28.988  31.446  1.00  0.00    -0.248 NA
ATOM     46  C   UNL A   1      39.378  30.504  31.406  1.00  0.00     0.031 C 
ATOM     47  C   UNL A   1      39.450  26.977  27.823  1.00  0.00     0.029 A 
ATOM     48  N   UNL A   1      41.106  26.939  29.324  1.00  0.00    -0.354 N 
ATOM     49  C   UNL A   1      41.322  29.918  32.467  1.00  0.00     0.074 A 
ATOM     50  C   UNL A   1      40.233  30.865  32.352  1.00  0.00     0.031 C 
ATOM     51  C   UNL A   1      40.258  25.953  27.505  1.00  0.00     0.029 A 
ATOM     52  C   UNL A   1      41.365  25.904  28.456  1.00  0.00     0.049 A 
ATOM     53  H   UNL A   1      41.686  27.157  30.090  1.00  0.00     0.167 HD
ATOM     54  C   UNL A   1      42.284  29.964  33.423  1.00  0.00     0.034 A 
ATOM     55  C   UNL A   1      42.379  25.018  28.427  1.00  0.00     0.034 A 
ATOM     56  C   UNL A   1      43.356  29.003  33.529  1.00  0.00     0.049 A 
ATOM     57  C   UNL A   1      43.430  25.084  29.506  1.00  0.00     0.074 A 
ATOM     58  C   UNL A   1      44.350  28.920  34.489  1.00  0.00     0.029 A 
ATOM     59  N   UNL A   1      43.579  27.960  32.639  1.00  0.00    -0.354 N 
ATOM     60  N   UNL A   1      43.541  25.934  30.501  1.00  0.00    -0.248 NA
ATOM     61  C   UNL A   1      44.480  24.058  29.466  1.00  0.00     0.031 C 
ATOM     62  C   UNL A   1      45.206  27.867  34.147  1.00  0.00     0.029 A 
ATOM     63  C   UNL A   1      44.709  27.246  33.012  1.00  0.00     0.049 A 
ATOM     64  H   UNL A   1      43.017  27.756  31.857  1.00  0.00     0.167 HD
ATOM     65  C   UNL A   1      44.663  25.528  31.220  1.00  0.00     0.074 A 
ATOM     66  C   UNL A   1      45.174  24.346  30.557  1.00  0.00     0.031 C 
ATOM     67  C   UNL A   1      45.218  26.081  32.328  1.00  0.00     0.034 A 
BRANCH  54  68
ATOM     68  C   UNL A   1      42.228  31.107  34.410  1.00  0.00     0.023 A 
ATOM     69  C   UNL A   1      42.933  32.305  34.196  1.00  0.00     0.031 A 
ATOM     70  C   UNL A   1      41.478  30.990  35.594  1.00  0.00     0.131 A 
ATOM     71  C   UNL A   1      42.935  33.304  35.181  1.00  0.00     0.055 A 
ATOM     72  C   UNL A   1      41.420  32.021  36.535  1.00  0.00     0.041 A 
ATOM     73  F   UNL A   1      40.798  29.864  35.864  1.00  0.00    -0.206 F 
ATOM     74  C   UNL A   1      42.163  33.181  36.338  1.00  0.00     0.022 A 
BRANCH  71  75
ATOM     75  S   UNL A   1      44.069  34.708  34.991  1.00  0.00     0.124 S 
ATOM     76  O   UNL A   1      45.217  34.267  35.778  1.00  0.00    -0.237 OA
ATOM     77  O   UNL A   1      44.265  34.761  33.547  1.00  0.00    -0.237 OA
ATOM     78  O   UNL A   1      43.325  35.829  35.561  1.00  0.00    -0.744 OA
ENDBRANCH  71  75
ENDBRANCH  54  68
BRANCH  55  79
ATOM     79  C   UNL A   1      42.455  23.992  27.349  1.00  0.00     0.023 A 
ATOM     80  C   UNL A   1      41.888  22.719  27.519  1.00  0.00     0.031 A 
ATOM     81  C   UNL A   1      43.129  24.259  26.145  1.00  0.00     0.131 A 
ATOM     82  C   UNL A   1      42.047  21.744  26.522  1.00  0.00     0.055 A 
ATOM     83  C   UNL A   1      43.241  23.303  25.135  1.00  0.00     0.041 A 
ATOM     84  F   UNL A   1      43.679  25.465  25.927  1.00  0.00    -0.206 F 
ATOM     85  C   UNL A   1      42.709  22.031  25.327  1.00  0.00     0.022 A 
BRANCH  82  86
ATOM     86  S   UNL A   1      41.441  20.065  26.846  1.00  0.00     0.124 S 
ATOM     87  O   UNL A   1      42.685  19.308  26.923  1.00  0.00    -0.237 OA
ATOM     88  O   UNL A   1      40.718  20.243  28.101  1.00  0.00    -0.237 OA
ATOM     89  O   UNL A   1      40.605  19.776  25.684  1.00  0.00    -0.744 OA
ENDBRANCH  82  86
ENDBRANCH  55  79
BRANCH  67  90
ATOM     90  C   UNL A   1      46.428  25.382  32.899  1.00  0.00     0.023 A 
ATOM     91  C   UNL A   1      46.308  24.385  33.883  1.00  0.00     0.031 A 
ATOM     92  C   UNL A   1      47.721  25.745  32.479  1.00  0.00     0.131 A 
ATOM     93  C   UNL A   1      47.459  23.834  34.465  1.00  0.00     0.055 A 
ATOM     94  C   UNL A   1      48.862  25.148  33.017  1.00  0.00     0.041 A 
ATOM     95  F   UNL A   1      47.895  26.691  31.544  1.00  0.00    -0.206 F 
ATOM     96  C   UNL A   1      48.735  24.199  34.028  1.00  0.00     0.022 A 
BRANCH  93  97
ATOM     97  S   UNL A   1      47.269  22.717  35.880  1.00  0.00     0.124 S 
ATOM     98  O   UNL A   1      47.741  21.448  35.332  1.00  0.00    -0.237 OA
ATOM     99  O   UNL A   1      48.131  23.335  36.884  1.00  0.00    -0.237 OA
ATOM    100  O   UNL A   1      45.839  22.772  36.173  1.00  0.00    -0.744 OA
ENDBRANCH  93  97
ENDBRANCH  67  90
ENDBRANCH  41  42
ENDBRANCH  33  36
ENDBRANCH  31  32
ENDBRANCH  30  31
ENDBRANCH  29  30
ENDBRANCH  28  29
ENDBRANCH   1  28
TORSDOF 21
ENDMDL
MODEL 3
REMARK VINA RESULT:     -11.3      2.493      3.062
REMARK SMILES C/C(=N/OCc1ccccc1Nc1c(Cl)cccc1Cl)C(=O)NCCCCCCNC(=O)c1ccc(-c2c3nc(c(-c4cc(S(=O)(=O)[O-])ccc4F)c4ccc([nH]4)c(-c4cc(S(=O)(=O)[O-])ccc4F)c4nc(c(-c5cc(S(=O)(=O)[O-])ccc5F)c5ccc2[nH]5)C=C4)C=C3)cc1
REMARK SMILES IDX 25 1 24 2 23 3 21 4 22 5 2 7 1 8 3 9 4 10 5 11 6 12 7 13
REMARK SMILES IDX 11 14 8 15 10 16 9 17 12 18 13 20 14 21 19 22 15 23 16 24
REMARK SMILES IDX 18 25 20 26 17 27 26 28 27 29 28 30 29 31 30 32 31 33 32 35
REMARK SMILES IDX 33 36 34 37 95 38 35 39 94 40 36 41 37 42 38 43 88 44 39 45
REMARK SMILES IDX 93 46 87 47 89 48 40 49 92 50 86 51 85 52 41 54 73 55 53 56
REMARK SMILES IDX 72 57 54 58 57 59 71 60 90 61 55 62 56 63 70 65 91 66 58 67
REMARK SMILES IDX 42 68 43 69 51 70 44 71 50 72 52 73 49 74 45 75 46 76 47 77
REMARK SMILES IDX 48 78 74 79 75 80 83 81 76 82 82 83 84 84 81 85 77 86 78 87
REMARK SMILES IDX 79 88 80 89 59 90 60 91 68 92 61 93 67 94 69 95 66 96 62 97
REMARK SMILES IDX 63 98 64 99 65 100
REMARK H PARENT 23 6 12 19 30 34 89 53 57 64
REMARK Flexibility Score: inf
ROOT
ATOM      1  C   UNL A   1      30.400  25.973  25.781  1.00  0.00     0.021 C 
ENDROOT
BRANCH   1   2
ATOM      2  C   UNL A   1      30.491  24.673  24.969  1.00  0.00     0.116 C 
BRANCH   2   3
ATOM      3  N   UNL A   1      30.630  24.997  23.567  1.00  0.00    -0.351 N 
ATOM      4  C   UNL A   1      31.728  25.023  22.752  1.00  0.00     0.268 C 
ATOM      5  O   UNL A   1      31.611  25.604  21.669  1.00  0.00    -0.268 OA
ATOM      6  H   UNL A   1      29.786  25.240  23.122  1.00  0.00     0.163 HD
BRANCH   4   7
ATOM      7  C   UNL A   1      33.043  24.294  22.981  1.00  0.00     0.141 C 
ATOM      8  C   UNL A   1      34.215  25.240  23.167  1.00  0.00     0.077 C 
ATOM      9  N   UNL A   1      33.331  23.029  23.093  1.00  0.00    -0.086 NA
BRANCH   9  10
ATOM     10  O   UNL A   1      32.289  22.138  22.888  1.00  0.00    -0.390 OA
BRANCH  10  11
ATOM     11  C   UNL A   1      32.157  21.237  24.005  1.00  0.00     0.302 C 
BRANCH  11  12
ATOM     12  C   UNL A   1      32.848  19.886  23.850  1.00  0.00     0.016 A 
ATOM     13  C   UNL A   1      32.399  19.007  22.844  1.00  0.00     0.009 A 
ATOM     14  C   UNL A   1      33.866  19.455  24.737  1.00  0.00     0.045 A 
ATOM     15  C   UNL A   1      32.903  17.707  22.751  1.00  0.00     0.001 A 
ATOM     16  C   UNL A   1      34.314  18.127  24.658  1.00  0.00     0.026 A 
ATOM     17  C   UNL A   1      33.847  17.262  23.669  1.00  0.00     0.002 A 
BRANCH  14  18
ATOM     18  N   UNL A   1      34.338  20.327  25.736  1.00  0.00    -0.353 N 
ATOM     19  H   UNL A   1      33.858  20.228  26.591  1.00  0.00     0.167 HD
BRANCH  18  20
ATOM     20  C   UNL A   1      35.349  21.314  25.782  1.00  0.00     0.076 A 
ATOM     21  C   UNL A   1      34.973  22.633  26.128  1.00  0.00     0.066 A 
ATOM     22  C   UNL A   1      36.669  21.124  25.329  1.00  0.00     0.066 A 
ATOM     23  Cl  UNL A   1      33.336  23.009  26.565  1.00  0.00    -0.082 Cl
ATOM     24  C   UNL A   1      35.883  23.693  26.093  1.00  0.00     0.023 A 
ATOM     25  C   UNL A   1      37.585  22.187  25.312  1.00  0.00     0.023 A 
ATOM     26  Cl  UNL A   1      37.223  19.640  24.626  1.00  0.00    -0.082 Cl
ATOM     27  C   UNL A   1      37.196  23.468  25.697  1.00  0.00     0.003 A 
ENDBRANCH  18  20
ENDBRANCH  14  18
ENDBRANCH  11  12
ENDBRANCH  10  11
ENDBRANCH   9  10
ENDBRANCH   4   7
ENDBRANCH   2   3
ENDBRANCH   1   2
BRANCH   1  28
ATOM     28  C   UNL A   1      31.706  26.344  26.491  1.00  0.00     0.002 C 
BRANCH  28  29
ATOM     29  C   UNL A   1      32.571  27.353  25.728  1.00  0.00     0.002 C 
BRANCH  29  30
ATOM     30  C   UNL A   1      31.978  28.762  25.612  1.00  0.00     0.021 C 
BRANCH  30  31
ATOM     31  C   UNL A   1      31.876  29.523  26.933  1.00  0.00     0.116 C 
BRANCH  31  32
ATOM     32  N   UNL A   1      31.954  30.959  26.723  1.00  0.00    -0.352 N 
ATOM     33  C   UNL A   1      32.792  31.883  27.293  1.00  0.00     0.251 C 
ATOM     34  H   UNL A   1      31.309  31.322  26.074  1.00  0.00     0.163 HD
ATOM     35  O   UNL A   1      32.512  33.075  27.216  1.00  0.00    -0.269 OA
BRANCH  33  36
ATOM     36  C   UNL A   1      34.020  31.449  27.997  1.00  0.00     0.039 A 
ATOM     37  C   UNL A   1      34.590  30.218  27.661  1.00  0.00     0.014 A 
ATOM     38  C   UNL A   1      34.575  32.218  29.026  1.00  0.00     0.014 A 
ATOM     39  C   UNL A   1      35.733  29.776  28.329  1.00  0.00     0.010 A 
ATOM     40  C   UNL A   1      35.752  31.804  29.649  1.00  0.00     0.010 A 
ATOM     41  C   UNL A   1      36.336  30.573  29.317  1.00  0.00    -0.014 A 
BRANCH  41  42
ATOM     42  C   UNL A   1      37.567  30.117  30.012  1.00  0.00     0.031 A 
ATOM     43  C   UNL A   1      37.819  30.504  31.445  1.00  0.00     0.074 A 
ATOM     44  C   UNL A   1      38.475  29.384  29.338  1.00  0.00     0.049 A 
ATOM     45  N   UNL A   1      38.838  30.217  32.214  1.00  0.00    -0.248 NA
ATOM     46  C   UNL A   1      36.801  31.350  32.088  1.00  0.00     0.031 C 
ATOM     47  C   UNL A   1      38.363  28.991  27.931  1.00  0.00     0.029 A 
ATOM     48  N   UNL A   1      39.668  28.841  29.740  1.00  0.00    -0.354 N 
ATOM     49  C   UNL A   1      38.591  30.851  33.427  1.00  0.00     0.074 A 
ATOM     50  C   UNL A   1      37.355  31.587  33.268  1.00  0.00     0.031 C 
ATOM     51  C   UNL A   1      39.431  28.250  27.597  1.00  0.00     0.029 A 
ATOM     52  C   UNL A   1      40.319  28.142  28.750  1.00  0.00     0.049 A 
ATOM     53  H   UNL A   1      40.027  28.944  30.652  1.00  0.00     0.167 HD
ATOM     54  C   UNL A   1      39.318  30.807  34.572  1.00  0.00     0.034 A 
ATOM     55  C   UNL A   1      41.497  27.490  28.769  1.00  0.00     0.034 A 
ATOM     56  C   UNL A   1      40.544  30.058  34.716  1.00  0.00     0.049 A 
ATOM     57  C   UNL A   1      42.281  27.445  30.056  1.00  0.00     0.074 A 
ATOM     58  C   UNL A   1      41.330  29.894  35.843  1.00  0.00     0.029 A 
ATOM     59  N   UNL A   1      41.166  29.349  33.695  1.00  0.00    -0.354 N 
ATOM     60  N   UNL A   1      42.002  28.001  31.213  1.00  0.00    -0.248 NA
ATOM     61  C   UNL A   1      43.528  26.670  30.041  1.00  0.00     0.031 C 
ATOM     62  C   UNL A   1      42.455  29.141  35.491  1.00  0.00     0.029 A 
ATOM     63  C   UNL A   1      42.339  28.772  34.160  1.00  0.00     0.049 A 
ATOM     64  H   UNL A   1      40.825  29.268  32.776  1.00  0.00     0.167 HD
ATOM     65  C   UNL A   1      43.031  27.621  32.072  1.00  0.00     0.074 A 
ATOM     66  C   UNL A   1      43.918  26.771  31.304  1.00  0.00     0.031 C 
ATOM     67  C   UNL A   1      43.224  27.943  33.376  1.00  0.00     0.034 A 
BRANCH  54  68
ATOM     68  C   UNL A   1      38.814  31.613  35.747  1.00  0.00     0.023 A 
ATOM     69  C   UNL A   1      38.179  31.003  36.844  1.00  0.00     0.031 A 
ATOM     70  C   UNL A   1      38.947  33.013  35.760  1.00  0.00     0.131 A 
ATOM     71  C   UNL A   1      37.638  31.794  37.869  1.00  0.00     0.055 A 
ATOM     72  C   UNL A   1      38.476  33.788  36.823  1.00  0.00     0.041 A 
ATOM     73  F   UNL A   1      39.527  33.655  34.734  1.00  0.00    -0.206 F 
ATOM     74  C   UNL A   1      37.803  33.180  37.879  1.00  0.00     0.022 A 
BRANCH  71  75
ATOM     75  S   UNL A   1      36.594  30.996  39.121  1.00  0.00     0.124 S 
ATOM     76  O   UNL A   1      37.505  30.919  40.259  1.00  0.00    -0.237 OA
ATOM     77  O   UNL A   1      35.485  31.934  39.251  1.00  0.00    -0.237 OA
ATOM     78  O   UNL A   1      36.255  29.709  38.515  1.00  0.00    -0.744 OA
ENDBRANCH  71  75
ENDBRANCH  54  68
BRANCH  55  79
ATOM     79  C   UNL A   1      42.011  26.822  27.540  1.00  0.00     0.023 A 
ATOM     80  C   UNL A   1      41.890  25.435  27.364  1.00  0.00     0.031 A 
ATOM     81  C   UNL A   1      42.663  27.560  26.537  1.00  0.00     0.131 A 
ATOM     82  C   UNL A   1      42.457  24.821  26.236  1.00  0.00     0.055 A 
ATOM     83  C   UNL A   1      43.181  26.952  25.393  1.00  0.00     0.041 A 
ATOM     84  F   UNL A   1      42.795  28.892  26.651  1.00  0.00    -0.206 F 
ATOM     85  C   UNL A   1      43.091  25.571  25.245  1.00  0.00     0.022 A 
BRANCH  82  86
ATOM     86  S   UNL A   1      42.422  23.011  26.124  1.00  0.00     0.124 S 
ATOM     87  O   UNL A   1      41.008  22.725  26.338  1.00  0.00    -0.237 OA
ATOM     88  O   UNL A   1      42.928  22.783  24.774  1.00  0.00    -0.237 OA
ATOM     89  O   UNL A   1      43.315  22.587  27.201  1.00  0.00    -0.744 OA
ENDBRANCH  82  86
ENDBRANCH  55  79
BRANCH  67  90
ATOM     90  C   UNL A   1      44.432  27.340  34.050  1.00  0.00     0.023 A 
ATOM     91  C   UNL A   1      44.410  26.036  34.577  1.00  0.00     0.031 A 
ATOM     92  C   UNL A   1      45.610  28.095  34.201  1.00  0.00     0.131 A 
ATOM     93  C   UNL A   1      45.516  25.551  35.289  1.00  0.00     0.055 A 
ATOM     94  C   UNL A   1      46.731  27.582  34.856  1.00  0.00     0.041 A 
ATOM     95  F   UNL A   1      45.687  29.345  33.720  1.00  0.00    -0.206 F 
ATOM     96  C   UNL A   1      46.682  26.310  35.419  1.00  0.00     0.022 A 
BRANCH  93  97
ATOM     97  S   UNL A   1      45.371  23.956  36.140  1.00  0.00     0.124 S 
ATOM     98  O   UNL A   1      45.657  24.323  37.524  1.00  0.00    -0.237 OA
ATOM     99  O   UNL A   1      43.991  23.576  35.856  1.00  0.00    -0.237 OA
ATOM    100  O   UNL A   1      46.387  23.128  35.495  1.00  0.00    -0.744 OA
ENDBRANCH  93  97
ENDBRANCH  67  90
ENDBRANCH  41  42
ENDBRANCH  33  36
ENDBRANCH  31  32
ENDBRANCH  30  31
ENDBRANCH  29  30
ENDBRANCH  28  29
ENDBRANCH   1  28
TORSDOF 21
ENDMDL
