MODEL 1
REMARK VINA RESULT:     -11.3      0.000      0.000
REMARK SMILES CC(C)[NH2+][C@]1(C(=O)NCCCCCCNC(=O)c2ccc(-c3c4nc(c(-c5cc(S(=O)(=O)[O-])ccc5F)c5ccc([nH]5)c(-c5cc(S(=O)(=O)[O-])ccc5F)c5nc(c(-c6cc(S(=O)(=O)[O-])ccc6F)c6ccc3[nH]6)C=C5)C=C4)cc2)CC[C@H]([N@H+](C)C2CCCC2)C1
REMARK SMILES IDX 12 1 11 2 10 3 9 4 8 5 6 6 7 7 5 9 81 10 91 11 82 12 83 13
REMARK SMILES IDX 4 14 2 17 1 18 3 19 84 20 85 21 86 23 87 24 90 25 88 26
REMARK SMILES IDX 89 27 13 28 14 29 15 30 16 31 17 33 18 34 19 35 80 36 20 37
REMARK SMILES IDX 79 38 21 39 22 40 23 41 73 42 24 43 78 44 72 45 74 46 25 47
REMARK SMILES IDX 77 48 71 49 70 50 26 52 58 53 38 54 57 55 39 56 42 57 56 58
REMARK SMILES IDX 75 59 40 60 41 61 55 63 76 64 43 65 27 66 28 67 36 68 29 69
REMARK SMILES IDX 35 70 37 71 34 72 30 73 31 74 32 75 33 76 59 77 60 78 68 79
REMARK SMILES IDX 61 80 67 81 69 82 66 83 62 84 63 85 64 86 65 87 44 88 45 89
REMARK SMILES IDX 53 90 46 91 52 92 54 93 51 94 47 95 48 96 49 97 50 98
REMARK H PARENT 8 8 4 15 4 16 84 22 15 32 74 51 42 62
REMARK Flexibility Score: inf
ROOT
ATOM      1  C   UNL A   1      31.704  30.449  26.081  1.00  0.00     0.002 C 
ENDROOT
BRANCH   1   2
ATOM      2  C   UNL A   1      32.212  29.498  27.165  1.00  0.00     0.002 C 
BRANCH   2   3
ATOM      3  C   UNL A   1      33.090  28.361  26.645  1.00  0.00     0.021 C 
BRANCH   3   4
ATOM      4  C   UNL A   1      32.409  26.977  26.542  1.00  0.00     0.116 C 
BRANCH   4   5
ATOM      5  N   UNL A   1      31.760  26.839  25.251  1.00  0.00    -0.351 N 
ATOM      6  C   UNL A   1      31.784  25.922  24.256  1.00  0.00     0.281 C 
ATOM      7  O   UNL A   1      31.232  26.342  23.220  1.00  0.00    -0.268 OA
ATOM      8  H   UNL A   1      31.160  27.593  25.052  1.00  0.00     0.163 HD
BRANCH   6   9
ATOM      9  C   UNL A   1      32.263  24.432  24.303  1.00  0.00     0.181 C 
ATOM     10  C   UNL A   1      32.350  23.885  22.858  1.00  0.00     0.085 C 
ATOM     11  C   UNL A   1      33.782  24.396  24.617  1.00  0.00     0.144 C 
ATOM     12  C   UNL A   1      33.403  22.761  22.901  1.00  0.00     0.072 C 
ATOM     13  C   UNL A   1      34.343  23.046  24.105  1.00  0.00     0.191 C 
BRANCH   9  14
ATOM     14  N   UNL A   1      31.498  23.427  25.074  1.00  0.00    -0.331 N 
ATOM     15  H   UNL A   1      30.564  23.409  24.664  1.00  0.00     0.347 HD
ATOM     16  H   UNL A   1      32.103  22.608  24.999  1.00  0.00     0.347 HD
BRANCH  14  17
ATOM     17  C   UNL A   1      31.303  23.512  26.509  1.00  0.00     0.176 C 
ATOM     18  C   UNL A   1      29.962  22.853  26.851  1.00  0.00     0.075 C 
ATOM     19  C   UNL A   1      32.400  23.026  27.438  1.00  0.00     0.075 C 
ENDBRANCH  14  17
ENDBRANCH   9  14
BRANCH  13  20
ATOM     20  N   UNL A   1      34.373  21.915  25.082  1.00  0.00    -0.332 N 
ATOM     21  C   UNL A   1      35.740  21.671  25.578  1.00  0.00     0.333 C 
ATOM     22  H   UNL A   1      33.756  22.206  25.839  1.00  0.00     0.348 HD
BRANCH  20  23
ATOM     23  C   UNL A   1      33.879  20.635  24.506  1.00  0.00     0.184 C 
ATOM     24  C   UNL A   1      34.828  19.449  24.764  1.00  0.00     0.065 C 
ATOM     25  C   UNL A   1      32.567  20.061  25.055  1.00  0.00     0.065 C 
ATOM     26  C   UNL A   1      34.019  18.221  24.375  1.00  0.00     0.006 C 
ATOM     27  C   UNL A   1      32.562  18.599  24.607  1.00  0.00     0.006 C 
ENDBRANCH  20  23
ENDBRANCH  13  20
ENDBRANCH   6   9
ENDBRANCH   4   5
ENDBRANCH   3   4
ENDBRANCH   2   3
ENDBRANCH   1   2
BRANCH   1  28
ATOM     28  C   UNL A   1      31.590  31.916  26.507  1.00  0.00     0.021 C 
BRANCH  28  29
ATOM     29  C   UNL A   1      32.824  32.466  27.218  1.00  0.00     0.116 C 
BRANCH  29  30
ATOM     30  N   UNL A   1      32.616  33.841  27.648  1.00  0.00    -0.352 N 
ATOM     31  C   UNL A   1      33.198  34.503  28.700  1.00  0.00     0.251 C 
ATOM     32  H   UNL A   1      31.976  34.365  27.114  1.00  0.00     0.163 HD
ATOM     33  O   UNL A   1      32.702  35.543  29.132  1.00  0.00    -0.269 OA
BRANCH  31  34
ATOM     34  C   UNL A   1      34.426  33.949  29.302  1.00  0.00     0.039 A 
ATOM     35  C   UNL A   1      35.678  34.393  28.871  1.00  0.00     0.014 A 
ATOM     36  C   UNL A   1      34.321  32.991  30.313  1.00  0.00     0.014 A 
ATOM     37  C   UNL A   1      36.830  33.914  29.499  1.00  0.00     0.010 A 
ATOM     38  C   UNL A   1      35.462  32.574  30.985  1.00  0.00     0.010 A 
ATOM     39  C   UNL A   1      36.729  33.022  30.579  1.00  0.00    -0.014 A 
BRANCH  39  40
ATOM     40  C   UNL A   1      37.922  32.490  31.286  1.00  0.00     0.031 A 
ATOM     41  C   UNL A   1      38.688  31.353  30.667  1.00  0.00     0.074 A 
ATOM     42  C   UNL A   1      38.249  32.948  32.510  1.00  0.00     0.049 A 
ATOM     43  N   UNL A   1      39.624  30.603  31.185  1.00  0.00    -0.248 NA
ATOM     44  C   UNL A   1      38.317  30.990  29.289  1.00  0.00     0.031 C 
ATOM     45  C   UNL A   1      37.574  34.038  33.215  1.00  0.00     0.029 A 
ATOM     46  N   UNL A   1      39.219  32.534  33.392  1.00  0.00    -0.354 N 
ATOM     47  C   UNL A   1      39.934  29.660  30.209  1.00  0.00     0.074 A 
ATOM     48  C   UNL A   1      39.043  29.900  29.094  1.00  0.00     0.031 C 
ATOM     49  C   UNL A   1      38.155  34.213  34.414  1.00  0.00     0.029 A 
ATOM     50  C   UNL A   1      39.200  33.209  34.590  1.00  0.00     0.049 A 
ATOM     51  H   UNL A   1      39.865  31.822  33.185  1.00  0.00     0.167 HD
ATOM     52  C   UNL A   1      40.887  28.698  30.236  1.00  0.00     0.034 A 
ATOM     53  C   UNL A   1      39.923  33.020  35.714  1.00  0.00     0.034 A 
ATOM     54  C   UNL A   1      41.773  28.488  31.353  1.00  0.00     0.049 A 
ATOM     55  C   UNL A   1      40.947  31.909  35.741  1.00  0.00     0.074 A 
ATOM     56  C   UNL A   1      42.804  27.572  31.475  1.00  0.00     0.029 A 
ATOM     57  N   UNL A   1      41.730  29.200  32.546  1.00  0.00    -0.354 N 
ATOM     58  N   UNL A   1      41.244  31.037  34.804  1.00  0.00    -0.248 NA
ATOM     59  C   UNL A   1      41.737  31.758  36.971  1.00  0.00     0.031 C 
ATOM     60  C   UNL A   1      43.331  27.678  32.764  1.00  0.00     0.029 A 
ATOM     61  C   UNL A   1      42.697  28.724  33.415  1.00  0.00     0.049 A 
ATOM     62  H   UNL A   1      41.105  29.934  32.742  1.00  0.00     0.167 HD
ATOM     63  C   UNL A   1      42.288  30.271  35.316  1.00  0.00     0.074 A 
ATOM     64  C   UNL A   1      42.564  30.776  36.644  1.00  0.00     0.031 C 
ATOM     65  C   UNL A   1      42.968  29.251  34.733  1.00  0.00     0.034 A 
BRANCH  52  66
ATOM     66  C   UNL A   1      40.992  27.784  29.038  1.00  0.00     0.023 A 
ATOM     67  C   UNL A   1      41.984  27.960  28.057  1.00  0.00     0.031 A 
ATOM     68  C   UNL A   1      40.069  26.738  28.856  1.00  0.00     0.131 A 
ATOM     69  C   UNL A   1      41.981  27.162  26.905  1.00  0.00     0.055 A 
ATOM     70  C   UNL A   1      40.128  25.887  27.751  1.00  0.00     0.041 A 
ATOM     71  F   UNL A   1      39.083  26.534  29.743  1.00  0.00    -0.206 F 
ATOM     72  C   UNL A   1      41.077  26.108  26.758  1.00  0.00     0.022 A 
BRANCH  69  73
ATOM     73  S   UNL A   1      43.070  27.626  25.531  1.00  0.00     0.124 S 
ATOM     74  O   UNL A   1      42.142  28.322  24.642  1.00  0.00    -0.237 OA
ATOM     75  O   UNL A   1      44.071  28.457  26.188  1.00  0.00    -0.237 OA
ATOM     76  O   UNL A   1      43.555  26.341  25.029  1.00  0.00    -0.744 OA
ENDBRANCH  69  73
ENDBRANCH  52  66
BRANCH  53  77
ATOM     77  C   UNL A   1      39.698  33.877  36.914  1.00  0.00     0.023 A 
ATOM     78  C   UNL A   1      39.079  33.360  38.063  1.00  0.00     0.031 A 
ATOM     79  C   UNL A   1      40.056  35.238  36.916  1.00  0.00     0.131 A 
ATOM     80  C   UNL A   1      38.789  34.209  39.144  1.00  0.00     0.055 A 
ATOM     81  C   UNL A   1      39.822  36.063  38.019  1.00  0.00     0.041 A 
ATOM     82  F   UNL A   1      40.652  35.785  35.844  1.00  0.00    -0.206 F 
ATOM     83  C   UNL A   1      39.171  35.551  39.136  1.00  0.00     0.022 A 
BRANCH  80  84
ATOM     84  S   UNL A   1      37.810  33.550  40.522  1.00  0.00     0.124 S 
ATOM     85  O   UNL A   1      36.627  33.051  39.831  1.00  0.00    -0.237 OA
ATOM     86  O   UNL A   1      38.706  32.541  41.076  1.00  0.00    -0.237 OA
ATOM     87  O   UNL A   1      37.590  34.720  41.371  1.00  0.00    -0.744 OA
ENDBRANCH  80  84
ENDBRANCH  53  77
BRANCH  65  88
ATOM     88  C   UNL A   1      44.138  28.667  35.485  1.00  0.00     0.023 A 
ATOM     89  C   UNL A   1      43.987  27.632  36.423  1.00  0.00     0.031 A 
ATOM     90  C   UNL A   1      45.438  29.128  35.207  1.00  0.00     0.131 A 
ATOM     91  C   UNL A   1      45.119  27.110  37.070  1.00  0.00     0.055 A 
ATOM     92  C   UNL A   1      46.563  28.567  35.812  1.00  0.00     0.041 A 
ATOM     93  F   UNL A   1      45.637  30.117  34.321  1.00  0.00    -0.206 F 
ATOM     94  C   UNL A   1      46.406  27.556  36.754  1.00  0.00     0.022 A 
BRANCH  91  95
ATOM     95  S   UNL A   1      44.889  25.871  38.375  1.00  0.00     0.124 S 
ATOM     96  O   UNL A   1      44.346  24.741  37.628  1.00  0.00    -0.237 OA
ATOM     97  O   UNL A   1      46.244  25.703  38.890  1.00  0.00    -0.237 OA
ATOM     98  O   UNL A   1      43.953  26.513  39.296  1.00  0.00    -0.744 OA
ENDBRANCH  91  95
ENDBRANCH  65  88
ENDBRANCH  39  40
ENDBRANCH  31  34
ENDBRANCH  29  30
ENDBRANCH  28  29
ENDBRANCH   1  28
TORSDOF 20
ENDMDL
MODEL 2
REMARK VINA RESULT:     -11.0      1.611      3.773
REMARK SMILES CC(C)[NH2+][C@]1(C(=O)NCCCCCCNC(=O)c2ccc(-c3c4nc(c(-c5cc(S(=O)(=O)[O-])ccc5F)c5ccc([nH]5)c(-c5cc(S(=O)(=O)[O-])ccc5F)c5nc(c(-c6cc(S(=O)(=O)[O-])ccc6F)c6ccc3[nH]6)C=C5)C=C4)cc2)CC[C@H]([N@H+](C)C2CCCC2)C1
REMARK SMILES IDX 12 1 11 2 10 3 9 4 8 5 6 6 7 7 5 9 81 10 91 11 82 12 83 13
REMARK SMILES IDX 4 14 2 17 1 18 3 19 84 20 85 21 86 23 87 24 90 25 88 26
REMARK SMILES IDX 89 27 13 28 14 29 15 30 16 31 17 33 18 34 19 35 80 36 20 37
REMARK SMILES IDX 79 38 21 39 22 40 23 41 73 42 24 43 78 44 72 45 74 46 25 47
REMARK SMILES IDX 77 48 71 49 70 50 26 52 58 53 38 54 57 55 39 56 42 57 56 58
REMARK SMILES IDX 75 59 40 60 41 61 55 63 76 64 43 65 27 66 28 67 36 68 29 69
REMARK SMILES IDX 35 70 37 71 34 72 30 73 31 74 32 75 33 76 59 77 60 78 68 79
REMARK SMILES IDX 61 80 67 81 69 82 66 83 62 84 63 85 64 86 65 87 44 88 45 89
REMARK SMILES IDX 53 90 46 91 52 92 54 93 51 94 47 95 48 96 49 97 50 98
REMARK H PARENT 8 8 4 15 4 16 84 22 15 32 74 51 42 62
REMARK Flexibility Score: inf
ROOT
ATOM      1  C   UNL A   1      31.962  30.500  26.464  1.00  0.00     0.002 C 
ENDROOT
BRANCH   1   2
ATOM      2  C   UNL A   1      33.369  29.957  26.714  1.00  0.00     0.002 C 
BRANCH   2   3
ATOM      3  C   UNL A   1      33.413  28.485  27.120  1.00  0.00     0.021 C 
BRANCH   3   4
ATOM      4  C   UNL A   1      33.961  27.508  26.054  1.00  0.00     0.116 C 
BRANCH   4   5
ATOM      5  N   UNL A   1      33.297  26.223  26.174  1.00  0.00    -0.351 N 
ATOM      6  C   UNL A   1      32.150  25.684  25.695  1.00  0.00     0.281 C 
ATOM      7  O   UNL A   1      31.871  24.607  26.256  1.00  0.00    -0.268 OA
ATOM      8  H   UNL A   1      33.801  25.592  26.738  1.00  0.00     0.163 HD
BRANCH   6   9
ATOM      9  C   UNL A   1      31.271  26.156  24.488  1.00  0.00     0.181 C 
ATOM     10  C   UNL A   1      29.870  25.511  24.605  1.00  0.00     0.085 C 
ATOM     11  C   UNL A   1      30.830  27.625  24.724  1.00  0.00     0.144 C 
ATOM     12  C   UNL A   1      28.909  26.467  23.870  1.00  0.00     0.072 C 
ATOM     13  C   UNL A   1      29.554  27.880  23.884  1.00  0.00     0.191 C 
BRANCH   9  14
ATOM     14  N   UNL A   1      31.719  25.911  23.099  1.00  0.00    -0.331 N 
ATOM     15  H   UNL A   1      30.888  26.004  22.516  1.00  0.00     0.347 HD
ATOM     16  H   UNL A   1      32.482  26.583  23.010  1.00  0.00     0.347 HD
BRANCH  14  17
ATOM     17  C   UNL A   1      32.365  24.682  22.683  1.00  0.00     0.176 C 
ATOM     18  C   UNL A   1      33.865  24.806  22.977  1.00  0.00     0.075 C 
ATOM     19  C   UNL A   1      31.823  23.353  23.174  1.00  0.00     0.075 C 
ENDBRANCH  14  17
ENDBRANCH   9  14
BRANCH  13  20
ATOM     20  N   UNL A   1      29.752  28.428  22.509  1.00  0.00    -0.332 N 
ATOM     21  C   UNL A   1      31.121  28.943  22.327  1.00  0.00     0.333 C 
ATOM     22  H   UNL A   1      29.571  27.642  21.885  1.00  0.00     0.348 HD
BRANCH  20  23
ATOM     23  C   UNL A   1      28.817  29.540  22.185  1.00  0.00     0.184 C 
ATOM     24  C   UNL A   1      28.201  30.195  23.437  1.00  0.00     0.065 C 
ATOM     25  C   UNL A   1      29.390  30.777  21.482  1.00  0.00     0.065 C 
ATOM     26  C   UNL A   1      27.538  31.463  22.917  1.00  0.00     0.006 C 
ATOM     27  C   UNL A   1      28.335  31.865  21.682  1.00  0.00     0.006 C 
ENDBRANCH  20  23
ENDBRANCH  13  20
ENDBRANCH   6   9
ENDBRANCH   4   5
ENDBRANCH   3   4
ENDBRANCH   2   3
ENDBRANCH   1   2
BRANCH   1  28
ATOM     28  C   UNL A   1      31.746  31.959  26.881  1.00  0.00     0.021 C 
BRANCH  28  29
ATOM     29  C   UNL A   1      33.009  32.674  27.354  1.00  0.00     0.116 C 
BRANCH  29  30
ATOM     30  N   UNL A   1      32.735  34.066  27.682  1.00  0.00    -0.352 N 
ATOM     31  C   UNL A   1      33.183  34.793  28.757  1.00  0.00     0.251 C 
ATOM     32  H   UNL A   1      32.154  34.549  27.051  1.00  0.00     0.163 HD
ATOM     33  O   UNL A   1      32.627  35.844  29.072  1.00  0.00    -0.269 OA
BRANCH  31  34
ATOM     34  C   UNL A   1      34.341  34.295  29.524  1.00  0.00     0.039 A 
ATOM     35  C   UNL A   1      34.141  33.507  30.660  1.00  0.00     0.014 A 
ATOM     36  C   UNL A   1      35.634  34.605  29.094  1.00  0.00     0.014 A 
ATOM     37  C   UNL A   1      35.245  32.982  31.335  1.00  0.00     0.010 A 
ATOM     38  C   UNL A   1      36.725  34.020  29.721  1.00  0.00     0.010 A 
ATOM     39  C   UNL A   1      36.544  33.211  30.854  1.00  0.00    -0.014 A 
BRANCH  39  40
ATOM     40  C   UNL A   1      37.750  32.668  31.530  1.00  0.00     0.031 A 
ATOM     41  C   UNL A   1      38.484  31.518  30.896  1.00  0.00     0.074 A 
ATOM     42  C   UNL A   1      38.118  33.129  32.741  1.00  0.00     0.049 A 
ATOM     43  N   UNL A   1      39.425  30.759  31.391  1.00  0.00    -0.248 NA
ATOM     44  C   UNL A   1      38.069  31.152  29.532  1.00  0.00     0.031 C 
ATOM     45  C   UNL A   1      37.477  34.232  33.459  1.00  0.00     0.029 A 
ATOM     46  N   UNL A   1      39.107  32.709  33.597  1.00  0.00    -0.354 N 
ATOM     47  C   UNL A   1      39.695  29.808  30.413  1.00  0.00     0.074 A 
ATOM     48  C   UNL A   1      38.775  30.052  29.323  1.00  0.00     0.031 C 
ATOM     49  C   UNL A   1      38.094  34.406  34.639  1.00  0.00     0.029 A 
ATOM     50  C   UNL A   1      39.132  33.390  34.791  1.00  0.00     0.049 A 
ATOM     51  H   UNL A   1      39.739  31.987  33.376  1.00  0.00     0.167 HD
ATOM     52  C   UNL A   1      40.637  28.833  30.418  1.00  0.00     0.034 A 
ATOM     53  C   UNL A   1      39.884  33.199  35.895  1.00  0.00     0.034 A 
ATOM     54  C   UNL A   1      41.552  28.619  31.511  1.00  0.00     0.049 A 
ATOM     55  C   UNL A   1      40.895  32.076  35.900  1.00  0.00     0.074 A 
ATOM     56  C   UNL A   1      42.575  27.692  31.609  1.00  0.00     0.029 A 
ATOM     57  N   UNL A   1      41.553  29.339  32.700  1.00  0.00    -0.354 N 
ATOM     58  N   UNL A   1      41.154  31.195  34.960  1.00  0.00    -0.248 NA
ATOM     59  C   UNL A   1      41.718  31.922  37.107  1.00  0.00     0.031 C 
ATOM     60  C   UNL A   1      43.140  27.798  32.882  1.00  0.00     0.029 A 
ATOM     61  C   UNL A   1      42.538  28.856  33.544  1.00  0.00     0.049 A 
ATOM     62  H   UNL A   1      40.942  30.081  32.910  1.00  0.00     0.167 HD
ATOM     63  C   UNL A   1      42.203  30.419  35.446  1.00  0.00     0.074 A 
ATOM     64  C   UNL A   1      42.524  30.928  36.762  1.00  0.00     0.031 C 
ATOM     65  C   UNL A   1      42.854  29.387  34.851  1.00  0.00     0.034 A 
BRANCH  52  66
ATOM     66  C   UNL A   1      40.696  27.911  29.224  1.00  0.00     0.023 A 
ATOM     67  C   UNL A   1      41.627  28.102  28.187  1.00  0.00     0.031 A 
ATOM     68  C   UNL A   1      39.790  26.843  29.103  1.00  0.00     0.131 A 
ATOM     69  C   UNL A   1      41.578  27.293  27.043  1.00  0.00     0.055 A 
ATOM     70  C   UNL A   1      39.806  25.983  28.002  1.00  0.00     0.041 A 
ATOM     71  F   UNL A   1      38.860  26.624  30.046  1.00  0.00    -0.206 F 
ATOM     72  C   UNL A   1      40.693  26.217  26.955  1.00  0.00     0.022 A 
BRANCH  69  73
ATOM     73  S   UNL A   1      42.576  27.770  25.606  1.00  0.00     0.124 S 
ATOM     74  O   UNL A   1      43.876  28.025  26.223  1.00  0.00    -0.237 OA
ATOM     75  O   UNL A   1      42.493  26.588  24.757  1.00  0.00    -0.237 OA
ATOM     76  O   UNL A   1      41.895  28.957  25.093  1.00  0.00    -0.744 OA
ENDBRANCH  69  73
ENDBRANCH  52  66
BRANCH  53  77
ATOM     77  C   UNL A   1      39.705  34.066  37.095  1.00  0.00     0.023 A 
ATOM     78  C   UNL A   1      39.083  33.574  38.254  1.00  0.00     0.031 A 
ATOM     79  C   UNL A   1      40.109  35.414  37.090  1.00  0.00     0.131 A 
ATOM     80  C   UNL A   1      38.837  34.433  39.337  1.00  0.00     0.055 A 
ATOM     81  C   UNL A   1      39.918  36.249  38.193  1.00  0.00     0.041 A 
ATOM     82  F   UNL A   1      40.710  35.938  36.009  1.00  0.00    -0.206 F 
ATOM     83  C   UNL A   1      39.264  35.762  39.320  1.00  0.00     0.022 A 
BRANCH  80  84
ATOM     84  S   UNL A   1      37.853  33.812  40.729  1.00  0.00     0.124 S 
ATOM     85  O   UNL A   1      38.810  32.940  41.400  1.00  0.00    -0.237 OA
ATOM     86  O   UNL A   1      37.506  35.045  41.428  1.00  0.00    -0.237 OA
ATOM     87  O   UNL A   1      36.736  33.130  40.077  1.00  0.00    -0.744 OA
ENDBRANCH  80  84
ENDBRANCH  53  77
BRANCH  65  88
ATOM     88  C   UNL A   1      44.037  28.793  35.572  1.00  0.00     0.023 A 
ATOM     89  C   UNL A   1      43.907  27.734  36.486  1.00  0.00     0.031 A 
ATOM     90  C   UNL A   1      45.330  29.271  35.289  1.00  0.00     0.131 A 
ATOM     91  C   UNL A   1      45.051  27.204  37.104  1.00  0.00     0.055 A 
ATOM     92  C   UNL A   1      46.467  28.703  35.864  1.00  0.00     0.041 A 
ATOM     93  F   UNL A   1      45.510  30.283  34.426  1.00  0.00    -0.206 F 
ATOM     94  C   UNL A   1      46.329  27.667  36.783  1.00  0.00     0.022 A 
BRANCH  91  95
ATOM     95  S   UNL A   1      44.846  25.931  38.380  1.00  0.00     0.124 S 
ATOM     96  O   UNL A   1      43.747  26.470  39.173  1.00  0.00    -0.237 OA
ATOM     97  O   UNL A   1      44.540  24.742  37.590  1.00  0.00    -0.237 OA
ATOM     98  O   UNL A   1      46.144  25.907  39.052  1.00  0.00    -0.744 OA
ENDBRANCH  91  95
ENDBRANCH  65  88
ENDBRANCH  39  40
ENDBRANCH  31  34
ENDBRANCH  29  30
ENDBRANCH  28  29
ENDBRANCH   1  28
TORSDOF 20
ENDMDL
MODEL 3
REMARK VINA RESULT:     -11.0      5.610     11.686
REMARK SMILES CC(C)[NH2+][C@]1(C(=O)NCCCCCCNC(=O)c2ccc(-c3c4nc(c(-c5cc(S(=O)(=O)[O-])ccc5F)c5ccc([nH]5)c(-c5cc(S(=O)(=O)[O-])ccc5F)c5nc(c(-c6cc(S(=O)(=O)[O-])ccc6F)c6ccc3[nH]6)C=C5)C=C4)cc2)CC[C@H]([N@H+](C)C2CCCC2)C1
REMARK SMILES IDX 12 1 11 2 10 3 9 4 8 5 6 6 7 7 5 9 81 10 91 11 82 12 83 13
REMARK SMILES IDX 4 14 2 17 1 18 3 19 84 20 85 21 86 23 87 24 90 25 88 26
REMARK SMILES IDX 89 27 13 28 14 29 15 30 16 31 17 33 18 34 19 35 80 36 20 37
REMARK SMILES IDX 79 38 21 39 22 40 23 41 73 42 24 43 78 44 72 45 74 46 25 47
REMARK SMILES IDX 77 48 71 49 70 50 26 52 58 53 38 54 57 55 39 56 42 57 56 58
REMARK SMILES IDX 75 59 40 60 41 61 55 63 76 64 43 65 27 66 28 67 36 68 29 69
REMARK SMILES IDX 35 70 37 71 34 72 30 73 31 74 32 75 33 76 59 77 60 78 68 79
REMARK SMILES IDX 61 80 67 81 69 82 66 83 62 84 63 85 64 86 65 87 44 88 45 89
REMARK SMILES IDX 53 90 46 91 52 92 54 93 51 94 47 95 48 96 49 97 50 98
REMARK H PARENT 8 8 4 15 4 16 84 22 15 32 74 51 42 62
REMARK Flexibility Score: inf
ROOT
ATOM      1  C   UNL A   1      37.320  21.189  24.557  1.00  0.00     0.002 C 
ENDROOT
BRANCH   1   2
ATOM      2  C   UNL A   1      36.880  22.237  25.579  1.00  0.00     0.002 C 
BRANCH   2   3
ATOM      3  C   UNL A   1      35.512  21.970  26.206  1.00  0.00     0.021 C 
BRANCH   3   4
ATOM      4  C   UNL A   1      34.783  23.206  26.783  1.00  0.00     0.116 C 
BRANCH   4   5
ATOM      5  N   UNL A   1      33.425  22.850  27.154  1.00  0.00    -0.351 N 
ATOM      6  C   UNL A   1      32.194  23.346  26.887  1.00  0.00     0.281 C 
ATOM      7  O   UNL A   1      31.319  22.845  27.620  1.00  0.00    -0.268 OA
ATOM      8  H   UNL A   1      33.392  22.059  27.739  1.00  0.00     0.163 HD
BRANCH   6   9
ATOM      9  C   UNL A   1      31.750  24.307  25.733  1.00  0.00     0.181 C 
ATOM     10  C   UNL A   1      30.259  24.671  25.927  1.00  0.00     0.085 C 
ATOM     11  C   UNL A   1      32.333  25.721  25.996  1.00  0.00     0.144 C 
ATOM     12  C   UNL A   1      30.074  26.043  25.250  1.00  0.00     0.072 C 
ATOM     13  C   UNL A   1      31.459  26.746  25.230  1.00  0.00     0.191 C 
BRANCH   9  14
ATOM     14  N   UNL A   1      31.887  23.888  24.320  1.00  0.00    -0.331 N 
ATOM     15  H   UNL A   1      30.994  23.470  24.063  1.00  0.00     0.347 HD
ATOM     16  H   UNL A   1      32.188  24.758  23.878  1.00  0.00     0.347 HD
BRANCH  14  17
ATOM     17  C   UNL A   1      32.908  22.965  23.865  1.00  0.00     0.176 C 
ATOM     18  C   UNL A   1      32.212  21.726  23.290  1.00  0.00     0.075 C 
ATOM     19  C   UNL A   1      33.996  23.459  22.931  1.00  0.00     0.075 C 
ENDBRANCH  14  17
ENDBRANCH   9  14
BRANCH  13  20
ATOM     20  N   UNL A   1      31.896  27.102  23.847  1.00  0.00    -0.332 N 
ATOM     21  C   UNL A   1      33.364  27.214  23.759  1.00  0.00     0.333 C 
ATOM     22  H   UNL A   1      31.552  26.344  23.259  1.00  0.00     0.348 HD
BRANCH  20  23
ATOM     23  C   UNL A   1      31.328  28.393  23.371  1.00  0.00     0.184 C 
ATOM     24  C   UNL A   1      30.076  28.214  22.491  1.00  0.00     0.065 C 
ATOM     25  C   UNL A   1      30.787  29.369  24.422  1.00  0.00     0.065 C 
ATOM     26  C   UNL A   1      29.493  29.614  22.367  1.00  0.00     0.006 C 
ATOM     27  C   UNL A   1      29.912  30.346  23.636  1.00  0.00     0.006 C 
ENDBRANCH  20  23
ENDBRANCH  13  20
ENDBRANCH   6   9
ENDBRANCH   4   5
ENDBRANCH   3   4
ENDBRANCH   2   3
ENDBRANCH   1   2
BRANCH   1  28
ATOM     28  C   UNL A   1      38.160  20.041  25.127  1.00  0.00     0.021 C 
BRANCH  28  29
ATOM     29  C   UNL A   1      39.377  20.488  25.933  1.00  0.00     0.116 C 
BRANCH  29  30
ATOM     30  N   UNL A   1      40.363  19.421  26.035  1.00  0.00    -0.352 N 
ATOM     31  C   UNL A   1      41.731  19.522  26.056  1.00  0.00     0.251 C 
ATOM     32  H   UNL A   1      40.000  18.507  26.099  1.00  0.00     0.163 HD
ATOM     33  O   UNL A   1      42.432  18.537  25.830  1.00  0.00    -0.269 OA
BRANCH  31  34
ATOM     34  C   UNL A   1      42.346  20.830  26.356  1.00  0.00     0.039 A 
ATOM     35  C   UNL A   1      42.644  21.717  25.319  1.00  0.00     0.014 A 
ATOM     36  C   UNL A   1      42.610  21.175  27.684  1.00  0.00     0.014 A 
ATOM     37  C   UNL A   1      43.159  22.980  25.621  1.00  0.00     0.010 A 
ATOM     38  C   UNL A   1      43.050  22.457  27.986  1.00  0.00     0.010 A 
ATOM     39  C   UNL A   1      43.338  23.369  26.958  1.00  0.00    -0.014 A 
BRANCH  39  40
ATOM     40  C   UNL A   1      43.874  24.703  27.334  1.00  0.00     0.031 A 
ATOM     41  C   UNL A   1      42.927  25.743  27.866  1.00  0.00     0.074 A 
ATOM     42  C   UNL A   1      45.165  25.009  27.102  1.00  0.00     0.049 A 
ATOM     43  N   UNL A   1      43.122  27.020  28.066  1.00  0.00    -0.248 NA
ATOM     44  C   UNL A   1      41.563  25.286  28.178  1.00  0.00     0.031 C 
ATOM     45  C   UNL A   1      46.174  24.086  26.578  1.00  0.00     0.029 A 
ATOM     46  N   UNL A   1      45.846  26.192  27.251  1.00  0.00    -0.354 N 
ATOM     47  C   UNL A   1      41.900  27.525  28.498  1.00  0.00     0.074 A 
ATOM     48  C   UNL A   1      40.958  26.427  28.472  1.00  0.00     0.031 C 
ATOM     49  C   UNL A   1      47.344  24.735  26.460  1.00  0.00     0.029 A 
ATOM     50  C   UNL A   1      47.157  26.133  26.838  1.00  0.00     0.049 A 
ATOM     51  H   UNL A   1      45.435  27.007  27.620  1.00  0.00     0.167 HD
ATOM     52  C   UNL A   1      41.599  28.784  28.897  1.00  0.00     0.034 A 
ATOM     53  C   UNL A   1      48.092  27.101  26.745  1.00  0.00     0.034 A 
ATOM     54  C   UNL A   1      42.559  29.859  28.927  1.00  0.00     0.049 A 
ATOM     55  C   UNL A   1      47.723  28.510  27.148  1.00  0.00     0.074 A 
ATOM     56  C   UNL A   1      42.379  31.163  29.353  1.00  0.00     0.029 A 
ATOM     57  N   UNL A   1      43.881  29.755  28.511  1.00  0.00    -0.354 N 
ATOM     58  N   UNL A   1      46.568  28.970  27.573  1.00  0.00    -0.248 NA
ATOM     59  C   UNL A   1      48.779  29.528  27.065  1.00  0.00     0.031 C 
ATOM     60  C   UNL A   1      43.564  31.866  29.122  1.00  0.00     0.029 A 
ATOM     61  C   UNL A   1      44.516  30.979  28.643  1.00  0.00     0.049 A 
ATOM     62  H   UNL A   1      44.303  28.934  28.172  1.00  0.00     0.167 HD
ATOM     63  C   UNL A   1      46.777  30.318  27.855  1.00  0.00     0.074 A 
ATOM     64  C   UNL A   1      48.163  30.598  27.545  1.00  0.00     0.031 C 
ATOM     65  C   UNL A   1      45.905  31.237  28.342  1.00  0.00     0.034 A 
BRANCH  52  66
ATOM     66  C   UNL A   1      40.171  29.069  29.295  1.00  0.00     0.023 A 
ATOM     67  C   UNL A   1      39.772  29.106  30.643  1.00  0.00     0.031 A 
ATOM     68  C   UNL A   1      39.185  29.277  28.314  1.00  0.00     0.131 A 
ATOM     69  C   UNL A   1      38.418  29.262  30.970  1.00  0.00     0.055 A 
ATOM     70  C   UNL A   1      37.852  29.525  28.649  1.00  0.00     0.041 A 
ATOM     71  F   UNL A   1      39.497  29.229  27.010  1.00  0.00    -0.206 F 
ATOM     72  C   UNL A   1      37.458  29.501  29.984  1.00  0.00     0.022 A 
BRANCH  69  73
ATOM     73  S   UNL A   1      37.907  28.988  32.688  1.00  0.00     0.124 S 
ATOM     74  O   UNL A   1      36.654  29.738  32.745  1.00  0.00    -0.237 OA
ATOM     75  O   UNL A   1      37.788  27.537  32.755  1.00  0.00    -0.237 OA
ATOM     76  O   UNL A   1      39.003  29.562  33.467  1.00  0.00    -0.744 OA
ENDBRANCH  69  73
ENDBRANCH  52  66
BRANCH  53  77
ATOM     77  C   UNL A   1      49.458  26.789  26.233  1.00  0.00     0.023 A 
ATOM     78  C   UNL A   1      49.861  27.210  24.955  1.00  0.00     0.031 A 
ATOM     79  C   UNL A   1      50.366  26.029  26.991  1.00  0.00     0.131 A 
ATOM     80  C   UNL A   1      51.115  26.823  24.454  1.00  0.00     0.055 A 
ATOM     81  C   UNL A   1      51.637  25.700  26.513  1.00  0.00     0.041 A 
ATOM     82  F   UNL A   1      50.034  25.602  28.220  1.00  0.00    -0.206 F 
ATOM     83  C   UNL A   1      52.011  26.086  25.230  1.00  0.00     0.022 A 
BRANCH  80  84
ATOM     84  S   UNL A   1      51.515  27.213  22.727  1.00  0.00     0.124 S 
ATOM     85  O   UNL A   1      52.680  26.368  22.497  1.00  0.00    -0.237 OA
ATOM     86  O   UNL A   1      50.290  26.822  22.038  1.00  0.00    -0.237 OA
ATOM     87  O   UNL A   1      51.781  28.650  22.758  1.00  0.00    -0.744 OA
ENDBRANCH  80  84
ENDBRANCH  53  77
BRANCH  65  88
ATOM     88  C   UNL A   1      46.438  32.612  28.658  1.00  0.00     0.023 A 
ATOM     89  C   UNL A   1      46.400  33.665  27.729  1.00  0.00     0.031 A 
ATOM     90  C   UNL A   1      46.945  32.878  29.944  1.00  0.00     0.131 A 
ATOM     91  C   UNL A   1      46.886  34.931  28.092  1.00  0.00     0.055 A 
ATOM     92  C   UNL A   1      47.374  34.152  30.316  1.00  0.00     0.041 A 
ATOM     93  F   UNL A   1      47.006  31.907  30.868  1.00  0.00    -0.206 F 
ATOM     94  C   UNL A   1      47.352  35.186  29.385  1.00  0.00     0.022 A 
BRANCH  91  95
ATOM     95  S   UNL A   1      46.953  36.237  26.835  1.00  0.00     0.124 S 
ATOM     96  O   UNL A   1      46.646  35.500  25.615  1.00  0.00    -0.237 OA
ATOM     97  O   UNL A   1      45.925  37.166  27.294  1.00  0.00    -0.237 OA
ATOM     98  O   UNL A   1      48.323  36.737  26.932  1.00  0.00    -0.744 OA
ENDBRANCH  91  95
ENDBRANCH  65  88
ENDBRANCH  39  40
ENDBRANCH  31  34
ENDBRANCH  29  30
ENDBRANCH  28  29
ENDBRANCH   1  28
TORSDOF 20
ENDMDL
