MODEL 1
REMARK VINA RESULT:     -11.9      0.000      0.000
REMARK SMILES O=C(NCCCCCCNC(=O)[C@H]1C[C@](O)(c2ccc(F)cc2)[C@@H](c2ccc(F)cc2)O1)c1ccc(-c2c3nc(c(-c4cc(S(=O)(=O)[O-])ccc4F)c4ccc([nH]4)c(-c4cc(S(=O)(=O)[O-])ccc4F)c4nc(c(-c5cc(S(=O)(=O)[O-])ccc5F)c5ccc2[nH]5)C=C4)C=C3)cc1
REMARK SMILES IDX 5 1 4 2 3 3 1 4 2 5 33 7 34 8 95 9 35 10 94 11 36 12 37 13
REMARK SMILES IDX 38 14 88 15 39 16 93 17 87 18 89 19 40 20 92 21 86 22 85 23
REMARK SMILES IDX 41 25 73 26 53 27 72 28 54 29 57 30 71 31 90 32 55 33 56 34
REMARK SMILES IDX 70 36 91 37 58 38 42 39 43 40 51 41 44 42 50 43 52 44 49 45
REMARK SMILES IDX 45 46 46 47 47 48 48 49 74 50 75 51 83 52 76 53 82 54 84 55
REMARK SMILES IDX 81 56 77 57 78 58 79 59 80 60 59 61 60 62 68 63 61 64 67 65
REMARK SMILES IDX 69 66 66 67 62 68 63 69 64 70 65 71 6 72 7 73 8 74 9 75
REMARK SMILES IDX 10 76 11 77 12 79 13 80 14 81 32 82 15 83 24 84 17 85 18 86
REMARK SMILES IDX 23 87 19 88 22 89 20 90 21 91 16 92 25 94 26 95 31 96 27 97
REMARK SMILES IDX 30 98 28 99 29 100
REMARK H PARENT 3 6 89 24 57 35 10 78 16 93
REMARK Flexibility Score: inf
ROOT
ATOM      1  C   UNL A   1      33.648  34.210  27.876  1.00  0.00     0.021 C 
ENDROOT
BRANCH   1   2
ATOM      2  C   UNL A   1      33.955  35.511  28.601  1.00  0.00     0.116 C 
BRANCH   2   3
ATOM      3  N   UNL A   1      33.106  35.709  29.763  1.00  0.00    -0.352 N 
ATOM      4  O   UNL A   1      32.319  35.279  31.834  1.00  0.00    -0.269 OA
ATOM      5  C   UNL A   1      33.218  35.146  31.013  1.00  0.00     0.251 C 
ATOM      6  H   UNL A   1      32.350  36.328  29.640  1.00  0.00     0.163 HD
BRANCH   5   7
ATOM      7  C   UNL A   1      34.429  34.365  31.348  1.00  0.00     0.039 A 
ATOM      8  C   UNL A   1      35.697  34.942  31.234  1.00  0.00     0.014 A 
ATOM      9  C   UNL A   1      34.291  33.047  31.790  1.00  0.00     0.014 A 
ATOM     10  C   UNL A   1      36.831  34.172  31.462  1.00  0.00     0.010 A 
ATOM     11  C   UNL A   1      35.430  32.300  32.102  1.00  0.00     0.010 A 
ATOM     12  C   UNL A   1      36.708  32.856  31.935  1.00  0.00    -0.014 A 
BRANCH  12  13
ATOM     13  C   UNL A   1      37.918  32.125  32.382  1.00  0.00     0.031 A 
ATOM     14  C   UNL A   1      38.561  32.405  33.706  1.00  0.00     0.074 A 
ATOM     15  C   UNL A   1      38.427  31.186  31.561  1.00  0.00     0.049 A 
ATOM     16  N   UNL A   1      39.651  31.888  34.216  1.00  0.00    -0.248 NA
ATOM     17  C   UNL A   1      37.899  33.390  34.572  1.00  0.00     0.031 C 
ATOM     18  C   UNL A   1      37.864  30.812  30.261  1.00  0.00     0.029 A 
ATOM     19  N   UNL A   1      39.513  30.362  31.701  1.00  0.00    -0.354 N 
ATOM     20  C   UNL A   1      39.809  32.482  35.462  1.00  0.00     0.074 A 
ATOM     21  C   UNL A   1      38.720  33.427  35.614  1.00  0.00     0.031 C 
ATOM     22  C   UNL A   1      38.571  29.796  29.750  1.00  0.00     0.029 A 
ATOM     23  C   UNL A   1      39.686  29.504  30.643  1.00  0.00     0.049 A 
ATOM     24  H   UNL A   1      40.109  30.383  32.484  1.00  0.00     0.167 HD
ATOM     25  C   UNL A   1      40.770  32.249  36.390  1.00  0.00     0.034 A 
ATOM     26  C   UNL A   1      40.648  28.596  30.399  1.00  0.00     0.034 A 
ATOM     27  C   UNL A   1      41.861  31.321  36.206  1.00  0.00     0.049 A 
ATOM     28  C   UNL A   1      41.756  28.428  31.395  1.00  0.00     0.074 A 
ATOM     29  C   UNL A   1      42.905  31.032  37.070  1.00  0.00     0.029 A 
ATOM     30  N   UNL A   1      42.055  30.529  35.080  1.00  0.00    -0.354 N 
ATOM     31  N   UNL A   1      41.931  29.045  32.539  1.00  0.00    -0.248 NA
ATOM     32  C   UNL A   1      42.796  27.450  31.063  1.00  0.00     0.031 C 
ATOM     33  C   UNL A   1      43.759  30.118  36.443  1.00  0.00     0.029 A 
ATOM     34  C   UNL A   1      43.209  29.769  35.220  1.00  0.00     0.049 A 
ATOM     35  H   UNL A   1      41.460  30.509  34.296  1.00  0.00     0.167 HD
ATOM     36  C   UNL A   1      43.093  28.509  33.082  1.00  0.00     0.074 A 
ATOM     37  C   UNL A   1      43.573  27.520  32.136  1.00  0.00     0.031 C 
ATOM     38  C   UNL A   1      43.695  28.802  34.262  1.00  0.00     0.034 A 
BRANCH  25  39
ATOM     39  C   UNL A   1      40.703  33.044  37.672  1.00  0.00     0.023 A 
ATOM     40  C   UNL A   1      39.940  32.608  38.770  1.00  0.00     0.031 A 
ATOM     41  C   UNL A   1      41.408  34.254  37.801  1.00  0.00     0.131 A 
ATOM     42  C   UNL A   1      39.856  33.401  39.925  1.00  0.00     0.055 A 
ATOM     43  C   UNL A   1      41.378  35.003  38.979  1.00  0.00     0.041 A 
ATOM     44  F   UNL A   1      42.138  34.732  36.781  1.00  0.00    -0.206 F 
ATOM     45  C   UNL A   1      40.590  34.583  40.047  1.00  0.00     0.022 A 
BRANCH  42  46
ATOM     46  S   UNL A   1      38.688  32.919  41.226  1.00  0.00     0.124 S 
ATOM     47  O   UNL A   1      39.527  32.995  42.420  1.00  0.00    -0.237 OA
ATOM     48  O   UNL A   1      37.648  33.935  41.111  1.00  0.00    -0.237 OA
ATOM     49  O   UNL A   1      38.284  31.568  40.843  1.00  0.00    -0.744 OA
ENDBRANCH  42  46
ENDBRANCH  25  39
BRANCH  26  50
ATOM     50  C   UNL A   1      40.587  27.790  29.152  1.00  0.00     0.023 A 
ATOM     51  C   UNL A   1      41.453  28.062  28.084  1.00  0.00     0.031 A 
ATOM     52  C   UNL A   1      39.709  26.696  29.040  1.00  0.00     0.131 A 
ATOM     53  C   UNL A   1      41.423  27.248  26.942  1.00  0.00     0.055 A 
ATOM     54  C   UNL A   1      39.709  25.868  27.917  1.00  0.00     0.041 A 
ATOM     55  F   UNL A   1      38.877  26.388  30.047  1.00  0.00    -0.206 F 
ATOM     56  C   UNL A   1      40.568  26.145  26.858  1.00  0.00     0.022 A 
BRANCH  53  57
ATOM     57  S   UNL A   1      42.528  27.648  25.562  1.00  0.00     0.124 S 
ATOM     58  O   UNL A   1      43.813  27.779  26.239  1.00  0.00    -0.237 OA
ATOM     59  O   UNL A   1      42.372  26.483  24.697  1.00  0.00    -0.237 OA
ATOM     60  O   UNL A   1      41.971  28.891  25.032  1.00  0.00    -0.744 OA
ENDBRANCH  53  57
ENDBRANCH  26  50
BRANCH  38  61
ATOM     61  C   UNL A   1      44.923  28.003  34.619  1.00  0.00     0.023 A 
ATOM     62  C   UNL A   1      44.841  26.791  35.326  1.00  0.00     0.031 A 
ATOM     63  C   UNL A   1      46.195  28.466  34.244  1.00  0.00     0.131 A 
ATOM     64  C   UNL A   1      46.015  26.108  35.677  1.00  0.00     0.055 A 
ATOM     65  C   UNL A   1      47.356  27.754  34.544  1.00  0.00     0.041 A 
ATOM     66  F   UNL A   1      46.330  29.621  33.569  1.00  0.00    -0.206 F 
ATOM     67  C   UNL A   1      47.270  26.572  35.275  1.00  0.00     0.022 A 
BRANCH  64  68
ATOM     68  S   UNL A   1      45.887  24.637  36.730  1.00  0.00     0.124 S 
ATOM     69  O   UNL A   1      46.978  24.849  37.678  1.00  0.00    -0.237 OA
ATOM     70  O   UNL A   1      44.539  24.756  37.274  1.00  0.00    -0.237 OA
ATOM     71  O   UNL A   1      46.083  23.529  35.797  1.00  0.00    -0.744 OA
ENDBRANCH  64  68
ENDBRANCH  38  61
ENDBRANCH  12  13
ENDBRANCH   5   7
ENDBRANCH   2   3
ENDBRANCH   1   2
BRANCH   1  72
ATOM     72  C   UNL A   1      34.682  33.105  28.074  1.00  0.00     0.002 C 
BRANCH  72  73
ATOM     73  C   UNL A   1      34.142  31.672  28.046  1.00  0.00     0.002 C 
BRANCH  73  74
ATOM     74  C   UNL A   1      35.066  30.601  27.455  1.00  0.00     0.021 C 
BRANCH  74  75
ATOM     75  C   UNL A   1      34.501  29.185  27.386  1.00  0.00     0.116 C 
BRANCH  75  76
ATOM     76  N   UNL A   1      33.082  29.122  27.657  1.00  0.00    -0.354 N 
ATOM     77  C   UNL A   1      32.205  28.114  27.391  1.00  0.00     0.249 C 
ATOM     78  H   UNL A   1      32.697  29.916  28.095  1.00  0.00     0.163 HD
ATOM     79  O   UNL A   1      31.110  28.157  27.958  1.00  0.00    -0.272 OA
BRANCH  77  80
ATOM     80  C   UNL A   1      32.597  27.001  26.399  1.00  0.00     0.211 C 
ATOM     81  C   UNL A   1      31.638  25.822  26.440  1.00  0.00     0.085 C 
ATOM     82  O   UNL A   1      32.641  27.511  25.064  1.00  0.00    -0.357 OA
ATOM     83  C   UNL A   1      31.101  25.629  25.018  1.00  0.00     0.123 C 
ATOM     84  C   UNL A   1      31.591  26.916  24.279  1.00  0.00     0.186 C 
BRANCH  83  85
ATOM     85  C   UNL A   1      31.546  24.256  24.486  1.00  0.00    -0.013 A 
ATOM     86  C   UNL A   1      31.451  23.140  25.354  1.00  0.00     0.010 A 
ATOM     87  C   UNL A   1      32.029  24.017  23.188  1.00  0.00     0.010 A 
ATOM     88  C   UNL A   1      31.836  21.858  24.956  1.00  0.00     0.039 A 
ATOM     89  C   UNL A   1      32.403  22.727  22.783  1.00  0.00     0.039 A 
ATOM     90  C   UNL A   1      32.307  21.663  23.670  1.00  0.00     0.123 A 
ATOM     91  F   UNL A   1      32.666  20.435  23.273  1.00  0.00    -0.207 F 
ENDBRANCH  83  85
BRANCH  83  92
ATOM     92  O   UNL A   1      29.669  25.525  25.102  1.00  0.00    -0.382 OA
ATOM     93  H   UNL A   1      29.397  24.619  24.889  1.00  0.00     0.212 HD
ENDBRANCH  83  92
BRANCH  84  94
ATOM     94  C   UNL A   1      30.565  27.994  23.940  1.00  0.00    -0.016 A 
ATOM     95  C   UNL A   1      30.760  29.344  24.276  1.00  0.00     0.009 A 
ATOM     96  C   UNL A   1      29.388  27.648  23.251  1.00  0.00     0.009 A 
ATOM     97  C   UNL A   1      29.837  30.322  23.901  1.00  0.00     0.039 A 
ATOM     98  C   UNL A   1      28.454  28.625  22.890  1.00  0.00     0.039 A 
ATOM     99  C   UNL A   1      28.694  29.956  23.208  1.00  0.00     0.123 A 
ATOM    100  F   UNL A   1      27.809  30.894  22.847  1.00  0.00    -0.207 F 
ENDBRANCH  84  94
ENDBRANCH  77  80
ENDBRANCH  75  76
ENDBRANCH  74  75
ENDBRANCH  73  74
ENDBRANCH  72  73
ENDBRANCH   1  72
TORSDOF 19
ENDMDL
MODEL 2
REMARK VINA RESULT:     -11.9      0.424      7.534
REMARK SMILES O=C(NCCCCCCNC(=O)[C@H]1C[C@](O)(c2ccc(F)cc2)[C@@H](c2ccc(F)cc2)O1)c1ccc(-c2c3nc(c(-c4cc(S(=O)(=O)[O-])ccc4F)c4ccc([nH]4)c(-c4cc(S(=O)(=O)[O-])ccc4F)c4nc(c(-c5cc(S(=O)(=O)[O-])ccc5F)c5ccc2[nH]5)C=C4)C=C3)cc1
REMARK SMILES IDX 5 1 4 2 3 3 1 4 2 5 33 7 34 8 95 9 35 10 94 11 36 12 37 13
REMARK SMILES IDX 38 14 88 15 39 16 93 17 87 18 89 19 40 20 92 21 86 22 85 23
REMARK SMILES IDX 41 25 73 26 53 27 72 28 54 29 57 30 71 31 90 32 55 33 56 34
REMARK SMILES IDX 70 36 91 37 58 38 42 39 43 40 51 41 44 42 50 43 52 44 49 45
REMARK SMILES IDX 45 46 46 47 47 48 48 49 74 50 75 51 83 52 76 53 82 54 84 55
REMARK SMILES IDX 81 56 77 57 78 58 79 59 80 60 59 61 60 62 68 63 61 64 67 65
REMARK SMILES IDX 69 66 66 67 62 68 63 69 64 70 65 71 6 72 7 73 8 74 9 75
REMARK SMILES IDX 10 76 11 77 12 79 13 80 14 81 32 82 15 83 24 84 17 85 18 86
REMARK SMILES IDX 23 87 19 88 22 89 20 90 21 91 16 92 25 94 26 95 31 96 27 97
REMARK SMILES IDX 30 98 28 99 29 100
REMARK H PARENT 3 6 89 24 57 35 10 78 16 93
REMARK Flexibility Score: inf
ROOT
ATOM      1  C   UNL A   1      33.562  33.569  28.000  1.00  0.00     0.021 C 
ENDROOT
BRANCH   1   2
ATOM      2  C   UNL A   1      33.834  35.014  28.387  1.00  0.00     0.116 C 
BRANCH   2   3
ATOM      3  N   UNL A   1      33.096  35.418  29.572  1.00  0.00    -0.352 N 
ATOM      4  O   UNL A   1      32.480  35.330  31.741  1.00  0.00    -0.269 OA
ATOM      5  C   UNL A   1      33.299  35.039  30.878  1.00  0.00     0.251 C 
ATOM      6  H   UNL A   1      32.351  36.044  29.420  1.00  0.00     0.163 HD
BRANCH   5   7
ATOM      7  C   UNL A   1      34.511  34.265  31.226  1.00  0.00     0.039 A 
ATOM      8  C   UNL A   1      35.782  34.800  31.001  1.00  0.00     0.014 A 
ATOM      9  C   UNL A   1      34.370  32.996  31.794  1.00  0.00     0.014 A 
ATOM     10  C   UNL A   1      36.912  34.029  31.246  1.00  0.00     0.010 A 
ATOM     11  C   UNL A   1      35.509  32.254  32.118  1.00  0.00     0.010 A 
ATOM     12  C   UNL A   1      36.787  32.764  31.842  1.00  0.00    -0.014 A 
BRANCH  12  13
ATOM     13  C   UNL A   1      38.004  32.050  32.298  1.00  0.00     0.031 A 
ATOM     14  C   UNL A   1      38.640  30.974  31.471  1.00  0.00     0.074 A 
ATOM     15  C   UNL A   1      38.536  32.402  33.485  1.00  0.00     0.049 A 
ATOM     16  N   UNL A   1      39.674  30.223  31.756  1.00  0.00    -0.248 NA
ATOM     17  C   UNL A   1      38.041  30.703  30.157  1.00  0.00     0.031 C 
ATOM     18  C   UNL A   1      38.015  33.457  34.358  1.00  0.00     0.029 A 
ATOM     19  N   UNL A   1      39.636  31.933  34.152  1.00  0.00    -0.354 N 
ATOM     20  C   UNL A   1      39.854  29.389  30.658  1.00  0.00     0.074 A 
ATOM     21  C   UNL A   1      38.796  29.705  29.718  1.00  0.00     0.031 C 
ATOM     22  C   UNL A   1      38.826  33.594  35.415  1.00  0.00     0.029 A 
ATOM     23  C   UNL A   1      39.873  32.584  35.338  1.00  0.00     0.049 A 
ATOM     24  H   UNL A   1      40.202  31.202  33.814  1.00  0.00     0.167 HD
ATOM     25  C   UNL A   1      40.819  28.457  30.457  1.00  0.00     0.034 A 
ATOM     26  C   UNL A   1      40.813  32.379  36.278  1.00  0.00     0.034 A 
ATOM     27  C   UNL A   1      41.849  28.142  31.420  1.00  0.00     0.049 A 
ATOM     28  C   UNL A   1      41.809  31.275  36.079  1.00  0.00     0.074 A 
ATOM     29  C   UNL A   1      42.855  27.194  31.329  1.00  0.00     0.029 A 
ATOM     30  N   UNL A   1      42.006  28.763  32.655  1.00  0.00    -0.354 N 
ATOM     31  N   UNL A   1      41.926  30.449  35.068  1.00  0.00    -0.248 NA
ATOM     32  C   UNL A   1      42.789  31.074  37.150  1.00  0.00     0.031 C 
ATOM     33  C   UNL A   1      43.578  27.200  32.528  1.00  0.00     0.029 A 
ATOM     34  C   UNL A   1      43.078  28.207  33.339  1.00  0.00     0.049 A 
ATOM     35  H   UNL A   1      41.439  29.493  32.994  1.00  0.00     0.167 HD
ATOM     36  C   UNL A   1      43.017  29.640  35.367  1.00  0.00     0.074 A 
ATOM     37  C   UNL A   1      43.518  30.082  36.654  1.00  0.00     0.031 C 
ATOM     38  C   UNL A   1      43.558  28.636  34.633  1.00  0.00     0.034 A 
BRANCH  25  39
ATOM     39  C   UNL A   1      40.778  27.684  29.161  1.00  0.00     0.023 A 
ATOM     40  C   UNL A   1      41.681  27.951  28.117  1.00  0.00     0.031 A 
ATOM     41  C   UNL A   1      39.824  26.670  28.963  1.00  0.00     0.131 A 
ATOM     42  C   UNL A   1      41.577  27.251  26.904  1.00  0.00     0.055 A 
ATOM     43  C   UNL A   1      39.772  25.928  27.781  1.00  0.00     0.041 A 
ATOM     44  F   UNL A   1      38.924  26.383  29.916  1.00  0.00    -0.206 F 
ATOM     45  C   UNL A   1      40.644  26.224  26.738  1.00  0.00     0.022 A 
BRANCH  42  46
ATOM     46  S   UNL A   1      42.607  27.777  25.507  1.00  0.00     0.124 S 
ATOM     47  O   UNL A   1      43.885  28.040  26.165  1.00  0.00    -0.237 OA
ATOM     48  O   UNL A   1      42.569  26.613  24.629  1.00  0.00    -0.237 OA
ATOM     49  O   UNL A   1      41.920  28.963  25.001  1.00  0.00    -0.744 OA
ENDBRANCH  42  46
ENDBRANCH  25  39
BRANCH  26  50
ATOM     50  C   UNL A   1      40.837  33.247  37.484  1.00  0.00     0.023 A 
ATOM     51  C   UNL A   1      40.103  32.901  38.626  1.00  0.00     0.031 A 
ATOM     52  C   UNL A   1      41.646  34.397  37.532  1.00  0.00     0.131 A 
ATOM     53  C   UNL A   1      40.190  33.700  39.776  1.00  0.00     0.055 A 
ATOM     54  C   UNL A   1      41.758  35.167  38.689  1.00  0.00     0.041 A 
ATOM     55  F   UNL A   1      42.381  34.754  36.467  1.00  0.00    -0.206 F 
ATOM     56  C   UNL A   1      41.024  34.822  39.819  1.00  0.00     0.022 A 
BRANCH  53  57
ATOM     57  S   UNL A   1      39.199  33.248  41.224  1.00  0.00     0.124 S 
ATOM     58  O   UNL A   1      39.186  31.793  41.132  1.00  0.00    -0.237 OA
ATOM     59  O   UNL A   1      39.979  33.817  42.319  1.00  0.00    -0.237 OA
ATOM     60  O   UNL A   1      37.916  33.902  40.975  1.00  0.00    -0.744 OA
ENDBRANCH  53  57
ENDBRANCH  26  50
BRANCH  38  61
ATOM     61  C   UNL A   1      44.792  27.972  35.189  1.00  0.00     0.023 A 
ATOM     62  C   UNL A   1      44.728  26.767  35.908  1.00  0.00     0.031 A 
ATOM     63  C   UNL A   1      46.054  28.562  34.994  1.00  0.00     0.131 A 
ATOM     64  C   UNL A   1      45.900  26.213  36.447  1.00  0.00     0.055 A 
ATOM     65  C   UNL A   1      47.222  27.977  35.482  1.00  0.00     0.041 A 
ATOM     66  F   UNL A   1      46.171  29.716  34.317  1.00  0.00    -0.206 F 
ATOM     67  C   UNL A   1      47.147  26.800  36.222  1.00  0.00     0.022 A 
BRANCH  64  68
ATOM     68  S   UNL A   1      45.765  24.748  37.508  1.00  0.00     0.124 S 
ATOM     69  O   UNL A   1      46.793  25.007  38.512  1.00  0.00    -0.237 OA
ATOM     70  O   UNL A   1      44.385  24.825  37.975  1.00  0.00    -0.237 OA
ATOM     71  O   UNL A   1      46.050  23.639  36.600  1.00  0.00    -0.744 OA
ENDBRANCH  64  68
ENDBRANCH  38  61
ENDBRANCH  12  13
ENDBRANCH   5   7
ENDBRANCH   2   3
ENDBRANCH   1   2
BRANCH   1  72
ATOM     72  C   UNL A   1      34.799  32.677  27.944  1.00  0.00     0.002 C 
BRANCH  72  73
ATOM     73  C   UNL A   1      34.618  31.253  28.481  1.00  0.00     0.002 C 
BRANCH  73  74
ATOM     74  C   UNL A   1      35.412  30.147  27.775  1.00  0.00     0.021 C 
BRANCH  74  75
ATOM     75  C   UNL A   1      34.595  29.131  26.982  1.00  0.00     0.116 C 
BRANCH  75  76
ATOM     76  N   UNL A   1      33.213  29.057  27.400  1.00  0.00    -0.354 N 
ATOM     77  C   UNL A   1      32.351  28.005  27.323  1.00  0.00     0.249 C 
ATOM     78  H   UNL A   1      32.843  29.882  27.793  1.00  0.00     0.163 HD
ATOM     79  O   UNL A   1      31.316  28.076  27.991  1.00  0.00    -0.272 OA
BRANCH  77  80
ATOM     80  C   UNL A   1      32.686  26.808  26.411  1.00  0.00     0.211 C 
ATOM     81  C   UNL A   1      31.655  25.693  26.514  1.00  0.00     0.085 C 
ATOM     82  O   UNL A   1      32.776  27.225  25.048  1.00  0.00    -0.357 OA
ATOM     83  C   UNL A   1      31.124  25.441  25.100  1.00  0.00     0.123 C 
ATOM     84  C   UNL A   1      31.701  26.645  24.286  1.00  0.00     0.186 C 
BRANCH  83  85
ATOM     85  C   UNL A   1      31.490  24.012  24.664  1.00  0.00    -0.013 A 
ATOM     86  C   UNL A   1      31.897  23.805  23.323  1.00  0.00     0.010 A 
ATOM     87  C   UNL A   1      31.467  22.887  25.507  1.00  0.00     0.010 A 
ATOM     88  C   UNL A   1      32.242  22.540  22.841  1.00  0.00     0.039 A 
ATOM     89  C   UNL A   1      31.828  21.619  25.027  1.00  0.00     0.039 A 
ATOM     90  C   UNL A   1      32.207  21.457  23.702  1.00  0.00     0.123 A 
ATOM     91  F   UNL A   1      32.550  20.242  23.254  1.00  0.00    -0.207 F 
ENDBRANCH  83  85
BRANCH  83  92
ATOM     92  O   UNL A   1      29.688  25.430  25.168  1.00  0.00    -0.382 OA
ATOM     93  H   UNL A   1      29.403  25.753  26.037  1.00  0.00     0.212 HD
ENDBRANCH  83  92
BRANCH  84  94
ATOM     94  C   UNL A   1      30.747  27.758  23.863  1.00  0.00    -0.016 A 
ATOM     95  C   UNL A   1      29.612  27.511  23.073  1.00  0.00     0.009 A 
ATOM     96  C   UNL A   1      30.983  29.080  24.283  1.00  0.00     0.009 A 
ATOM     97  C   UNL A   1      28.719  28.535  22.750  1.00  0.00     0.039 A 
ATOM     98  C   UNL A   1      30.098  30.110  23.945  1.00  0.00     0.039 A 
ATOM     99  C   UNL A   1      28.967  29.825  23.191  1.00  0.00     0.123 A 
ATOM    100  F   UNL A   1      28.111  30.807  22.882  1.00  0.00    -0.207 F 
ENDBRANCH  84  94
ENDBRANCH  77  80
ENDBRANCH  75  76
ENDBRANCH  74  75
ENDBRANCH  73  74
ENDBRANCH  72  73
ENDBRANCH   1  72
TORSDOF 19
ENDMDL
MODEL 3
REMARK VINA RESULT:     -11.8      6.018     10.640
REMARK SMILES O=C(NCCCCCCNC(=O)[C@H]1C[C@](O)(c2ccc(F)cc2)[C@@H](c2ccc(F)cc2)O1)c1ccc(-c2c3nc(c(-c4cc(S(=O)(=O)[O-])ccc4F)c4ccc([nH]4)c(-c4cc(S(=O)(=O)[O-])ccc4F)c4nc(c(-c5cc(S(=O)(=O)[O-])ccc5F)c5ccc2[nH]5)C=C4)C=C3)cc1
REMARK SMILES IDX 5 1 4 2 3 3 1 4 2 5 33 7 34 8 95 9 35 10 94 11 36 12 37 13
REMARK SMILES IDX 38 14 88 15 39 16 93 17 87 18 89 19 40 20 92 21 86 22 85 23
REMARK SMILES IDX 41 25 73 26 53 27 72 28 54 29 57 30 71 31 90 32 55 33 56 34
REMARK SMILES IDX 70 36 91 37 58 38 42 39 43 40 51 41 44 42 50 43 52 44 49 45
REMARK SMILES IDX 45 46 46 47 47 48 48 49 74 50 75 51 83 52 76 53 82 54 84 55
REMARK SMILES IDX 81 56 77 57 78 58 79 59 80 60 59 61 60 62 68 63 61 64 67 65
REMARK SMILES IDX 69 66 66 67 62 68 63 69 64 70 65 71 6 72 7 73 8 74 9 75
REMARK SMILES IDX 10 76 11 77 12 79 13 80 14 81 32 82 15 83 24 84 17 85 18 86
REMARK SMILES IDX 23 87 19 88 22 89 20 90 21 91 16 92 25 94 26 95 31 96 27 97
REMARK SMILES IDX 30 98 28 99 29 100
REMARK H PARENT 3 6 89 24 57 35 10 78 16 93
REMARK Flexibility Score: inf
ROOT
ATOM      1  C   UNL A   1      40.759  20.159  26.469  1.00  0.00     0.021 C 
ENDROOT
BRANCH   1   2
ATOM      2  C   UNL A   1      42.041  19.454  26.885  1.00  0.00     0.116 C 
BRANCH   2   3
ATOM      3  N   UNL A   1      42.904  19.164  25.752  1.00  0.00    -0.352 N 
ATOM      4  O   UNL A   1      44.209  19.660  23.980  1.00  0.00    -0.269 OA
ATOM      5  C   UNL A   1      43.673  20.034  25.015  1.00  0.00     0.251 C 
ATOM      6  H   UNL A   1      42.942  18.220  25.474  1.00  0.00     0.163 HD
BRANCH   5   7
ATOM      7  C   UNL A   1      43.834  21.429  25.482  1.00  0.00     0.039 A 
ATOM      8  C   UNL A   1      44.395  21.696  26.734  1.00  0.00     0.014 A 
ATOM      9  C   UNL A   1      43.430  22.477  24.652  1.00  0.00     0.014 A 
ATOM     10  C   UNL A   1      44.457  23.004  27.200  1.00  0.00     0.010 A 
ATOM     11  C   UNL A   1      43.571  23.797  25.086  1.00  0.00     0.010 A 
ATOM     12  C   UNL A   1      44.081  24.069  26.365  1.00  0.00    -0.014 A 
BRANCH  12  13
ATOM     13  C   UNL A   1      44.358  25.462  26.792  1.00  0.00     0.031 A 
ATOM     14  C   UNL A   1      43.293  26.328  27.390  1.00  0.00     0.074 A 
ATOM     15  C   UNL A   1      45.611  25.933  26.633  1.00  0.00     0.049 A 
ATOM     16  N   UNL A   1      43.366  27.581  27.763  1.00  0.00    -0.248 NA
ATOM     17  C   UNL A   1      41.974  25.713  27.597  1.00  0.00     0.031 C 
ATOM     18  C   UNL A   1      46.734  25.165  26.087  1.00  0.00     0.029 A 
ATOM     19  N   UNL A   1      46.158  27.153  26.931  1.00  0.00    -0.354 N 
ATOM     20  C   UNL A   1      42.107  27.909  28.251  1.00  0.00     0.074 A 
ATOM     21  C   UNL A   1      41.279  26.730  28.090  1.00  0.00     0.031 C 
ATOM     22  C   UNL A   1      47.845  25.911  26.144  1.00  0.00     0.029 A 
ATOM     23  C   UNL A   1      47.499  27.233  26.647  1.00  0.00     0.049 A 
ATOM     24  H   UNL A   1      45.640  27.898  27.311  1.00  0.00     0.167 HD
ATOM     25  C   UNL A   1      41.690  29.082  28.789  1.00  0.00     0.034 A 
ATOM     26  C   UNL A   1      48.358  28.263  26.756  1.00  0.00     0.034 A 
ATOM     27  C   UNL A   1      42.527  30.253  28.916  1.00  0.00     0.049 A 
ATOM     28  C   UNL A   1      47.850  29.581  27.260  1.00  0.00     0.074 A 
ATOM     29  C   UNL A   1      42.196  31.501  29.417  1.00  0.00     0.029 A 
ATOM     30  N   UNL A   1      43.863  30.326  28.535  1.00  0.00    -0.354 N 
ATOM     31  N   UNL A   1      46.639  29.898  27.654  1.00  0.00    -0.248 NA
ATOM     32  C   UNL A   1      48.820  30.678  27.325  1.00  0.00     0.031 C 
ATOM     33  C   UNL A   1      43.307  32.341  29.283  1.00  0.00     0.029 A 
ATOM     34  C   UNL A   1      44.361  31.600  28.773  1.00  0.00     0.049 A 
ATOM     35  H   UNL A   1      44.380  29.581  28.153  1.00  0.00     0.167 HD
ATOM     36  C   UNL A   1      46.706  31.230  28.042  1.00  0.00     0.074 A 
ATOM     37  C   UNL A   1      48.078  31.654  27.832  1.00  0.00     0.031 C 
ATOM     38  C   UNL A   1      45.723  32.022  28.540  1.00  0.00     0.034 A 
BRANCH  25  39
ATOM     39  C   UNL A   1      40.253  29.167  29.243  1.00  0.00     0.023 A 
ATOM     40  C   UNL A   1      39.901  29.039  30.598  1.00  0.00     0.031 A 
ATOM     41  C   UNL A   1      39.220  29.374  28.311  1.00  0.00     0.131 A 
ATOM     42  C   UNL A   1      38.549  29.066  30.977  1.00  0.00     0.055 A 
ATOM     43  C   UNL A   1      37.883  29.471  28.703  1.00  0.00     0.041 A 
ATOM     44  F   UNL A   1      39.492  29.484  27.002  1.00  0.00    -0.206 F 
ATOM     45  C   UNL A   1      37.540  29.306  30.042  1.00  0.00     0.022 A 
BRANCH  42  46
ATOM     46  S   UNL A   1      38.121  28.674  32.695  1.00  0.00     0.124 S 
ATOM     47  O   UNL A   1      39.172  29.375  33.429  1.00  0.00    -0.237 OA
ATOM     48  O   UNL A   1      36.777  29.226  32.821  1.00  0.00    -0.237 OA
ATOM     49  O   UNL A   1      38.203  27.216  32.745  1.00  0.00    -0.744 OA
ENDBRANCH  42  46
ENDBRANCH  25  39
BRANCH  26  50
ATOM     50  C   UNL A   1      49.780  28.067  26.372  1.00  0.00     0.023 A 
ATOM     51  C   UNL A   1      50.199  28.285  25.052  1.00  0.00     0.031 A 
ATOM     52  C   UNL A   1      50.749  27.725  27.333  1.00  0.00     0.131 A 
ATOM     53  C   UNL A   1      51.557  28.158  24.725  1.00  0.00     0.055 A 
ATOM     54  C   UNL A   1      52.102  27.635  27.010  1.00  0.00     0.041 A 
ATOM     55  F   UNL A   1      50.394  27.527  28.612  1.00  0.00    -0.206 F 
ATOM     56  C   UNL A   1      52.512  27.849  25.697  1.00  0.00     0.022 A 
BRANCH  53  57
ATOM     57  S   UNL A   1      52.061  28.408  23.002  1.00  0.00     0.124 S 
ATOM     58  O   UNL A   1      51.615  29.775  22.758  1.00  0.00    -0.237 OA
ATOM     59  O   UNL A   1      53.505  28.206  23.073  1.00  0.00    -0.237 OA
ATOM     60  O   UNL A   1      51.327  27.372  22.280  1.00  0.00    -0.744 OA
ENDBRANCH  53  57
ENDBRANCH  26  50
BRANCH  38  61
ATOM     61  C   UNL A   1      46.112  33.424  28.939  1.00  0.00     0.023 A 
ATOM     62  C   UNL A   1      45.998  34.507  28.051  1.00  0.00     0.031 A 
ATOM     63  C   UNL A   1      46.604  33.674  30.231  1.00  0.00     0.131 A 
ATOM     64  C   UNL A   1      46.417  35.784  28.454  1.00  0.00     0.055 A 
ATOM     65  C   UNL A   1      46.964  34.956  30.645  1.00  0.00     0.041 A 
ATOM     66  F   UNL A   1      46.735  32.673  31.118  1.00  0.00    -0.206 F 
ATOM     67  C   UNL A   1      46.882  36.019  29.750  1.00  0.00     0.022 A 
BRANCH  64  68
ATOM     68  S   UNL A   1      46.414  37.128  27.235  1.00  0.00     0.124 S 
ATOM     69  O   UNL A   1      47.420  38.034  27.782  1.00  0.00    -0.237 OA
ATOM     70  O   UNL A   1      46.781  36.436  26.004  1.00  0.00    -0.237 OA
ATOM     71  O   UNL A   1      45.041  37.627  27.278  1.00  0.00    -0.744 OA
ENDBRANCH  64  68
ENDBRANCH  38  61
ENDBRANCH  12  13
ENDBRANCH   5   7
ENDBRANCH   2   3
ENDBRANCH   1   2
BRANCH   1  72
ATOM     72  C   UNL A   1      40.464  21.452  27.224  1.00  0.00     0.002 C 
BRANCH  72  73
ATOM     73  C   UNL A   1      40.047  22.647  26.361  1.00  0.00     0.002 C 
BRANCH  73  74
ATOM     74  C   UNL A   1      39.034  23.619  26.977  1.00  0.00     0.021 C 
BRANCH  74  75
ATOM     75  C   UNL A   1      37.898  24.077  26.067  1.00  0.00     0.116 C 
BRANCH  75  76
ATOM     76  N   UNL A   1      37.685  23.204  24.934  1.00  0.00    -0.354 N 
ATOM     77  C   UNL A   1      36.626  23.156  24.078  1.00  0.00     0.249 C 
ATOM     78  H   UNL A   1      38.404  22.554  24.758  1.00  0.00     0.163 HD
ATOM     79  O   UNL A   1      36.782  22.532  23.026  1.00  0.00    -0.272 OA
BRANCH  77  80
ATOM     80  C   UNL A   1      35.303  23.849  24.460  1.00  0.00     0.211 C 
ATOM     81  C   UNL A   1      34.458  24.198  23.243  1.00  0.00     0.085 C 
ATOM     82  O   UNL A   1      34.533  23.017  25.330  1.00  0.00    -0.357 OA
ATOM     83  C   UNL A   1      33.094  23.527  23.437  1.00  0.00     0.123 C 
ATOM     84  C   UNL A   1      33.335  22.584  24.659  1.00  0.00     0.186 C 
BRANCH  83  85
ATOM     85  C   UNL A   1      32.004  24.608  23.541  1.00  0.00    -0.013 A 
ATOM     86  C   UNL A   1      31.913  25.567  22.502  1.00  0.00     0.010 A 
ATOM     87  C   UNL A   1      31.072  24.709  24.588  1.00  0.00     0.010 A 
ATOM     88  C   UNL A   1      30.957  26.586  22.517  1.00  0.00     0.039 A 
ATOM     89  C   UNL A   1      30.103  25.723  24.596  1.00  0.00     0.039 A 
ATOM     90  C   UNL A   1      30.057  26.651  23.566  1.00  0.00     0.123 A 
ATOM     91  F   UNL A   1      29.128  27.616  23.583  1.00  0.00    -0.207 F 
ENDBRANCH  83  85
BRANCH  83  92
ATOM     92  O   UNL A   1      32.777  22.825  22.222  1.00  0.00    -0.382 OA
ATOM     93  H   UNL A   1      31.931  23.147  21.874  1.00  0.00     0.212 HD
ENDBRANCH  83  92
BRANCH  84  94
ATOM     94  C   UNL A   1      33.433  21.081  24.408  1.00  0.00    -0.016 A 
ATOM     95  C   UNL A   1      34.553  20.329  24.798  1.00  0.00     0.009 A 
ATOM     96  C   UNL A   1      32.369  20.405  23.784  1.00  0.00     0.009 A 
ATOM     97  C   UNL A   1      34.594  18.945  24.615  1.00  0.00     0.039 A 
ATOM     98  C   UNL A   1      32.417  19.021  23.583  1.00  0.00     0.039 A 
ATOM     99  C   UNL A   1      33.525  18.302  24.012  1.00  0.00     0.123 A 
ATOM    100  F   UNL A   1      33.563  16.975  23.837  1.00  0.00    -0.207 F 
ENDBRANCH  84  94
ENDBRANCH  77  80
ENDBRANCH  75  76
ENDBRANCH  74  75
ENDBRANCH  73  74
ENDBRANCH  72  73
ENDBRANCH   1  72
TORSDOF 19
ENDMDL
