MODEL 1
REMARK VINA RESULT:     -12.0      0.000      0.000
REMARK SMILES COc1c[nH]c(C[N@H+]2CCC[C@@H](c3ccc(C(=O)NCCCCCCNC(=O)c4ccc(-c5c6nc(c(-c7cc(S(=O)(=O)[O-])ccc7F)c7ccc([nH]7)c(-c7cc(S(=O)(=O)[O-])ccc7F)c7nc(c(-c8cc(S(=O)(=O)[O-])ccc8F)c8ccc5[nH]8)C=C7)C=C6)cc4)cc3)C2)cc1=O
REMARK SMILES IDX 22 1 21 2 20 3 19 4 17 5 18 6 16 8 13 9 14 10 93 11 15 12
REMARK SMILES IDX 92 13 12 14 8 15 9 16 94 17 10 19 11 20 7 21 6 22 3 23 4 24
REMARK SMILES IDX 96 25 5 26 95 27 97 28 2 30 1 31 23 32 24 33 25 34 26 35
REMARK SMILES IDX 27 36 28 38 29 39 30 40 91 41 31 42 90 43 32 44 33 45 34 46
REMARK SMILES IDX 84 47 35 48 89 49 83 50 85 51 36 52 88 53 82 54 81 55 37 57
REMARK SMILES IDX 69 58 49 59 68 60 50 61 53 62 67 63 86 64 51 65 52 66 66 68
REMARK SMILES IDX 87 69 54 70 38 71 39 72 47 73 40 74 46 75 48 76 45 77 41 78
REMARK SMILES IDX 42 79 43 80 44 81 70 82 71 83 79 84 72 85 78 86 80 87 77 88
REMARK SMILES IDX 73 89 74 90 75 91 76 92 55 93 56 94 64 95 57 96 63 97 65 98
REMARK SMILES IDX 62 99 58 100 59 101 60 102 61 103
REMARK H PARENT 19 7 8 18 5 29 26 37 85 56 53 67
REMARK Flexibility Score: inf
ROOT
ATOM      1  C   UNL A   1      35.513  32.385  28.825  1.00  0.00     0.002 C 
ENDROOT
BRANCH   1   2
ATOM      2  C   UNL A   1      36.052  31.265  27.927  1.00  0.00     0.021 C 
BRANCH   2   3
ATOM      3  C   UNL A   1      35.154  30.027  27.901  1.00  0.00     0.116 C 
BRANCH   3   4
ATOM      4  N   UNL A   1      33.778  30.423  27.678  1.00  0.00    -0.352 N 
ATOM      5  C   UNL A   1      32.781  29.873  26.918  1.00  0.00     0.251 C 
ATOM      6  O   UNL A   1      31.685  30.435  26.912  1.00  0.00    -0.269 OA
ATOM      7  H   UNL A   1      33.510  31.237  28.163  1.00  0.00     0.163 HD
BRANCH   5   8
ATOM      8  C   UNL A   1      32.943  28.595  26.174  1.00  0.00     0.039 A 
ATOM      9  C   UNL A   1      33.278  26.052  24.984  1.00  0.00    -0.039 A 
ATOM     10  C   UNL A   1      32.633  26.187  26.222  1.00  0.00     0.005 A 
ATOM     11  C   UNL A   1      33.676  27.214  24.313  1.00  0.00     0.005 A 
ATOM     12  C   UNL A   1      32.485  27.441  26.816  1.00  0.00     0.014 A 
ATOM     13  C   UNL A   1      33.484  28.475  24.891  1.00  0.00     0.014 A 
BRANCH   9  14
ATOM     14  C   UNL A   1      33.523  24.687  24.355  1.00  0.00     0.074 C 
ATOM     15  N   UNL A   1      32.822  22.262  24.417  1.00  0.00    -0.329 N 
ATOM     16  C   UNL A   1      32.469  22.318  22.993  1.00  0.00     0.262 C 
ATOM     17  C   UNL A   1      32.699  23.580  25.050  1.00  0.00     0.270 C 
ATOM     18  H   UNL A   1      33.804  21.996  24.479  1.00  0.00     0.348 HD
ATOM     19  C   UNL A   1      33.343  23.327  22.246  1.00  0.00     0.062 C 
ATOM     20  C   UNL A   1      33.225  24.723  22.851  1.00  0.00     0.020 C 
BRANCH  15  21
ATOM     21  C   UNL A   1      32.079  21.205  25.137  1.00  0.00     0.317 C 
BRANCH  21  22
ATOM     22  C   UNL A   1      32.483  19.761  24.848  1.00  0.00     0.074 A 
ATOM     23  C   UNL A   1      33.069  16.976  24.572  1.00  0.00     0.182 A 
ATOM     24  C   UNL A   1      33.029  17.596  25.759  1.00  0.00     0.133 A 
ATOM     25  C   UNL A   1      32.852  17.844  23.360  1.00  0.00     0.223 A 
ATOM     26  N   UNL A   1      32.811  18.938  25.911  1.00  0.00    -0.357 N 
ATOM     27  C   UNL A   1      32.526  19.283  23.590  1.00  0.00     0.083 A 
ATOM     28  O   UNL A   1      32.915  17.416  22.211  1.00  0.00    -0.286 OA
ATOM     29  H   UNL A   1      32.889  19.333  26.809  1.00  0.00     0.166 HD
BRANCH  23  30
ATOM     30  O   UNL A   1      33.219  15.605  24.498  1.00  0.00    -0.491 OA
ATOM     31  C   UNL A   1      32.561  14.922  25.560  1.00  0.00     0.278 C 
ENDBRANCH  23  30
ENDBRANCH  21  22
ENDBRANCH  15  21
ENDBRANCH   9  14
ENDBRANCH   5   8
ENDBRANCH   3   4
ENDBRANCH   2   3
ENDBRANCH   1   2
BRANCH   1  32
ATOM     32  C   UNL A   1      35.768  33.803  28.303  1.00  0.00     0.002 C 
BRANCH  32  33
ATOM     33  C   UNL A   1      34.586  34.766  28.447  1.00  0.00     0.021 C 
BRANCH  33  34
ATOM     34  C   UNL A   1      33.395  34.191  29.208  1.00  0.00     0.116 C 
BRANCH  34  35
ATOM     35  N   UNL A   1      32.976  35.077  30.279  1.00  0.00    -0.352 N 
ATOM     36  C   UNL A   1      33.375  35.105  31.591  1.00  0.00     0.251 C 
ATOM     37  H   UNL A   1      32.310  35.756  30.027  1.00  0.00     0.163 HD
ATOM     38  O   UNL A   1      32.717  35.744  32.404  1.00  0.00    -0.269 OA
BRANCH  36  39
ATOM     39  C   UNL A   1      34.586  34.370  32.022  1.00  0.00     0.039 A 
ATOM     40  C   UNL A   1      35.837  34.958  31.813  1.00  0.00     0.014 A 
ATOM     41  C   UNL A   1      34.501  33.082  32.560  1.00  0.00     0.014 A 
ATOM     42  C   UNL A   1      36.999  34.261  32.153  1.00  0.00     0.010 A 
ATOM     43  C   UNL A   1      35.657  32.416  32.962  1.00  0.00     0.010 A 
ATOM     44  C   UNL A   1      36.918  32.986  32.733  1.00  0.00    -0.014 A 
BRANCH  44  45
ATOM     45  C   UNL A   1      38.148  32.206  33.027  1.00  0.00     0.031 A 
ATOM     46  C   UNL A   1      38.911  32.469  34.299  1.00  0.00     0.074 A 
ATOM     47  C   UNL A   1      38.589  31.288  32.147  1.00  0.00     0.049 A 
ATOM     48  N   UNL A   1      40.021  31.927  34.730  1.00  0.00    -0.248 NA
ATOM     49  C   UNL A   1      38.366  33.504  35.191  1.00  0.00     0.031 C 
ATOM     50  C   UNL A   1      37.953  30.972  30.865  1.00  0.00     0.029 A 
ATOM     51  N   UNL A   1      39.673  30.449  32.195  1.00  0.00    -0.354 N 
ATOM     52  C   UNL A   1      40.314  32.562  35.933  1.00  0.00     0.074 A 
ATOM     53  C   UNL A   1      39.300  33.578  36.125  1.00  0.00     0.031 C 
ATOM     54  C   UNL A   1      38.644  29.991  30.263  1.00  0.00     0.029 A 
ATOM     55  C   UNL A   1      39.787  29.629  31.096  1.00  0.00     0.049 A 
ATOM     56  H   UNL A   1      40.310  30.434  32.946  1.00  0.00     0.167 HD
ATOM     57  C   UNL A   1      41.316  32.305  36.810  1.00  0.00     0.034 A 
ATOM     58  C   UNL A   1      40.708  28.691  30.799  1.00  0.00     0.034 A 
ATOM     59  C   UNL A   1      42.307  31.275  36.610  1.00  0.00     0.049 A 
ATOM     60  C   UNL A   1      41.808  28.413  31.793  1.00  0.00     0.074 A 
ATOM     61  C   UNL A   1      43.351  30.904  37.439  1.00  0.00     0.029 A 
ATOM     62  N   UNL A   1      42.373  30.445  35.497  1.00  0.00    -0.354 N 
ATOM     63  N   UNL A   1      42.051  28.998  32.944  1.00  0.00    -0.248 NA
ATOM     64  C   UNL A   1      42.743  27.332  31.458  1.00  0.00     0.031 C 
ATOM     65  C   UNL A   1      44.078  29.889  36.806  1.00  0.00     0.029 A 
ATOM     66  C   UNL A   1      43.446  29.575  35.613  1.00  0.00     0.049 A 
ATOM     67  H   UNL A   1      41.749  30.471  34.735  1.00  0.00     0.167 HD
ATOM     68  C   UNL A   1      43.141  28.325  33.488  1.00  0.00     0.074 A 
ATOM     69  C   UNL A   1      43.499  27.287  32.544  1.00  0.00     0.031 C 
ATOM     70  C   UNL A   1      43.786  28.542  34.664  1.00  0.00     0.034 A 
BRANCH  57  71
ATOM     71  C   UNL A   1      41.395  33.171  38.046  1.00  0.00     0.023 A 
ATOM     72  C   UNL A   1      40.683  32.853  39.217  1.00  0.00     0.031 A 
ATOM     73  C   UNL A   1      42.155  34.355  38.043  1.00  0.00     0.131 A 
ATOM     74  C   UNL A   1      40.675  33.746  40.299  1.00  0.00     0.055 A 
ATOM     75  C   UNL A   1      42.214  35.196  39.156  1.00  0.00     0.041 A 
ATOM     76  F   UNL A   1      42.839  34.724  36.949  1.00  0.00    -0.206 F 
ATOM     77  C   UNL A   1      41.456  34.903  40.287  1.00  0.00     0.022 A 
BRANCH  74  78
ATOM     78  S   UNL A   1      39.508  33.451  41.656  1.00  0.00     0.124 S 
ATOM     79  O   UNL A   1      38.235  33.802  41.029  1.00  0.00    -0.237 OA
ATOM     80  O   UNL A   1      39.710  32.037  41.945  1.00  0.00    -0.237 OA
ATOM     81  O   UNL A   1      39.955  34.373  42.698  1.00  0.00    -0.744 OA
ENDBRANCH  74  78
ENDBRANCH  57  71
BRANCH  58  82
ATOM     82  C   UNL A   1      40.629  27.933  29.518  1.00  0.00     0.023 A 
ATOM     83  C   UNL A   1      41.515  28.201  28.462  1.00  0.00     0.031 A 
ATOM     84  C   UNL A   1      39.638  26.957  29.315  1.00  0.00     0.131 A 
ATOM     85  C   UNL A   1      41.361  27.541  27.234  1.00  0.00     0.055 A 
ATOM     86  C   UNL A   1      39.520  26.265  28.108  1.00  0.00     0.041 A 
ATOM     87  F   UNL A   1      38.771  26.655  30.295  1.00  0.00    -0.206 F 
ATOM     88  C   UNL A   1      40.377  26.567  27.053  1.00  0.00     0.022 A 
BRANCH  85  89
ATOM     89  S   UNL A   1      42.415  28.038  25.844  1.00  0.00     0.124 S 
ATOM     90  O   UNL A   1      41.892  29.363  25.533  1.00  0.00    -0.237 OA
ATOM     91  O   UNL A   1      43.744  27.996  26.443  1.00  0.00    -0.237 OA
ATOM     92  O   UNL A   1      42.155  27.011  24.837  1.00  0.00    -0.744 OA
ENDBRANCH  85  89
ENDBRANCH  58  82
BRANCH  70  93
ATOM     93  C   UNL A   1      44.902  27.589  35.015  1.00  0.00     0.023 A 
ATOM     94  C   UNL A   1      44.650  26.311  35.546  1.00  0.00     0.031 A 
ATOM     95  C   UNL A   1      46.240  27.979  34.838  1.00  0.00     0.131 A 
ATOM     96  C   UNL A   1      45.720  25.497  35.943  1.00  0.00     0.055 A 
ATOM     97  C   UNL A   1      47.302  27.140  35.177  1.00  0.00     0.041 A 
ATOM     98  F   UNL A   1      46.539  29.188  34.334  1.00  0.00    -0.206 F 
ATOM     99  C   UNL A   1      47.045  25.897  35.748  1.00  0.00     0.022 A 
BRANCH  96 100
ATOM    100  S   UNL A   1      45.359  23.949  36.818  1.00  0.00     0.124 S 
ATOM    101  O   UNL A   1      46.667  23.300  36.840  1.00  0.00    -0.237 OA
ATOM    102  O   UNL A   1      44.864  24.428  38.105  1.00  0.00    -0.237 OA
ATOM    103  O   UNL A   1      44.360  23.301  35.971  1.00  0.00    -0.744 OA
ENDBRANCH  96 100
ENDBRANCH  70  93
ENDBRANCH  44  45
ENDBRANCH  36  39
ENDBRANCH  34  35
ENDBRANCH  33  34
ENDBRANCH  32  33
ENDBRANCH   1  32
TORSDOF 20
ENDMDL
MODEL 2
REMARK VINA RESULT:     -11.2      5.436     10.835
REMARK SMILES COc1c[nH]c(C[N@H+]2CCC[C@@H](c3ccc(C(=O)NCCCCCCNC(=O)c4ccc(-c5c6nc(c(-c7cc(S(=O)(=O)[O-])ccc7F)c7ccc([nH]7)c(-c7cc(S(=O)(=O)[O-])ccc7F)c7nc(c(-c8cc(S(=O)(=O)[O-])ccc8F)c8ccc5[nH]8)C=C7)C=C6)cc4)cc3)C2)cc1=O
REMARK SMILES IDX 22 1 21 2 20 3 19 4 17 5 18 6 16 8 13 9 14 10 93 11 15 12
REMARK SMILES IDX 92 13 12 14 8 15 9 16 94 17 10 19 11 20 7 21 6 22 3 23 4 24
REMARK SMILES IDX 96 25 5 26 95 27 97 28 2 30 1 31 23 32 24 33 25 34 26 35
REMARK SMILES IDX 27 36 28 38 29 39 30 40 91 41 31 42 90 43 32 44 33 45 34 46
REMARK SMILES IDX 84 47 35 48 89 49 83 50 85 51 36 52 88 53 82 54 81 55 37 57
REMARK SMILES IDX 69 58 49 59 68 60 50 61 53 62 67 63 86 64 51 65 52 66 66 68
REMARK SMILES IDX 87 69 54 70 38 71 39 72 47 73 40 74 46 75 48 76 45 77 41 78
REMARK SMILES IDX 42 79 43 80 44 81 70 82 71 83 79 84 72 85 78 86 80 87 77 88
REMARK SMILES IDX 73 89 74 90 75 91 76 92 55 93 56 94 64 95 57 96 63 97 65 98
REMARK SMILES IDX 62 99 58 100 59 101 60 102 61 103
REMARK H PARENT 19 7 8 18 5 29 26 37 85 56 53 67
REMARK Flexibility Score: inf
ROOT
ATOM      1  C   UNL A   1      32.826  22.656  26.725  1.00  0.00     0.002 C 
ENDROOT
BRANCH   1   2
ATOM      2  C   UNL A   1      32.173  21.469  26.004  1.00  0.00     0.021 C 
BRANCH   2   3
ATOM      3  C   UNL A   1      33.182  20.573  25.283  1.00  0.00     0.116 C 
BRANCH   3   4
ATOM      4  N   UNL A   1      32.657  20.184  23.989  1.00  0.00    -0.352 N 
ATOM      5  C   UNL A   1      32.197  20.922  22.931  1.00  0.00     0.251 C 
ATOM      6  O   UNL A   1      31.798  20.315  21.937  1.00  0.00    -0.269 OA
ATOM      7  H   UNL A   1      32.626  19.212  23.844  1.00  0.00     0.163 HD
BRANCH   5   8
ATOM      8  C   UNL A   1      32.236  22.408  22.905  1.00  0.00     0.039 A 
ATOM      9  C   UNL A   1      32.555  25.219  22.910  1.00  0.00    -0.039 A 
ATOM     10  C   UNL A   1      33.592  24.377  22.479  1.00  0.00     0.005 A 
ATOM     11  C   UNL A   1      31.330  24.636  23.256  1.00  0.00     0.005 A 
ATOM     12  C   UNL A   1      33.439  22.990  22.495  1.00  0.00     0.014 A 
ATOM     13  C   UNL A   1      31.164  23.246  23.226  1.00  0.00     0.014 A 
BRANCH   9  14
ATOM     14  C   UNL A   1      32.727  26.730  22.979  1.00  0.00     0.074 C 
ATOM     15  N   UNL A   1      31.701  28.855  23.877  1.00  0.00    -0.329 N 
ATOM     16  C   UNL A   1      32.946  29.165  24.591  1.00  0.00     0.262 C 
ATOM     17  C   UNL A   1      31.537  27.408  23.693  1.00  0.00     0.270 C 
ATOM     18  H   UNL A   1      31.772  29.264  22.945  1.00  0.00     0.348 HD
ATOM     19  C   UNL A   1      34.162  28.602  23.853  1.00  0.00     0.062 C 
ATOM     20  C   UNL A   1      34.051  27.092  23.664  1.00  0.00     0.020 C 
BRANCH  15  21
ATOM     21  C   UNL A   1      30.523  29.495  24.501  1.00  0.00     0.317 C 
BRANCH  21  22
ATOM     22  C   UNL A   1      29.641  30.349  23.593  1.00  0.00     0.074 A 
ATOM     23  C   UNL A   1      28.205  32.189  21.940  1.00  0.00     0.182 A 
ATOM     24  C   UNL A   1      28.809  32.554  23.079  1.00  0.00     0.133 A 
ATOM     25  C   UNL A   1      28.262  30.722  21.597  1.00  0.00     0.223 A 
ATOM     26  N   UNL A   1      29.449  31.681  23.916  1.00  0.00    -0.357 N 
ATOM     27  C   UNL A   1      29.053  29.832  22.497  1.00  0.00     0.083 A 
ATOM     28  O   UNL A   1      27.707  30.244  20.612  1.00  0.00    -0.286 OA
ATOM     29  H   UNL A   1      29.786  32.013  24.779  1.00  0.00     0.166 HD
BRANCH  23  30
ATOM     30  O   UNL A   1      27.643  33.134  21.106  1.00  0.00    -0.491 OA
ATOM     31  C   UNL A   1      28.021  32.960  19.745  1.00  0.00     0.278 C 
ENDBRANCH  23  30
ENDBRANCH  21  22
ENDBRANCH  15  21
ENDBRANCH   9  14
ENDBRANCH   5   8
ENDBRANCH   3   4
ENDBRANCH   2   3
ENDBRANCH   1   2
BRANCH   1  32
ATOM     32  C   UNL A   1      34.048  23.244  26.013  1.00  0.00     0.002 C 
BRANCH  32  33
ATOM     33  C   UNL A   1      35.393  22.933  26.677  1.00  0.00     0.021 C 
BRANCH  33  34
ATOM     34  C   UNL A   1      36.610  23.289  25.828  1.00  0.00     0.116 C 
BRANCH  34  35
ATOM     35  N   UNL A   1      37.731  22.413  26.119  1.00  0.00    -0.352 N 
ATOM     36  C   UNL A   1      39.013  22.733  26.487  1.00  0.00     0.251 C 
ATOM     37  H   UNL A   1      37.543  21.450  26.043  1.00  0.00     0.163 HD
ATOM     38  O   UNL A   1      39.886  21.874  26.427  1.00  0.00    -0.269 OA
BRANCH  36  39
ATOM     39  C   UNL A   1      39.340  24.101  26.949  1.00  0.00     0.039 A 
ATOM     40  C   UNL A   1      39.957  24.981  26.055  1.00  0.00     0.014 A 
ATOM     41  C   UNL A   1      39.110  24.496  28.271  1.00  0.00     0.014 A 
ATOM     42  C   UNL A   1      40.333  26.256  26.482  1.00  0.00     0.010 A 
ATOM     43  C   UNL A   1      39.424  25.792  28.677  1.00  0.00     0.010 A 
ATOM     44  C   UNL A   1      40.067  26.673  27.795  1.00  0.00    -0.014 A 
BRANCH  44  45
ATOM     45  C   UNL A   1      40.531  27.998  28.280  1.00  0.00     0.031 A 
ATOM     46  C   UNL A   1      42.006  28.306  28.310  1.00  0.00     0.074 A 
ATOM     47  C   UNL A   1      39.638  28.908  28.711  1.00  0.00     0.049 A 
ATOM     48  N   UNL A   1      42.622  29.384  28.724  1.00  0.00    -0.248 NA
ATOM     49  C   UNL A   1      42.909  27.245  27.838  1.00  0.00     0.031 C 
ATOM     50  C   UNL A   1      38.187  28.710  28.762  1.00  0.00     0.029 A 
ATOM     51  N   UNL A   1      39.815  30.182  29.187  1.00  0.00    -0.354 N 
ATOM     52  C   UNL A   1      43.982  29.126  28.576  1.00  0.00     0.074 A 
ATOM     53  C   UNL A   1      44.098  27.764  28.100  1.00  0.00     0.031 C 
ATOM     54  C   UNL A   1      37.607  29.831  29.218  1.00  0.00     0.029 A 
ATOM     55  C   UNL A   1      38.641  30.816  29.521  1.00  0.00     0.049 A 
ATOM     56  H   UNL A   1      40.699  30.604  29.281  1.00  0.00     0.167 HD
ATOM     57  C   UNL A   1      45.034  29.955  28.790  1.00  0.00     0.034 A 
ATOM     58  C   UNL A   1      38.425  32.053  30.012  1.00  0.00     0.034 A 
ATOM     59  C   UNL A   1      44.896  31.316  29.248  1.00  0.00     0.049 A 
ATOM     60  C   UNL A   1      39.608  32.962  30.232  1.00  0.00     0.074 A 
ATOM     61  C   UNL A   1      45.885  32.258  29.474  1.00  0.00     0.029 A 
ATOM     62  N   UNL A   1      43.687  31.934  29.548  1.00  0.00    -0.354 N 
ATOM     63  N   UNL A   1      40.886  32.716  30.052  1.00  0.00    -0.248 NA
ATOM     64  C   UNL A   1      39.316  34.324  30.696  1.00  0.00     0.031 C 
ATOM     65  C   UNL A   1      45.281  33.424  29.959  1.00  0.00     0.029 A 
ATOM     66  C   UNL A   1      43.907  33.236  29.969  1.00  0.00     0.049 A 
ATOM     67  H   UNL A   1      42.803  31.508  29.474  1.00  0.00     0.167 HD
ATOM     68  C   UNL A   1      41.545  33.908  30.343  1.00  0.00     0.074 A 
ATOM     69  C   UNL A   1      40.523  34.871  30.697  1.00  0.00     0.031 C 
ATOM     70  C   UNL A   1      42.875  34.184  30.314  1.00  0.00     0.034 A 
BRANCH  57  71
ATOM     71  C   UNL A   1      46.417  29.395  28.552  1.00  0.00     0.023 A 
ATOM     72  C   UNL A   1      47.152  28.781  29.582  1.00  0.00     0.031 A 
ATOM     73  C   UNL A   1      47.029  29.514  27.291  1.00  0.00     0.131 A 
ATOM     74  C   UNL A   1      48.482  28.390  29.360  1.00  0.00     0.055 A 
ATOM     75  C   UNL A   1      48.322  29.042  27.052  1.00  0.00     0.041 A 
ATOM     76  F   UNL A   1      46.388  30.108  26.273  1.00  0.00    -0.206 F 
ATOM     77  C   UNL A   1      49.063  28.492  28.095  1.00  0.00     0.022 A 
BRANCH  74  78
ATOM     78  S   UNL A   1      49.487  27.892  30.785  1.00  0.00     0.124 S 
ATOM     79  O   UNL A   1      49.015  28.817  31.814  1.00  0.00    -0.237 OA
ATOM     80  O   UNL A   1      49.114  26.494  30.962  1.00  0.00    -0.237 OA
ATOM     81  O   UNL A   1      50.858  28.122  30.333  1.00  0.00    -0.744 OA
ENDBRANCH  74  78
ENDBRANCH  57  71
BRANCH  58  82
ATOM     82  C   UNL A   1      37.041  32.515  30.315  1.00  0.00     0.023 A 
ATOM     83  C   UNL A   1      36.275  33.187  29.349  1.00  0.00     0.031 A 
ATOM     84  C   UNL A   1      36.479  32.331  31.590  1.00  0.00     0.131 A 
ATOM     85  C   UNL A   1      35.012  33.695  29.687  1.00  0.00     0.055 A 
ATOM     86  C   UNL A   1      35.201  32.794  31.907  1.00  0.00     0.041 A 
ATOM     87  F   UNL A   1      37.166  31.687  32.549  1.00  0.00    -0.206 F 
ATOM     88  C   UNL A   1      34.466  33.494  30.956  1.00  0.00     0.022 A 
BRANCH  85  89
ATOM     89  S   UNL A   1      34.127  34.703  28.465  1.00  0.00     0.124 S 
ATOM     90  O   UNL A   1      34.872  34.413  27.245  1.00  0.00    -0.237 OA
ATOM     91  O   UNL A   1      32.778  34.154  28.540  1.00  0.00    -0.237 OA
ATOM     92  O   UNL A   1      34.274  36.064  28.978  1.00  0.00    -0.744 OA
ENDBRANCH  85  89
ENDBRANCH  58  82
BRANCH  70  93
ATOM     93  C   UNL A   1      43.283  35.606  30.614  1.00  0.00     0.023 A 
ATOM     94  C   UNL A   1      43.505  36.547  29.593  1.00  0.00     0.031 A 
ATOM     95  C   UNL A   1      43.476  36.015  31.945  1.00  0.00     0.131 A 
ATOM     96  C   UNL A   1      43.971  37.830  29.916  1.00  0.00     0.055 A 
ATOM     97  C   UNL A   1      43.880  37.311  32.264  1.00  0.00     0.041 A 
ATOM     98  F   UNL A   1      43.277  35.157  32.960  1.00  0.00    -0.206 F 
ATOM     99  C   UNL A   1      44.147  38.222  31.245  1.00  0.00     0.022 A 
BRANCH  96 100
ATOM    100  S   UNL A   1      44.451  38.946  28.569  1.00  0.00     0.124 S 
ATOM    101  O   UNL A   1      43.827  38.312  27.412  1.00  0.00    -0.237 OA
ATOM    102  O   UNL A   1      43.865  40.214  28.994  1.00  0.00    -0.237 OA
ATOM    103  O   UNL A   1      45.911  38.901  28.589  1.00  0.00    -0.744 OA
ENDBRANCH  96 100
ENDBRANCH  70  93
ENDBRANCH  44  45
ENDBRANCH  36  39
ENDBRANCH  34  35
ENDBRANCH  33  34
ENDBRANCH  32  33
ENDBRANCH   1  32
TORSDOF 20
ENDMDL
MODEL 3
REMARK VINA RESULT:     -11.1      2.119      2.569
REMARK SMILES COc1c[nH]c(C[N@H+]2CCC[C@@H](c3ccc(C(=O)NCCCCCCNC(=O)c4ccc(-c5c6nc(c(-c7cc(S(=O)(=O)[O-])ccc7F)c7ccc([nH]7)c(-c7cc(S(=O)(=O)[O-])ccc7F)c7nc(c(-c8cc(S(=O)(=O)[O-])ccc8F)c8ccc5[nH]8)C=C7)C=C6)cc4)cc3)C2)cc1=O
REMARK SMILES IDX 22 1 21 2 20 3 19 4 17 5 18 6 16 8 13 9 14 10 93 11 15 12
REMARK SMILES IDX 92 13 12 14 8 15 9 16 94 17 10 19 11 20 7 21 6 22 3 23 4 24
REMARK SMILES IDX 96 25 5 26 95 27 97 28 2 30 1 31 23 32 24 33 25 34 26 35
REMARK SMILES IDX 27 36 28 38 29 39 30 40 91 41 31 42 90 43 32 44 33 45 34 46
REMARK SMILES IDX 84 47 35 48 89 49 83 50 85 51 36 52 88 53 82 54 81 55 37 57
REMARK SMILES IDX 69 58 49 59 68 60 50 61 53 62 67 63 86 64 51 65 52 66 66 68
REMARK SMILES IDX 87 69 54 70 38 71 39 72 47 73 40 74 46 75 48 76 45 77 41 78
REMARK SMILES IDX 42 79 43 80 44 81 70 82 71 83 79 84 72 85 78 86 80 87 77 88
REMARK SMILES IDX 73 89 74 90 75 91 76 92 55 93 56 94 64 95 57 96 63 97 65 98
REMARK SMILES IDX 62 99 58 100 59 101 60 102 61 103
REMARK H PARENT 19 7 8 18 5 29 26 37 85 56 53 67
REMARK Flexibility Score: inf
ROOT
ATOM      1  C   UNL A   1      35.394  32.145  28.724  1.00  0.00     0.002 C 
ENDROOT
BRANCH   1   2
ATOM      2  C   UNL A   1      35.830  30.969  27.840  1.00  0.00     0.021 C 
BRANCH   2   3
ATOM      3  C   UNL A   1      34.655  30.147  27.307  1.00  0.00     0.116 C 
BRANCH   3   4
ATOM      4  N   UNL A   1      33.493  30.999  27.144  1.00  0.00    -0.352 N 
ATOM      5  C   UNL A   1      32.229  30.741  26.686  1.00  0.00     0.251 C 
ATOM      6  O   UNL A   1      31.427  31.676  26.652  1.00  0.00    -0.269 OA
ATOM      7  H   UNL A   1      33.640  31.934  27.413  1.00  0.00     0.163 HD
BRANCH   5   8
ATOM      8  C   UNL A   1      31.768  29.378  26.311  1.00  0.00     0.039 A 
ATOM      9  C   UNL A   1      31.038  26.697  25.782  1.00  0.00    -0.039 A 
ATOM     10  C   UNL A   1      31.315  27.123  27.090  1.00  0.00     0.005 A 
ATOM     11  C   UNL A   1      31.050  27.651  24.758  1.00  0.00     0.005 A 
ATOM     12  C   UNL A   1      31.692  28.442  27.346  1.00  0.00     0.014 A 
ATOM     13  C   UNL A   1      31.384  28.985  25.026  1.00  0.00     0.014 A 
BRANCH   9  14
ATOM     14  C   UNL A   1      30.704  25.245  25.467  1.00  0.00     0.074 C 
ATOM     15  N   UNL A   1      31.573  23.154  24.350  1.00  0.00    -0.329 N 
ATOM     16  C   UNL A   1      31.427  22.411  25.607  1.00  0.00     0.262 C 
ATOM     17  C   UNL A   1      31.796  24.583  24.598  1.00  0.00     0.270 C 
ATOM     18  H   UNL A   1      30.690  23.077  23.844  1.00  0.00     0.348 HD
ATOM     19  C   UNL A   1      30.278  22.969  26.450  1.00  0.00     0.062 C 
ATOM     20  C   UNL A   1      30.481  24.449  26.759  1.00  0.00     0.020 C 
BRANCH  15  21
ATOM     21  C   UNL A   1      32.592  22.556  23.461  1.00  0.00     0.317 C 
BRANCH  21  22
ATOM     22  C   UNL A   1      33.966  22.288  24.071  1.00  0.00     0.074 A 
ATOM     23  C   UNL A   1      36.537  21.506  25.048  1.00  0.00     0.182 A 
ATOM     24  C   UNL A   1      35.528  20.640  24.885  1.00  0.00     0.133 A 
ATOM     25  C   UNL A   1      36.229  22.951  24.751  1.00  0.00     0.223 A 
ATOM     26  N   UNL A   1      34.273  21.002  24.477  1.00  0.00    -0.357 N 
ATOM     27  C   UNL A   1      34.872  23.274  24.220  1.00  0.00     0.083 A 
ATOM     28  O   UNL A   1      37.046  23.855  24.909  1.00  0.00    -0.286 OA
ATOM     29  H   UNL A   1      33.562  20.321  24.471  1.00  0.00     0.166 HD
BRANCH  23  30
ATOM     30  O   UNL A   1      37.799  21.062  25.390  1.00  0.00    -0.491 OA
ATOM     31  C   UNL A   1      38.025  19.708  25.012  1.00  0.00     0.278 C 
ENDBRANCH  23  30
ENDBRANCH  21  22
ENDBRANCH  15  21
ENDBRANCH   9  14
ENDBRANCH   5   8
ENDBRANCH   3   4
ENDBRANCH   2   3
ENDBRANCH   1   2
BRANCH   1  32
ATOM     32  C   UNL A   1      35.772  33.528  28.182  1.00  0.00     0.002 C 
BRANCH  32  33
ATOM     33  C   UNL A   1      34.679  34.594  28.315  1.00  0.00     0.021 C 
BRANCH  33  34
ATOM     34  C   UNL A   1      33.411  34.110  29.012  1.00  0.00     0.116 C 
BRANCH  34  35
ATOM     35  N   UNL A   1      32.976  35.052  30.028  1.00  0.00    -0.352 N 
ATOM     36  C   UNL A   1      33.356  35.151  31.342  1.00  0.00     0.251 C 
ATOM     37  H   UNL A   1      32.314  35.716  29.730  1.00  0.00     0.163 HD
ATOM     38  O   UNL A   1      32.685  35.832  32.110  1.00  0.00    -0.269 OA
BRANCH  36  39
ATOM     39  C   UNL A   1      34.560  34.441  31.830  1.00  0.00     0.039 A 
ATOM     40  C   UNL A   1      35.798  35.084  31.746  1.00  0.00     0.014 A 
ATOM     41  C   UNL A   1      34.488  33.125  32.299  1.00  0.00     0.014 A 
ATOM     42  C   UNL A   1      36.958  34.415  32.141  1.00  0.00     0.010 A 
ATOM     43  C   UNL A   1      35.637  32.482  32.756  1.00  0.00     0.010 A 
ATOM     44  C   UNL A   1      36.887  33.109  32.652  1.00  0.00    -0.014 A 
BRANCH  44  45
ATOM     45  C   UNL A   1      38.122  32.362  33.002  1.00  0.00     0.031 A 
ATOM     46  C   UNL A   1      38.802  32.623  34.322  1.00  0.00     0.074 A 
ATOM     47  C   UNL A   1      38.642  31.476  32.133  1.00  0.00     0.049 A 
ATOM     48  N   UNL A   1      39.902  32.106  34.806  1.00  0.00    -0.248 NA
ATOM     49  C   UNL A   1      38.173  33.622  35.199  1.00  0.00     0.031 C 
ATOM     50  C   UNL A   1      38.092  31.167  30.811  1.00  0.00     0.029 A 
ATOM     51  N   UNL A   1      39.747  30.670  32.229  1.00  0.00    -0.354 N 
ATOM     52  C   UNL A   1      40.104  32.725  36.036  1.00  0.00     0.074 A 
ATOM     53  C   UNL A   1      39.050  33.706  36.187  1.00  0.00     0.031 C 
ATOM     54  C   UNL A   1      38.847  30.220  30.231  1.00  0.00     0.029 A 
ATOM     55  C   UNL A   1      39.951  29.877  31.123  1.00  0.00     0.049 A 
ATOM     56  H   UNL A   1      40.340  30.659  33.014  1.00  0.00     0.167 HD
ATOM     57  C   UNL A   1      41.062  32.482  36.965  1.00  0.00     0.034 A 
ATOM     58  C   UNL A   1      40.917  28.974  30.862  1.00  0.00     0.034 A 
ATOM     59  C   UNL A   1      42.095  31.487  36.803  1.00  0.00     0.049 A 
ATOM     60  C   UNL A   1      41.966  28.710  31.913  1.00  0.00     0.074 A 
ATOM     61  C   UNL A   1      43.101  31.132  37.685  1.00  0.00     0.029 A 
ATOM     62  N   UNL A   1      42.252  30.682  35.681  1.00  0.00    -0.354 N 
ATOM     63  N   UNL A   1      42.123  29.278  33.087  1.00  0.00    -0.248 NA
ATOM     64  C   UNL A   1      42.953  27.664  31.613  1.00  0.00     0.031 C 
ATOM     65  C   UNL A   1      43.895  30.153  37.077  1.00  0.00     0.029 A 
ATOM     66  C   UNL A   1      43.344  29.843  35.843  1.00  0.00     0.049 A 
ATOM     67  H   UNL A   1      41.673  30.704  34.885  1.00  0.00     0.167 HD
ATOM     68  C   UNL A   1      43.202  28.629  33.681  1.00  0.00     0.074 A 
ATOM     69  C   UNL A   1      43.646  27.621  32.741  1.00  0.00     0.031 C 
ATOM     70  C   UNL A   1      43.771  28.841  34.896  1.00  0.00     0.034 A 
BRANCH  57  71
ATOM     71  C   UNL A   1      41.042  33.325  38.219  1.00  0.00     0.023 A 
ATOM     72  C   UNL A   1      40.262  32.970  39.334  1.00  0.00     0.031 A 
ATOM     73  C   UNL A   1      41.776  34.522  38.288  1.00  0.00     0.131 A 
ATOM     74  C   UNL A   1      40.164  33.841  40.430  1.00  0.00     0.055 A 
ATOM     75  C   UNL A   1      41.745  35.342  39.418  1.00  0.00     0.041 A 
ATOM     76  F   UNL A   1      42.524  34.926  37.249  1.00  0.00    -0.206 F 
ATOM     77  C   UNL A   1      40.921  35.013  40.491  1.00  0.00     0.022 A 
BRANCH  74  78
ATOM     78  S   UNL A   1      38.917  33.497  41.701  1.00  0.00     0.124 S 
ATOM     79  O   UNL A   1      37.911  34.517  41.408  1.00  0.00    -0.237 OA
ATOM     80  O   UNL A   1      38.537  32.121  41.407  1.00  0.00    -0.237 OA
ATOM     81  O   UNL A   1      39.643  33.692  42.954  1.00  0.00    -0.744 OA
ENDBRANCH  74  78
ENDBRANCH  57  71
BRANCH  58  82
ATOM     82  C   UNL A   1      40.936  28.240  29.565  1.00  0.00     0.023 A 
ATOM     83  C   UNL A   1      41.859  28.570  28.560  1.00  0.00     0.031 A 
ATOM     84  C   UNL A   1      40.003  27.223  29.295  1.00  0.00     0.131 A 
ATOM     85  C   UNL A   1      41.796  27.929  27.314  1.00  0.00     0.055 A 
ATOM     86  C   UNL A   1      39.977  26.552  28.071  1.00  0.00     0.041 A 
ATOM     87  F   UNL A   1      39.104  26.861  30.226  1.00  0.00    -0.206 F 
ATOM     88  C   UNL A   1      40.868  26.916  27.066  1.00  0.00     0.022 A 
BRANCH  85  89
ATOM     89  S   UNL A   1      42.891  28.503  25.987  1.00  0.00     0.124 S 
ATOM     90  O   UNL A   1      44.096  27.720  26.236  1.00  0.00    -0.237 OA
ATOM     91  O   UNL A   1      42.131  28.152  24.793  1.00  0.00    -0.237 OA
ATOM     92  O   UNL A   1      43.015  29.937  26.245  1.00  0.00    -0.744 OA
ENDBRANCH  85  89
ENDBRANCH  58  82
BRANCH  70  93
ATOM     93  C   UNL A   1      44.894  27.915  35.295  1.00  0.00     0.023 A 
ATOM     94  C   UNL A   1      46.238  28.207  35.000  1.00  0.00     0.031 A 
ATOM     95  C   UNL A   1      44.609  26.710  35.959  1.00  0.00     0.131 A 
ATOM     96  C   UNL A   1      47.238  27.274  35.309  1.00  0.00     0.055 A 
ATOM     97  C   UNL A   1      45.615  25.814  36.320  1.00  0.00     0.041 A 
ATOM     98  F   UNL A   1      43.342  26.382  36.266  1.00  0.00    -0.206 F 
ATOM     99  C   UNL A   1      46.937  26.086  35.980  1.00  0.00     0.022 A 
BRANCH  96 100
ATOM    100  S   UNL A   1      48.928  27.583  34.725  1.00  0.00     0.124 S 
ATOM    101  O   UNL A   1      49.715  27.337  35.929  1.00  0.00    -0.237 OA
ATOM    102  O   UNL A   1      49.073  26.598  33.658  1.00  0.00    -0.237 OA
ATOM    103  O   UNL A   1      48.889  28.975  34.283  1.00  0.00    -0.744 OA
ENDBRANCH  96 100
ENDBRANCH  70  93
ENDBRANCH  44  45
ENDBRANCH  36  39
ENDBRANCH  34  35
ENDBRANCH  33  34
ENDBRANCH  32  33
ENDBRANCH   1  32
TORSDOF 20
ENDMDL
