MODEL 1
REMARK VINA RESULT:     -12.5      0.000      0.000
REMARK SMILES C[NH2+][C@@]1(C(=O)NCCCCCCNC(=O)c2ccc(-c3c4nc(c(-c5cc(S(=O)(=O)[O-])ccc5F)c5ccc([nH]5)c(-c5cc(S(=O)(=O)[O-])ccc5F)c5nc(c(-c6cc(S(=O)(=O)[O-])ccc6F)c6ccc3[nH]6)C=C5)C=C4)cc2)CC[C@H]([NH+]2CC[NH+](C)CC2)C1
REMARK SMILES IDX 10 1 9 2 8 3 7 4 6 5 4 6 5 7 3 9 79 10 89 11 80 12 81 13
REMARK SMILES IDX 2 14 1 15 82 18 83 19 88 20 84 22 87 23 85 24 86 25 11 27
REMARK SMILES IDX 12 28 13 29 14 30 15 32 16 33 17 34 78 35 18 36 77 37 19 38
REMARK SMILES IDX 20 39 21 40 71 41 22 42 76 43 70 44 72 45 23 46 75 47 69 48
REMARK SMILES IDX 68 49 24 51 56 52 36 53 55 54 37 55 40 56 54 57 73 58 38 59
REMARK SMILES IDX 39 60 53 62 74 63 41 64 25 65 26 66 34 67 27 68 33 69 35 70
REMARK SMILES IDX 32 71 28 72 29 73 30 74 31 75 57 76 58 77 66 78 59 79 65 80
REMARK SMILES IDX 67 81 64 82 60 83 61 84 62 85 63 86 42 87 43 88 51 89 44 90
REMARK SMILES IDX 50 91 52 92 49 93 45 94 46 95 47 96 48 97
REMARK H PARENT 6 8 2 16 2 17 82 21 85 26 13 31 72 50 40 61
REMARK Flexibility Score: inf
ROOT
ATOM      1  C   UNL A   1      31.815  30.551  26.318  1.00  0.00     0.002 C 
ENDROOT
BRANCH   1   2
ATOM      2  C   UNL A   1      32.261  29.465  27.328  1.00  0.00     0.002 C 
BRANCH   2   3
ATOM      3  C   UNL A   1      32.477  27.836  26.835  1.00  0.00     0.021 C 
BRANCH   3   4
ATOM      4  C   UNL A   1      31.458  26.403  25.638  1.00  0.00     0.116 C 
BRANCH   4   5
ATOM      5  N   UNL A   1      31.987  25.215  24.684  1.00  0.00    -0.351 N 
ATOM      6  C   UNL A   1      32.238  23.883  24.720  1.00  0.00     0.281 C 
ATOM      7  O   UNL A   1      32.910  23.475  23.760  1.00  0.00    -0.268 OA
ATOM      8  H   UNL A   1      32.195  25.571  23.791  1.00  0.00     0.163 HD
BRANCH   6   9
ATOM      9  C   UNL A   1      31.764  22.935  25.853  1.00  0.00     0.181 C 
ATOM     10  C   UNL A   1      32.327  23.451  27.184  1.00  0.00     0.085 C 
ATOM     11  C   UNL A   1      32.338  21.518  25.666  1.00  0.00     0.144 C 
ATOM     12  C   UNL A   1      33.328  22.386  27.616  1.00  0.00     0.072 C 
ATOM     13  C   UNL A   1      33.698  21.551  26.357  1.00  0.00     0.191 C 
BRANCH   9  14
ATOM     14  N   UNL A   1      30.282  22.902  25.763  1.00  0.00    -0.336 N 
ATOM     15  C   UNL A   1      29.518  22.582  26.944  1.00  0.00     0.331 C 
ATOM     16  H   UNL A   1      29.981  23.826  25.453  1.00  0.00     0.346 HD
ATOM     17  H   UNL A   1      30.092  22.127  25.128  1.00  0.00     0.346 HD
ENDBRANCH   9  14
BRANCH  13  18
ATOM     18  N   UNL A   1      34.854  21.951  25.535  1.00  0.00    -0.323 N 
ATOM     19  C   UNL A   1      35.825  20.513  24.934  1.00  0.00     0.324 C 
ATOM     20  C   UNL A   1      35.751  23.566  25.828  1.00  0.00     0.324 C 
ATOM     21  H   UNL A   1      34.385  22.353  24.722  1.00  0.00     0.348 HD
ATOM     22  C   UNL A   1      37.756  20.476  25.149  1.00  0.00     0.324 C 
ATOM     23  C   UNL A   1      37.741  23.557  25.981  1.00  0.00     0.324 C 
ATOM     24  N   UNL A   1      38.673  22.048  25.430  1.00  0.00    -0.328 N 
ATOM     25  C   UNL A   1      39.905  21.808  26.168  1.00  0.00     0.333 C 
ATOM     26  H   UNL A   1      38.897  22.347  24.481  1.00  0.00     0.348 HD
ENDBRANCH  13  18
ENDBRANCH   6   9
ENDBRANCH   4   5
ENDBRANCH   3   4
ENDBRANCH   2   3
ENDBRANCH   1   2
BRANCH   1  27
ATOM     27  C   UNL A   1      31.686  31.963  26.885  1.00  0.00     0.021 C 
BRANCH  27  28
ATOM     28  C   UNL A   1      33.020  32.552  27.297  1.00  0.00     0.116 C 
BRANCH  28  29
ATOM     29  N   UNL A   1      32.831  33.910  27.780  1.00  0.00    -0.352 N 
ATOM     30  C   UNL A   1      33.333  34.432  28.945  1.00  0.00     0.251 C 
ATOM     31  H   UNL A   1      32.293  34.514  27.217  1.00  0.00     0.163 HD
ATOM     32  O   UNL A   1      32.812  35.402  29.481  1.00  0.00    -0.269 OA
BRANCH  30  33
ATOM     33  C   UNL A   1      34.522  33.777  29.525  1.00  0.00     0.039 A 
ATOM     34  C   UNL A   1      35.797  34.256  29.229  1.00  0.00     0.014 A 
ATOM     35  C   UNL A   1      34.342  32.708  30.410  1.00  0.00     0.014 A 
ATOM     36  C   UNL A   1      36.902  33.655  29.832  1.00  0.00     0.010 A 
ATOM     37  C   UNL A   1      35.433  32.180  31.081  1.00  0.00     0.010 A 
ATOM     38  C   UNL A   1      36.726  32.618  30.763  1.00  0.00    -0.014 A 
BRANCH  38  39
ATOM     39  C   UNL A   1      37.884  31.903  31.349  1.00  0.00     0.031 A 
ATOM     40  C   UNL A   1      38.385  32.320  32.706  1.00  0.00     0.074 A 
ATOM     41  C   UNL A   1      38.503  30.933  30.650  1.00  0.00     0.049 A 
ATOM     42  N   UNL A   1      39.419  31.888  33.379  1.00  0.00    -0.248 NA
ATOM     43  C   UNL A   1      37.647  33.404  33.377  1.00  0.00     0.031 C 
ATOM     44  C   UNL A   1      38.128  30.488  29.306  1.00  0.00     0.029 A 
ATOM     45  N   UNL A   1      39.582  30.151  30.970  1.00  0.00    -0.354 N 
ATOM     46  C   UNL A   1      39.466  32.658  34.536  1.00  0.00     0.074 A 
ATOM     47  C   UNL A   1      38.408  33.639  34.432  1.00  0.00     0.031 C 
ATOM     48  C   UNL A   1      38.947  29.493  28.930  1.00  0.00     0.029 A 
ATOM     49  C   UNL A   1      39.928  29.257  29.984  1.00  0.00     0.049 A 
ATOM     50  H   UNL A   1      40.063  30.223  31.826  1.00  0.00     0.167 HD
ATOM     51  C   UNL A   1      40.293  32.536  35.603  1.00  0.00     0.034 A 
ATOM     52  C   UNL A   1      40.929  28.356  29.940  1.00  0.00     0.034 A 
ATOM     53  C   UNL A   1      41.322  31.531  35.690  1.00  0.00     0.049 A 
ATOM     54  C   UNL A   1      41.839  28.234  31.138  1.00  0.00     0.074 A 
ATOM     55  C   UNL A   1      42.180  31.263  36.740  1.00  0.00     0.029 A 
ATOM     56  N   UNL A   1      41.633  30.628  34.679  1.00  0.00    -0.354 N 
ATOM     57  N   UNL A   1      41.832  28.927  32.254  1.00  0.00    -0.248 NA
ATOM     58  C   UNL A   1      42.878  27.200  31.076  1.00  0.00     0.031 C 
ATOM     59  C   UNL A   1      43.055  30.247  36.338  1.00  0.00     0.029 A 
ATOM     60  C   UNL A   1      42.692  29.823  35.069  1.00  0.00     0.049 A 
ATOM     61  H   UNL A   1      41.169  30.569  33.813  1.00  0.00     0.167 HD
ATOM     62  C   UNL A   1      42.849  28.392  33.040  1.00  0.00     0.074 A 
ATOM     63  C   UNL A   1      43.433  27.308  32.274  1.00  0.00     0.031 C 
ATOM     64  C   UNL A   1      43.264  28.757  34.281  1.00  0.00     0.034 A 
BRANCH  51  65
ATOM     65  C   UNL A   1      40.123  33.527  36.732  1.00  0.00     0.023 A 
ATOM     66  C   UNL A   1      39.502  33.172  37.944  1.00  0.00     0.031 A 
ATOM     67  C   UNL A   1      40.542  34.861  36.579  1.00  0.00     0.131 A 
ATOM     68  C   UNL A   1      39.237  34.151  38.912  1.00  0.00     0.055 A 
ATOM     69  C   UNL A   1      40.357  35.812  37.584  1.00  0.00     0.041 A 
ATOM     70  F   UNL A   1      41.119  35.269  35.437  1.00  0.00    -0.206 F 
ATOM     71  C   UNL A   1      39.684  35.465  38.753  1.00  0.00     0.022 A 
BRANCH  68  72
ATOM     72  S   UNL A   1      38.155  33.723  40.304  1.00  0.00     0.124 S 
ATOM     73  O   UNL A   1      37.958  35.027  40.935  1.00  0.00    -0.237 OA
ATOM     74  O   UNL A   1      36.990  33.154  39.635  1.00  0.00    -0.237 OA
ATOM     75  O   UNL A   1      38.954  32.778  41.081  1.00  0.00    -0.744 OA
ENDBRANCH  68  72
ENDBRANCH  51  65
BRANCH  52  76
ATOM     76  C   UNL A   1      41.126  27.505  28.731  1.00  0.00     0.023 A 
ATOM     77  C   UNL A   1      42.144  27.781  27.806  1.00  0.00     0.031 A 
ATOM     78  C   UNL A   1      40.277  26.415  28.470  1.00  0.00     0.131 A 
ATOM     79  C   UNL A   1      42.260  27.006  26.640  1.00  0.00     0.055 A 
ATOM     80  C   UNL A   1      40.430  25.614  27.337  1.00  0.00     0.041 A 
ATOM     81  F   UNL A   1      39.291  26.101  29.326  1.00  0.00    -0.206 F 
ATOM     82  C   UNL A   1      41.419  25.916  26.406  1.00  0.00     0.022 A 
BRANCH  79  83
ATOM     83  S   UNL A   1      43.479  27.495  25.390  1.00  0.00     0.124 S 
ATOM     84  O   UNL A   1      44.201  26.246  25.174  1.00  0.00    -0.237 OA
ATOM     85  O   UNL A   1      42.627  27.941  24.293  1.00  0.00    -0.237 OA
ATOM     86  O   UNL A   1      44.241  28.551  26.053  1.00  0.00    -0.744 OA
ENDBRANCH  79  83
ENDBRANCH  52  76
BRANCH  64  87
ATOM     87  C   UNL A   1      44.377  27.946  34.895  1.00  0.00     0.023 A 
ATOM     88  C   UNL A   1      44.148  26.672  35.443  1.00  0.00     0.031 A 
ATOM     89  C   UNL A   1      45.685  28.460  34.936  1.00  0.00     0.131 A 
ATOM     90  C   UNL A   1      45.200  25.979  36.060  1.00  0.00     0.055 A 
ATOM     91  C   UNL A   1      46.741  27.737  35.491  1.00  0.00     0.041 A 
ATOM     92  F   UNL A   1      45.959  29.672  34.428  1.00  0.00    -0.206 F 
ATOM     93  C   UNL A   1      46.499  26.495  36.070  1.00  0.00     0.022 A 
BRANCH  90  94
ATOM     94  S   UNL A   1      44.828  24.435  36.935  1.00  0.00     0.124 S 
ATOM     95  O   UNL A   1      43.578  24.023  36.303  1.00  0.00    -0.237 OA
ATOM     96  O   UNL A   1      45.996  23.615  36.632  1.00  0.00    -0.237 OA
ATOM     97  O   UNL A   1      44.708  24.853  38.331  1.00  0.00    -0.744 OA
ENDBRANCH  90  94
ENDBRANCH  64  87
ENDBRANCH  38  39
ENDBRANCH  30  33
ENDBRANCH  28  29
ENDBRANCH  27  28
ENDBRANCH   1  27
TORSDOF 18
ENDMDL
MODEL 2
REMARK VINA RESULT:     -12.3      1.771      2.960
REMARK SMILES C[NH2+][C@@]1(C(=O)NCCCCCCNC(=O)c2ccc(-c3c4nc(c(-c5cc(S(=O)(=O)[O-])ccc5F)c5ccc([nH]5)c(-c5cc(S(=O)(=O)[O-])ccc5F)c5nc(c(-c6cc(S(=O)(=O)[O-])ccc6F)c6ccc3[nH]6)C=C5)C=C4)cc2)CC[C@H]([NH+]2CC[NH+](C)CC2)C1
REMARK SMILES IDX 10 1 9 2 8 3 7 4 6 5 4 6 5 7 3 9 79 10 89 11 80 12 81 13
REMARK SMILES IDX 2 14 1 15 82 18 83 19 88 20 84 22 87 23 85 24 86 25 11 27
REMARK SMILES IDX 12 28 13 29 14 30 15 32 16 33 17 34 78 35 18 36 77 37 19 38
REMARK SMILES IDX 20 39 21 40 71 41 22 42 76 43 70 44 72 45 23 46 75 47 69 48
REMARK SMILES IDX 68 49 24 51 56 52 36 53 55 54 37 55 40 56 54 57 73 58 38 59
REMARK SMILES IDX 39 60 53 62 74 63 41 64 25 65 26 66 34 67 27 68 33 69 35 70
REMARK SMILES IDX 32 71 28 72 29 73 30 74 31 75 57 76 58 77 66 78 59 79 65 80
REMARK SMILES IDX 67 81 64 82 60 83 61 84 62 85 63 86 42 87 43 88 51 89 44 90
REMARK SMILES IDX 50 91 52 92 49 93 45 94 46 95 47 96 48 97
REMARK H PARENT 6 8 2 16 2 17 82 21 85 26 13 31 72 50 40 61
REMARK Flexibility Score: inf
ROOT
ATOM      1  C   UNL A   1      35.411  33.400  28.019  1.00  0.00     0.002 C 
ENDROOT
BRANCH   1   2
ATOM      2  C   UNL A   1      34.948  32.046  28.612  1.00  0.00     0.002 C 
BRANCH   2   3
ATOM      3  C   UNL A   1      35.335  30.565  27.838  1.00  0.00     0.021 C 
BRANCH   3   4
ATOM      4  C   UNL A   1      34.400  29.187  26.514  1.00  0.00     0.116 C 
BRANCH   4   5
ATOM      5  N   UNL A   1      34.002  29.283  24.954  1.00  0.00    -0.351 N 
ATOM      6  C   UNL A   1      32.956  29.036  24.128  1.00  0.00     0.281 C 
ATOM      7  O   UNL A   1      33.259  29.031  22.925  1.00  0.00    -0.268 OA
ATOM      8  H   UNL A   1      34.763  29.631  24.436  1.00  0.00     0.163 HD
BRANCH   6   9
ATOM      9  C   UNL A   1      31.508  28.759  24.611  1.00  0.00     0.181 C 
ATOM     10  C   UNL A   1      31.567  28.292  26.072  1.00  0.00     0.085 C 
ATOM     11  C   UNL A   1      30.871  27.602  23.818  1.00  0.00     0.144 C 
ATOM     12  C   UNL A   1      31.122  26.835  26.028  1.00  0.00     0.072 C 
ATOM     13  C   UNL A   1      31.289  26.338  24.563  1.00  0.00     0.191 C 
BRANCH   9  14
ATOM     14  N   UNL A   1      30.753  30.016  24.378  1.00  0.00    -0.336 N 
ATOM     15  C   UNL A   1      29.645  30.003  23.455  1.00  0.00     0.331 C 
ATOM     16  H   UNL A   1      30.387  30.316  25.281  1.00  0.00     0.346 HD
ATOM     17  H   UNL A   1      31.435  30.633  23.937  1.00  0.00     0.346 HD
ENDBRANCH   9  14
BRANCH  13  18
ATOM     18  N   UNL A   1      32.555  25.707  24.149  1.00  0.00    -0.323 N 
ATOM     19  C   UNL A   1      32.302  24.318  22.976  1.00  0.00     0.324 C 
ATOM     20  C   UNL A   1      34.036  25.646  25.291  1.00  0.00     0.324 C 
ATOM     21  H   UNL A   1      32.987  26.467  23.622  1.00  0.00     0.348 HD
ATOM     22  C   UNL A   1      33.162  22.603  23.288  1.00  0.00     0.324 C 
ATOM     23  C   UNL A   1      34.975  23.907  25.568  1.00  0.00     0.324 C 
ATOM     24  N   UNL A   1      34.628  22.506  24.399  1.00  0.00    -0.328 N 
ATOM     25  C   UNL A   1      34.738  21.186  25.003  1.00  0.00     0.333 C 
ATOM     26  H   UNL A   1      35.405  22.652  23.754  1.00  0.00     0.348 HD
ENDBRANCH  13  18
ENDBRANCH   6   9
ENDBRANCH   4   5
ENDBRANCH   3   4
ENDBRANCH   2   3
ENDBRANCH   1   2
BRANCH   1  27
ATOM     27  C   UNL A   1      34.442  34.566  28.207  1.00  0.00     0.021 C 
BRANCH  27  28
ATOM     28  C   UNL A   1      33.212  34.182  29.004  1.00  0.00     0.116 C 
BRANCH  28  29
ATOM     29  N   UNL A   1      32.902  35.228  29.966  1.00  0.00    -0.352 N 
ATOM     30  C   UNL A   1      33.274  35.248  31.286  1.00  0.00     0.251 C 
ATOM     31  H   UNL A   1      32.377  35.993  29.639  1.00  0.00     0.163 HD
ATOM     32  O   UNL A   1      32.653  35.909  32.109  1.00  0.00    -0.269 OA
BRANCH  30  33
ATOM     33  C   UNL A   1      34.450  34.443  31.673  1.00  0.00     0.039 A 
ATOM     34  C   UNL A   1      34.280  33.159  32.185  1.00  0.00     0.014 A 
ATOM     35  C   UNL A   1      35.729  34.974  31.469  1.00  0.00     0.014 A 
ATOM     36  C   UNL A   1      35.408  32.398  32.492  1.00  0.00     0.010 A 
ATOM     37  C   UNL A   1      36.844  34.180  31.682  1.00  0.00     0.010 A 
ATOM     38  C   UNL A   1      36.695  32.902  32.239  1.00  0.00    -0.014 A 
BRANCH  38  39
ATOM     39  C   UNL A   1      37.909  32.153  32.639  1.00  0.00     0.031 A 
ATOM     40  C   UNL A   1      38.561  32.475  33.957  1.00  0.00     0.074 A 
ATOM     41  C   UNL A   1      38.443  31.239  31.807  1.00  0.00     0.049 A 
ATOM     42  N   UNL A   1      39.663  32.001  34.477  1.00  0.00    -0.248 NA
ATOM     43  C   UNL A   1      37.906  33.504  34.782  1.00  0.00     0.031 C 
ATOM     44  C   UNL A   1      37.918  30.889  30.486  1.00  0.00     0.029 A 
ATOM     45  N   UNL A   1      39.548  30.441  31.947  1.00  0.00    -0.354 N 
ATOM     46  C   UNL A   1      39.841  32.687  35.674  1.00  0.00     0.074 A 
ATOM     47  C   UNL A   1      38.782  33.667  35.759  1.00  0.00     0.031 C 
ATOM     48  C   UNL A   1      38.686  29.927  29.949  1.00  0.00     0.029 A 
ATOM     49  C   UNL A   1      39.778  29.621  30.867  1.00  0.00     0.049 A 
ATOM     50  H   UNL A   1      40.123  30.454  32.747  1.00  0.00     0.167 HD
ATOM     51  C   UNL A   1      40.782  32.493  36.629  1.00  0.00     0.034 A 
ATOM     52  C   UNL A   1      40.765  28.731  30.647  1.00  0.00     0.034 A 
ATOM     53  C   UNL A   1      41.811  31.490  36.528  1.00  0.00     0.049 A 
ATOM     54  C   UNL A   1      41.803  28.528  31.723  1.00  0.00     0.074 A 
ATOM     55  C   UNL A   1      42.781  31.151  37.453  1.00  0.00     0.029 A 
ATOM     56  N   UNL A   1      42.004  30.662  35.427  1.00  0.00    -0.354 N 
ATOM     57  N   UNL A   1      41.924  29.140  32.879  1.00  0.00    -0.248 NA
ATOM     58  C   UNL A   1      42.826  27.506  31.471  1.00  0.00     0.031 C 
ATOM     59  C   UNL A   1      43.603  30.171  36.884  1.00  0.00     0.029 A 
ATOM     60  C   UNL A   1      43.098  29.837  35.637  1.00  0.00     0.049 A 
ATOM     61  H   UNL A   1      41.446  30.663  34.616  1.00  0.00     0.167 HD
ATOM     62  C   UNL A   1      43.022  28.555  33.506  1.00  0.00     0.074 A 
ATOM     63  C   UNL A   1      43.512  27.531  32.604  1.00  0.00     0.031 C 
ATOM     64  C   UNL A   1      43.574  28.832  34.715  1.00  0.00     0.034 A 
BRANCH  51  65
ATOM     65  C   UNL A   1      40.744  33.400  37.838  1.00  0.00     0.023 A 
ATOM     66  C   UNL A   1      39.896  33.143  38.932  1.00  0.00     0.031 A 
ATOM     67  C   UNL A   1      41.528  34.567  37.879  1.00  0.00     0.131 A 
ATOM     68  C   UNL A   1      39.784  34.080  39.970  1.00  0.00     0.055 A 
ATOM     69  C   UNL A   1      41.481  35.450  38.960  1.00  0.00     0.041 A 
ATOM     70  F   UNL A   1      42.340  34.881  36.856  1.00  0.00    -0.206 F 
ATOM     71  C   UNL A   1      40.591  35.219  40.006  1.00  0.00     0.022 A 
BRANCH  68  72
ATOM     72  S   UNL A   1      38.453  33.871  41.185  1.00  0.00     0.124 S 
ATOM     73  O   UNL A   1      39.130  33.111  42.234  1.00  0.00    -0.237 OA
ATOM     74  O   UNL A   1      38.108  35.249  41.515  1.00  0.00    -0.237 OA
ATOM     75  O   UNL A   1      37.431  33.128  40.451  1.00  0.00    -0.744 OA
ENDBRANCH  68  72
ENDBRANCH  51  65
BRANCH  52  76
ATOM     76  C   UNL A   1      40.822  27.970  29.366  1.00  0.00     0.023 A 
ATOM     77  C   UNL A   1      41.747  28.300  28.364  1.00  0.00     0.031 A 
ATOM     78  C   UNL A   1      39.929  26.912  29.115  1.00  0.00     0.131 A 
ATOM     79  C   UNL A   1      41.730  27.612  27.139  1.00  0.00     0.055 A 
ATOM     80  C   UNL A   1      39.951  26.195  27.916  1.00  0.00     0.041 A 
ATOM     81  F   UNL A   1      39.029  26.548  30.041  1.00  0.00    -0.206 F 
ATOM     82  C   UNL A   1      40.848  26.553  26.914  1.00  0.00     0.022 A 
BRANCH  79  83
ATOM     83  S   UNL A   1      42.827  28.177  25.810  1.00  0.00     0.124 S 
ATOM     84  O   UNL A   1      42.646  29.622  25.870  1.00  0.00    -0.237 OA
ATOM     85  O   UNL A   1      44.122  27.672  26.251  1.00  0.00    -0.237 OA
ATOM     86  O   UNL A   1      42.280  27.528  24.620  1.00  0.00    -0.744 OA
ENDBRANCH  79  83
ENDBRANCH  52  76
BRANCH  64  87
ATOM     87  C   UNL A   1      44.747  27.986  35.141  1.00  0.00     0.023 A 
ATOM     88  C   UNL A   1      44.577  26.674  35.617  1.00  0.00     0.031 A 
ATOM     89  C   UNL A   1      46.053  28.503  35.073  1.00  0.00     0.131 A 
ATOM     90  C   UNL A   1      45.689  25.944  36.060  1.00  0.00     0.055 A 
ATOM     91  C   UNL A   1      47.162  27.747  35.454  1.00  0.00     0.041 A 
ATOM     92  F   UNL A   1      46.272  29.750  34.627  1.00  0.00    -0.206 F 
ATOM     93  C   UNL A   1      46.983  26.465  35.964  1.00  0.00     0.022 A 
BRANCH  90  94
ATOM     94  S   UNL A   1      45.413  24.339  36.857  1.00  0.00     0.124 S 
ATOM     95  O   UNL A   1      46.598  23.591  36.449  1.00  0.00    -0.237 OA
ATOM     96  O   UNL A   1      45.341  24.699  38.269  1.00  0.00    -0.237 OA
ATOM     97  O   UNL A   1      44.156  23.877  36.269  1.00  0.00    -0.744 OA
ENDBRANCH  90  94
ENDBRANCH  64  87
ENDBRANCH  38  39
ENDBRANCH  30  33
ENDBRANCH  28  29
ENDBRANCH  27  28
ENDBRANCH   1  27
TORSDOF 18
ENDMDL
MODEL 3
REMARK VINA RESULT:     -12.2      3.283      4.350
REMARK SMILES C[NH2+][C@@]1(C(=O)NCCCCCCNC(=O)c2ccc(-c3c4nc(c(-c5cc(S(=O)(=O)[O-])ccc5F)c5ccc([nH]5)c(-c5cc(S(=O)(=O)[O-])ccc5F)c5nc(c(-c6cc(S(=O)(=O)[O-])ccc6F)c6ccc3[nH]6)C=C5)C=C4)cc2)CC[C@H]([NH+]2CC[NH+](C)CC2)C1
REMARK SMILES IDX 10 1 9 2 8 3 7 4 6 5 4 6 5 7 3 9 79 10 89 11 80 12 81 13
REMARK SMILES IDX 2 14 1 15 82 18 83 19 88 20 84 22 87 23 85 24 86 25 11 27
REMARK SMILES IDX 12 28 13 29 14 30 15 32 16 33 17 34 78 35 18 36 77 37 19 38
REMARK SMILES IDX 20 39 21 40 71 41 22 42 76 43 70 44 72 45 23 46 75 47 69 48
REMARK SMILES IDX 68 49 24 51 56 52 36 53 55 54 37 55 40 56 54 57 73 58 38 59
REMARK SMILES IDX 39 60 53 62 74 63 41 64 25 65 26 66 34 67 27 68 33 69 35 70
REMARK SMILES IDX 32 71 28 72 29 73 30 74 31 75 57 76 58 77 66 78 59 79 65 80
REMARK SMILES IDX 67 81 64 82 60 83 61 84 62 85 63 86 42 87 43 88 51 89 44 90
REMARK SMILES IDX 50 91 52 92 49 93 45 94 46 95 47 96 48 97
REMARK H PARENT 6 8 2 16 2 17 82 21 85 26 13 31 72 50 40 61
REMARK Flexibility Score: inf
ROOT
ATOM      1  C   UNL A   1      31.715  29.770  25.633  1.00  0.00     0.002 C 
ENDROOT
BRANCH   1   2
ATOM      2  C   UNL A   1      31.663  29.002  24.290  1.00  0.00     0.002 C 
BRANCH   2   3
ATOM      3  C   UNL A   1      30.253  28.148  23.816  1.00  0.00     0.021 C 
BRANCH   3   4
ATOM      4  C   UNL A   1      29.567  26.134  23.781  1.00  0.00     0.116 C 
BRANCH   4   5
ATOM      5  N   UNL A   1      30.002  24.826  24.617  1.00  0.00    -0.351 N 
ATOM      6  C   UNL A   1      31.093  24.056  24.854  1.00  0.00     0.281 C 
ATOM      7  O   UNL A   1      30.829  22.967  25.389  1.00  0.00    -0.268 OA
ATOM      8  H   UNL A   1      29.229  24.475  25.115  1.00  0.00     0.163 HD
BRANCH   6   9
ATOM      9  C   UNL A   1      32.544  24.457  24.481  1.00  0.00     0.181 C 
ATOM     10  C   UNL A   1      32.671  24.449  22.951  1.00  0.00     0.085 C 
ATOM     11  C   UNL A   1      33.556  23.419  25.000  1.00  0.00     0.144 C 
ATOM     12  C   UNL A   1      33.620  23.294  22.652  1.00  0.00     0.072 C 
ATOM     13  C   UNL A   1      33.638  22.366  23.899  1.00  0.00     0.191 C 
BRANCH   9  14
ATOM     14  N   UNL A   1      32.781  25.772  25.129  1.00  0.00    -0.336 N 
ATOM     15  C   UNL A   1      34.048  26.432  24.923  1.00  0.00     0.331 C 
ATOM     16  H   UNL A   1      32.056  26.405  24.794  1.00  0.00     0.346 HD
ATOM     17  H   UNL A   1      32.773  25.559  26.126  1.00  0.00     0.346 HD
ENDBRANCH   9  14
BRANCH  13  18
ATOM     18  N   UNL A   1      32.690  21.240  23.981  1.00  0.00    -0.323 N 
ATOM     19  C   UNL A   1      32.790  20.348  25.582  1.00  0.00     0.324 C 
ATOM     20  C   UNL A   1      32.181  20.278  22.460  1.00  0.00     0.324 C 
ATOM     21  H   UNL A   1      31.799  21.736  23.973  1.00  0.00     0.348 HD
ATOM     22  C   UNL A   1      32.940  18.411  25.617  1.00  0.00     0.324 C 
ATOM     23  C   UNL A   1      32.261  18.284  22.501  1.00  0.00     0.324 C 
ATOM     24  N   UNL A   1      32.439  17.430  24.141  1.00  0.00    -0.328 N 
ATOM     25  C   UNL A   1      33.168  16.171  24.079  1.00  0.00     0.333 C 
ATOM     26  H   UNL A   1      31.452  17.245  24.322  1.00  0.00     0.348 HD
ENDBRANCH  13  18
ENDBRANCH   6   9
ENDBRANCH   4   5
ENDBRANCH   3   4
ENDBRANCH   2   3
ENDBRANCH   1   2
BRANCH   1  27
ATOM     27  C   UNL A   1      32.446  29.059  26.770  1.00  0.00     0.021 C 
BRANCH  27  28
ATOM     28  C   UNL A   1      33.828  29.627  27.023  1.00  0.00     0.116 C 
BRANCH  28  29
ATOM     29  N   UNL A   1      33.733  31.050  27.302  1.00  0.00    -0.352 N 
ATOM     30  C   UNL A   1      34.444  31.738  28.253  1.00  0.00     0.251 C 
ATOM     31  H   UNL A   1      33.099  31.571  26.757  1.00  0.00     0.163 HD
ATOM     32  O   UNL A   1      34.032  32.797  28.709  1.00  0.00    -0.269 OA
BRANCH  30  33
ATOM     33  C   UNL A   1      35.721  31.150  28.702  1.00  0.00     0.039 A 
ATOM     34  C   UNL A   1      36.929  31.748  28.350  1.00  0.00     0.014 A 
ATOM     35  C   UNL A   1      35.691  30.017  29.525  1.00  0.00     0.014 A 
ATOM     36  C   UNL A   1      38.119  31.205  28.832  1.00  0.00     0.010 A 
ATOM     37  C   UNL A   1      36.868  29.541  30.080  1.00  0.00     0.010 A 
ATOM     38  C   UNL A   1      38.096  30.102  29.702  1.00  0.00    -0.014 A 
BRANCH  38  39
ATOM     39  C   UNL A   1      39.346  29.451  30.156  1.00  0.00     0.031 A 
ATOM     40  C   UNL A   1      40.055  30.001  31.365  1.00  0.00     0.074 A 
ATOM     41  C   UNL A   1      39.861  28.419  29.462  1.00  0.00     0.049 A 
ATOM     42  N   UNL A   1      41.193  29.639  31.897  1.00  0.00    -0.248 NA
ATOM     43  C   UNL A   1      39.417  31.144  32.040  1.00  0.00     0.031 C 
ATOM     44  C   UNL A   1      39.279  27.843  28.247  1.00  0.00     0.029 A 
ATOM     45  N   UNL A   1      40.991  27.674  29.674  1.00  0.00    -0.354 N 
ATOM     46  C   UNL A   1      41.414  30.519  32.951  1.00  0.00     0.074 A 
ATOM     47  C   UNL A   1      40.336  31.483  32.928  1.00  0.00     0.031 C 
ATOM     48  C   UNL A   1      40.044  26.817  27.839  1.00  0.00     0.029 A 
ATOM     49  C   UNL A   1      41.188  26.688  28.736  1.00  0.00     0.049 A 
ATOM     50  H   UNL A   1      41.605  27.831  30.428  1.00  0.00     0.167 HD
ATOM     51  C   UNL A   1      42.406  30.505  33.874  1.00  0.00     0.034 A 
ATOM     52  C   UNL A   1      42.185  25.790  28.614  1.00  0.00     0.034 A 
ATOM     53  C   UNL A   1      43.454  29.515  33.887  1.00  0.00     0.049 A 
ATOM     54  C   UNL A   1      43.280  25.788  29.652  1.00  0.00     0.074 A 
ATOM     55  C   UNL A   1      44.476  29.353  34.803  1.00  0.00     0.029 A 
ATOM     56  N   UNL A   1      43.612  28.518  32.931  1.00  0.00    -0.354 N 
ATOM     57  N   UNL A   1      43.443  26.587  30.682  1.00  0.00    -0.248 NA
ATOM     58  C   UNL A   1      44.314  24.755  29.521  1.00  0.00     0.031 C 
ATOM     59  C   UNL A   1      45.293  28.305  34.363  1.00  0.00     0.029 A 
ATOM     60  C   UNL A   1      44.735  27.758  33.218  1.00  0.00     0.049 A 
ATOM     61  H   UNL A   1      43.014  28.373  32.163  1.00  0.00     0.167 HD
ATOM     62  C   UNL A   1      44.585  26.134  31.338  1.00  0.00     0.074 A 
ATOM     63  C   UNL A   1      45.055  24.981  30.595  1.00  0.00     0.031 C 
ATOM     64  C   UNL A   1      45.190  26.620  32.453  1.00  0.00     0.034 A 
BRANCH  51  65
ATOM     65  C   UNL A   1      42.405  31.601  34.915  1.00  0.00     0.023 A 
ATOM     66  C   UNL A   1      41.483  31.615  35.978  1.00  0.00     0.031 A 
ATOM     67  C   UNL A   1      43.305  32.677  34.817  1.00  0.00     0.131 A 
ATOM     68  C   UNL A   1      41.421  32.718  36.841  1.00  0.00     0.055 A 
ATOM     69  C   UNL A   1      43.299  33.730  35.735  1.00  0.00     0.041 A 
ATOM     70  F   UNL A   1      44.194  32.736  33.812  1.00  0.00    -0.206 F 
ATOM     71  C   UNL A   1      42.341  33.764  36.744  1.00  0.00     0.022 A 
BRANCH  68  72
ATOM     72  S   UNL A   1      40.019  32.846  37.985  1.00  0.00     0.124 S 
ATOM     73  O   UNL A   1      39.649  34.253  37.841  1.00  0.00    -0.237 OA
ATOM     74  O   UNL A   1      39.075  31.878  37.437  1.00  0.00    -0.237 OA
ATOM     75  O   UNL A   1      40.598  32.491  39.279  1.00  0.00    -0.744 OA
ENDBRANCH  68  72
ENDBRANCH  51  65
BRANCH  52  76
ATOM     76  C   UNL A   1      42.197  24.824  27.478  1.00  0.00     0.023 A 
ATOM     77  C   UNL A   1      41.445  23.641  27.521  1.00  0.00     0.031 A 
ATOM     78  C   UNL A   1      42.986  25.061  26.338  1.00  0.00     0.131 A 
ATOM     79  C   UNL A   1      41.531  22.716  26.467  1.00  0.00     0.055 A 
ATOM     80  C   UNL A   1      43.028  24.164  25.269  1.00  0.00     0.041 A 
ATOM     81  F   UNL A   1      43.720  26.181  26.240  1.00  0.00    -0.206 F 
ATOM     82  C   UNL A   1      42.307  22.976  25.335  1.00  0.00     0.022 A 
BRANCH  79  83
ATOM     83  S   UNL A   1      40.676  21.125  26.634  1.00  0.00     0.124 S 
ATOM     84  O   UNL A   1      39.337  21.457  26.162  1.00  0.00    -0.237 OA
ATOM     85  O   UNL A   1      41.469  20.263  25.765  1.00  0.00    -0.237 OA
ATOM     86  O   UNL A   1      40.780  20.832  28.062  1.00  0.00    -0.744 OA
ENDBRANCH  79  83
ENDBRANCH  52  76
BRANCH  64  87
ATOM     87  C   UNL A   1      46.403  25.876  32.951  1.00  0.00     0.023 A 
ATOM     88  C   UNL A   1      47.683  26.111  32.422  1.00  0.00     0.031 A 
ATOM     89  C   UNL A   1      46.273  24.914  33.969  1.00  0.00     0.131 A 
ATOM     90  C   UNL A   1      48.774  25.354  32.871  1.00  0.00     0.055 A 
ATOM     91  C   UNL A   1      47.373  24.210  34.459  1.00  0.00     0.041 A 
ATOM     92  F   UNL A   1      45.073  24.649  34.509  1.00  0.00    -0.206 F 
ATOM     93  C   UNL A   1      48.630  24.417  33.900  1.00  0.00     0.022 A 
BRANCH  90  94
ATOM     94  S   UNL A   1      50.367  25.537  32.026  1.00  0.00     0.124 S 
ATOM     95  O   UNL A   1      51.238  25.976  33.112  1.00  0.00    -0.237 OA
ATOM     96  O   UNL A   1      50.609  24.191  31.518  1.00  0.00    -0.237 OA
ATOM     97  O   UNL A   1      50.097  26.547  31.003  1.00  0.00    -0.744 OA
ENDBRANCH  90  94
ENDBRANCH  64  87
ENDBRANCH  38  39
ENDBRANCH  30  33
ENDBRANCH  28  29
ENDBRANCH  27  28
ENDBRANCH   1  27
TORSDOF 18
ENDMDL
