MODEL 1
REMARK VINA RESULT:     -12.4      0.000      0.000
REMARK SMILES Cc1cccc(NC(=O)C[C@H]([NH2+]C(C)C)C(=O)NCCCCCCNC(=O)c2ccc(-c3c4nc(c(-c5cc(S(=O)(=O)[O-])ccc5F)c5ccc([nH]5)c(-c5cc(S(=O)(=O)[O-])ccc5F)c5nc(c(-c6cc(S(=O)(=O)[O-])ccc6F)c6ccc3[nH]6)C=C5)C=C4)cc2)c1
REMARK SMILES IDX 21 1 20 2 19 3 18 4 16 5 17 6 11 8 10 9 8 10 7 11 9 13 6 14
REMARK SMILES IDX 1 15 2 16 3 17 91 18 4 19 5 20 12 21 13 24 14 25 15 26 22 27
REMARK SMILES IDX 23 28 24 29 25 30 26 31 27 33 28 34 29 35 90 36 30 37 89 38
REMARK SMILES IDX 31 39 32 40 33 41 83 42 34 43 88 44 82 45 84 46 35 47 87 48
REMARK SMILES IDX 81 49 80 50 36 52 68 53 48 54 67 55 49 56 52 57 66 58 85 59
REMARK SMILES IDX 50 60 51 61 65 63 86 64 53 65 37 66 38 67 46 68 39 69 45 70
REMARK SMILES IDX 47 71 44 72 40 73 41 74 42 75 43 76 69 77 70 78 78 79 71 80
REMARK SMILES IDX 77 81 79 82 76 83 72 84 73 85 74 86 75 87 54 88 55 89 63 90
REMARK SMILES IDX 56 91 62 92 64 93 61 94 57 95 58 96 59 97 60 98
REMARK H PARENT 18 7 7 12 12 22 12 23 25 32 84 51 52 62
REMARK Flexibility Score: inf
ROOT
ATOM      1  C   UNL A   1      35.064  20.884  25.467  1.00  0.00     0.002 C 
ENDROOT
BRANCH   1   2
ATOM      2  C   UNL A   1      34.074  19.877  24.886  1.00  0.00     0.021 C 
BRANCH   2   3
ATOM      3  C   UNL A   1      32.431  20.409  24.955  1.00  0.00     0.116 C 
BRANCH   3   4
ATOM      4  N   UNL A   1      31.498  21.815  26.170  1.00  0.00    -0.351 N 
ATOM      5  C   UNL A   1      30.938  23.055  26.487  1.00  0.00     0.278 C 
ATOM      6  O   UNL A   1      30.164  23.001  27.465  1.00  0.00    -0.268 OA
ATOM      7  H   UNL A   1      31.388  21.318  27.014  1.00  0.00     0.163 HD
BRANCH   5   8
ATOM      8  C   UNL A   1      31.173  24.448  25.876  1.00  0.00     0.282 C 
BRANCH   8   9
ATOM      9  C   UNL A   1      32.322  25.307  26.467  1.00  0.00     0.175 C 
BRANCH   9  10
ATOM     10  C   UNL A   1      33.418  25.831  25.529  1.00  0.00     0.230 C 
ATOM     11  N   UNL A   1      33.625  27.165  25.306  1.00  0.00    -0.326 N 
ATOM     12  H   UNL A   1      34.223  27.417  24.565  1.00  0.00     0.169 HD
ATOM     13  O   UNL A   1      34.138  25.030  24.919  1.00  0.00    -0.274 OA
BRANCH  11  14
ATOM     14  C   UNL A   1      33.048  28.195  26.052  1.00  0.00     0.041 A 
ATOM     15  C   UNL A   1      30.186  31.502  24.939  1.00  0.00     0.044 C 
ATOM     16  C   UNL A   1      31.272  30.752  25.655  1.00  0.00    -0.049 A 
ATOM     17  C   UNL A   1      32.365  31.659  26.788  1.00  0.00     0.003 A 
ATOM     18  C   UNL A   1      31.654  29.030  25.238  1.00  0.00     0.029 A 
ATOM     19  C   UNL A   1      33.714  30.792  27.650  1.00  0.00     0.002 A 
ATOM     20  C   UNL A   1      34.061  29.062  27.292  1.00  0.00     0.026 A 
ENDBRANCH  11  14
ENDBRANCH   9  10
ENDBRANCH   8   9
BRANCH   8  21
ATOM     21  N   UNL A   1      29.885  25.190  25.599  1.00  0.00    -0.334 N 
ATOM     22  H   UNL A   1      29.698  25.802  26.393  1.00  0.00     0.347 HD
ATOM     23  H   UNL A   1      29.175  24.471  25.455  1.00  0.00     0.347 HD
BRANCH  21  24
ATOM     24  C   UNL A   1      29.871  26.022  24.368  1.00  0.00     0.176 C 
ATOM     25  C   UNL A   1      30.543  25.260  23.215  1.00  0.00     0.075 C 
ATOM     26  C   UNL A   1      28.535  26.605  23.930  1.00  0.00     0.075 C 
ENDBRANCH  21  24
ENDBRANCH   8  21
ENDBRANCH   5   8
ENDBRANCH   3   4
ENDBRANCH   2   3
ENDBRANCH   1   2
BRANCH   1  27
ATOM     27  C   UNL A   1      35.745  21.771  24.426  1.00  0.00     0.002 C 
BRANCH  27  28
ATOM     28  C   UNL A   1      37.225  22.104  24.668  1.00  0.00     0.021 C 
BRANCH  28  29
ATOM     29  C   UNL A   1      37.491  23.213  25.679  1.00  0.00     0.116 C 
BRANCH  29  30
ATOM     30  N   UNL A   1      38.669  22.924  26.493  1.00  0.00    -0.352 N 
ATOM     31  C   UNL A   1      39.825  23.644  26.677  1.00  0.00     0.251 C 
ATOM     32  H   UNL A   1      38.626  22.076  26.992  1.00  0.00     0.163 HD
ATOM     33  O   UNL A   1      40.924  23.100  26.624  1.00  0.00    -0.269 OA
BRANCH  31  34
ATOM     34  C   UNL A   1      39.710  25.019  27.210  1.00  0.00     0.039 A 
ATOM     35  C   UNL A   1      40.356  26.100  26.595  1.00  0.00     0.014 A 
ATOM     36  C   UNL A   1      39.152  25.185  28.464  1.00  0.00     0.014 A 
ATOM     37  C   UNL A   1      40.535  27.284  27.312  1.00  0.00     0.010 A 
ATOM     38  C   UNL A   1      39.289  26.329  29.166  1.00  0.00     0.010 A 
ATOM     39  C   UNL A   1      40.052  27.336  28.616  1.00  0.00    -0.014 A 
BRANCH  39  40
ATOM     40  C   UNL A   1      40.161  28.424  29.551  1.00  0.00     0.031 A 
ATOM     41  C   UNL A   1      39.133  29.448  29.387  1.00  0.00     0.074 A 
ATOM     42  C   UNL A   1      41.000  28.206  30.589  1.00  0.00     0.049 A 
ATOM     43  N   UNL A   1      39.327  30.712  29.420  1.00  0.00    -0.248 NA
ATOM     44  C   UNL A   1      37.758  29.095  28.994  1.00  0.00     0.031 C 
ATOM     45  C   UNL A   1      41.165  28.882  31.862  1.00  0.00     0.029 A 
ATOM     46  N   UNL A   1      42.047  27.279  30.577  1.00  0.00    -0.354 N 
ATOM     47  C   UNL A   1      38.069  31.252  29.583  1.00  0.00     0.074 A 
ATOM     48  C   UNL A   1      37.164  30.292  29.014  1.00  0.00     0.031 C 
ATOM     49  C   UNL A   1      42.408  28.620  32.325  1.00  0.00     0.029 A 
ATOM     50  C   UNL A   1      43.101  27.821  31.320  1.00  0.00     0.049 A 
ATOM     51  H   UNL A   1      42.042  26.404  30.126  1.00  0.00     0.167 HD
ATOM     52  C   UNL A   1      37.903  32.240  30.506  1.00  0.00     0.034 A 
ATOM     53  C   UNL A   1      44.220  28.194  30.624  1.00  0.00     0.034 A 
ATOM     54  C   UNL A   1      39.171  32.450  31.216  1.00  0.00     0.049 A 
ATOM     55  C   UNL A   1      44.272  29.701  30.498  1.00  0.00     0.074 A 
ATOM     56  C   UNL A   1      39.616  32.051  32.466  1.00  0.00     0.029 A 
ATOM     57  N   UNL A   1      40.299  32.809  30.496  1.00  0.00    -0.354 N 
ATOM     58  N   UNL A   1      43.223  30.481  30.557  1.00  0.00    -0.248 NA
ATOM     59  C   UNL A   1      45.521  30.445  30.395  1.00  0.00     0.031 C 
ATOM     60  C   UNL A   1      41.038  32.112  32.458  1.00  0.00     0.029 A 
ATOM     61  C   UNL A   1      41.449  32.547  31.210  1.00  0.00     0.049 A 
ATOM     62  H   UNL A   1      40.282  33.200  29.593  1.00  0.00     0.167 HD
ATOM     63  C   UNL A   1      43.624  31.791  30.540  1.00  0.00     0.074 A 
ATOM     64  C   UNL A   1      45.074  31.711  30.442  1.00  0.00     0.031 C 
ATOM     65  C   UNL A   1      42.745  32.839  30.621  1.00  0.00     0.034 A 
BRANCH  52  66
ATOM     66  C   UNL A   1      36.597  32.781  31.032  1.00  0.00     0.023 A 
ATOM     67  C   UNL A   1      35.837  33.596  30.168  1.00  0.00     0.031 A 
ATOM     68  C   UNL A   1      36.016  32.540  32.293  1.00  0.00     0.131 A 
ATOM     69  C   UNL A   1      34.616  34.164  30.563  1.00  0.00     0.055 A 
ATOM     70  C   UNL A   1      34.807  33.124  32.699  1.00  0.00     0.041 A 
ATOM     71  F   UNL A   1      36.552  31.694  33.179  1.00  0.00    -0.206 F 
ATOM     72  C   UNL A   1      34.098  33.942  31.832  1.00  0.00     0.022 A 
BRANCH  69  73
ATOM     73  S   UNL A   1      33.720  35.184  29.368  1.00  0.00     0.124 S 
ATOM     74  O   UNL A   1      34.721  35.374  28.321  1.00  0.00    -0.237 OA
ATOM     75  O   UNL A   1      32.582  34.337  29.028  1.00  0.00    -0.237 OA
ATOM     76  O   UNL A   1      33.389  36.386  30.132  1.00  0.00    -0.744 OA
ENDBRANCH  69  73
ENDBRANCH  52  66
BRANCH  53  77
ATOM     77  C   UNL A   1      44.538  27.192  29.543  1.00  0.00     0.023 A 
ATOM     78  C   UNL A   1      44.434  27.656  28.207  1.00  0.00     0.031 A 
ATOM     79  C   UNL A   1      45.389  26.103  29.785  1.00  0.00     0.131 A 
ATOM     80  C   UNL A   1      45.323  27.193  27.223  1.00  0.00     0.055 A 
ATOM     81  C   UNL A   1      46.231  25.603  28.779  1.00  0.00     0.041 A 
ATOM     82  F   UNL A   1      45.537  25.610  31.023  1.00  0.00    -0.206 F 
ATOM     83  C   UNL A   1      46.248  26.189  27.513  1.00  0.00     0.022 A 
BRANCH  80  84
ATOM     84  S   UNL A   1      45.464  28.103  25.651  1.00  0.00     0.124 S 
ATOM     85  O   UNL A   1      45.527  29.489  26.102  1.00  0.00    -0.237 OA
ATOM     86  O   UNL A   1      46.694  27.569  25.068  1.00  0.00    -0.237 OA
ATOM     87  O   UNL A   1      44.249  27.732  24.930  1.00  0.00    -0.744 OA
ENDBRANCH  80  84
ENDBRANCH  53  77
BRANCH  65  88
ATOM     88  C   UNL A   1      43.056  34.264  30.223  1.00  0.00     0.023 A 
ATOM     89  C   UNL A   1      42.933  34.712  28.906  1.00  0.00     0.031 A 
ATOM     90  C   UNL A   1      43.409  35.260  31.169  1.00  0.00     0.131 A 
ATOM     91  C   UNL A   1      43.291  36.016  28.544  1.00  0.00     0.055 A 
ATOM     92  C   UNL A   1      43.637  36.594  30.827  1.00  0.00     0.041 A 
ATOM     93  F   UNL A   1      43.542  34.996  32.477  1.00  0.00    -0.206 F 
ATOM     94  C   UNL A   1      43.614  36.974  29.497  1.00  0.00     0.022 A 
BRANCH  91  95
ATOM     95  S   UNL A   1      43.447  36.369  26.779  1.00  0.00     0.124 S 
ATOM     96  O   UNL A   1      44.878  36.163  26.562  1.00  0.00    -0.237 OA
ATOM     97  O   UNL A   1      42.569  35.369  26.180  1.00  0.00    -0.237 OA
ATOM     98  O   UNL A   1      42.993  37.752  26.665  1.00  0.00    -0.744 OA
ENDBRANCH  91  95
ENDBRANCH  65  88
ENDBRANCH  39  40
ENDBRANCH  31  34
ENDBRANCH  29  30
ENDBRANCH  28  29
ENDBRANCH  27  28
ENDBRANCH   1  27
TORSDOF 21
ENDMDL
MODEL 2
REMARK VINA RESULT:     -11.8      3.856      9.343
REMARK SMILES Cc1cccc(NC(=O)C[C@H]([NH2+]C(C)C)C(=O)NCCCCCCNC(=O)c2ccc(-c3c4nc(c(-c5cc(S(=O)(=O)[O-])ccc5F)c5ccc([nH]5)c(-c5cc(S(=O)(=O)[O-])ccc5F)c5nc(c(-c6cc(S(=O)(=O)[O-])ccc6F)c6ccc3[nH]6)C=C5)C=C4)cc2)c1
REMARK SMILES IDX 21 1 20 2 19 3 18 4 16 5 17 6 11 8 10 9 8 10 7 11 9 13 6 14
REMARK SMILES IDX 1 15 2 16 3 17 91 18 4 19 5 20 12 21 13 24 14 25 15 26 22 27
REMARK SMILES IDX 23 28 24 29 25 30 26 31 27 33 28 34 29 35 90 36 30 37 89 38
REMARK SMILES IDX 31 39 32 40 33 41 83 42 34 43 88 44 82 45 84 46 35 47 87 48
REMARK SMILES IDX 81 49 80 50 36 52 68 53 48 54 67 55 49 56 52 57 66 58 85 59
REMARK SMILES IDX 50 60 51 61 65 63 86 64 53 65 37 66 38 67 46 68 39 69 45 70
REMARK SMILES IDX 47 71 44 72 40 73 41 74 42 75 43 76 69 77 70 78 78 79 71 80
REMARK SMILES IDX 77 81 79 82 76 83 72 84 73 85 74 86 75 87 54 88 55 89 63 90
REMARK SMILES IDX 56 91 62 92 64 93 61 94 57 95 58 96 59 97 60 98
REMARK H PARENT 18 7 7 12 12 22 12 23 25 32 84 51 52 62
REMARK Flexibility Score: inf
ROOT
ATOM      1  C   UNL A   1      32.715  29.551  24.885  1.00  0.00     0.002 C 
ENDROOT
BRANCH   1   2
ATOM      2  C   UNL A   1      32.158  28.148  24.649  1.00  0.00     0.021 C 
BRANCH   2   3
ATOM      3  C   UNL A   1      32.461  27.059  25.956  1.00  0.00     0.116 C 
BRANCH   3   4
ATOM      4  N   UNL A   1      31.529  25.282  26.500  1.00  0.00    -0.351 N 
ATOM      5  C   UNL A   1      31.170  23.938  26.367  1.00  0.00     0.278 C 
ATOM      6  O   UNL A   1      30.812  23.424  27.447  1.00  0.00    -0.268 OA
ATOM      7  H   UNL A   1      31.078  25.534  27.338  1.00  0.00     0.163 HD
BRANCH   5   8
ATOM      8  C   UNL A   1      31.085  23.040  25.120  1.00  0.00     0.282 C 
BRANCH   8   9
ATOM      9  C   UNL A   1      32.371  22.287  24.688  1.00  0.00     0.175 C 
BRANCH   9  10
ATOM     10  C   UNL A   1      32.680  22.141  23.191  1.00  0.00     0.230 C 
ATOM     11  N   UNL A   1      33.768  22.725  22.602  1.00  0.00    -0.326 N 
ATOM     12  H   UNL A   1      33.805  22.733  21.617  1.00  0.00     0.169 HD
ATOM     13  O   UNL A   1      31.913  21.496  22.466  1.00  0.00    -0.274 OA
BRANCH  11  14
ATOM     14  C   UNL A   1      34.831  23.310  23.294  1.00  0.00     0.041 A 
ATOM     15  C   UNL A   1      38.387  21.543  25.437  1.00  0.00     0.044 C 
ATOM     16  C   UNL A   1      37.287  22.496  25.071  1.00  0.00    -0.049 A 
ATOM     17  C   UNL A   1      36.879  23.848  26.214  1.00  0.00     0.003 A 
ATOM     18  C   UNL A   1      36.219  22.189  23.638  1.00  0.00     0.029 A 
ATOM     19  C   UNL A   1      35.530  25.005  25.820  1.00  0.00     0.002 A 
ATOM     20  C   UNL A   1      34.504  24.748  24.363  1.00  0.00     0.026 A 
ENDBRANCH  11  14
ENDBRANCH   9  10
ENDBRANCH   8   9
BRANCH   8  21
ATOM     21  N   UNL A   1      30.295  23.674  23.996  1.00  0.00    -0.334 N 
ATOM     22  H   UNL A   1      29.305  23.518  24.181  1.00  0.00     0.347 HD
ATOM     23  H   UNL A   1      30.630  23.232  23.139  1.00  0.00     0.347 HD
BRANCH  21  24
ATOM     24  C   UNL A   1      30.502  25.133  23.806  1.00  0.00     0.176 C 
ATOM     25  C   UNL A   1      31.305  25.384  22.520  1.00  0.00     0.075 C 
ATOM     26  C   UNL A   1      29.272  26.028  23.864  1.00  0.00     0.075 C 
ENDBRANCH  21  24
ENDBRANCH   8  21
ENDBRANCH   5   8
ENDBRANCH   3   4
ENDBRANCH   2   3
ENDBRANCH   1   2
BRANCH   1  27
ATOM     27  C   UNL A   1      31.799  30.463  25.699  1.00  0.00     0.002 C 
BRANCH  27  28
ATOM     28  C   UNL A   1      32.093  30.567  27.203  1.00  0.00     0.021 C 
BRANCH  28  29
ATOM     29  C   UNL A   1      33.473  30.089  27.637  1.00  0.00     0.116 C 
BRANCH  29  30
ATOM     30  N   UNL A   1      34.284  31.190  28.150  1.00  0.00    -0.352 N 
ATOM     31  C   UNL A   1      35.162  31.235  29.207  1.00  0.00     0.251 C 
ATOM     32  H   UNL A   1      34.186  32.037  27.659  1.00  0.00     0.163 HD
ATOM     33  O   UNL A   1      35.134  32.158  30.014  1.00  0.00    -0.269 OA
BRANCH  31  34
ATOM     34  C   UNL A   1      36.312  30.305  29.193  1.00  0.00     0.039 A 
ATOM     35  C   UNL A   1      36.690  29.590  30.339  1.00  0.00     0.014 A 
ATOM     36  C   UNL A   1      37.159  30.333  28.100  1.00  0.00     0.014 A 
ATOM     37  C   UNL A   1      37.965  29.027  30.401  1.00  0.00     0.010 A 
ATOM     38  C   UNL A   1      38.386  29.774  28.127  1.00  0.00     0.010 A 
ATOM     39  C   UNL A   1      38.809  29.201  29.307  1.00  0.00    -0.014 A 
BRANCH  39  40
ATOM     40  C   UNL A   1      40.169  28.753  29.167  1.00  0.00     0.031 A 
ATOM     41  C   UNL A   1      40.292  27.337  28.832  1.00  0.00     0.074 A 
ATOM     42  C   UNL A   1      41.091  29.739  29.089  1.00  0.00     0.049 A 
ATOM     43  N   UNL A   1      41.127  26.518  29.352  1.00  0.00    -0.248 NA
ATOM     44  C   UNL A   1      39.320  26.672  27.949  1.00  0.00     0.031 C 
ATOM     45  C   UNL A   1      42.476  29.741  28.656  1.00  0.00     0.029 A 
ATOM     46  N   UNL A   1      40.902  31.037  29.572  1.00  0.00    -0.354 N 
ATOM     47  C   UNL A   1      41.125  25.434  28.500  1.00  0.00     0.074 A 
ATOM     48  C   UNL A   1      39.830  25.439  27.877  1.00  0.00     0.031 C 
ATOM     49  C   UNL A   1      43.093  30.811  29.206  1.00  0.00     0.029 A 
ATOM     50  C   UNL A   1      42.130  31.487  30.069  1.00  0.00     0.049 A 
ATOM     51  H   UNL A   1      40.057  31.542  29.564  1.00  0.00     0.167 HD
ATOM     52  C   UNL A   1      42.323  24.897  28.133  1.00  0.00     0.034 A 
ATOM     53  C   UNL A   1      42.231  31.638  31.426  1.00  0.00     0.034 A 
ATOM     54  C   UNL A   1      43.406  25.709  28.702  1.00  0.00     0.049 A 
ATOM     55  C   UNL A   1      43.041  30.503  32.014  1.00  0.00     0.074 A 
ATOM     56  C   UNL A   1      44.239  26.668  28.151  1.00  0.00     0.029 A 
ATOM     57  N   UNL A   1      43.483  25.868  30.077  1.00  0.00    -0.354 N 
ATOM     58  N   UNL A   1      43.178  29.329  31.454  1.00  0.00    -0.248 NA
ATOM     59  C   UNL A   1      43.838  30.645  33.226  1.00  0.00     0.031 C 
ATOM     60  C   UNL A   1      44.764  27.450  29.218  1.00  0.00     0.029 A 
ATOM     61  C   UNL A   1      44.250  26.964  30.408  1.00  0.00     0.049 A 
ATOM     62  H   UNL A   1      43.047  25.275  30.731  1.00  0.00     0.167 HD
ATOM     63  C   UNL A   1      44.074  28.581  32.171  1.00  0.00     0.074 A 
ATOM     64  C   UNL A   1      44.460  29.455  33.268  1.00  0.00     0.031 C 
ATOM     65  C   UNL A   1      44.443  27.313  31.805  1.00  0.00     0.034 A 
BRANCH  52  66
ATOM     66  C   UNL A   1      42.570  23.901  27.028  1.00  0.00     0.023 A 
ATOM     67  C   UNL A   1      42.155  22.572  27.247  1.00  0.00     0.031 A 
ATOM     68  C   UNL A   1      43.145  24.148  25.766  1.00  0.00     0.131 A 
ATOM     69  C   UNL A   1      42.353  21.563  26.293  1.00  0.00     0.055 A 
ATOM     70  C   UNL A   1      43.364  23.138  24.817  1.00  0.00     0.041 A 
ATOM     71  F   UNL A   1      43.480  25.377  25.359  1.00  0.00    -0.206 F 
ATOM     72  C   UNL A   1      42.967  21.835  25.077  1.00  0.00     0.022 A 
BRANCH  69  73
ATOM     73  S   UNL A   1      41.770  19.894  26.677  1.00  0.00     0.124 S 
ATOM     74  O   UNL A   1      40.771  20.152  27.711  1.00  0.00    -0.237 OA
ATOM     75  O   UNL A   1      41.262  19.438  25.388  1.00  0.00    -0.237 OA
ATOM     76  O   UNL A   1      42.978  19.213  27.140  1.00  0.00    -0.744 OA
ENDBRANCH  69  73
ENDBRANCH  52  66
BRANCH  53  77
ATOM     77  C   UNL A   1      40.962  32.223  31.996  1.00  0.00     0.023 A 
ATOM     78  C   UNL A   1      40.128  31.330  32.715  1.00  0.00     0.031 A 
ATOM     79  C   UNL A   1      40.860  33.590  32.298  1.00  0.00     0.131 A 
ATOM     80  C   UNL A   1      39.409  31.779  33.837  1.00  0.00     0.055 A 
ATOM     81  C   UNL A   1      40.090  34.038  33.383  1.00  0.00     0.041 A 
ATOM     82  F   UNL A   1      41.618  34.492  31.657  1.00  0.00    -0.206 F 
ATOM     83  C   UNL A   1      39.415  33.127  34.195  1.00  0.00     0.022 A 
BRANCH  80  84
ATOM     84  S   UNL A   1      38.707  30.556  34.990  1.00  0.00     0.124 S 
ATOM     85  O   UNL A   1      38.142  29.563  34.083  1.00  0.00    -0.237 OA
ATOM     86  O   UNL A   1      39.871  30.121  35.761  1.00  0.00    -0.237 OA
ATOM     87  O   UNL A   1      37.735  31.329  35.759  1.00  0.00    -0.744 OA
ENDBRANCH  80  84
ENDBRANCH  53  77
BRANCH  65  88
ATOM     88  C   UNL A   1      45.097  26.303  32.722  1.00  0.00     0.023 A 
ATOM     89  C   UNL A   1      44.355  25.394  33.478  1.00  0.00     0.031 A 
ATOM     90  C   UNL A   1      46.505  26.154  32.810  1.00  0.00     0.131 A 
ATOM     91  C   UNL A   1      44.974  24.513  34.373  1.00  0.00     0.055 A 
ATOM     92  C   UNL A   1      47.124  25.185  33.601  1.00  0.00     0.041 A 
ATOM     93  F   UNL A   1      47.356  26.932  32.125  1.00  0.00    -0.206 F 
ATOM     94  C   UNL A   1      46.356  24.377  34.421  1.00  0.00     0.022 A 
BRANCH  91  95
ATOM     95  S   UNL A   1      43.912  23.656  35.556  1.00  0.00     0.124 S 
ATOM     96  O   UNL A   1      43.711  24.687  36.572  1.00  0.00    -0.237 OA
ATOM     97  O   UNL A   1      42.741  23.330  34.748  1.00  0.00    -0.237 OA
ATOM     98  O   UNL A   1      44.720  22.516  35.978  1.00  0.00    -0.744 OA
ENDBRANCH  91  95
ENDBRANCH  65  88
ENDBRANCH  39  40
ENDBRANCH  31  34
ENDBRANCH  29  30
ENDBRANCH  28  29
ENDBRANCH  27  28
ENDBRANCH   1  27
TORSDOF 21
ENDMDL
MODEL 3
REMARK VINA RESULT:     -11.7      3.324      9.375
REMARK SMILES Cc1cccc(NC(=O)C[C@H]([NH2+]C(C)C)C(=O)NCCCCCCNC(=O)c2ccc(-c3c4nc(c(-c5cc(S(=O)(=O)[O-])ccc5F)c5ccc([nH]5)c(-c5cc(S(=O)(=O)[O-])ccc5F)c5nc(c(-c6cc(S(=O)(=O)[O-])ccc6F)c6ccc3[nH]6)C=C5)C=C4)cc2)c1
REMARK SMILES IDX 21 1 20 2 19 3 18 4 16 5 17 6 11 8 10 9 8 10 7 11 9 13 6 14
REMARK SMILES IDX 1 15 2 16 3 17 91 18 4 19 5 20 12 21 13 24 14 25 15 26 22 27
REMARK SMILES IDX 23 28 24 29 25 30 26 31 27 33 28 34 29 35 90 36 30 37 89 38
REMARK SMILES IDX 31 39 32 40 33 41 83 42 34 43 88 44 82 45 84 46 35 47 87 48
REMARK SMILES IDX 81 49 80 50 36 52 68 53 48 54 67 55 49 56 52 57 66 58 85 59
REMARK SMILES IDX 50 60 51 61 65 63 86 64 53 65 37 66 38 67 46 68 39 69 45 70
REMARK SMILES IDX 47 71 44 72 40 73 41 74 42 75 43 76 69 77 70 78 78 79 71 80
REMARK SMILES IDX 77 81 79 82 76 83 72 84 73 85 74 86 75 87 54 88 55 89 63 90
REMARK SMILES IDX 56 91 62 92 64 93 61 94 57 95 58 96 59 97 60 98
REMARK H PARENT 18 7 7 12 12 22 12 23 25 32 84 51 52 62
REMARK Flexibility Score: inf
ROOT
ATOM      1  C   UNL A   1      32.008  25.459  24.953  1.00  0.00     0.002 C 
ENDROOT
BRANCH   1   2
ATOM      2  C   UNL A   1      30.614  25.034  25.410  1.00  0.00     0.021 C 
BRANCH   2   3
ATOM      3  C   UNL A   1      30.598  23.529  26.261  1.00  0.00     0.116 C 
BRANCH   3   4
ATOM      4  N   UNL A   1      32.137  22.226  26.763  1.00  0.00    -0.351 N 
ATOM      5  C   UNL A   1      33.432  21.702  26.714  1.00  0.00     0.278 C 
ATOM      6  O   UNL A   1      33.717  21.018  27.718  1.00  0.00    -0.268 OA
ATOM      7  H   UNL A   1      31.700  21.631  27.416  1.00  0.00     0.163 HD
BRANCH   5   8
ATOM      8  C   UNL A   1      34.504  21.779  25.612  1.00  0.00     0.282 C 
BRANCH   8   9
ATOM      9  C   UNL A   1      35.043  23.184  25.231  1.00  0.00     0.175 C 
BRANCH   9  10
ATOM     10  C   UNL A   1      36.062  23.305  24.089  1.00  0.00     0.230 C 
ATOM     11  N   UNL A   1      37.414  23.293  24.301  1.00  0.00    -0.326 N 
ATOM     12  H   UNL A   1      37.996  23.549  23.549  1.00  0.00     0.169 HD
ATOM     13  O   UNL A   1      35.666  23.446  22.925  1.00  0.00    -0.274 OA
BRANCH  11  14
ATOM     14  C   UNL A   1      38.027  22.945  25.506  1.00  0.00     0.041 A 
ATOM     15  C   UNL A   1      40.578  25.295  28.393  1.00  0.00     0.044 C 
ATOM     16  C   UNL A   1      40.008  24.135  27.631  1.00  0.00    -0.049 A 
ATOM     17  C   UNL A   1      40.874  22.538  27.684  1.00  0.00     0.003 A 
ATOM     18  C   UNL A   1      38.616  24.355  26.490  1.00  0.00     0.029 A 
ATOM     19  C   UNL A   1      40.231  21.116  26.747  1.00  0.00     0.002 A 
ATOM     20  C   UNL A   1      38.808  21.307  25.660  1.00  0.00     0.026 A 
ENDBRANCH  11  14
ENDBRANCH   9  10
ENDBRANCH   8   9
BRANCH   8  21
ATOM     21  N   UNL A   1      34.215  20.858  24.448  1.00  0.00    -0.334 N 
ATOM     22  H   UNL A   1      35.055  20.805  23.873  1.00  0.00     0.347 HD
ATOM     23  H   UNL A   1      33.410  21.262  23.968  1.00  0.00     0.347 HD
BRANCH  21  24
ATOM     24  C   UNL A   1      33.817  19.472  24.806  1.00  0.00     0.176 C 
ATOM     25  C   UNL A   1      32.442  19.150  24.200  1.00  0.00     0.075 C 
ATOM     26  C   UNL A   1      34.815  18.359  24.516  1.00  0.00     0.075 C 
ENDBRANCH  21  24
ENDBRANCH   8  21
ENDBRANCH   5   8
ENDBRANCH   3   4
ENDBRANCH   2   3
ENDBRANCH   1   2
BRANCH   1  27
ATOM     27  C   UNL A   1      32.401  26.877  25.367  1.00  0.00     0.002 C 
BRANCH  27  28
ATOM     28  C   UNL A   1      33.568  27.518  24.603  1.00  0.00     0.021 C 
BRANCH  28  29
ATOM     29  C   UNL A   1      34.360  28.567  25.373  1.00  0.00     0.116 C 
BRANCH  29  30
ATOM     30  N   UNL A   1      33.521  29.700  25.753  1.00  0.00    -0.352 N 
ATOM     31  C   UNL A   1      33.239  30.227  26.991  1.00  0.00     0.251 C 
ATOM     32  H   UNL A   1      33.087  30.162  24.999  1.00  0.00     0.163 HD
ATOM     33  O   UNL A   1      32.088  30.510  27.311  1.00  0.00    -0.269 OA
BRANCH  31  34
ATOM     34  C   UNL A   1      34.370  30.701  27.818  1.00  0.00     0.039 A 
ATOM     35  C   UNL A   1      34.848  32.016  27.722  1.00  0.00     0.014 A 
ATOM     36  C   UNL A   1      35.108  29.760  28.511  1.00  0.00     0.014 A 
ATOM     37  C   UNL A   1      36.116  32.318  28.219  1.00  0.00     0.010 A 
ATOM     38  C   UNL A   1      36.325  30.035  29.023  1.00  0.00     0.010 A 
ATOM     39  C   UNL A   1      36.852  31.288  28.797  1.00  0.00    -0.014 A 
BRANCH  39  40
ATOM     40  C   UNL A   1      38.187  31.354  29.331  1.00  0.00     0.031 A 
ATOM     41  C   UNL A   1      39.054  30.267  28.886  1.00  0.00     0.074 A 
ATOM     42  C   UNL A   1      38.511  32.528  29.919  1.00  0.00     0.049 A 
ATOM     43  N   UNL A   1      39.861  29.606  29.627  1.00  0.00    -0.248 NA
ATOM     44  C   UNL A   1      38.951  29.713  27.526  1.00  0.00     0.031 C 
ATOM     45  C   UNL A   1      39.788  33.104  30.297  1.00  0.00     0.029 A 
ATOM     46  N   UNL A   1      37.581  33.436  30.433  1.00  0.00    -0.354 N 
ATOM     47  C   UNL A   1      40.699  28.964  28.741  1.00  0.00     0.074 A 
ATOM     48  C   UNL A   1      39.933  28.807  27.535  1.00  0.00     0.031 C 
ATOM     49  C   UNL A   1      39.570  34.029  31.258  1.00  0.00     0.029 A 
ATOM     50  C   UNL A   1      38.145  34.019  31.574  1.00  0.00     0.049 A 
ATOM     51  H   UNL A   1      36.691  33.630  30.060  1.00  0.00     0.167 HD
ATOM     52  C   UNL A   1      42.039  28.985  28.985  1.00  0.00     0.034 A 
ATOM     53  C   UNL A   1      37.589  33.685  32.779  1.00  0.00     0.034 A 
ATOM     54  C   UNL A   1      42.297  29.817  30.168  1.00  0.00     0.049 A 
ATOM     55  C   UNL A   1      38.488  32.713  33.512  1.00  0.00     0.074 A 
ATOM     56  C   UNL A   1      42.762  31.114  30.311  1.00  0.00     0.029 A 
ATOM     57  N   UNL A   1      41.711  29.475  31.377  1.00  0.00    -0.354 N 
ATOM     58  N   UNL A   1      39.353  31.926  32.927  1.00  0.00    -0.248 NA
ATOM     59  C   UNL A   1      38.548  32.633  34.966  1.00  0.00     0.031 C 
ATOM     60  C   UNL A   1      42.382  31.568  31.605  1.00  0.00     0.029 A 
ATOM     61  C   UNL A   1      41.693  30.549  32.240  1.00  0.00     0.049 A 
ATOM     62  H   UNL A   1      41.355  28.583  31.590  1.00  0.00     0.167 HD
ATOM     63  C   UNL A   1      40.095  31.274  33.876  1.00  0.00     0.074 A 
ATOM     64  C   UNL A   1      39.552  31.757  35.136  1.00  0.00     0.031 C 
ATOM     65  C   UNL A   1      41.104  30.402  33.560  1.00  0.00     0.034 A 
BRANCH  52  66
ATOM     66  C   UNL A   1      43.142  28.587  28.035  1.00  0.00     0.023 A 
ATOM     67  C   UNL A   1      43.636  27.271  28.129  1.00  0.00     0.031 A 
ATOM     68  C   UNL A   1      43.725  29.375  27.024  1.00  0.00     0.131 A 
ATOM     69  C   UNL A   1      44.671  26.804  27.305  1.00  0.00     0.055 A 
ATOM     70  C   UNL A   1      44.775  28.919  26.213  1.00  0.00     0.041 A 
ATOM     71  F   UNL A   1      43.286  30.603  26.728  1.00  0.00    -0.206 F 
ATOM     72  C   UNL A   1      45.255  27.625  26.350  1.00  0.00     0.022 A 
BRANCH  69  73
ATOM     73  S   UNL A   1      45.218  25.091  27.506  1.00  0.00     0.124 S 
ATOM     74  O   UNL A   1      45.549  25.042  28.927  1.00  0.00    -0.237 OA
ATOM     75  O   UNL A   1      44.040  24.338  27.089  1.00  0.00    -0.237 OA
ATOM     76  O   UNL A   1      46.363  24.995  26.601  1.00  0.00    -0.744 OA
ENDBRANCH  69  73
ENDBRANCH  52  66
BRANCH  53  77
ATOM     77  C   UNL A   1      36.086  33.610  32.674  1.00  0.00     0.023 A 
ATOM     78  C   UNL A   1      35.389  34.843  32.742  1.00  0.00     0.031 A 
ATOM     79  C   UNL A   1      35.453  32.545  32.013  1.00  0.00     0.131 A 
ATOM     80  C   UNL A   1      34.227  35.045  31.978  1.00  0.00     0.055 A 
ATOM     81  C   UNL A   1      34.258  32.739  31.303  1.00  0.00     0.041 A 
ATOM     82  F   UNL A   1      36.052  31.349  31.910  1.00  0.00    -0.206 F 
ATOM     83  C   UNL A   1      33.677  34.005  31.229  1.00  0.00     0.022 A 
BRANCH  80  84
ATOM     84  S   UNL A   1      33.606  36.741  31.736  1.00  0.00     0.124 S 
ATOM     85  O   UNL A   1      33.822  36.948  30.309  1.00  0.00    -0.237 OA
ATOM     86  O   UNL A   1      32.210  36.646  32.161  1.00  0.00    -0.237 OA
ATOM     87  O   UNL A   1      34.448  37.543  32.621  1.00  0.00    -0.744 OA
ENDBRANCH  80  84
ENDBRANCH  53  77
BRANCH  65  88
ATOM     88  C   UNL A   1      41.687  29.373  34.504  1.00  0.00     0.023 A 
ATOM     89  C   UNL A   1      42.578  29.718  35.522  1.00  0.00     0.031 A 
ATOM     90  C   UNL A   1      41.302  28.008  34.473  1.00  0.00     0.131 A 
ATOM     91  C   UNL A   1      43.160  28.743  36.341  1.00  0.00     0.055 A 
ATOM     92  C   UNL A   1      41.781  27.058  35.378  1.00  0.00     0.041 A 
ATOM     93  F   UNL A   1      40.435  27.524  33.573  1.00  0.00    -0.206 F 
ATOM     94  C   UNL A   1      42.747  27.417  36.301  1.00  0.00     0.022 A 
BRANCH  91  95
ATOM     95  S   UNL A   1      44.561  29.252  37.361  1.00  0.00     0.124 S 
ATOM     96  O   UNL A   1      44.696  28.112  38.266  1.00  0.00    -0.237 OA
ATOM     97  O   UNL A   1      45.627  29.405  36.376  1.00  0.00    -0.237 OA
ATOM     98  O   UNL A   1      44.101  30.489  37.984  1.00  0.00    -0.744 OA
ENDBRANCH  91  95
ENDBRANCH  65  88
ENDBRANCH  39  40
ENDBRANCH  31  34
ENDBRANCH  29  30
ENDBRANCH  28  29
ENDBRANCH  27  28
ENDBRANCH   1  27
TORSDOF 21
ENDMDL
