MODEL 1
REMARK VINA RESULT:     -12.2      0.000      0.000
REMARK SMILES C[C@H](C(=O)NCCCCCCNC(=O)c1ccc(-c2c3nc(c(-c4cc(S(=O)(=O)[O-])ccc4F)c4ccc([nH]4)c(-c4cc(S(=O)(=O)[O-])ccc4F)c4nc(c(-c5cc(S(=O)(=O)[O-])ccc5F)c5ccc2[nH]5)C=C4)C=C3)cc1)c1ccc(-c2ccccc2)c(F)c1
REMARK SMILES IDX 9 1 8 2 7 3 6 4 5 5 3 6 4 7 2 9 1 10 78 11 79 12 90 13 80 14
REMARK SMILES IDX 88 15 81 16 89 17 82 18 83 19 87 20 84 21 86 22 85 23 10 24
REMARK SMILES IDX 11 25 12 26 13 27 14 29 15 30 16 31 77 32 17 33 76 34 18 35
REMARK SMILES IDX 19 36 20 37 70 38 21 39 75 40 69 41 71 42 22 43 74 44 68 45
REMARK SMILES IDX 67 46 23 48 55 49 35 50 54 51 36 52 39 53 53 54 72 55 37 56
REMARK SMILES IDX 38 57 52 59 73 60 40 61 24 62 25 63 33 64 26 65 32 66 34 67
REMARK SMILES IDX 31 68 27 69 28 70 29 71 30 72 56 73 57 74 65 75 58 76 64 77
REMARK SMILES IDX 66 78 63 79 59 80 60 81 61 82 62 83 41 84 42 85 50 86 43 87
REMARK SMILES IDX 49 88 51 89 48 90 44 91 45 92 46 93 47 94
REMARK H PARENT 5 8 12 28 71 47 39 58
REMARK Flexibility Score: inf
ROOT
ATOM      1  C   UNL A   1      36.286  23.038  23.509  1.00  0.00     0.002 C 
ENDROOT
BRANCH   1   2
ATOM      2  C   UNL A   1      34.974  23.823  23.390  1.00  0.00     0.002 C 
BRANCH   2   3
ATOM      3  C   UNL A   1      34.724  24.837  24.513  1.00  0.00     0.021 C 
BRANCH   3   4
ATOM      4  C   UNL A   1      33.520  25.744  24.263  1.00  0.00     0.116 C 
BRANCH   4   5
ATOM      5  N   UNL A   1      32.775  25.966  25.488  1.00  0.00    -0.356 N 
ATOM      6  C   UNL A   1      31.482  25.653  25.793  1.00  0.00     0.227 C 
ATOM      7  O   UNL A   1      31.032  26.060  26.867  1.00  0.00    -0.274 OA
ATOM      8  H   UNL A   1      33.279  26.409  26.208  1.00  0.00     0.163 HD
BRANCH   6   9
ATOM      9  C   UNL A   1      30.648  24.808  24.823  1.00  0.00     0.105 C 
ATOM     10  C   UNL A   1      30.449  25.591  23.516  1.00  0.00     0.023 C 
BRANCH   9  11
ATOM     11  C   UNL A   1      31.257  23.431  24.596  1.00  0.00    -0.033 A 
ATOM     12  C   UNL A   1      31.559  22.565  25.655  1.00  0.00     0.005 A 
ATOM     13  C   UNL A   1      31.515  22.981  23.295  1.00  0.00     0.044 A 
ATOM     14  C   UNL A   1      32.110  21.298  25.416  1.00  0.00     0.012 A 
ATOM     15  C   UNL A   1      32.030  21.704  23.063  1.00  0.00     0.131 A 
ATOM     16  C   UNL A   1      32.350  20.834  24.112  1.00  0.00     0.017 A 
ATOM     17  F   UNL A   1      32.202  21.327  21.786  1.00  0.00    -0.206 F 
BRANCH  16  18
ATOM     18  C   UNL A   1      32.923  19.497  23.870  1.00  0.00    -0.015 A 
ATOM     19  C   UNL A   1      34.049  19.047  24.582  1.00  0.00     0.009 A 
ATOM     20  C   UNL A   1      32.369  18.629  22.912  1.00  0.00     0.009 A 
ATOM     21  C   UNL A   1      34.605  17.788  24.340  1.00  0.00     0.001 A 
ATOM     22  C   UNL A   1      32.921  17.368  22.670  1.00  0.00     0.001 A 
ATOM     23  C   UNL A   1      34.042  16.950  23.381  1.00  0.00     0.000 A 
ENDBRANCH  16  18
ENDBRANCH   9  11
ENDBRANCH   6   9
ENDBRANCH   4   5
ENDBRANCH   3   4
ENDBRANCH   2   3
ENDBRANCH   1   2
BRANCH   1  24
ATOM     24  C   UNL A   1      36.187  21.730  24.298  1.00  0.00     0.021 C 
BRANCH  24  25
ATOM     25  C   UNL A   1      36.790  21.790  25.699  1.00  0.00     0.116 C 
BRANCH  25  26
ATOM     26  N   UNL A   1      37.877  20.835  25.862  1.00  0.00    -0.352 N 
ATOM     27  C   UNL A   1      39.199  21.057  26.151  1.00  0.00     0.251 C 
ATOM     28  H   UNL A   1      37.625  19.890  25.747  1.00  0.00     0.163 HD
ATOM     29  O   UNL A   1      40.013  20.144  26.018  1.00  0.00    -0.269 OA
BRANCH  27  30
ATOM     30  C   UNL A   1      39.647  22.394  26.597  1.00  0.00     0.039 A 
ATOM     31  C   UNL A   1      40.666  22.484  27.548  1.00  0.00     0.014 A 
ATOM     32  C   UNL A   1      39.066  23.557  26.079  1.00  0.00     0.014 A 
ATOM     33  C   UNL A   1      41.160  23.738  27.916  1.00  0.00     0.010 A 
ATOM     34  C   UNL A   1      39.606  24.803  26.396  1.00  0.00     0.010 A 
ATOM     35  C   UNL A   1      40.669  24.905  27.306  1.00  0.00    -0.014 A 
BRANCH  35  36
ATOM     36  C   UNL A   1      41.295  26.229  27.571  1.00  0.00     0.031 A 
ATOM     37  C   UNL A   1      42.679  26.537  27.069  1.00  0.00     0.074 A 
ATOM     38  C   UNL A   1      40.631  27.128  28.327  1.00  0.00     0.049 A 
ATOM     39  N   UNL A   1      43.404  27.608  27.259  1.00  0.00    -0.248 NA
ATOM     40  C   UNL A   1      43.342  25.499  26.262  1.00  0.00     0.031 C 
ATOM     41  C   UNL A   1      39.297  26.926  28.903  1.00  0.00     0.029 A 
ATOM     42  N   UNL A   1      40.982  28.386  28.753  1.00  0.00    -0.354 N 
ATOM     43  C   UNL A   1      44.611  27.373  26.609  1.00  0.00     0.074 A 
ATOM     44  C   UNL A   1      44.534  26.039  26.052  1.00  0.00     0.031 C 
ATOM     45  C   UNL A   1      38.938  28.025  29.585  1.00  0.00     0.029 A 
ATOM     46  C   UNL A   1      40.033  28.988  29.551  1.00  0.00     0.049 A 
ATOM     47  H   UNL A   1      41.833  28.817  28.511  1.00  0.00     0.167 HD
ATOM     48  C   UNL A   1      45.677  28.200  26.482  1.00  0.00     0.034 A 
ATOM     49  C   UNL A   1      40.052  30.169  30.202  1.00  0.00     0.034 A 
ATOM     50  C   UNL A   1      45.732  29.533  27.032  1.00  0.00     0.049 A 
ATOM     51  C   UNL A   1      41.272  31.049  30.070  1.00  0.00     0.074 A 
ATOM     52  C   UNL A   1      46.732  30.480  26.889  1.00  0.00     0.029 A 
ATOM     53  N   UNL A   1      44.760  30.104  27.844  1.00  0.00    -0.354 N 
ATOM     54  N   UNL A   1      42.370  30.841  29.381  1.00  0.00    -0.248 NA
ATOM     55  C   UNL A   1      41.251  32.326  30.796  1.00  0.00     0.031 C 
ATOM     56  C   UNL A   1      46.408  31.584  27.683  1.00  0.00     0.029 A 
ATOM     57  C   UNL A   1      45.164  31.368  28.250  1.00  0.00     0.049 A 
ATOM     58  H   UNL A   1      43.910  29.675  28.093  1.00  0.00     0.167 HD
ATOM     59  C   UNL A   1      43.156  31.975  29.572  1.00  0.00     0.074 A 
ATOM     60  C   UNL A   1      42.395  32.873  30.412  1.00  0.00     0.031 C 
ATOM     61  C   UNL A   1      44.398  32.249  29.098  1.00  0.00     0.034 A 
BRANCH  48  62
ATOM     62  C   UNL A   1      46.891  27.690  25.745  1.00  0.00     0.023 A 
ATOM     63  C   UNL A   1      47.089  27.935  24.377  1.00  0.00     0.031 A 
ATOM     64  C   UNL A   1      47.890  26.984  26.441  1.00  0.00     0.131 A 
ATOM     65  C   UNL A   1      48.241  27.446  23.739  1.00  0.00     0.055 A 
ATOM     66  C   UNL A   1      49.064  26.561  25.817  1.00  0.00     0.041 A 
ATOM     67  F   UNL A   1      47.744  26.702  27.746  1.00  0.00    -0.206 F 
ATOM     68  C   UNL A   1      49.242  26.787  24.455  1.00  0.00     0.022 A 
BRANCH  65  69
ATOM     69  S   UNL A   1      48.372  27.606  21.937  1.00  0.00     0.124 S 
ATOM     70  O   UNL A   1      49.567  28.433  21.799  1.00  0.00    -0.237 OA
ATOM     71  O   UNL A   1      48.501  26.219  21.505  1.00  0.00    -0.237 OA
ATOM     72  O   UNL A   1      47.122  28.262  21.560  1.00  0.00    -0.744 OA
ENDBRANCH  65  69
ENDBRANCH  48  62
BRANCH  49  73
ATOM     73  C   UNL A   1      38.912  30.583  31.074  1.00  0.00     0.023 A 
ATOM     74  C   UNL A   1      37.879  31.394  30.580  1.00  0.00     0.031 A 
ATOM     75  C   UNL A   1      38.887  30.252  32.441  1.00  0.00     0.131 A 
ATOM     76  C   UNL A   1      36.910  31.909  31.455  1.00  0.00     0.055 A 
ATOM     77  C   UNL A   1      37.878  30.704  33.294  1.00  0.00     0.041 A 
ATOM     78  F   UNL A   1      39.849  29.481  32.973  1.00  0.00    -0.206 F 
ATOM     79  C   UNL A   1      36.894  31.556  32.807  1.00  0.00     0.022 A 
BRANCH  76  80
ATOM     80  S   UNL A   1      35.758  33.163  30.832  1.00  0.00     0.124 S 
ATOM     81  O   UNL A   1      34.643  32.340  30.376  1.00  0.00    -0.237 OA
ATOM     82  O   UNL A   1      35.515  33.970  32.023  1.00  0.00    -0.237 OA
ATOM     83  O   UNL A   1      36.518  33.827  29.775  1.00  0.00    -0.744 OA
ENDBRANCH  76  80
ENDBRANCH  49  73
BRANCH  61  84
ATOM     84  C   UNL A   1      44.988  33.592  29.456  1.00  0.00     0.023 A 
ATOM     85  C   UNL A   1      44.775  34.729  28.657  1.00  0.00     0.031 A 
ATOM     86  C   UNL A   1      45.784  33.734  30.607  1.00  0.00     0.131 A 
ATOM     87  C   UNL A   1      45.401  35.940  28.983  1.00  0.00     0.055 A 
ATOM     88  C   UNL A   1      46.348  34.960  30.966  1.00  0.00     0.041 A 
ATOM     89  F   UNL A   1      46.026  32.682  31.406  1.00  0.00    -0.206 F 
ATOM     90  C   UNL A   1      46.169  36.068  30.144  1.00  0.00     0.022 A 
BRANCH  87  91
ATOM     91  S   UNL A   1      45.279  37.324  27.817  1.00  0.00     0.124 S 
ATOM     92  O   UNL A   1      43.846  37.597  27.819  1.00  0.00    -0.237 OA
ATOM     93  O   UNL A   1      46.121  38.338  28.445  1.00  0.00    -0.237 OA
ATOM     94  O   UNL A   1      45.803  36.769  26.571  1.00  0.00    -0.744 OA
ENDBRANCH  87  91
ENDBRANCH  61  84
ENDBRANCH  35  36
ENDBRANCH  27  30
ENDBRANCH  25  26
ENDBRANCH  24  25
ENDBRANCH   1  24
TORSDOF 18
ENDMDL
MODEL 2
REMARK VINA RESULT:     -12.2      5.477      8.887
REMARK SMILES C[C@H](C(=O)NCCCCCCNC(=O)c1ccc(-c2c3nc(c(-c4cc(S(=O)(=O)[O-])ccc4F)c4ccc([nH]4)c(-c4cc(S(=O)(=O)[O-])ccc4F)c4nc(c(-c5cc(S(=O)(=O)[O-])ccc5F)c5ccc2[nH]5)C=C4)C=C3)cc1)c1ccc(-c2ccccc2)c(F)c1
REMARK SMILES IDX 9 1 8 2 7 3 6 4 5 5 3 6 4 7 2 9 1 10 78 11 79 12 90 13 80 14
REMARK SMILES IDX 88 15 81 16 89 17 82 18 83 19 87 20 84 21 86 22 85 23 10 24
REMARK SMILES IDX 11 25 12 26 13 27 14 29 15 30 16 31 77 32 17 33 76 34 18 35
REMARK SMILES IDX 19 36 20 37 70 38 21 39 75 40 69 41 71 42 22 43 74 44 68 45
REMARK SMILES IDX 67 46 23 48 55 49 35 50 54 51 36 52 39 53 53 54 72 55 37 56
REMARK SMILES IDX 38 57 52 59 73 60 40 61 24 62 25 63 33 64 26 65 32 66 34 67
REMARK SMILES IDX 31 68 27 69 28 70 29 71 30 72 56 73 57 74 65 75 58 76 64 77
REMARK SMILES IDX 66 78 63 79 59 80 60 81 61 82 62 83 41 84 42 85 50 86 43 87
REMARK SMILES IDX 49 88 51 89 48 90 44 91 45 92 46 93 47 94
REMARK H PARENT 5 8 12 28 71 47 39 58
REMARK Flexibility Score: inf
ROOT
ATOM      1  C   UNL A   1      32.079  30.023  25.757  1.00  0.00     0.002 C 
ENDROOT
BRANCH   1   2
ATOM      2  C   UNL A   1      31.748  28.686  26.432  1.00  0.00     0.002 C 
BRANCH   2   3
ATOM      3  C   UNL A   1      32.967  27.848  26.836  1.00  0.00     0.021 C 
BRANCH   3   4
ATOM      4  C   UNL A   1      33.164  26.599  25.977  1.00  0.00     0.116 C 
BRANCH   4   5
ATOM      5  N   UNL A   1      32.214  25.566  26.340  1.00  0.00    -0.356 N 
ATOM      6  C   UNL A   1      31.312  24.896  25.565  1.00  0.00     0.227 C 
ATOM      7  O   UNL A   1      30.516  24.143  26.132  1.00  0.00    -0.274 OA
ATOM      8  H   UNL A   1      32.220  25.308  27.291  1.00  0.00     0.163 HD
BRANCH   6   9
ATOM      9  C   UNL A   1      31.323  25.079  24.042  1.00  0.00     0.105 C 
ATOM     10  C   UNL A   1      30.624  23.879  23.386  1.00  0.00     0.023 C 
BRANCH   9  11
ATOM     11  C   UNL A   1      30.719  26.413  23.624  1.00  0.00    -0.033 A 
ATOM     12  C   UNL A   1      29.376  26.731  23.864  1.00  0.00     0.005 A 
ATOM     13  C   UNL A   1      31.514  27.380  22.996  1.00  0.00     0.044 A 
ATOM     14  C   UNL A   1      28.848  27.971  23.477  1.00  0.00     0.012 A 
ATOM     15  C   UNL A   1      30.991  28.626  22.646  1.00  0.00     0.131 A 
ATOM     16  C   UNL A   1      29.647  28.953  22.867  1.00  0.00     0.017 A 
ATOM     17  F   UNL A   1      31.828  29.518  22.094  1.00  0.00    -0.206 F 
BRANCH  16  18
ATOM     18  C   UNL A   1      29.085  30.257  22.470  1.00  0.00    -0.015 A 
ATOM     19  C   UNL A   1      28.557  30.462  21.184  1.00  0.00     0.009 A 
ATOM     20  C   UNL A   1      29.068  31.344  23.362  1.00  0.00     0.009 A 
ATOM     21  C   UNL A   1      28.042  31.704  20.800  1.00  0.00     0.001 A 
ATOM     22  C   UNL A   1      28.551  32.586  22.982  1.00  0.00     0.001 A 
ATOM     23  C   UNL A   1      28.042  32.766  21.700  1.00  0.00     0.000 A 
ENDBRANCH  16  18
ENDBRANCH   9  11
ENDBRANCH   6   9
ENDBRANCH   4   5
ENDBRANCH   3   4
ENDBRANCH   2   3
ENDBRANCH   1   2
BRANCH   1  24
ATOM     24  C   UNL A   1      31.694  31.266  26.563  1.00  0.00     0.021 C 
BRANCH  24  25
ATOM     25  C   UNL A   1      32.866  31.963  27.249  1.00  0.00     0.116 C 
BRANCH  25  26
ATOM     26  N   UNL A   1      32.609  33.382  27.452  1.00  0.00    -0.352 N 
ATOM     27  C   UNL A   1      33.139  34.243  28.378  1.00  0.00     0.251 C 
ATOM     28  H   UNL A   1      31.956  33.782  26.832  1.00  0.00     0.163 HD
ATOM     29  O   UNL A   1      32.627  35.349  28.545  1.00  0.00    -0.269 OA
BRANCH  27  30
ATOM     30  C   UNL A   1      34.306  33.833  29.189  1.00  0.00     0.039 A 
ATOM     31  C   UNL A   1      34.107  32.985  30.280  1.00  0.00     0.014 A 
ATOM     32  C   UNL A   1      35.594  34.280  28.873  1.00  0.00     0.014 A 
ATOM     33  C   UNL A   1      35.207  32.520  31.005  1.00  0.00     0.010 A 
ATOM     34  C   UNL A   1      36.695  33.761  29.554  1.00  0.00     0.010 A 
ATOM     35  C   UNL A   1      36.514  32.863  30.617  1.00  0.00    -0.014 A 
BRANCH  35  36
ATOM     36  C   UNL A   1      37.696  32.248  31.278  1.00  0.00     0.031 A 
ATOM     37  C   UNL A   1      38.438  31.115  30.623  1.00  0.00     0.074 A 
ATOM     38  C   UNL A   1      38.055  32.675  32.508  1.00  0.00     0.049 A 
ATOM     39  N   UNL A   1      39.446  30.418  31.080  1.00  0.00    -0.248 NA
ATOM     40  C   UNL A   1      37.978  30.700  29.288  1.00  0.00     0.031 C 
ATOM     41  C   UNL A   1      37.385  33.741  33.259  1.00  0.00     0.029 A 
ATOM     42  N   UNL A   1      39.060  32.264  33.349  1.00  0.00    -0.354 N 
ATOM     43  C   UNL A   1      39.734  29.475  30.100  1.00  0.00     0.074 A 
ATOM     44  C   UNL A   1      38.768  29.665  29.039  1.00  0.00     0.031 C 
ATOM     45  C   UNL A   1      38.010  33.912  34.435  1.00  0.00     0.029 A 
ATOM     46  C   UNL A   1      39.084  32.932  34.554  1.00  0.00     0.049 A 
ATOM     47  H   UNL A   1      39.703  31.557  33.113  1.00  0.00     0.167 HD
ATOM     48  C   UNL A   1      40.721  28.546  30.085  1.00  0.00     0.034 A 
ATOM     49  C   UNL A   1      39.864  32.760  35.640  1.00  0.00     0.034 A 
ATOM     50  C   UNL A   1      41.686  28.380  31.145  1.00  0.00     0.049 A 
ATOM     51  C   UNL A   1      40.929  31.691  35.605  1.00  0.00     0.074 A 
ATOM     52  C   UNL A   1      42.773  27.525  31.189  1.00  0.00     0.029 A 
ATOM     53  N   UNL A   1      41.672  29.064  32.354  1.00  0.00    -0.354 N 
ATOM     54  N   UNL A   1      41.238  30.864  34.632  1.00  0.00    -0.248 NA
ATOM     55  C   UNL A   1      41.756  31.536  36.809  1.00  0.00     0.031 C 
ATOM     56  C   UNL A   1      43.362  27.627  32.453  1.00  0.00     0.029 A 
ATOM     57  C   UNL A   1      42.700  28.611  33.167  1.00  0.00     0.049 A 
ATOM     58  H   UNL A   1      41.028  29.768  32.596  1.00  0.00     0.167 HD
ATOM     59  C   UNL A   1      42.312  30.112  35.102  1.00  0.00     0.074 A 
ATOM     60  C   UNL A   1      42.616  30.604  36.428  1.00  0.00     0.031 C 
ATOM     61  C   UNL A   1      42.985  29.103  34.493  1.00  0.00     0.034 A 
BRANCH  48  62
ATOM     62  C   UNL A   1      40.802  27.612  28.903  1.00  0.00     0.023 A 
ATOM     63  C   UNL A   1      41.751  27.783  27.881  1.00  0.00     0.031 A 
ATOM     64  C   UNL A   1      39.942  26.501  28.825  1.00  0.00     0.131 A 
ATOM     65  C   UNL A   1      41.792  26.880  26.807  1.00  0.00     0.055 A 
ATOM     66  C   UNL A   1      40.033  25.569  27.790  1.00  0.00     0.041 A 
ATOM     67  F   UNL A   1      39.001  26.299  29.762  1.00  0.00    -0.206 F 
ATOM     68  C   UNL A   1      40.960  25.759  26.770  1.00  0.00     0.022 A 
BRANCH  65  69
ATOM     69  S   UNL A   1      42.891  27.240  25.409  1.00  0.00     0.124 S 
ATOM     70  O   UNL A   1      44.118  27.636  26.092  1.00  0.00    -0.237 OA
ATOM     71  O   UNL A   1      42.934  25.964  24.705  1.00  0.00    -0.237 OA
ATOM     72  O   UNL A   1      42.202  28.318  24.702  1.00  0.00    -0.744 OA
ENDBRANCH  65  69
ENDBRANCH  48  62
BRANCH  49  73
ATOM     73  C   UNL A   1      39.654  33.577  36.873  1.00  0.00     0.023 A 
ATOM     74  C   UNL A   1      40.427  34.722  37.124  1.00  0.00     0.031 A 
ATOM     75  C   UNL A   1      38.743  33.172  37.866  1.00  0.00     0.131 A 
ATOM     76  C   UNL A   1      40.330  35.376  38.362  1.00  0.00     0.055 A 
ATOM     77  C   UNL A   1      38.596  33.871  39.066  1.00  0.00     0.041 A 
ATOM     78  F   UNL A   1      37.978  32.084  37.684  1.00  0.00    -0.206 F 
ATOM     79  C   UNL A   1      39.409  34.967  39.329  1.00  0.00     0.022 A 
BRANCH  76  80
ATOM     80  S   UNL A   1      41.531  36.680  38.749  1.00  0.00     0.124 S 
ATOM     81  O   UNL A   1      42.190  36.866  37.461  1.00  0.00    -0.237 OA
ATOM     82  O   UNL A   1      40.665  37.768  39.190  1.00  0.00    -0.237 OA
ATOM     83  O   UNL A   1      42.359  36.080  39.794  1.00  0.00    -0.744 OA
ENDBRANCH  76  80
ENDBRANCH  49  73
BRANCH  61  84
ATOM     84  C   UNL A   1      44.139  28.493  35.253  1.00  0.00     0.023 A 
ATOM     85  C   UNL A   1      45.457  28.955  35.090  1.00  0.00     0.031 A 
ATOM     86  C   UNL A   1      43.918  27.426  36.143  1.00  0.00     0.131 A 
ATOM     87  C   UNL A   1      46.510  28.313  35.757  1.00  0.00     0.055 A 
ATOM     88  C   UNL A   1      44.962  26.837  36.858  1.00  0.00     0.041 A 
ATOM     89  F   UNL A   1      42.682  26.940  36.336  1.00  0.00    -0.206 F 
ATOM     90  C   UNL A   1      46.269  27.271  36.656  1.00  0.00     0.022 A 
BRANCH  87  91
ATOM     91  S   UNL A   1      48.213  28.794  35.360  1.00  0.00     0.124 S 
ATOM     92  O   UNL A   1      48.405  29.961  36.213  1.00  0.00    -0.237 OA
ATOM     93  O   UNL A   1      48.970  27.602  35.730  1.00  0.00    -0.237 OA
ATOM     94  O   UNL A   1      48.164  29.075  33.926  1.00  0.00    -0.744 OA
ENDBRANCH  87  91
ENDBRANCH  61  84
ENDBRANCH  35  36
ENDBRANCH  27  30
ENDBRANCH  25  26
ENDBRANCH  24  25
ENDBRANCH   1  24
TORSDOF 18
ENDMDL
MODEL 3
REMARK VINA RESULT:     -12.2      5.250      8.094
REMARK SMILES C[C@H](C(=O)NCCCCCCNC(=O)c1ccc(-c2c3nc(c(-c4cc(S(=O)(=O)[O-])ccc4F)c4ccc([nH]4)c(-c4cc(S(=O)(=O)[O-])ccc4F)c4nc(c(-c5cc(S(=O)(=O)[O-])ccc5F)c5ccc2[nH]5)C=C4)C=C3)cc1)c1ccc(-c2ccccc2)c(F)c1
REMARK SMILES IDX 9 1 8 2 7 3 6 4 5 5 3 6 4 7 2 9 1 10 78 11 79 12 90 13 80 14
REMARK SMILES IDX 88 15 81 16 89 17 82 18 83 19 87 20 84 21 86 22 85 23 10 24
REMARK SMILES IDX 11 25 12 26 13 27 14 29 15 30 16 31 77 32 17 33 76 34 18 35
REMARK SMILES IDX 19 36 20 37 70 38 21 39 75 40 69 41 71 42 22 43 74 44 68 45
REMARK SMILES IDX 67 46 23 48 55 49 35 50 54 51 36 52 39 53 53 54 72 55 37 56
REMARK SMILES IDX 38 57 52 59 73 60 40 61 24 62 25 63 33 64 26 65 32 66 34 67
REMARK SMILES IDX 31 68 27 69 28 70 29 71 30 72 56 73 57 74 65 75 58 76 64 77
REMARK SMILES IDX 66 78 63 79 59 80 60 81 61 82 62 83 41 84 42 85 50 86 43 87
REMARK SMILES IDX 49 88 51 89 48 90 44 91 45 92 46 93 47 94
REMARK H PARENT 5 8 12 28 71 47 39 58
REMARK Flexibility Score: inf
ROOT
ATOM      1  C   UNL A   1      32.130  27.743  27.210  1.00  0.00     0.002 C 
ENDROOT
BRANCH   1   2
ATOM      2  C   UNL A   1      32.169  26.366  26.537  1.00  0.00     0.002 C 
BRANCH   2   3
ATOM      3  C   UNL A   1      33.466  26.054  25.780  1.00  0.00     0.021 C 
BRANCH   3   4
ATOM      4  C   UNL A   1      33.721  24.559  25.591  1.00  0.00     0.116 C 
BRANCH   4   5
ATOM      5  N   UNL A   1      34.295  24.293  24.286  1.00  0.00    -0.356 N 
ATOM      6  C   UNL A   1      33.704  23.816  23.152  1.00  0.00     0.227 C 
ATOM      7  O   UNL A   1      34.433  23.551  22.193  1.00  0.00    -0.274 OA
ATOM      8  H   UNL A   1      35.258  24.485  24.207  1.00  0.00     0.163 HD
BRANCH   6   9
ATOM      9  C   UNL A   1      32.181  23.643  23.095  1.00  0.00     0.105 C 
ATOM     10  C   UNL A   1      31.739  22.700  24.224  1.00  0.00     0.023 C 
BRANCH   9  11
ATOM     11  C   UNL A   1      31.453  24.981  23.128  1.00  0.00    -0.033 A 
ATOM     12  C   UNL A   1      31.903  26.093  22.405  1.00  0.00     0.005 A 
ATOM     13  C   UNL A   1      30.281  25.126  23.881  1.00  0.00     0.044 A 
ATOM     14  C   UNL A   1      31.207  27.309  22.446  1.00  0.00     0.012 A 
ATOM     15  C   UNL A   1      29.574  26.329  23.888  1.00  0.00     0.131 A 
ATOM     16  C   UNL A   1      30.019  27.453  23.182  1.00  0.00     0.017 A 
ATOM     17  F   UNL A   1      28.432  26.374  24.593  1.00  0.00    -0.206 F 
BRANCH  16  18
ATOM     18  C   UNL A   1      29.290  28.734  23.212  1.00  0.00    -0.015 A 
ATOM     19  C   UNL A   1      29.898  29.907  23.694  1.00  0.00     0.009 A 
ATOM     20  C   UNL A   1      27.958  28.825  22.771  1.00  0.00     0.009 A 
ATOM     21  C   UNL A   1      29.201  31.118  23.742  1.00  0.00     0.001 A 
ATOM     22  C   UNL A   1      27.260  30.036  22.816  1.00  0.00     0.001 A 
ATOM     23  C   UNL A   1      27.881  31.181  23.305  1.00  0.00     0.000 A 
ENDBRANCH  16  18
ENDBRANCH   9  11
ENDBRANCH   6   9
ENDBRANCH   4   5
ENDBRANCH   3   4
ENDBRANCH   2   3
ENDBRANCH   1   2
BRANCH   1  24
ATOM     24  C   UNL A   1      31.766  28.906  26.283  1.00  0.00     0.021 C 
BRANCH  24  25
ATOM     25  C   UNL A   1      32.931  29.833  25.945  1.00  0.00     0.116 C 
BRANCH  25  26
ATOM     26  N   UNL A   1      32.688  31.195  26.397  1.00  0.00    -0.352 N 
ATOM     27  C   UNL A   1      33.364  31.941  27.328  1.00  0.00     0.251 C 
ATOM     28  H   UNL A   1      31.923  31.647  25.971  1.00  0.00     0.163 HD
ATOM     29  O   UNL A   1      32.870  32.987  27.746  1.00  0.00    -0.269 OA
BRANCH  27  30
ATOM     30  C   UNL A   1      34.670  31.476  27.844  1.00  0.00     0.039 A 
ATOM     31  C   UNL A   1      35.712  32.397  27.974  1.00  0.00     0.014 A 
ATOM     32  C   UNL A   1      34.867  30.139  28.203  1.00  0.00     0.014 A 
ATOM     33  C   UNL A   1      36.924  31.994  28.539  1.00  0.00     0.010 A 
ATOM     34  C   UNL A   1      36.052  29.755  28.830  1.00  0.00     0.010 A 
ATOM     35  C   UNL A   1      37.087  30.683  29.018  1.00  0.00    -0.014 A 
BRANCH  35  36
ATOM     36  C   UNL A   1      38.311  30.287  29.766  1.00  0.00     0.031 A 
ATOM     37  C   UNL A   1      39.248  29.249  29.209  1.00  0.00     0.074 A 
ATOM     38  C   UNL A   1      38.538  30.824  30.983  1.00  0.00     0.049 A 
ATOM     39  N   UNL A   1      40.323  28.736  29.749  1.00  0.00    -0.248 NA
ATOM     40  C   UNL A   1      38.925  28.704  27.881  1.00  0.00     0.031 C 
ATOM     41  C   UNL A   1      37.679  31.812  31.643  1.00  0.00     0.029 A 
ATOM     42  N   UNL A   1      39.548  30.613  31.890  1.00  0.00    -0.354 N 
ATOM     43  C   UNL A   1      40.800  27.801  28.837  1.00  0.00     0.074 A 
ATOM     44  C   UNL A   1      39.872  27.789  27.726  1.00  0.00     0.031 C 
ATOM     45  C   UNL A   1      38.208  32.134  32.834  1.00  0.00     0.029 A 
ATOM     46  C   UNL A   1      39.409  31.335  33.055  1.00  0.00     0.049 A 
ATOM     47  H   UNL A   1      40.300  30.000  31.724  1.00  0.00     0.167 HD
ATOM     48  C   UNL A   1      41.914  27.033  28.919  1.00  0.00     0.034 A 
ATOM     49  C   UNL A   1      40.148  31.337  34.183  1.00  0.00     0.034 A 
ATOM     50  C   UNL A   1      42.835  27.067  30.029  1.00  0.00     0.049 A 
ATOM     51  C   UNL A   1      41.361  30.441  34.255  1.00  0.00     0.074 A 
ATOM     52  C   UNL A   1      44.034  26.390  30.169  1.00  0.00     0.029 A 
ATOM     53  N   UNL A   1      42.656  27.801  31.195  1.00  0.00    -0.354 N 
ATOM     54  N   UNL A   1      41.840  29.624  33.346  1.00  0.00    -0.248 NA
ATOM     55  C   UNL A   1      42.138  30.473  35.502  1.00  0.00     0.031 C 
ATOM     56  C   UNL A   1      44.534  26.643  31.450  1.00  0.00     0.029 A 
ATOM     57  C   UNL A   1      43.696  27.549  32.077  1.00  0.00     0.049 A 
ATOM     58  H   UNL A   1      41.902  28.410  31.368  1.00  0.00     0.167 HD
ATOM     59  C   UNL A   1      42.988  29.068  33.904  1.00  0.00     0.074 A 
ATOM     60  C   UNL A   1      43.146  29.665  35.213  1.00  0.00     0.031 C 
ATOM     61  C   UNL A   1      43.835  28.143  33.385  1.00  0.00     0.034 A 
BRANCH  48  62
ATOM     62  C   UNL A   1      42.195  26.064  27.796  1.00  0.00     0.023 A 
ATOM     63  C   UNL A   1      41.571  24.808  27.724  1.00  0.00     0.031 A 
ATOM     64  C   UNL A   1      43.069  26.429  26.756  1.00  0.00     0.131 A 
ATOM     65  C   UNL A   1      41.859  23.946  26.654  1.00  0.00     0.055 A 
ATOM     66  C   UNL A   1      43.297  25.595  25.660  1.00  0.00     0.041 A 
ATOM     67  F   UNL A   1      43.709  27.609  26.783  1.00  0.00    -0.206 F 
ATOM     68  C   UNL A   1      42.695  24.343  25.607  1.00  0.00     0.022 A 
BRANCH  65  69
ATOM     69  S   UNL A   1      41.194  22.258  26.692  1.00  0.00     0.124 S 
ATOM     70  O   UNL A   1      41.515  21.846  28.055  1.00  0.00    -0.237 OA
ATOM     71  O   UNL A   1      39.781  22.469  26.405  1.00  0.00    -0.237 OA
ATOM     72  O   UNL A   1      41.947  21.570  25.646  1.00  0.00    -0.744 OA
ENDBRANCH  65  69
ENDBRANCH  48  62
BRANCH  49  73
ATOM     73  C   UNL A   1      39.755  32.173  35.358  1.00  0.00     0.023 A 
ATOM     74  C   UNL A   1      39.005  31.631  36.414  1.00  0.00     0.031 A 
ATOM     75  C   UNL A   1      40.042  33.549  35.398  1.00  0.00     0.131 A 
ATOM     76  C   UNL A   1      38.505  32.469  37.422  1.00  0.00     0.055 A 
ATOM     77  C   UNL A   1      39.605  34.366  36.443  1.00  0.00     0.041 A 
ATOM     78  F   UNL A   1      40.753  34.126  34.416  1.00  0.00    -0.206 F 
ATOM     79  C   UNL A   1      38.813  33.831  37.452  1.00  0.00     0.022 A 
BRANCH  76  80
ATOM     80  S   UNL A   1      37.322  31.781  38.612  1.00  0.00     0.124 S 
ATOM     81  O   UNL A   1      38.068  31.881  39.861  1.00  0.00    -0.237 OA
ATOM     82  O   UNL A   1      36.187  32.686  38.468  1.00  0.00    -0.237 OA
ATOM     83  O   UNL A   1      37.100  30.422  38.123  1.00  0.00    -0.744 OA
ENDBRANCH  76  80
ENDBRANCH  49  73
BRANCH  61  84
ATOM     84  C   UNL A   1      45.026  27.754  34.228  1.00  0.00     0.023 A 
ATOM     85  C   UNL A   1      44.975  26.668  35.120  1.00  0.00     0.031 A 
ATOM     86  C   UNL A   1      46.224  28.486  34.146  1.00  0.00     0.131 A 
ATOM     87  C   UNL A   1      46.077  26.385  35.939  1.00  0.00     0.055 A 
ATOM     88  C   UNL A   1      47.342  28.155  34.913  1.00  0.00     0.041 A 
ATOM     89  F   UNL A   1      46.330  29.535  33.315  1.00  0.00    -0.206 F 
ATOM     90  C   UNL A   1      47.268  27.108  35.827  1.00  0.00     0.022 A 
BRANCH  87  91
ATOM     91  S   UNL A   1      45.902  25.118  37.226  1.00  0.00     0.124 S 
ATOM     92  O   UNL A   1      45.559  23.936  36.443  1.00  0.00    -0.237 OA
ATOM     93  O   UNL A   1      47.225  25.113  37.842  1.00  0.00    -0.237 OA
ATOM     94  O   UNL A   1      44.828  25.635  38.071  1.00  0.00    -0.744 OA
ENDBRANCH  87  91
ENDBRANCH  61  84
ENDBRANCH  35  36
ENDBRANCH  27  30
ENDBRANCH  25  26
ENDBRANCH  24  25
ENDBRANCH   1  24
TORSDOF 18
ENDMDL
