MODEL 1
REMARK VINA RESULT:     -12.3      0.000      0.000
REMARK SMILES CC(C)n1c2c(c3ccccc31)[C@@H](c1ccccc1)N(CC(=O)NCCCCCCNC(=O)c1ccc(-c3c4nc(c(-c5cc(S(=O)(=O)[O-])ccc5F)c5ccc([nH]5)c(-c5cc(S(=O)(=O)[O-])ccc5F)c5nc(c(-c6cc(S(=O)(=O)[O-])ccc6F)c6ccc3[nH]6)C=C5)C=C4)cc1)C2=O
REMARK SMILES IDX 28 1 27 2 26 3 25 4 24 5 22 6 23 7 21 9 20 10 4 11 5 12
REMARK SMILES IDX 12 13 6 14 97 15 7 16 11 17 13 18 98 19 8 20 10 21 9 22 2 23
REMARK SMILES IDX 1 24 3 25 14 26 15 27 19 28 16 29 18 30 17 31 29 32 30 33
REMARK SMILES IDX 31 34 32 35 33 37 34 38 35 39 96 40 36 41 95 42 37 43 38 44
REMARK SMILES IDX 39 45 89 46 40 47 94 48 88 49 90 50 41 51 93 52 87 53 86 54
REMARK SMILES IDX 42 56 74 57 54 58 73 59 55 60 58 61 72 62 91 63 56 64 57 65
REMARK SMILES IDX 71 67 92 68 59 69 43 70 44 71 52 72 45 73 51 74 53 75 50 76
REMARK SMILES IDX 46 77 47 78 48 79 49 80 75 81 76 82 84 83 77 84 83 85 85 86
REMARK SMILES IDX 82 87 78 88 79 89 80 90 81 91 60 92 61 93 69 94 62 95 68 96
REMARK SMILES IDX 70 97 67 98 63 99 64 100 65 101 66 102
REMARK H PARENT 24 8 31 36 90 55 58 66
REMARK Flexibility Score: inf
ROOT
ATOM      1  C   UNL A   1      33.269  27.792  25.804  1.00  0.00     0.002 C 
ENDROOT
BRANCH   1   2
ATOM      2  C   UNL A   1      32.307  26.835  26.517  1.00  0.00     0.002 C 
BRANCH   2   3
ATOM      3  C   UNL A   1      31.037  26.493  25.733  1.00  0.00     0.021 C 
BRANCH   3   4
ATOM      4  C   UNL A   1      30.660  25.012  25.754  1.00  0.00     0.116 C 
BRANCH   4   5
ATOM      5  N   UNL A   1      31.283  24.336  26.877  1.00  0.00    -0.355 N 
ATOM      6  C   UNL A   1      31.516  23.001  27.047  1.00  0.00     0.239 C 
ATOM      7  O   UNL A   1      31.931  22.606  28.139  1.00  0.00    -0.273 OA
ATOM      8  H   UNL A   1      31.578  24.918  27.616  1.00  0.00     0.163 HD
BRANCH   6   9
ATOM      9  C   UNL A   1      31.210  22.011  25.916  1.00  0.00     0.220 C 
BRANCH   9  10
ATOM     10  N   UNL A   1      32.425  21.532  25.278  1.00  0.00    -0.317 N 
ATOM     11  N   UNL A   1      34.951  19.030  24.728  1.00  0.00    -0.334 N 
ATOM     12  C   UNL A   1      34.015  20.033  24.822  1.00  0.00     0.114 A 
ATOM     13  C   UNL A   1      36.215  19.646  24.879  1.00  0.00     0.049 A 
ATOM     14  C   UNL A   1      34.633  21.235  25.042  1.00  0.00     0.018 A 
ATOM     15  C   UNL A   1      32.594  20.210  24.870  1.00  0.00     0.272 C 
ATOM     16  C   UNL A   1      36.010  21.027  25.108  1.00  0.00     0.006 A 
ATOM     17  C   UNL A   1      37.541  19.164  24.848  1.00  0.00     0.027 A 
ATOM     18  C   UNL A   1      33.658  22.344  25.205  1.00  0.00     0.150 C 
ATOM     19  O   UNL A   1      31.700  19.399  24.692  1.00  0.00    -0.267 OA
ATOM     20  C   UNL A   1      37.101  21.892  25.328  1.00  0.00     0.011 A 
ATOM     21  C   UNL A   1      38.613  20.044  25.054  1.00  0.00     0.002 A 
ATOM     22  C   UNL A   1      38.398  21.391  25.296  1.00  0.00     0.001 A 
BRANCH  11  23
ATOM     23  C   UNL A   1      34.636  17.619  24.436  1.00  0.00     0.082 C 
ATOM     24  C   UNL A   1      33.856  16.854  25.513  1.00  0.00     0.031 C 
ATOM     25  C   UNL A   1      33.856  17.388  23.130  1.00  0.00     0.031 C 
ENDBRANCH  11  23
BRANCH  18  26
ATOM     26  C   UNL A   1      33.653  23.235  23.968  1.00  0.00    -0.021 A 
ATOM     27  C   UNL A   1      34.032  24.584  24.127  1.00  0.00     0.006 A 
ATOM     28  C   UNL A   1      33.236  22.833  22.686  1.00  0.00     0.006 A 
ATOM     29  C   UNL A   1      33.951  25.493  23.068  1.00  0.00     0.000 A 
ATOM     30  C   UNL A   1      33.177  23.737  21.621  1.00  0.00     0.000 A 
ATOM     31  C   UNL A   1      33.521  25.069  21.816  1.00  0.00     0.000 A 
ENDBRANCH  18  26
ENDBRANCH   9  10
ENDBRANCH   6   9
ENDBRANCH   4   5
ENDBRANCH   3   4
ENDBRANCH   2   3
ENDBRANCH   1   2
BRANCH   1  32
ATOM     32  C   UNL A   1      33.688  29.028  26.612  1.00  0.00     0.021 C 
BRANCH  32  33
ATOM     33  C   UNL A   1      35.118  28.976  27.153  1.00  0.00     0.116 C 
BRANCH  33  34
ATOM     34  N   UNL A   1      35.261  29.556  28.471  1.00  0.00    -0.352 N 
ATOM     35  C   UNL A   1      36.302  29.735  29.339  1.00  0.00     0.251 C 
ATOM     36  H   UNL A   1      34.410  29.902  28.826  1.00  0.00     0.163 HD
ATOM     37  O   UNL A   1      36.042  30.380  30.359  1.00  0.00    -0.269 OA
BRANCH  35  38
ATOM     38  C   UNL A   1      37.665  29.157  29.177  1.00  0.00     0.039 A 
ATOM     39  C   UNL A   1      38.264  28.232  30.032  1.00  0.00     0.014 A 
ATOM     40  C   UNL A   1      38.416  29.652  28.092  1.00  0.00     0.014 A 
ATOM     41  C   UNL A   1      39.610  27.913  29.890  1.00  0.00     0.010 A 
ATOM     42  C   UNL A   1      39.754  29.317  27.930  1.00  0.00     0.010 A 
ATOM     43  C   UNL A   1      40.364  28.494  28.867  1.00  0.00    -0.014 A 
BRANCH  43  44
ATOM     44  C   UNL A   1      41.778  28.138  28.781  1.00  0.00     0.031 A 
ATOM     45  C   UNL A   1      42.041  26.824  28.129  1.00  0.00     0.074 A 
ATOM     46  C   UNL A   1      42.773  28.956  29.180  1.00  0.00     0.049 A 
ATOM     47  N   UNL A   1      42.520  25.748  28.662  1.00  0.00    -0.248 NA
ATOM     48  C   UNL A   1      41.563  26.646  26.750  1.00  0.00     0.031 C 
ATOM     49  C   UNL A   1      42.676  30.371  29.549  1.00  0.00     0.029 A 
ATOM     50  N   UNL A   1      44.113  28.716  29.243  1.00  0.00    -0.354 N 
ATOM     51  C   UNL A   1      42.591  24.807  27.632  1.00  0.00     0.074 A 
ATOM     52  C   UNL A   1      41.838  25.360  26.536  1.00  0.00     0.031 C 
ATOM     53  C   UNL A   1      43.914  30.916  29.558  1.00  0.00     0.029 A 
ATOM     54  C   UNL A   1      44.891  29.860  29.356  1.00  0.00     0.049 A 
ATOM     55  H   UNL A   1      44.496  27.810  29.213  1.00  0.00     0.167 HD
ATOM     56  C   UNL A   1      43.434  23.737  27.690  1.00  0.00     0.034 A 
ATOM     57  C   UNL A   1      46.237  29.950  29.219  1.00  0.00     0.034 A 
ATOM     58  C   UNL A   1      43.934  23.546  29.022  1.00  0.00     0.049 A 
ATOM     59  C   UNL A   1      46.808  28.595  29.382  1.00  0.00     0.074 A 
ATOM     60  C   UNL A   1      43.393  23.161  30.228  1.00  0.00     0.029 A 
ATOM     61  N   UNL A   1      45.156  24.106  29.301  1.00  0.00    -0.354 N 
ATOM     62  N   UNL A   1      46.824  27.939  30.507  1.00  0.00    -0.248 NA
ATOM     63  C   UNL A   1      46.999  27.790  28.186  1.00  0.00     0.031 C 
ATOM     64  C   UNL A   1      44.127  23.885  31.210  1.00  0.00     0.029 A 
ATOM     65  C   UNL A   1      45.117  24.630  30.563  1.00  0.00     0.049 A 
ATOM     66  H   UNL A   1      45.930  24.127  28.693  1.00  0.00     0.167 HD
ATOM     67  C   UNL A   1      46.553  26.629  30.143  1.00  0.00     0.074 A 
ATOM     68  C   UNL A   1      46.804  26.577  28.705  1.00  0.00     0.031 C 
ATOM     69  C   UNL A   1      45.879  25.792  30.985  1.00  0.00     0.034 A 
BRANCH  56  70
ATOM     70  C   UNL A   1      44.098  23.098  26.488  1.00  0.00     0.023 A 
ATOM     71  C   UNL A   1      43.938  21.742  26.152  1.00  0.00     0.031 A 
ATOM     72  C   UNL A   1      44.714  23.901  25.502  1.00  0.00     0.131 A 
ATOM     73  C   UNL A   1      44.360  21.232  24.918  1.00  0.00     0.055 A 
ATOM     74  C   UNL A   1      45.076  23.407  24.242  1.00  0.00     0.041 A 
ATOM     75  F   UNL A   1      44.926  25.211  25.708  1.00  0.00    -0.206 F 
ATOM     76  C   UNL A   1      44.895  22.064  23.941  1.00  0.00     0.022 A 
BRANCH  73  77
ATOM     77  S   UNL A   1      44.191  19.463  24.553  1.00  0.00     0.124 S 
ATOM     78  O   UNL A   1      44.462  19.423  23.120  1.00  0.00    -0.237 OA
ATOM     79  O   UNL A   1      45.223  18.886  25.410  1.00  0.00    -0.237 OA
ATOM     80  O   UNL A   1      42.818  19.162  24.952  1.00  0.00    -0.744 OA
ENDBRANCH  73  77
ENDBRANCH  56  70
BRANCH  57  81
ATOM     81  C   UNL A   1      46.961  31.007  28.472  1.00  0.00     0.023 A 
ATOM     82  C   UNL A   1      47.737  31.941  29.184  1.00  0.00     0.031 A 
ATOM     83  C   UNL A   1      46.650  31.309  27.135  1.00  0.00     0.131 A 
ATOM     84  C   UNL A   1      48.135  33.142  28.584  1.00  0.00     0.055 A 
ATOM     85  C   UNL A   1      47.066  32.504  26.531  1.00  0.00     0.041 A 
ATOM     86  F   UNL A   1      45.877  30.484  26.412  1.00  0.00    -0.206 F 
ATOM     87  C   UNL A   1      47.800  33.434  27.262  1.00  0.00     0.022 A 
BRANCH  84  88
ATOM     88  S   UNL A   1      49.008  34.403  29.554  1.00  0.00     0.124 S 
ATOM     89  O   UNL A   1      48.868  35.587  28.710  1.00  0.00    -0.237 OA
ATOM     90  O   UNL A   1      48.233  34.416  30.790  1.00  0.00    -0.237 OA
ATOM     91  O   UNL A   1      50.365  33.876  29.660  1.00  0.00    -0.744 OA
ENDBRANCH  84  88
ENDBRANCH  57  81
BRANCH  69  92
ATOM     92  C   UNL A   1      45.706  26.199  32.431  1.00  0.00     0.023 A 
ATOM     93  C   UNL A   1      46.560  25.586  33.363  1.00  0.00     0.031 A 
ATOM     94  C   UNL A   1      44.623  26.946  32.933  1.00  0.00     0.131 A 
ATOM     95  C   UNL A   1      46.289  25.665  34.731  1.00  0.00     0.055 A 
ATOM     96  C   UNL A   1      44.402  27.091  34.307  1.00  0.00     0.041 A 
ATOM     97  F   UNL A   1      43.700  27.479  32.122  1.00  0.00    -0.206 F 
ATOM     98  C   UNL A   1      45.225  26.430  35.214  1.00  0.00     0.022 A 
BRANCH  95  99
ATOM     99  S   UNL A   1      47.203  24.622  35.897  1.00  0.00     0.124 S 
ATOM    100  O   UNL A   1      47.221  23.335  35.209  1.00  0.00    -0.237 OA
ATOM    101  O   UNL A   1      48.492  25.307  35.980  1.00  0.00    -0.237 OA
ATOM    102  O   UNL A   1      46.402  24.669  37.116  1.00  0.00    -0.744 OA
ENDBRANCH  95  99
ENDBRANCH  69  92
ENDBRANCH  43  44
ENDBRANCH  35  38
ENDBRANCH  33  34
ENDBRANCH  32  33
ENDBRANCH   1  32
TORSDOF 19
ENDMDL
MODEL 2
REMARK VINA RESULT:     -12.3      2.146      7.235
REMARK SMILES CC(C)n1c2c(c3ccccc31)[C@@H](c1ccccc1)N(CC(=O)NCCCCCCNC(=O)c1ccc(-c3c4nc(c(-c5cc(S(=O)(=O)[O-])ccc5F)c5ccc([nH]5)c(-c5cc(S(=O)(=O)[O-])ccc5F)c5nc(c(-c6cc(S(=O)(=O)[O-])ccc6F)c6ccc3[nH]6)C=C5)C=C4)cc1)C2=O
REMARK SMILES IDX 28 1 27 2 26 3 25 4 24 5 22 6 23 7 21 9 20 10 4 11 5 12
REMARK SMILES IDX 12 13 6 14 97 15 7 16 11 17 13 18 98 19 8 20 10 21 9 22 2 23
REMARK SMILES IDX 1 24 3 25 14 26 15 27 19 28 16 29 18 30 17 31 29 32 30 33
REMARK SMILES IDX 31 34 32 35 33 37 34 38 35 39 96 40 36 41 95 42 37 43 38 44
REMARK SMILES IDX 39 45 89 46 40 47 94 48 88 49 90 50 41 51 93 52 87 53 86 54
REMARK SMILES IDX 42 56 74 57 54 58 73 59 55 60 58 61 72 62 91 63 56 64 57 65
REMARK SMILES IDX 71 67 92 68 59 69 43 70 44 71 52 72 45 73 51 74 53 75 50 76
REMARK SMILES IDX 46 77 47 78 48 79 49 80 75 81 76 82 84 83 77 84 83 85 85 86
REMARK SMILES IDX 82 87 78 88 79 89 80 90 81 91 60 92 61 93 69 94 62 95 68 96
REMARK SMILES IDX 70 97 67 98 63 99 64 100 65 101 66 102
REMARK H PARENT 24 8 31 36 90 55 58 66
REMARK Flexibility Score: inf
ROOT
ATOM      1  C   UNL A   1      31.659  28.580  26.169  1.00  0.00     0.002 C 
ENDROOT
BRANCH   1   2
ATOM      2  C   UNL A   1      31.311  27.106  26.404  1.00  0.00     0.002 C 
BRANCH   2   3
ATOM      3  C   UNL A   1      30.741  26.374  25.186  1.00  0.00     0.021 C 
BRANCH   3   4
ATOM      4  C   UNL A   1      30.399  24.905  25.435  1.00  0.00     0.116 C 
BRANCH   4   5
ATOM      5  N   UNL A   1      31.078  24.410  26.618  1.00  0.00    -0.355 N 
ATOM      6  C   UNL A   1      31.406  23.123  26.936  1.00  0.00     0.239 C 
ATOM      7  O   UNL A   1      31.857  22.886  28.060  1.00  0.00    -0.273 OA
ATOM      8  H   UNL A   1      31.337  25.092  27.279  1.00  0.00     0.163 HD
BRANCH   6   9
ATOM      9  C   UNL A   1      31.161  21.989  25.932  1.00  0.00     0.220 C 
BRANCH   9  10
ATOM     10  N   UNL A   1      32.396  21.557  25.299  1.00  0.00    -0.317 N 
ATOM     11  N   UNL A   1      34.990  19.132  24.721  1.00  0.00    -0.334 N 
ATOM     12  C   UNL A   1      34.028  20.108  24.827  1.00  0.00     0.114 A 
ATOM     13  C   UNL A   1      36.236  19.775  24.904  1.00  0.00     0.049 A 
ATOM     14  C   UNL A   1      34.613  21.320  25.085  1.00  0.00     0.018 A 
ATOM     15  C   UNL A   1      32.602  20.249  24.861  1.00  0.00     0.272 C 
ATOM     16  C   UNL A   1      35.994  21.145  25.164  1.00  0.00     0.006 A 
ATOM     17  C   UNL A   1      37.574  19.327  24.879  1.00  0.00     0.027 A 
ATOM     18  C   UNL A   1      33.608  22.400  25.262  1.00  0.00     0.150 C 
ATOM     19  O   UNL A   1      31.732  19.421  24.651  1.00  0.00    -0.267 OA
ATOM     20  C   UNL A   1      37.060  22.031  25.420  1.00  0.00     0.011 A 
ATOM     21  C   UNL A   1      38.621  20.228  25.121  1.00  0.00     0.002 A 
ATOM     22  C   UNL A   1      38.370  21.563  25.393  1.00  0.00     0.001 A 
BRANCH  11  23
ATOM     23  C   UNL A   1      34.714  17.721  24.390  1.00  0.00     0.082 C 
ATOM     24  C   UNL A   1      33.969  16.902  25.452  1.00  0.00     0.031 C 
ATOM     25  C   UNL A   1      33.928  17.505  23.085  1.00  0.00     0.031 C 
ENDBRANCH  11  23
BRANCH  18  26
ATOM     26  C   UNL A   1      33.597  23.322  24.048  1.00  0.00    -0.021 A 
ATOM     27  C   UNL A   1      33.949  24.672  24.243  1.00  0.00     0.006 A 
ATOM     28  C   UNL A   1      33.197  22.943  22.752  1.00  0.00     0.006 A 
ATOM     29  C   UNL A   1      33.860  25.606  23.206  1.00  0.00     0.000 A 
ATOM     30  C   UNL A   1      33.131  23.872  21.709  1.00  0.00     0.000 A 
ATOM     31  C   UNL A   1      33.448  25.206  21.941  1.00  0.00     0.000 A 
ENDBRANCH  18  26
ENDBRANCH   9  10
ENDBRANCH   6   9
ENDBRANCH   4   5
ENDBRANCH   3   4
ENDBRANCH   2   3
ENDBRANCH   1   2
BRANCH   1  32
ATOM     32  C   UNL A   1      32.869  28.835  25.261  1.00  0.00     0.021 C 
BRANCH  32  33
ATOM     33  C   UNL A   1      34.131  29.289  25.998  1.00  0.00     0.116 C 
BRANCH  33  34
ATOM     34  N   UNL A   1      33.943  30.489  26.785  1.00  0.00    -0.352 N 
ATOM     35  C   UNL A   1      34.714  31.196  27.665  1.00  0.00     0.251 C 
ATOM     36  H   UNL A   1      33.053  30.889  26.657  1.00  0.00     0.163 HD
ATOM     37  O   UNL A   1      34.227  32.256  28.069  1.00  0.00    -0.269 OA
BRANCH  35  38
ATOM     38  C   UNL A   1      36.027  30.750  28.208  1.00  0.00     0.039 A 
ATOM     39  C   UNL A   1      37.143  31.561  28.408  1.00  0.00     0.014 A 
ATOM     40  C   UNL A   1      36.143  29.371  28.476  1.00  0.00     0.014 A 
ATOM     41  C   UNL A   1      38.371  30.998  28.736  1.00  0.00     0.010 A 
ATOM     42  C   UNL A   1      37.362  28.805  28.829  1.00  0.00     0.010 A 
ATOM     43  C   UNL A   1      38.488  29.615  28.899  1.00  0.00    -0.014 A 
BRANCH  43  44
ATOM     44  C   UNL A   1      39.808  29.078  29.220  1.00  0.00     0.031 A 
ATOM     45  C   UNL A   1      40.212  29.256  30.643  1.00  0.00     0.074 A 
ATOM     46  C   UNL A   1      40.570  28.407  28.334  1.00  0.00     0.049 A 
ATOM     47  N   UNL A   1      41.163  29.990  31.120  1.00  0.00    -0.248 NA
ATOM     48  C   UNL A   1      39.345  28.661  31.671  1.00  0.00     0.031 C 
ATOM     49  C   UNL A   1      40.177  27.902  27.015  1.00  0.00     0.029 A 
ATOM     50  N   UNL A   1      41.843  27.940  28.471  1.00  0.00    -0.354 N 
ATOM     51  C   UNL A   1      41.144  29.796  32.502  1.00  0.00     0.074 A 
ATOM     52  C   UNL A   1      39.911  29.110  32.791  1.00  0.00     0.031 C 
ATOM     53  C   UNL A   1      41.095  27.005  26.588  1.00  0.00     0.029 A 
ATOM     54  C   UNL A   1      42.208  26.996  27.521  1.00  0.00     0.049 A 
ATOM     55  H   UNL A   1      42.451  28.247  29.181  1.00  0.00     0.167 HD
ATOM     56  C   UNL A   1      42.240  30.033  33.279  1.00  0.00     0.034 A 
ATOM     57  C   UNL A   1      43.311  26.206  27.535  1.00  0.00     0.034 A 
ATOM     58  C   UNL A   1      43.224  30.795  32.564  1.00  0.00     0.049 A 
ATOM     59  C   UNL A   1      44.295  26.806  28.462  1.00  0.00     0.074 A 
ATOM     60  C   UNL A   1      43.310  32.082  32.081  1.00  0.00     0.029 A 
ATOM     61  N   UNL A   1      44.221  30.079  31.951  1.00  0.00    -0.354 N 
ATOM     62  N   UNL A   1      44.924  27.924  28.238  1.00  0.00    -0.248 NA
ATOM     63  C   UNL A   1      44.278  26.365  29.848  1.00  0.00     0.031 C 
ATOM     64  C   UNL A   1      44.085  31.980  30.892  1.00  0.00     0.029 A 
ATOM     65  C   UNL A   1      44.484  30.649  30.736  1.00  0.00     0.049 A 
ATOM     66  H   UNL A   1      44.672  29.287  32.324  1.00  0.00     0.167 HD
ATOM     67  C   UNL A   1      44.964  28.549  29.474  1.00  0.00     0.074 A 
ATOM     68  C   UNL A   1      44.676  27.493  30.441  1.00  0.00     0.031 C 
ATOM     69  C   UNL A   1      44.943  29.910  29.573  1.00  0.00     0.034 A 
BRANCH  56  70
ATOM     70  C   UNL A   1      42.583  29.268  34.540  1.00  0.00     0.023 A 
ATOM     71  C   UNL A   1      42.214  27.926  34.749  1.00  0.00     0.031 A 
ATOM     72  C   UNL A   1      43.509  29.797  35.467  1.00  0.00     0.131 A 
ATOM     73  C   UNL A   1      42.742  27.172  35.805  1.00  0.00     0.055 A 
ATOM     74  C   UNL A   1      44.087  29.025  36.483  1.00  0.00     0.041 A 
ATOM     75  F   UNL A   1      43.932  31.067  35.374  1.00  0.00    -0.206 F 
ATOM     76  C   UNL A   1      43.707  27.701  36.654  1.00  0.00     0.022 A 
BRANCH  73  77
ATOM     77  S   UNL A   1      42.190  25.465  36.073  1.00  0.00     0.124 S 
ATOM     78  O   UNL A   1      42.379  25.309  37.512  1.00  0.00    -0.237 OA
ATOM     79  O   UNL A   1      40.804  25.529  35.618  1.00  0.00    -0.237 OA
ATOM     80  O   UNL A   1      43.083  24.680  35.224  1.00  0.00    -0.744 OA
ENDBRANCH  73  77
ENDBRANCH  56  70
BRANCH  57  81
ATOM     81  C   UNL A   1      43.342  24.760  27.206  1.00  0.00     0.023 A 
ATOM     82  C   UNL A   1      44.237  24.300  26.222  1.00  0.00     0.031 A 
ATOM     83  C   UNL A   1      42.307  23.893  27.597  1.00  0.00     0.131 A 
ATOM     84  C   UNL A   1      44.060  23.044  25.630  1.00  0.00     0.055 A 
ATOM     85  C   UNL A   1      42.144  22.628  27.016  1.00  0.00     0.041 A 
ATOM     86  F   UNL A   1      41.393  24.286  28.498  1.00  0.00    -0.206 F 
ATOM     87  C   UNL A   1      43.016  22.204  26.016  1.00  0.00     0.022 A 
BRANCH  84  88
ATOM     88  S   UNL A   1      45.129  22.520  24.261  1.00  0.00     0.124 S 
ATOM     89  O   UNL A   1      45.899  23.732  23.994  1.00  0.00    -0.237 OA
ATOM     90  O   UNL A   1      45.874  21.423  24.868  1.00  0.00    -0.237 OA
ATOM     91  O   UNL A   1      44.185  22.143  23.213  1.00  0.00    -0.744 OA
ENDBRANCH  84  88
ENDBRANCH  57  81
BRANCH  69  92
ATOM     92  C   UNL A   1      45.191  30.734  28.330  1.00  0.00     0.023 A 
ATOM     93  C   UNL A   1      46.487  31.252  28.168  1.00  0.00     0.031 A 
ATOM     94  C   UNL A   1      44.186  31.211  27.466  1.00  0.00     0.131 A 
ATOM     95  C   UNL A   1      46.737  32.254  27.227  1.00  0.00     0.055 A 
ATOM     96  C   UNL A   1      44.459  32.155  26.469  1.00  0.00     0.041 A 
ATOM     97  F   UNL A   1      42.904  30.852  27.612  1.00  0.00    -0.206 F 
ATOM     98  C   UNL A   1      45.735  32.698  26.361  1.00  0.00     0.022 A 
BRANCH  95  99
ATOM     99  S   UNL A   1      48.321  33.131  27.238  1.00  0.00     0.124 S 
ATOM    100  O   UNL A   1      47.968  34.414  26.638  1.00  0.00    -0.237 OA
ATOM    101  O   UNL A   1      48.642  33.173  28.664  1.00  0.00    -0.237 OA
ATOM    102  O   UNL A   1      49.199  32.286  26.435  1.00  0.00    -0.744 OA
ENDBRANCH  95  99
ENDBRANCH  69  92
ENDBRANCH  43  44
ENDBRANCH  35  38
ENDBRANCH  33  34
ENDBRANCH  32  33
ENDBRANCH   1  32
TORSDOF 19
ENDMDL
MODEL 3
REMARK VINA RESULT:     -12.2      2.463      6.834
REMARK SMILES CC(C)n1c2c(c3ccccc31)[C@@H](c1ccccc1)N(CC(=O)NCCCCCCNC(=O)c1ccc(-c3c4nc(c(-c5cc(S(=O)(=O)[O-])ccc5F)c5ccc([nH]5)c(-c5cc(S(=O)(=O)[O-])ccc5F)c5nc(c(-c6cc(S(=O)(=O)[O-])ccc6F)c6ccc3[nH]6)C=C5)C=C4)cc1)C2=O
REMARK SMILES IDX 28 1 27 2 26 3 25 4 24 5 22 6 23 7 21 9 20 10 4 11 5 12
REMARK SMILES IDX 12 13 6 14 97 15 7 16 11 17 13 18 98 19 8 20 10 21 9 22 2 23
REMARK SMILES IDX 1 24 3 25 14 26 15 27 19 28 16 29 18 30 17 31 29 32 30 33
REMARK SMILES IDX 31 34 32 35 33 37 34 38 35 39 96 40 36 41 95 42 37 43 38 44
REMARK SMILES IDX 39 45 89 46 40 47 94 48 88 49 90 50 41 51 93 52 87 53 86 54
REMARK SMILES IDX 42 56 74 57 54 58 73 59 55 60 58 61 72 62 91 63 56 64 57 65
REMARK SMILES IDX 71 67 92 68 59 69 43 70 44 71 52 72 45 73 51 74 53 75 50 76
REMARK SMILES IDX 46 77 47 78 48 79 49 80 75 81 76 82 84 83 77 84 83 85 85 86
REMARK SMILES IDX 82 87 78 88 79 89 80 90 81 91 60 92 61 93 69 94 62 95 68 96
REMARK SMILES IDX 70 97 67 98 63 99 64 100 65 101 66 102
REMARK H PARENT 24 8 31 36 90 55 58 66
REMARK Flexibility Score: inf
ROOT
ATOM      1  C   UNL A   1      32.280  28.101  25.964  1.00  0.00     0.002 C 
ENDROOT
BRANCH   1   2
ATOM      2  C   UNL A   1      31.400  26.945  26.453  1.00  0.00     0.002 C 
BRANCH   2   3
ATOM      3  C   UNL A   1      30.494  26.327  25.385  1.00  0.00     0.021 C 
BRANCH   3   4
ATOM      4  C   UNL A   1      30.393  24.803  25.447  1.00  0.00     0.116 C 
BRANCH   4   5
ATOM      5  N   UNL A   1      31.057  24.289  26.631  1.00  0.00    -0.355 N 
ATOM      6  C   UNL A   1      31.377  22.996  26.935  1.00  0.00     0.239 C 
ATOM      7  O   UNL A   1      31.815  22.743  28.060  1.00  0.00    -0.273 OA
ATOM      8  H   UNL A   1      31.310  24.961  27.305  1.00  0.00     0.163 HD
BRANCH   6   9
ATOM      9  C   UNL A   1      31.141  21.877  25.912  1.00  0.00     0.220 C 
BRANCH   9  10
ATOM     10  N   UNL A   1      32.381  21.456  25.282  1.00  0.00    -0.317 N 
ATOM     11  N   UNL A   1      34.985  19.045  24.690  1.00  0.00    -0.334 N 
ATOM     12  C   UNL A   1      34.020  20.018  24.802  1.00  0.00     0.114 A 
ATOM     13  C   UNL A   1      36.229  19.689  24.889  1.00  0.00     0.049 A 
ATOM     14  C   UNL A   1      34.600  21.228  25.078  1.00  0.00     0.018 A 
ATOM     15  C   UNL A   1      32.594  20.155  24.829  1.00  0.00     0.272 C 
ATOM     16  C   UNL A   1      35.981  21.055  25.165  1.00  0.00     0.006 A 
ATOM     17  C   UNL A   1      37.568  19.245  24.867  1.00  0.00     0.027 A 
ATOM     18  C   UNL A   1      33.592  22.303  25.263  1.00  0.00     0.150 C 
ATOM     19  O   UNL A   1      31.727  19.328  24.603  1.00  0.00    -0.267 OA
ATOM     20  C   UNL A   1      37.043  21.940  25.438  1.00  0.00     0.011 A 
ATOM     21  C   UNL A   1      38.611  20.145  25.127  1.00  0.00     0.002 A 
ATOM     22  C   UNL A   1      38.354  21.476  25.414  1.00  0.00     0.001 A 
BRANCH  11  23
ATOM     23  C   UNL A   1      34.715  17.638  24.340  1.00  0.00     0.082 C 
ATOM     24  C   UNL A   1      34.042  16.781  25.419  1.00  0.00     0.031 C 
ATOM     25  C   UNL A   1      33.863  17.439  23.074  1.00  0.00     0.031 C 
ENDBRANCH  11  23
BRANCH  18  26
ATOM     26  C   UNL A   1      33.586  23.240  24.060  1.00  0.00    -0.021 A 
ATOM     27  C   UNL A   1      33.859  24.604  24.286  1.00  0.00     0.006 A 
ATOM     28  C   UNL A   1      33.263  22.860  22.744  1.00  0.00     0.006 A 
ATOM     29  C   UNL A   1      33.768  25.546  23.258  1.00  0.00     0.000 A 
ATOM     30  C   UNL A   1      33.194  23.798  21.710  1.00  0.00     0.000 A 
ATOM     31  C   UNL A   1      33.432  25.143  21.971  1.00  0.00     0.000 A 
ENDBRANCH  18  26
ENDBRANCH   9  10
ENDBRANCH   6   9
ENDBRANCH   4   5
ENDBRANCH   3   4
ENDBRANCH   2   3
ENDBRANCH   1   2
BRANCH   1  32
ATOM     32  C   UNL A   1      33.143  28.774  27.041  1.00  0.00     0.021 C 
BRANCH  32  33
ATOM     33  C   UNL A   1      33.988  29.944  26.535  1.00  0.00     0.116 C 
BRANCH  33  34
ATOM     34  N   UNL A   1      33.919  31.117  27.380  1.00  0.00    -0.352 N 
ATOM     35  C   UNL A   1      34.768  31.720  28.266  1.00  0.00     0.251 C 
ATOM     36  H   UNL A   1      33.061  31.592  27.297  1.00  0.00     0.163 HD
ATOM     37  O   UNL A   1      34.379  32.795  28.732  1.00  0.00    -0.269 OA
BRANCH  35  38
ATOM     38  C   UNL A   1      36.055  31.147  28.749  1.00  0.00     0.039 A 
ATOM     39  C   UNL A   1      37.136  31.876  29.244  1.00  0.00     0.014 A 
ATOM     40  C   UNL A   1      36.188  29.749  28.624  1.00  0.00     0.014 A 
ATOM     41  C   UNL A   1      38.355  31.250  29.481  1.00  0.00     0.010 A 
ATOM     42  C   UNL A   1      37.397  29.115  28.884  1.00  0.00     0.010 A 
ATOM     43  C   UNL A   1      38.496  29.878  29.255  1.00  0.00    -0.014 A 
BRANCH  43  44
ATOM     44  C   UNL A   1      39.806  29.282  29.500  1.00  0.00     0.031 A 
ATOM     45  C   UNL A   1      40.038  28.870  30.913  1.00  0.00     0.074 A 
ATOM     46  C   UNL A   1      40.705  29.044  28.524  1.00  0.00     0.049 A 
ATOM     47  N   UNL A   1      40.878  29.363  31.763  1.00  0.00    -0.248 NA
ATOM     48  C   UNL A   1      39.106  27.892  31.493  1.00  0.00     0.031 C 
ATOM     49  C   UNL A   1      40.495  29.114  27.075  1.00  0.00     0.029 A 
ATOM     50  N   UNL A   1      41.985  28.585  28.624  1.00  0.00    -0.354 N 
ATOM     51  C   UNL A   1      40.720  28.622  32.935  1.00  0.00     0.074 A 
ATOM     52  C   UNL A   1      39.513  27.856  32.762  1.00  0.00     0.031 C 
ATOM     53  C   UNL A   1      41.515  28.486  26.445  1.00  0.00     0.029 A 
ATOM     54  C   UNL A   1      42.517  28.118  27.430  1.00  0.00     0.049 A 
ATOM     55  H   UNL A   1      42.489  28.587  29.469  1.00  0.00     0.167 HD
ATOM     56  C   UNL A   1      41.705  28.541  33.876  1.00  0.00     0.034 A 
ATOM     57  C   UNL A   1      43.662  27.411  27.266  1.00  0.00     0.034 A 
ATOM     58  C   UNL A   1      42.707  29.547  33.660  1.00  0.00     0.049 A 
ATOM     59  C   UNL A   1      44.495  27.598  28.475  1.00  0.00     0.074 A 
ATOM     60  C   UNL A   1      42.757  30.919  33.752  1.00  0.00     0.029 A 
ATOM     61  N   UNL A   1      43.813  29.161  32.945  1.00  0.00    -0.354 N 
ATOM     62  N   UNL A   1      45.067  28.722  28.802  1.00  0.00    -0.248 NA
ATOM     63  C   UNL A   1      44.356  26.630  29.551  1.00  0.00     0.031 C 
ATOM     64  C   UNL A   1      43.663  31.326  32.732  1.00  0.00     0.029 A 
ATOM     65  C   UNL A   1      44.168  30.182  32.107  1.00  0.00     0.049 A 
ATOM     66  H   UNL A   1      44.273  28.294  33.022  1.00  0.00     0.167 HD
ATOM     67  C   UNL A   1      44.927  28.788  30.180  1.00  0.00     0.074 A 
ATOM     68  C   UNL A   1      44.608  27.424  30.594  1.00  0.00     0.031 C 
ATOM     69  C   UNL A   1      44.801  29.990  30.815  1.00  0.00     0.034 A 
BRANCH  56  70
ATOM     70  C   UNL A   1      41.959  27.334  34.754  1.00  0.00     0.023 A 
ATOM     71  C   UNL A   1      42.742  26.239  34.348  1.00  0.00     0.031 A 
ATOM     72  C   UNL A   1      41.620  27.366  36.126  1.00  0.00     0.131 A 
ATOM     73  C   UNL A   1      43.159  25.254  35.252  1.00  0.00     0.055 A 
ATOM     74  C   UNL A   1      42.091  26.418  37.043  1.00  0.00     0.041 A 
ATOM     75  F   UNL A   1      40.872  28.359  36.632  1.00  0.00    -0.206 F 
ATOM     76  C   UNL A   1      42.870  25.354  36.609  1.00  0.00     0.022 A 
BRANCH  73  77
ATOM     77  S   UNL A   1      44.114  23.825  34.671  1.00  0.00     0.124 S 
ATOM     78  O   UNL A   1      44.700  23.329  35.912  1.00  0.00    -0.237 OA
ATOM     79  O   UNL A   1      43.069  22.991  34.085  1.00  0.00    -0.237 OA
ATOM     80  O   UNL A   1      45.050  24.408  33.712  1.00  0.00    -0.744 OA
ENDBRANCH  73  77
ENDBRANCH  56  70
BRANCH  57  81
ATOM     81  C   UNL A   1      43.829  26.226  26.391  1.00  0.00     0.023 A 
ATOM     82  C   UNL A   1      43.063  25.072  26.644  1.00  0.00     0.031 A 
ATOM     83  C   UNL A   1      44.934  26.092  25.533  1.00  0.00     0.131 A 
ATOM     84  C   UNL A   1      43.429  23.838  26.095  1.00  0.00     0.055 A 
ATOM     85  C   UNL A   1      45.288  24.859  24.969  1.00  0.00     0.041 A 
ATOM     86  F   UNL A   1      45.734  27.141  25.284  1.00  0.00    -0.206 F 
ATOM     87  C   UNL A   1      44.542  23.720  25.262  1.00  0.00     0.022 A 
BRANCH  84  88
ATOM     88  S   UNL A   1      42.523  22.332  26.545  1.00  0.00     0.124 S 
ATOM     89  O   UNL A   1      41.756  22.064  25.331  1.00  0.00    -0.237 OA
ATOM     90  O   UNL A   1      43.612  21.401  26.818  1.00  0.00    -0.237 OA
ATOM     91  O   UNL A   1      41.731  22.740  27.701  1.00  0.00    -0.744 OA
ENDBRANCH  84  88
ENDBRANCH  57  81
BRANCH  69  92
ATOM     92  C   UNL A   1      45.127  31.254  30.051  1.00  0.00     0.023 A 
ATOM     93  C   UNL A   1      44.524  31.399  28.790  1.00  0.00     0.031 A 
ATOM     94  C   UNL A   1      46.150  32.159  30.392  1.00  0.00     0.131 A 
ATOM     95  C   UNL A   1      44.982  32.366  27.893  1.00  0.00     0.055 A 
ATOM     96  C   UNL A   1      46.550  33.180  29.522  1.00  0.00     0.041 A 
ATOM     97  F   UNL A   1      46.850  32.035  31.527  1.00  0.00    -0.206 F 
ATOM     98  C   UNL A   1      45.981  33.273  28.256  1.00  0.00     0.022 A 
BRANCH  95  99
ATOM     99  S   UNL A   1      44.420  32.343  26.171  1.00  0.00     0.124 S 
ATOM    100  O   UNL A   1      45.654  32.055  25.448  1.00  0.00    -0.237 OA
ATOM    101  O   UNL A   1      43.433  31.264  26.182  1.00  0.00    -0.237 OA
ATOM    102  O   UNL A   1      43.868  33.678  25.961  1.00  0.00    -0.744 OA
ENDBRANCH  95  99
ENDBRANCH  69  92
ENDBRANCH  43  44
ENDBRANCH  35  38
ENDBRANCH  33  34
ENDBRANCH  32  33
ENDBRANCH   1  32
TORSDOF 19
ENDMDL
