MODEL 1
REMARK VINA RESULT:     -11.3      0.000      0.000
REMARK SMILES CC(C)[C@@H](NC(=O)N[C@H]1CCS(=O)(=O)C1)C(=O)NCCCCCCNC(=O)c1ccc(-c2c3nc(c(-c4cc(S(=O)(=O)[O-])ccc4F)c4ccc([nH]4)c(-c4cc(S(=O)(=O)[O-])ccc4F)c4nc(c(-c5cc(S(=O)(=O)[O-])ccc5F)c5ccc2[nH]5)C=C4)C=C3)cc1
REMARK SMILES IDX 22 1 21 2 20 3 19 4 18 5 16 6 17 7 4 9 2 10 1 11 3 12 5 13
REMARK SMILES IDX 6 14 7 16 8 17 9 19 10 20 15 21 11 22 12 23 13 24 14 25
REMARK SMILES IDX 23 26 24 27 25 28 26 29 27 31 28 32 29 33 90 34 30 35 89 36
REMARK SMILES IDX 31 37 32 38 33 39 83 40 34 41 88 42 82 43 84 44 35 45 87 46
REMARK SMILES IDX 81 47 80 48 36 50 68 51 48 52 67 53 49 54 52 55 66 56 85 57
REMARK SMILES IDX 50 58 51 59 65 61 86 62 53 63 37 64 38 65 46 66 39 67 45 68
REMARK SMILES IDX 47 69 44 70 40 71 41 72 42 73 43 74 69 75 70 76 78 77 71 78
REMARK SMILES IDX 77 79 79 80 76 81 72 82 73 83 74 84 75 85 54 86 55 87 63 88
REMARK SMILES IDX 56 89 62 90 64 91 61 92 57 93 58 94 59 95 60 96
REMARK H PARENT 18 8 5 15 8 18 25 30 84 49 52 60
REMARK Flexibility Score: inf
ROOT
ATOM      1  C   UNL A   1      31.390  30.826  26.288  1.00  0.00     0.002 C 
ENDROOT
BRANCH   1   2
ATOM      2  C   UNL A   1      32.547  30.004  26.864  1.00  0.00     0.002 C 
BRANCH   2   3
ATOM      3  C   UNL A   1      32.149  28.586  27.285  1.00  0.00     0.021 C 
BRANCH   3   4
ATOM      4  C   UNL A   1      32.985  27.532  26.586  1.00  0.00     0.116 C 
BRANCH   4   5
ATOM      5  N   UNL A   1      33.721  28.173  25.516  1.00  0.00    -0.354 N 
ATOM      6  C   UNL A   1      33.601  28.029  24.175  1.00  0.00     0.242 C 
ATOM      7  O   UNL A   1      34.446  28.578  23.461  1.00  0.00    -0.273 OA
ATOM      8  H   UNL A   1      34.413  28.810  25.807  1.00  0.00     0.163 HD
BRANCH   6   9
ATOM      9  C   UNL A   1      32.532  27.121  23.573  1.00  0.00     0.175 C 
BRANCH   9  10
ATOM     10  C   UNL A   1      31.193  27.933  23.573  1.00  0.00     0.015 C 
ATOM     11  C   UNL A   1      31.066  28.881  22.382  1.00  0.00     0.010 C 
ATOM     12  C   UNL A   1      29.958  27.014  23.608  1.00  0.00     0.010 C 
ENDBRANCH   9  10
BRANCH   9  13
ATOM     13  N   UNL A   1      32.911  26.631  22.233  1.00  0.00    -0.326 N 
ATOM     14  C   UNL A   1      32.784  25.489  21.550  1.00  0.00     0.315 C 
ATOM     15  H   UNL A   1      33.376  27.322  21.708  1.00  0.00     0.166 HD
ATOM     16  O   UNL A   1      32.938  25.552  20.327  1.00  0.00    -0.249 OA
ATOM     17  N   UNL A   1      32.552  24.272  22.058  1.00  0.00    -0.334 N 
ATOM     18  H   UNL A   1      32.385  23.605  21.354  1.00  0.00     0.165 HD
BRANCH  17  19
ATOM     19  C   UNL A   1      32.485  23.691  23.389  1.00  0.00     0.099 C 
ATOM     20  C   UNL A   1      31.064  23.613  23.951  1.00  0.00     0.042 C 
ATOM     21  C   UNL A   1      32.991  22.245  23.468  1.00  0.00     0.161 C 
ATOM     22  C   UNL A   1      31.201  22.950  25.319  1.00  0.00     0.139 C 
ATOM     23  S   UNL A   1      32.490  21.731  25.111  1.00  0.00     0.152 S 
ATOM     24  O   UNL A   1      33.566  22.026  26.031  1.00  0.00    -0.229 OA
ATOM     25  O   UNL A   1      31.882  20.418  25.026  1.00  0.00    -0.229 OA
ENDBRANCH  17  19
ENDBRANCH   9  13
ENDBRANCH   6   9
ENDBRANCH   4   5
ENDBRANCH   3   4
ENDBRANCH   2   3
ENDBRANCH   1   2
BRANCH   1  26
ATOM     26  C   UNL A   1      31.439  32.310  26.652  1.00  0.00     0.021 C 
BRANCH  26  27
ATOM     27  C   UNL A   1      32.770  32.751  27.247  1.00  0.00     0.116 C 
BRANCH  27  28
ATOM     28  N   UNL A   1      32.746  34.149  27.640  1.00  0.00    -0.352 N 
ATOM     29  C   UNL A   1      33.476  34.762  28.622  1.00  0.00     0.251 C 
ATOM     30  H   UNL A   1      32.130  34.728  27.136  1.00  0.00     0.163 HD
ATOM     31  O   UNL A   1      33.208  35.905  28.976  1.00  0.00    -0.269 OA
BRANCH  29  32
ATOM     32  C   UNL A   1      34.565  34.002  29.264  1.00  0.00     0.039 A 
ATOM     33  C   UNL A   1      35.878  34.245  28.865  1.00  0.00     0.014 A 
ATOM     34  C   UNL A   1      34.283  33.094  30.291  1.00  0.00     0.014 A 
ATOM     35  C   UNL A   1      36.919  33.598  29.526  1.00  0.00     0.010 A 
ATOM     36  C   UNL A   1      35.327  32.517  31.003  1.00  0.00     0.010 A 
ATOM     37  C   UNL A   1      36.655  32.751  30.618  1.00  0.00    -0.014 A 
BRANCH  37  38
ATOM     38  C   UNL A   1      37.767  32.095  31.349  1.00  0.00     0.031 A 
ATOM     39  C   UNL A   1      38.535  30.976  30.700  1.00  0.00     0.074 A 
ATOM     40  C   UNL A   1      38.063  32.493  32.601  1.00  0.00     0.049 A 
ATOM     41  N   UNL A   1      39.531  30.275  31.175  1.00  0.00    -0.248 NA
ATOM     42  C   UNL A   1      38.110  30.575  29.349  1.00  0.00     0.031 C 
ATOM     43  C   UNL A   1      37.355  33.540  33.343  1.00  0.00     0.029 A 
ATOM     44  N   UNL A   1      39.039  32.076  33.470  1.00  0.00    -0.354 N 
ATOM     45  C   UNL A   1      39.849  29.350  30.186  1.00  0.00     0.074 A 
ATOM     46  C   UNL A   1      38.893  29.533  29.116  1.00  0.00     0.031 C 
ATOM     47  C   UNL A   1      37.944  33.708  34.537  1.00  0.00     0.029 A 
ATOM     48  C   UNL A   1      39.037  32.751  34.669  1.00  0.00     0.049 A 
ATOM     49  H   UNL A   1      39.680  31.360  33.256  1.00  0.00     0.167 HD
ATOM     50  C   UNL A   1      40.862  28.449  30.165  1.00  0.00     0.034 A 
ATOM     51  C   UNL A   1      39.823  32.607  35.755  1.00  0.00     0.034 A 
ATOM     52  C   UNL A   1      41.809  28.290  31.241  1.00  0.00     0.049 A 
ATOM     53  C   UNL A   1      40.923  31.576  35.717  1.00  0.00     0.074 A 
ATOM     54  C   UNL A   1      42.904  27.446  31.305  1.00  0.00     0.029 A 
ATOM     55  N   UNL A   1      41.768  28.977  32.448  1.00  0.00    -0.354 N 
ATOM     56  N   UNL A   1      41.248  30.749  34.750  1.00  0.00    -0.248 NA
ATOM     57  C   UNL A   1      41.770  31.470  36.910  1.00  0.00     0.031 C 
ATOM     58  C   UNL A   1      43.473  27.562  32.577  1.00  0.00     0.029 A 
ATOM     59  C   UNL A   1      42.794  28.548  33.276  1.00  0.00     0.049 A 
ATOM     60  H   UNL A   1      41.107  29.669  32.681  1.00  0.00     0.167 HD
ATOM     61  C   UNL A   1      42.361  30.048  35.208  1.00  0.00     0.074 A 
ATOM     62  C   UNL A   1      42.660  30.566  36.527  1.00  0.00     0.031 C 
ATOM     63  C   UNL A   1      43.073  29.066  34.596  1.00  0.00     0.034 A 
BRANCH  50  64
ATOM     64  C   UNL A   1      40.976  27.554  28.953  1.00  0.00     0.023 A 
ATOM     65  C   UNL A   1      41.979  27.738  27.986  1.00  0.00     0.031 A 
ATOM     66  C   UNL A   1      40.059  26.507  28.756  1.00  0.00     0.131 A 
ATOM     67  C   UNL A   1      42.000  26.935  26.835  1.00  0.00     0.055 A 
ATOM     68  C   UNL A   1      40.136  25.657  27.650  1.00  0.00     0.041 A 
ATOM     69  F   UNL A   1      39.062  26.298  29.630  1.00  0.00    -0.206 F 
ATOM     70  C   UNL A   1      41.103  25.877  26.675  1.00  0.00     0.022 A 
BRANCH  67  71
ATOM     71  S   UNL A   1      43.123  27.386  25.483  1.00  0.00     0.124 S 
ATOM     72  O   UNL A   1      43.515  26.072  24.976  1.00  0.00    -0.237 OA
ATOM     73  O   UNL A   1      42.263  28.177  24.611  1.00  0.00    -0.237 OA
ATOM     74  O   UNL A   1      44.187  28.129  26.154  1.00  0.00    -0.744 OA
ENDBRANCH  67  71
ENDBRANCH  50  64
BRANCH  51  75
ATOM     75  C   UNL A   1      39.597  33.441  36.972  1.00  0.00     0.023 A 
ATOM     76  C   UNL A   1      40.363  34.592  37.217  1.00  0.00     0.031 A 
ATOM     77  C   UNL A   1      38.645  33.067  37.937  1.00  0.00     0.131 A 
ATOM     78  C   UNL A   1      40.206  35.292  38.423  1.00  0.00     0.055 A 
ATOM     79  C   UNL A   1      38.446  33.806  39.105  1.00  0.00     0.041 A 
ATOM     80  F   UNL A   1      37.883  31.976  37.755  1.00  0.00    -0.206 F 
ATOM     81  C   UNL A   1      39.243  34.917  39.362  1.00  0.00     0.022 A 
BRANCH  78  82
ATOM     82  S   UNL A   1      41.361  36.641  38.801  1.00  0.00     0.124 S 
ATOM     83  O   UNL A   1      42.345  35.962  39.634  1.00  0.00    -0.237 OA
ATOM     84  O   UNL A   1      41.809  37.036  37.469  1.00  0.00    -0.237 OA
ATOM     85  O   UNL A   1      40.525  37.620  39.491  1.00  0.00    -0.744 OA
ENDBRANCH  78  82
ENDBRANCH  51  75
BRANCH  63  86
ATOM     86  C   UNL A   1      44.274  28.526  35.336  1.00  0.00     0.023 A 
ATOM     87  C   UNL A   1      44.160  27.489  36.278  1.00  0.00     0.031 A 
ATOM     88  C   UNL A   1      45.550  29.072  35.107  1.00  0.00     0.131 A 
ATOM     89  C   UNL A   1      45.286  27.081  37.008  1.00  0.00     0.055 A 
ATOM     90  C   UNL A   1      46.679  28.610  35.780  1.00  0.00     0.041 A 
ATOM     91  F   UNL A   1      45.719  30.068  34.222  1.00  0.00    -0.206 F 
ATOM     92  C   UNL A   1      46.549  27.619  36.750  1.00  0.00     0.022 A 
BRANCH  89  93
ATOM     93  S   UNL A   1      45.057  25.922  38.383  1.00  0.00     0.124 S 
ATOM     94  O   UNL A   1      44.402  26.761  39.381  1.00  0.00    -0.237 OA
ATOM     95  O   UNL A   1      44.228  24.883  37.782  1.00  0.00    -0.237 OA
ATOM     96  O   UNL A   1      46.421  25.511  38.717  1.00  0.00    -0.744 OA
ENDBRANCH  89  93
ENDBRANCH  63  86
ENDBRANCH  37  38
ENDBRANCH  29  32
ENDBRANCH  27  28
ENDBRANCH  26  27
ENDBRANCH   1  26
TORSDOF 19
ENDMDL
MODEL 2
REMARK VINA RESULT:     -11.1      6.250      9.812
REMARK SMILES CC(C)[C@@H](NC(=O)N[C@H]1CCS(=O)(=O)C1)C(=O)NCCCCCCNC(=O)c1ccc(-c2c3nc(c(-c4cc(S(=O)(=O)[O-])ccc4F)c4ccc([nH]4)c(-c4cc(S(=O)(=O)[O-])ccc4F)c4nc(c(-c5cc(S(=O)(=O)[O-])ccc5F)c5ccc2[nH]5)C=C4)C=C3)cc1
REMARK SMILES IDX 22 1 21 2 20 3 19 4 18 5 16 6 17 7 4 9 2 10 1 11 3 12 5 13
REMARK SMILES IDX 6 14 7 16 8 17 9 19 10 20 15 21 11 22 12 23 13 24 14 25
REMARK SMILES IDX 23 26 24 27 25 28 26 29 27 31 28 32 29 33 90 34 30 35 89 36
REMARK SMILES IDX 31 37 32 38 33 39 83 40 34 41 88 42 82 43 84 44 35 45 87 46
REMARK SMILES IDX 81 47 80 48 36 50 68 51 48 52 67 53 49 54 52 55 66 56 85 57
REMARK SMILES IDX 50 58 51 59 65 61 86 62 53 63 37 64 38 65 46 66 39 67 45 68
REMARK SMILES IDX 47 69 44 70 40 71 41 72 42 73 43 74 69 75 70 76 78 77 71 78
REMARK SMILES IDX 77 79 79 80 76 81 72 82 73 83 74 84 75 85 54 86 55 87 63 88
REMARK SMILES IDX 56 89 62 90 64 91 61 92 57 93 58 94 59 95 60 96
REMARK H PARENT 18 8 5 15 8 18 25 30 84 49 52 60
REMARK Flexibility Score: inf
ROOT
ATOM      1  C   UNL A   1      37.247  20.876  24.625  1.00  0.00     0.002 C 
ENDROOT
BRANCH   1   2
ATOM      2  C   UNL A   1      37.585  22.256  25.199  1.00  0.00     0.002 C 
BRANCH   2   3
ATOM      3  C   UNL A   1      36.695  23.383  24.665  1.00  0.00     0.021 C 
BRANCH   3   4
ATOM      4  C   UNL A   1      35.821  23.978  25.753  1.00  0.00     0.116 C 
BRANCH   4   5
ATOM      5  N   UNL A   1      35.429  22.913  26.653  1.00  0.00    -0.354 N 
ATOM      6  C   UNL A   1      34.268  22.219  26.720  1.00  0.00     0.242 C 
ATOM      7  O   UNL A   1      34.113  21.451  27.675  1.00  0.00    -0.273 OA
ATOM      8  H   UNL A   1      36.109  22.654  27.316  1.00  0.00     0.163 HD
BRANCH   6   9
ATOM      9  C   UNL A   1      33.143  22.469  25.719  1.00  0.00     0.175 C 
BRANCH   9  10
ATOM     10  C   UNL A   1      33.381  21.494  24.517  1.00  0.00     0.015 C 
ATOM     11  C   UNL A   1      32.662  20.155  24.679  1.00  0.00     0.010 C 
ATOM     12  C   UNL A   1      32.963  22.119  23.173  1.00  0.00     0.010 C 
ENDBRANCH   9  10
BRANCH   9  13
ATOM     13  N   UNL A   1      31.811  22.315  26.334  1.00  0.00    -0.326 N 
ATOM     14  C   UNL A   1      30.587  22.811  26.125  1.00  0.00     0.315 C 
ATOM     15  H   UNL A   1      31.827  21.686  27.092  1.00  0.00     0.166 HD
ATOM     16  O   UNL A   1      29.644  22.202  26.639  1.00  0.00    -0.249 OA
ATOM     17  N   UNL A   1      30.278  23.926  25.453  1.00  0.00    -0.334 N 
ATOM     18  H   UNL A   1      29.306  24.028  25.335  1.00  0.00     0.165 HD
BRANCH  17  19
ATOM     19  C   UNL A   1      31.019  25.026  24.856  1.00  0.00     0.099 C 
ATOM     20  C   UNL A   1      30.811  25.154  23.346  1.00  0.00     0.042 C 
ATOM     21  C   UNL A   1      30.634  26.409  25.397  1.00  0.00     0.161 C 
ATOM     22  C   UNL A   1      31.630  26.369  22.921  1.00  0.00     0.139 C 
ATOM     23  S   UNL A   1      31.462  27.529  24.270  1.00  0.00     0.152 S 
ATOM     24  O   UNL A   1      32.775  27.824  24.798  1.00  0.00    -0.229 OA
ATOM     25  O   UNL A   1      30.533  28.570  23.877  1.00  0.00    -0.229 OA
ENDBRANCH  17  19
ENDBRANCH   9  13
ENDBRANCH   6   9
ENDBRANCH   4   5
ENDBRANCH   3   4
ENDBRANCH   2   3
ENDBRANCH   1   2
BRANCH   1  26
ATOM     26  C   UNL A   1      38.232  19.778  25.025  1.00  0.00     0.021 C 
BRANCH  26  27
ATOM     27  C   UNL A   1      39.363  20.266  25.921  1.00  0.00     0.116 C 
BRANCH  27  28
ATOM     28  N   UNL A   1      40.463  19.319  25.961  1.00  0.00    -0.352 N 
ATOM     29  C   UNL A   1      41.798  19.583  26.113  1.00  0.00     0.251 C 
ATOM     30  H   UNL A   1      40.219  18.371  25.870  1.00  0.00     0.163 HD
ATOM     31  O   UNL A   1      42.631  18.703  25.929  1.00  0.00    -0.269 OA
BRANCH  29  32
ATOM     32  C   UNL A   1      42.206  20.956  26.467  1.00  0.00     0.039 A 
ATOM     33  C   UNL A   1      42.310  21.907  25.454  1.00  0.00     0.014 A 
ATOM     34  C   UNL A   1      42.431  21.302  27.804  1.00  0.00     0.014 A 
ATOM     35  C   UNL A   1      42.608  23.225  25.790  1.00  0.00     0.010 A 
ATOM     36  C   UNL A   1      42.642  22.634  28.142  1.00  0.00     0.010 A 
ATOM     37  C   UNL A   1      42.748  23.605  27.137  1.00  0.00    -0.014 A 
BRANCH  37  38
ATOM     38  C   UNL A   1      43.023  25.018  27.496  1.00  0.00     0.031 A 
ATOM     39  C   UNL A   1      44.404  25.586  27.307  1.00  0.00     0.074 A 
ATOM     40  C   UNL A   1      42.036  25.776  28.012  1.00  0.00     0.049 A 
ATOM     41  N   UNL A   1      44.843  26.790  27.566  1.00  0.00    -0.248 NA
ATOM     42  C   UNL A   1      45.431  24.672  26.782  1.00  0.00     0.031 C 
ATOM     43  C   UNL A   1      40.671  25.314  28.278  1.00  0.00     0.029 A 
ATOM     44  N   UNL A   1      42.021  27.091  28.398  1.00  0.00    -0.354 N 
ATOM     45  C   UNL A   1      46.196  26.777  27.241  1.00  0.00     0.074 A 
ATOM     46  C   UNL A   1      46.518  25.427  26.835  1.00  0.00     0.031 C 
ATOM     47  C   UNL A   1      39.943  26.340  28.746  1.00  0.00     0.029 A 
ATOM     48  C   UNL A   1      40.797  27.517  28.863  1.00  0.00     0.049 A 
ATOM     49  H   UNL A   1      42.811  27.676  28.349  1.00  0.00     0.167 HD
ATOM     50  C   UNL A   1      47.079  27.806  27.257  1.00  0.00     0.034 A 
ATOM     51  C   UNL A   1      40.411  28.719  29.337  1.00  0.00     0.034 A 
ATOM     52  C   UNL A   1      46.733  29.147  27.659  1.00  0.00     0.049 A 
ATOM     53  C   UNL A   1      41.422  29.838  29.372  1.00  0.00     0.074 A 
ATOM     54  C   UNL A   1      47.532  30.277  27.664  1.00  0.00     0.029 A 
ATOM     55  N   UNL A   1      45.489  29.539  28.139  1.00  0.00    -0.354 N 
ATOM     56  N   UNL A   1      42.683  29.825  29.005  1.00  0.00    -0.248 NA
ATOM     57  C   UNL A   1      40.954  31.135  29.872  1.00  0.00     0.031 C 
ATOM     58  C   UNL A   1      46.801  31.328  28.225  1.00  0.00     0.029 A 
ATOM     59  C   UNL A   1      45.514  30.883  28.480  1.00  0.00     0.049 A 
ATOM     60  H   UNL A   1      44.706  28.950  28.224  1.00  0.00     0.167 HD
ATOM     61  C   UNL A   1      43.148  31.123  29.199  1.00  0.00     0.074 A 
ATOM     62  C   UNL A   1      42.025  31.893  29.695  1.00  0.00     0.031 C 
ATOM     63  C   UNL A   1      44.388  31.635  28.986  1.00  0.00     0.034 A 
BRANCH  50  64
ATOM     64  C   UNL A   1      48.504  27.509  26.854  1.00  0.00     0.023 A 
ATOM     65  C   UNL A   1      49.020  27.899  25.605  1.00  0.00     0.031 A 
ATOM     66  C   UNL A   1      49.359  26.814  27.728  1.00  0.00     0.131 A 
ATOM     67  C   UNL A   1      50.324  27.533  25.239  1.00  0.00     0.055 A 
ATOM     68  C   UNL A   1      50.683  26.527  27.391  1.00  0.00     0.041 A 
ATOM     69  F   UNL A   1      48.918  26.392  28.923  1.00  0.00    -0.206 F 
ATOM     70  C   UNL A   1      51.169  26.875  26.135  1.00  0.00     0.022 A 
BRANCH  67  71
ATOM     71  S   UNL A   1      50.850  27.799  23.523  1.00  0.00     0.124 S 
ATOM     72  O   UNL A   1      51.802  26.706  23.335  1.00  0.00    -0.237 OA
ATOM     73  O   UNL A   1      49.596  27.687  22.788  1.00  0.00    -0.237 OA
ATOM     74  O   UNL A   1      51.443  29.134  23.549  1.00  0.00    -0.744 OA
ENDBRANCH  67  71
ENDBRANCH  50  64
BRANCH  51  75
ATOM     75  C   UNL A   1      39.019  28.929  29.829  1.00  0.00     0.023 A 
ATOM     76  C   UNL A   1      38.008  29.397  28.973  1.00  0.00     0.031 A 
ATOM     77  C   UNL A   1      38.689  28.717  31.179  1.00  0.00     0.131 A 
ATOM     78  C   UNL A   1      36.736  29.692  29.488  1.00  0.00     0.055 A 
ATOM     79  C   UNL A   1      37.404  28.950  31.673  1.00  0.00     0.041 A 
ATOM     80  F   UNL A   1      39.615  28.270  32.043  1.00  0.00    -0.206 F 
ATOM     81  C   UNL A   1      36.423  29.458  30.828  1.00  0.00     0.022 A 
BRANCH  78  82
ATOM     82  S   UNL A   1      35.525  30.498  28.402  1.00  0.00     0.124 S 
ATOM     83  O   UNL A   1      34.688  29.372  28.007  1.00  0.00    -0.237 OA
ATOM     84  O   UNL A   1      34.913  31.470  29.302  1.00  0.00    -0.237 OA
ATOM     85  O   UNL A   1      36.350  31.068  27.339  1.00  0.00    -0.744 OA
ENDBRANCH  78  82
ENDBRANCH  51  75
BRANCH  63  86
ATOM     86  C   UNL A   1      44.575  33.111  29.247  1.00  0.00     0.023 A 
ATOM     87  C   UNL A   1      44.172  34.086  28.317  1.00  0.00     0.031 A 
ATOM     88  C   UNL A   1      45.184  33.548  30.437  1.00  0.00     0.131 A 
ATOM     89  C   UNL A   1      44.447  35.440  28.560  1.00  0.00     0.055 A 
ATOM     90  C   UNL A   1      45.386  34.901  30.708  1.00  0.00     0.041 A 
ATOM     91  F   UNL A   1      45.593  32.663  31.360  1.00  0.00    -0.206 F 
ATOM     92  C   UNL A   1      45.032  35.856  29.758  1.00  0.00     0.022 A 
BRANCH  89  93
ATOM     93  S   UNL A   1      44.140  36.640  27.236  1.00  0.00     0.124 S 
ATOM     94  O   UNL A   1      43.531  37.747  27.965  1.00  0.00    -0.237 OA
ATOM     95  O   UNL A   1      45.481  36.881  26.715  1.00  0.00    -0.237 OA
ATOM     96  O   UNL A   1      43.242  35.927  26.328  1.00  0.00    -0.744 OA
ENDBRANCH  89  93
ENDBRANCH  63  86
ENDBRANCH  37  38
ENDBRANCH  29  32
ENDBRANCH  27  28
ENDBRANCH  26  27
ENDBRANCH   1  26
TORSDOF 19
ENDMDL
MODEL 3
REMARK VINA RESULT:     -11.1      5.781     11.455
REMARK SMILES CC(C)[C@@H](NC(=O)N[C@H]1CCS(=O)(=O)C1)C(=O)NCCCCCCNC(=O)c1ccc(-c2c3nc(c(-c4cc(S(=O)(=O)[O-])ccc4F)c4ccc([nH]4)c(-c4cc(S(=O)(=O)[O-])ccc4F)c4nc(c(-c5cc(S(=O)(=O)[O-])ccc5F)c5ccc2[nH]5)C=C4)C=C3)cc1
REMARK SMILES IDX 22 1 21 2 20 3 19 4 18 5 16 6 17 7 4 9 2 10 1 11 3 12 5 13
REMARK SMILES IDX 6 14 7 16 8 17 9 19 10 20 15 21 11 22 12 23 13 24 14 25
REMARK SMILES IDX 23 26 24 27 25 28 26 29 27 31 28 32 29 33 90 34 30 35 89 36
REMARK SMILES IDX 31 37 32 38 33 39 83 40 34 41 88 42 82 43 84 44 35 45 87 46
REMARK SMILES IDX 81 47 80 48 36 50 68 51 48 52 67 53 49 54 52 55 66 56 85 57
REMARK SMILES IDX 50 58 51 59 65 61 86 62 53 63 37 64 38 65 46 66 39 67 45 68
REMARK SMILES IDX 47 69 44 70 40 71 41 72 42 73 43 74 69 75 70 76 78 77 71 78
REMARK SMILES IDX 77 79 79 80 76 81 72 82 73 83 74 84 75 85 54 86 55 87 63 88
REMARK SMILES IDX 56 89 62 90 64 91 61 92 57 93 58 94 59 95 60 96
REMARK H PARENT 18 8 5 15 8 18 25 30 84 49 52 60
REMARK Flexibility Score: inf
ROOT
ATOM      1  C   UNL A   1      37.087  20.391  24.724  1.00  0.00     0.002 C 
ENDROOT
BRANCH   1   2
ATOM      2  C   UNL A   1      37.398  21.891  24.671  1.00  0.00     0.002 C 
BRANCH   2   3
ATOM      3  C   UNL A   1      36.428  22.692  23.797  1.00  0.00     0.021 C 
BRANCH   3   4
ATOM      4  C   UNL A   1      35.703  23.763  24.590  1.00  0.00     0.116 C 
BRANCH   4   5
ATOM      5  N   UNL A   1      35.493  23.267  25.934  1.00  0.00    -0.354 N 
ATOM      6  C   UNL A   1      34.376  22.754  26.503  1.00  0.00     0.242 C 
ATOM      7  O   UNL A   1      34.400  22.532  27.718  1.00  0.00    -0.273 OA
ATOM      8  H   UNL A   1      36.280  23.309  26.524  1.00  0.00     0.163 HD
BRANCH   6   9
ATOM      9  C   UNL A   1      33.093  22.573  25.695  1.00  0.00     0.175 C 
BRANCH   9  10
ATOM     10  C   UNL A   1      33.248  21.238  24.891  1.00  0.00     0.015 C 
ATOM     11  C   UNL A   1      32.493  20.068  25.520  1.00  0.00     0.010 C 
ATOM     12  C   UNL A   1      32.797  21.388  23.427  1.00  0.00     0.010 C 
ENDBRANCH   9  10
BRANCH   9  13
ATOM     13  N   UNL A   1      31.891  22.596  26.551  1.00  0.00    -0.326 N 
ATOM     14  C   UNL A   1      30.933  23.479  26.848  1.00  0.00     0.315 C 
ATOM     15  H   UNL A   1      31.763  21.742  27.026  1.00  0.00     0.166 HD
ATOM     16  O   UNL A   1      29.902  23.032  27.359  1.00  0.00    -0.249 OA
ATOM     17  N   UNL A   1      30.989  24.807  26.689  1.00  0.00    -0.334 N 
ATOM     18  H   UNL A   1      30.122  25.237  26.871  1.00  0.00     0.165 HD
BRANCH  17  19
ATOM     19  C   UNL A   1      32.011  25.773  26.318  1.00  0.00     0.099 C 
ATOM     20  C   UNL A   1      32.173  25.939  24.806  1.00  0.00     0.042 C 
ATOM     21  C   UNL A   1      31.739  27.198  26.815  1.00  0.00     0.161 C 
ATOM     22  C   UNL A   1      33.250  27.005  24.624  1.00  0.00     0.139 C 
ATOM     23  S   UNL A   1      32.968  28.171  25.947  1.00  0.00     0.152 S 
ATOM     24  O   UNL A   1      34.157  28.245  26.767  1.00  0.00    -0.229 OA
ATOM     25  O   UNL A   1      32.329  29.352  25.401  1.00  0.00    -0.229 OA
ENDBRANCH  17  19
ENDBRANCH   9  13
ENDBRANCH   6   9
ENDBRANCH   4   5
ENDBRANCH   3   4
ENDBRANCH   2   3
ENDBRANCH   1   2
BRANCH   1  26
ATOM     26  C   UNL A   1      38.307  19.512  24.998  1.00  0.00     0.021 C 
BRANCH  26  27
ATOM     27  C   UNL A   1      39.377  20.196  25.841  1.00  0.00     0.116 C 
BRANCH  27  28
ATOM     28  N   UNL A   1      40.460  19.287  26.174  1.00  0.00    -0.352 N 
ATOM     29  C   UNL A   1      41.758  19.597  26.477  1.00  0.00     0.251 C 
ATOM     30  H   UNL A   1      40.231  18.330  26.186  1.00  0.00     0.163 HD
ATOM     31  O   UNL A   1      42.609  18.716  26.543  1.00  0.00    -0.269 OA
BRANCH  29  32
ATOM     32  C   UNL A   1      42.111  21.013  26.686  1.00  0.00     0.039 A 
ATOM     33  C   UNL A   1      42.408  21.447  27.976  1.00  0.00     0.014 A 
ATOM     34  C   UNL A   1      42.195  21.888  25.596  1.00  0.00     0.014 A 
ATOM     35  C   UNL A   1      42.828  22.761  28.170  1.00  0.00     0.010 A 
ATOM     36  C   UNL A   1      42.696  23.171  25.783  1.00  0.00     0.010 A 
ATOM     37  C   UNL A   1      43.003  23.624  27.074  1.00  0.00    -0.014 A 
BRANCH  37  38
ATOM     38  C   UNL A   1      43.490  25.011  27.278  1.00  0.00     0.031 A 
ATOM     39  C   UNL A   1      42.557  26.065  27.806  1.00  0.00     0.074 A 
ATOM     40  C   UNL A   1      44.764  25.319  26.963  1.00  0.00     0.049 A 
ATOM     41  N   UNL A   1      42.790  27.330  28.045  1.00  0.00    -0.248 NA
ATOM     42  C   UNL A   1      41.171  25.650  28.076  1.00  0.00     0.031 C 
ATOM     43  C   UNL A   1      45.743  24.384  26.403  1.00  0.00     0.029 A 
ATOM     44  N   UNL A   1      45.458  26.496  27.075  1.00  0.00    -0.354 N 
ATOM     45  C   UNL A   1      41.583  27.861  28.489  1.00  0.00     0.074 A 
ATOM     46  C   UNL A   1      40.605  26.798  28.416  1.00  0.00     0.031 C 
ATOM     47  C   UNL A   1      46.919  25.013  26.258  1.00  0.00     0.029 A 
ATOM     48  C   UNL A   1      46.768  26.407  26.664  1.00  0.00     0.049 A 
ATOM     49  H   UNL A   1      45.056  27.328  27.416  1.00  0.00     0.167 HD
ATOM     50  C   UNL A   1      41.325  29.113  28.939  1.00  0.00     0.034 A 
ATOM     51  C   UNL A   1      47.735  27.345  26.614  1.00  0.00     0.034 A 
ATOM     52  C   UNL A   1      42.320  30.155  29.009  1.00  0.00     0.049 A 
ATOM     53  C   UNL A   1      47.412  28.739  27.092  1.00  0.00     0.074 A 
ATOM     54  C   UNL A   1      42.183  31.443  29.496  1.00  0.00     0.029 A 
ATOM     55  N   UNL A   1      43.633  30.036  28.569  1.00  0.00    -0.354 N 
ATOM     56  N   UNL A   1      46.281  29.209  27.565  1.00  0.00    -0.248 NA
ATOM     57  C   UNL A   1      48.500  29.722  27.043  1.00  0.00     0.031 C 
ATOM     58  C   UNL A   1      43.383  32.125  29.274  1.00  0.00     0.029 A 
ATOM     59  C   UNL A   1      44.302  31.238  28.737  1.00  0.00     0.049 A 
ATOM     60  H   UNL A   1      44.029  29.216  28.194  1.00  0.00     0.167 HD
ATOM     61  C   UNL A   1      46.534  30.537  27.901  1.00  0.00     0.074 A 
ATOM     62  C   UNL A   1      47.929  30.781  27.595  1.00  0.00     0.031 C 
ATOM     63  C   UNL A   1      45.692  31.470  28.416  1.00  0.00     0.034 A 
BRANCH  50  64
ATOM     64  C   UNL A   1      39.909  29.426  29.361  1.00  0.00     0.023 A 
ATOM     65  C   UNL A   1      39.549  29.559  30.713  1.00  0.00     0.031 A 
ATOM     66  C   UNL A   1      38.899  29.581  28.395  1.00  0.00     0.131 A 
ATOM     67  C   UNL A   1      38.207  29.770  31.065  1.00  0.00     0.055 A 
ATOM     68  C   UNL A   1      37.580  29.875  28.748  1.00  0.00     0.041 A 
ATOM     69  F   UNL A   1      39.174  29.440  27.089  1.00  0.00    -0.206 F 
ATOM     70  C   UNL A   1      37.225  29.957  30.090  1.00  0.00     0.022 A 
BRANCH  67  71
ATOM     71  S   UNL A   1      37.739  29.648  32.813  1.00  0.00     0.124 S 
ATOM     72  O   UNL A   1      36.599  30.561  32.876  1.00  0.00    -0.237 OA
ATOM     73  O   UNL A   1      37.431  28.230  32.959  1.00  0.00    -0.237 OA
ATOM     74  O   UNL A   1      38.933  30.105  33.521  1.00  0.00    -0.744 OA
ENDBRANCH  67  71
ENDBRANCH  50  64
BRANCH  51  75
ATOM     75  C   UNL A   1      49.089  27.012  26.082  1.00  0.00     0.023 A 
ATOM     76  C   UNL A   1      49.486  27.419  24.798  1.00  0.00     0.031 A 
ATOM     77  C   UNL A   1      49.988  26.231  26.830  1.00  0.00     0.131 A 
ATOM     78  C   UNL A   1      50.720  26.996  24.280  1.00  0.00     0.055 A 
ATOM     79  C   UNL A   1      51.242  25.869  26.336  1.00  0.00     0.041 A 
ATOM     80  F   UNL A   1      49.662  25.813  28.064  1.00  0.00    -0.206 F 
ATOM     81  C   UNL A   1      51.607  26.237  25.045  1.00  0.00     0.022 A 
BRANCH  78  82
ATOM     82  S   UNL A   1      51.103  27.359  22.543  1.00  0.00     0.124 S 
ATOM     83  O   UNL A   1      51.113  28.816  22.541  1.00  0.00    -0.237 OA
ATOM     84  O   UNL A   1      52.397  26.706  22.377  1.00  0.00    -0.237 OA
ATOM     85  O   UNL A   1      49.997  26.740  21.816  1.00  0.00    -0.744 OA
ENDBRANCH  78  82
ENDBRANCH  51  75
BRANCH  63  86
ATOM     86  C   UNL A   1      46.279  32.828  28.724  1.00  0.00     0.023 A 
ATOM     87  C   UNL A   1      46.159  33.908  27.832  1.00  0.00     0.031 A 
ATOM     88  C   UNL A   1      46.986  33.038  29.922  1.00  0.00     0.131 A 
ATOM     89  C   UNL A   1      46.796  35.124  28.117  1.00  0.00     0.055 A 
ATOM     90  C   UNL A   1      47.553  34.272  30.235  1.00  0.00     0.041 A 
ATOM     91  F   UNL A   1      47.137  32.042  30.810  1.00  0.00    -0.206 F 
ATOM     92  C   UNL A   1      47.475  35.320  29.322  1.00  0.00     0.022 A 
BRANCH  89  93
ATOM     93  S   UNL A   1      46.830  36.408  26.837  1.00  0.00     0.124 S 
ATOM     94  O   UNL A   1      48.168  36.967  27.004  1.00  0.00    -0.237 OA
ATOM     95  O   UNL A   1      46.609  35.639  25.617  1.00  0.00    -0.237 OA
ATOM     96  O   UNL A   1      45.734  37.299  27.215  1.00  0.00    -0.744 OA
ENDBRANCH  89  93
ENDBRANCH  63  86
ENDBRANCH  37  38
ENDBRANCH  29  32
ENDBRANCH  27  28
ENDBRANCH  26  27
ENDBRANCH   1  26
TORSDOF 19
ENDMDL
