MODEL 1
REMARK VINA RESULT:     -11.7      0.000      0.000
REMARK SMILES O=C(NCCCCCCNC(=O)[C@@H]1CCCC[C@@H]1C(=O)Nc1cccc(Br)c1)c1ccc(-c2c3nc(c(-c4cc(S(=O)(=O)[O-])ccc4F)c4ccc([nH]4)c(-c4cc(S(=O)(=O)[O-])ccc4F)c4nc(c(-c5cc(S(=O)(=O)[O-])ccc5F)c5ccc2[nH]5)C=C4)C=C3)cc1
REMARK SMILES IDX 6 1 5 2 4 3 3 4 1 5 2 6 29 8 30 9 91 10 31 11 90 12 32 13
REMARK SMILES IDX 33 14 34 15 84 16 35 17 89 18 83 19 85 20 36 21 88 22 82 23
REMARK SMILES IDX 81 24 37 26 69 27 49 28 68 29 50 30 53 31 67 32 86 33 51 34
REMARK SMILES IDX 52 35 66 37 87 38 54 39 38 40 39 41 47 42 40 43 46 44 48 45
REMARK SMILES IDX 45 46 41 47 42 48 43 49 44 50 70 51 71 52 79 53 72 54 78 55
REMARK SMILES IDX 80 56 77 57 73 58 74 59 75 60 76 61 55 62 56 63 64 64 57 65
REMARK SMILES IDX 63 66 65 67 62 68 58 69 59 70 60 71 61 72 7 73 8 74 9 75
REMARK SMILES IDX 10 76 11 77 12 79 13 80 14 81 18 82 15 83 17 84 16 85 19 86
REMARK SMILES IDX 20 87 21 88 22 90 23 91 28 92 24 93 26 94 25 95 27 96
REMARK H PARENT 3 7 85 25 53 36 10 78 21 89
REMARK Flexibility Score: inf
ROOT
ATOM      1  C   UNL A   1      37.019  20.534  25.009  1.00  0.00     0.002 C 
ENDROOT
BRANCH   1   2
ATOM      2  C   UNL A   1      38.288  19.690  24.935  1.00  0.00     0.021 C 
BRANCH   2   3
ATOM      3  C   UNL A   1      39.392  20.131  25.885  1.00  0.00     0.116 C 
BRANCH   3   4
ATOM      4  N   UNL A   1      40.456  19.140  25.987  1.00  0.00    -0.352 N 
ATOM      5  O   UNL A   1      42.576  18.380  25.983  1.00  0.00    -0.269 OA
ATOM      6  C   UNL A   1      41.811  19.331  26.117  1.00  0.00     0.251 C 
ATOM      7  H   UNL A   1      40.161  18.201  25.958  1.00  0.00     0.163 HD
BRANCH   6   8
ATOM      8  C   UNL A   1      42.344  20.680  26.412  1.00  0.00     0.039 A 
ATOM      9  C   UNL A   1      42.655  21.564  25.374  1.00  0.00     0.014 A 
ATOM     10  C   UNL A   1      42.504  21.079  27.742  1.00  0.00     0.014 A 
ATOM     11  C   UNL A   1      43.240  22.791  25.659  1.00  0.00     0.010 A 
ATOM     12  C   UNL A   1      43.006  22.350  28.029  1.00  0.00     0.010 A 
ATOM     13  C   UNL A   1      43.392  23.211  26.988  1.00  0.00    -0.014 A 
BRANCH  13  14
ATOM     14  C   UNL A   1      43.886  24.581  27.271  1.00  0.00     0.031 A 
ATOM     15  C   UNL A   1      42.960  25.636  27.805  1.00  0.00     0.074 A 
ATOM     16  C   UNL A   1      45.181  24.863  27.031  1.00  0.00     0.049 A 
ATOM     17  N   UNL A   1      43.193  26.903  28.029  1.00  0.00    -0.248 NA
ATOM     18  C   UNL A   1      41.588  25.211  28.113  1.00  0.00     0.031 C 
ATOM     19  C   UNL A   1      46.167  23.905  26.522  1.00  0.00     0.029 A 
ATOM     20  N   UNL A   1      45.894  26.024  27.177  1.00  0.00    -0.354 N 
ATOM     21  C   UNL A   1      41.993  27.436  28.483  1.00  0.00     0.074 A 
ATOM     22  C   UNL A   1      41.026  26.357  28.469  1.00  0.00     0.031 C 
ATOM     23  C   UNL A   1      47.359  24.508  26.425  1.00  0.00     0.029 A 
ATOM     24  C   UNL A   1      47.207  25.913  26.781  1.00  0.00     0.049 A 
ATOM     25  H   UNL A   1      45.505  26.856  27.532  1.00  0.00     0.167 HD
ATOM     26  C   UNL A   1      41.730  28.710  28.877  1.00  0.00     0.034 A 
ATOM     27  C   UNL A   1      48.171  26.846  26.671  1.00  0.00     0.034 A 
ATOM     28  C   UNL A   1      42.717  29.765  28.867  1.00  0.00     0.049 A 
ATOM     29  C   UNL A   1      47.841  28.263  27.050  1.00  0.00     0.074 A 
ATOM     30  C   UNL A   1      42.574  31.086  29.255  1.00  0.00     0.029 A 
ATOM     31  N   UNL A   1      44.031  29.623  28.430  1.00  0.00    -0.354 N 
ATOM     32  N   UNL A   1      46.702  28.756  27.478  1.00  0.00    -0.248 NA
ATOM     33  C   UNL A   1      48.924  29.245  26.938  1.00  0.00     0.031 C 
ATOM     34  C   UNL A   1      43.772  31.756  28.981  1.00  0.00     0.029 A 
ATOM     35  C   UNL A   1      44.697  30.838  28.508  1.00  0.00     0.049 A 
ATOM     36  H   UNL A   1      44.430  28.781  28.111  1.00  0.00     0.167 HD
ATOM     37  C   UNL A   1      46.939  30.106  27.714  1.00  0.00     0.074 A 
ATOM     38  C   UNL A   1      48.331  30.344  27.386  1.00  0.00     0.031 C 
ATOM     39  C   UNL A   1      46.085  31.058  28.168  1.00  0.00     0.034 A 
BRANCH  26  40
ATOM     40  C   UNL A   1      40.308  29.030  29.286  1.00  0.00     0.023 A 
ATOM     41  C   UNL A   1      39.900  29.009  30.631  1.00  0.00     0.031 A 
ATOM     42  C   UNL A   1      39.333  29.307  28.310  1.00  0.00     0.131 A 
ATOM     43  C   UNL A   1      38.542  29.164  30.955  1.00  0.00     0.055 A 
ATOM     44  C   UNL A   1      37.999  29.553  28.647  1.00  0.00     0.041 A 
ATOM     45  F   UNL A   1      39.653  29.321  27.007  1.00  0.00    -0.206 F 
ATOM     46  C   UNL A   1      37.593  29.462  29.975  1.00  0.00     0.022 A 
BRANCH  43  47
ATOM     47  S   UNL A   1      38.011  28.793  32.650  1.00  0.00     0.124 S 
ATOM     48  O   UNL A   1      36.656  29.340  32.663  1.00  0.00    -0.237 OA
ATOM     49  O   UNL A   1      38.111  27.339  32.701  1.00  0.00    -0.237 OA
ATOM     50  O   UNL A   1      38.973  29.516  33.478  1.00  0.00    -0.744 OA
ENDBRANCH  43  47
ENDBRANCH  26  40
BRANCH  27  51
ATOM     51  C   UNL A   1      49.511  26.468  26.142  1.00  0.00     0.023 A 
ATOM     52  C   UNL A   1      49.957  26.928  24.895  1.00  0.00     0.031 A 
ATOM     53  C   UNL A   1      50.376  25.648  26.891  1.00  0.00     0.131 A 
ATOM     54  C   UNL A   1      51.221  26.543  24.421  1.00  0.00     0.055 A 
ATOM     55  C   UNL A   1      51.652  25.312  26.439  1.00  0.00     0.041 A 
ATOM     56  F   UNL A   1      50.001  25.187  28.096  1.00  0.00    -0.206 F 
ATOM     57  C   UNL A   1      52.078  25.754  25.192  1.00  0.00     0.022 A 
BRANCH  54  58
ATOM     58  S   UNL A   1      51.711  27.046  22.749  1.00  0.00     0.124 S 
ATOM     59  O   UNL A   1      52.778  26.098  22.455  1.00  0.00    -0.237 OA
ATOM     60  O   UNL A   1      50.470  26.867  22.003  1.00  0.00    -0.237 OA
ATOM     61  O   UNL A   1      52.138  28.433  22.922  1.00  0.00    -0.744 OA
ENDBRANCH  54  58
ENDBRANCH  27  51
BRANCH  39  62
ATOM     62  C   UNL A   1      46.658  32.435  28.397  1.00  0.00     0.023 A 
ATOM     63  C   UNL A   1      46.789  33.372  27.358  1.00  0.00     0.031 A 
ATOM     64  C   UNL A   1      47.078  32.811  29.686  1.00  0.00     0.131 A 
ATOM     65  C   UNL A   1      47.374  34.621  27.615  1.00  0.00     0.055 A 
ATOM     66  C   UNL A   1      47.601  34.078  29.949  1.00  0.00     0.041 A 
ATOM     67  F   UNL A   1      46.982  31.953  30.713  1.00  0.00    -0.206 F 
ATOM     68  C   UNL A   1      47.760  34.987  28.908  1.00  0.00     0.022 A 
BRANCH  65  69
ATOM     69  S   UNL A   1      47.702  35.735  26.222  1.00  0.00     0.124 S 
ATOM     70  O   UNL A   1      46.552  36.630  26.273  1.00  0.00    -0.237 OA
ATOM     71  O   UNL A   1      48.986  36.324  26.589  1.00  0.00    -0.237 OA
ATOM     72  O   UNL A   1      47.741  34.839  25.068  1.00  0.00    -0.744 OA
ENDBRANCH  65  69
ENDBRANCH  39  62
ENDBRANCH  13  14
ENDBRANCH   6   8
ENDBRANCH   3   4
ENDBRANCH   2   3
ENDBRANCH   1   2
BRANCH   1  73
ATOM     73  C   UNL A   1      36.993  21.821  24.181  1.00  0.00     0.002 C 
BRANCH  73  74
ATOM     74  C   UNL A   1      35.740  22.702  24.284  1.00  0.00     0.021 C 
BRANCH  74  75
ATOM     75  C   UNL A   1      35.896  24.077  24.943  1.00  0.00     0.116 C 
BRANCH  75  76
ATOM     76  N   UNL A   1      34.764  24.461  25.771  1.00  0.00    -0.356 N 
ATOM     77  C   UNL A   1      33.538  24.959  25.413  1.00  0.00     0.223 C 
ATOM     78  H   UNL A   1      34.898  24.346  26.740  1.00  0.00     0.163 HD
ATOM     79  O   UNL A   1      32.677  25.043  26.289  1.00  0.00    -0.275 OA
BRANCH  77  80
ATOM     80  C   UNL A   1      33.286  25.412  23.982  1.00  0.00     0.091 C 
ATOM     81  C   UNL A   1      32.371  26.640  23.906  1.00  0.00     0.014 C 
ATOM     82  C   UNL A   1      32.824  24.305  23.021  1.00  0.00     0.091 C 
ATOM     83  C   UNL A   1      32.387  27.230  22.495  1.00  0.00     0.001 C 
ATOM     84  C   UNL A   1      32.907  24.882  21.583  1.00  0.00     0.014 C 
ATOM     85  C   UNL A   1      32.138  26.197  21.395  1.00  0.00     0.001 C 
BRANCH  82  86
ATOM     86  C   UNL A   1      31.391  23.743  23.203  1.00  0.00     0.228 C 
ATOM     87  O   UNL A   1      30.381  24.443  23.153  1.00  0.00    -0.274 OA
ATOM     88  N   UNL A   1      31.248  22.377  23.141  1.00  0.00    -0.326 N 
ATOM     89  H   UNL A   1      30.544  22.036  22.544  1.00  0.00     0.169 HD
BRANCH  88  90
ATOM     90  C   UNL A   1      31.995  21.418  23.835  1.00  0.00     0.042 A 
ATOM     91  C   UNL A   1      32.381  21.642  25.155  1.00  0.00     0.026 A 
ATOM     92  C   UNL A   1      32.250  20.184  23.239  1.00  0.00     0.041 A 
ATOM     93  C   UNL A   1      33.082  20.668  25.860  1.00  0.00     0.003 A 
ATOM     94  C   UNL A   1      32.993  19.228  23.934  1.00  0.00     0.020 A 
ATOM     95  C   UNL A   1      33.424  19.470  25.237  1.00  0.00     0.016 A 
ATOM     96  Br  UNL A   1      33.422  17.584  23.108  1.00  0.00    -0.051 Br
ENDBRANCH  88  90
ENDBRANCH  82  86
ENDBRANCH  77  80
ENDBRANCH  75  76
ENDBRANCH  74  75
ENDBRANCH  73  74
ENDBRANCH   1  73
TORSDOF 18
ENDMDL
MODEL 2
REMARK VINA RESULT:     -11.5      1.516      1.844
REMARK SMILES O=C(NCCCCCCNC(=O)[C@@H]1CCCC[C@@H]1C(=O)Nc1cccc(Br)c1)c1ccc(-c2c3nc(c(-c4cc(S(=O)(=O)[O-])ccc4F)c4ccc([nH]4)c(-c4cc(S(=O)(=O)[O-])ccc4F)c4nc(c(-c5cc(S(=O)(=O)[O-])ccc5F)c5ccc2[nH]5)C=C4)C=C3)cc1
REMARK SMILES IDX 6 1 5 2 4 3 3 4 1 5 2 6 29 8 30 9 91 10 31 11 90 12 32 13
REMARK SMILES IDX 33 14 34 15 84 16 35 17 89 18 83 19 85 20 36 21 88 22 82 23
REMARK SMILES IDX 81 24 37 26 69 27 49 28 68 29 50 30 53 31 67 32 86 33 51 34
REMARK SMILES IDX 52 35 66 37 87 38 54 39 38 40 39 41 47 42 40 43 46 44 48 45
REMARK SMILES IDX 45 46 41 47 42 48 43 49 44 50 70 51 71 52 79 53 72 54 78 55
REMARK SMILES IDX 80 56 77 57 73 58 74 59 75 60 76 61 55 62 56 63 64 64 57 65
REMARK SMILES IDX 63 66 65 67 62 68 58 69 59 70 60 71 61 72 7 73 8 74 9 75
REMARK SMILES IDX 10 76 11 77 12 79 13 80 14 81 18 82 15 83 17 84 16 85 19 86
REMARK SMILES IDX 20 87 21 88 22 90 23 91 28 92 24 93 26 94 25 95 27 96
REMARK H PARENT 3 7 85 25 53 36 10 78 21 89
REMARK Flexibility Score: inf
ROOT
ATOM      1  C   UNL A   1      36.510  19.829  24.992  1.00  0.00     0.002 C 
ENDROOT
BRANCH   1   2
ATOM      2  C   UNL A   1      37.989  19.923  24.628  1.00  0.00     0.021 C 
BRANCH   2   3
ATOM      3  C   UNL A   1      38.904  20.244  25.802  1.00  0.00     0.116 C 
BRANCH   3   4
ATOM      4  N   UNL A   1      39.986  19.276  25.933  1.00  0.00    -0.352 N 
ATOM      5  O   UNL A   1      42.122  18.565  25.999  1.00  0.00    -0.269 OA
ATOM      6  C   UNL A   1      41.331  19.496  26.115  1.00  0.00     0.251 C 
ATOM      7  H   UNL A   1      39.715  18.331  25.883  1.00  0.00     0.163 HD
BRANCH   6   8
ATOM      8  C   UNL A   1      41.821  20.854  26.443  1.00  0.00     0.039 A 
ATOM      9  C   UNL A   1      41.956  21.822  25.445  1.00  0.00     0.014 A 
ATOM     10  C   UNL A   1      42.118  21.173  27.772  1.00  0.00     0.014 A 
ATOM     11  C   UNL A   1      42.504  23.062  25.748  1.00  0.00     0.010 A 
ATOM     12  C   UNL A   1      42.581  22.452  28.090  1.00  0.00     0.010 A 
ATOM     13  C   UNL A   1      42.791  23.402  27.078  1.00  0.00    -0.014 A 
BRANCH  13  14
ATOM     14  C   UNL A   1      43.240  24.779  27.401  1.00  0.00     0.031 A 
ATOM     15  C   UNL A   1      42.299  25.765  28.031  1.00  0.00     0.074 A 
ATOM     16  C   UNL A   1      44.508  25.130  27.109  1.00  0.00     0.049 A 
ATOM     17  N   UNL A   1      42.490  27.030  28.304  1.00  0.00    -0.248 NA
ATOM     18  C   UNL A   1      40.965  25.264  28.388  1.00  0.00     0.031 C 
ATOM     19  C   UNL A   1      45.505  24.242  26.505  1.00  0.00     0.029 A 
ATOM     20  N   UNL A   1      45.177  26.314  27.275  1.00  0.00    -0.354 N 
ATOM     21  C   UNL A   1      41.293  27.487  28.844  1.00  0.00     0.074 A 
ATOM     22  C   UNL A   1      40.374  26.366  28.826  1.00  0.00     0.031 C 
ATOM     23  C   UNL A   1      46.664  24.902  26.377  1.00  0.00     0.029 A 
ATOM     24  C   UNL A   1      46.470  26.281  26.807  1.00  0.00     0.049 A 
ATOM     25  H   UNL A   1      44.772  27.110  27.689  1.00  0.00     0.167 HD
ATOM     26  C   UNL A   1      40.996  28.728  29.311  1.00  0.00     0.034 A 
ATOM     27  C   UNL A   1      47.387  27.260  26.694  1.00  0.00     0.034 A 
ATOM     28  C   UNL A   1      41.936  29.826  29.301  1.00  0.00     0.049 A 
ATOM     29  C   UNL A   1      47.017  28.642  27.157  1.00  0.00     0.074 A 
ATOM     30  C   UNL A   1      41.757  31.120  29.759  1.00  0.00     0.029 A 
ATOM     31  N   UNL A   1      43.230  29.764  28.792  1.00  0.00    -0.354 N 
ATOM     32  N   UNL A   1      45.882  29.063  27.665  1.00  0.00    -0.248 NA
ATOM     33  C   UNL A   1      48.049  29.677  27.037  1.00  0.00     0.031 C 
ATOM     34  C   UNL A   1      42.909  31.856  29.457  1.00  0.00     0.029 A 
ATOM     35  C   UNL A   1      43.846  31.002  28.895  1.00  0.00     0.049 A 
ATOM     36  H   UNL A   1      43.647  28.957  28.413  1.00  0.00     0.167 HD
ATOM     37  C   UNL A   1      46.073  30.410  27.953  1.00  0.00     0.074 A 
ATOM     38  C   UNL A   1      47.434  30.725  27.567  1.00  0.00     0.031 C 
ATOM     39  C   UNL A   1      45.204  31.301  28.495  1.00  0.00     0.034 A 
BRANCH  26  40
ATOM     40  C   UNL A   1      39.586  28.964  29.806  1.00  0.00     0.023 A 
ATOM     41  C   UNL A   1      38.633  29.649  29.032  1.00  0.00     0.031 A 
ATOM     42  C   UNL A   1      39.205  28.544  31.093  1.00  0.00     0.131 A 
ATOM     43  C   UNL A   1      37.385  29.978  29.586  1.00  0.00     0.055 A 
ATOM     44  C   UNL A   1      37.928  28.793  31.604  1.00  0.00     0.041 A 
ATOM     45  F   UNL A   1      40.074  27.904  31.890  1.00  0.00    -0.206 F 
ATOM     46  C   UNL A   1      37.016  29.533  30.857  1.00  0.00     0.022 A 
BRANCH  43  47
ATOM     47  S   UNL A   1      36.324  31.148  28.691  1.00  0.00     0.124 S 
ATOM     48  O   UNL A   1      35.307  31.453  29.694  1.00  0.00    -0.237 OA
ATOM     49  O   UNL A   1      37.248  32.229  28.369  1.00  0.00    -0.237 OA
ATOM     50  O   UNL A   1      35.846  30.372  27.548  1.00  0.00    -0.744 OA
ENDBRANCH  43  47
ENDBRANCH  26  40
BRANCH  27  51
ATOM     51  C   UNL A   1      48.712  26.969  26.080  1.00  0.00     0.023 A 
ATOM     52  C   UNL A   1      48.984  27.300  24.745  1.00  0.00     0.031 A 
ATOM     53  C   UNL A   1      49.736  26.363  26.832  1.00  0.00     0.131 A 
ATOM     54  C   UNL A   1      50.240  27.000  24.194  1.00  0.00     0.055 A 
ATOM     55  C   UNL A   1      50.999  26.115  26.296  1.00  0.00     0.041 A 
ATOM     56  F   UNL A   1      49.530  26.032  28.117  1.00  0.00    -0.206 F 
ATOM     57  C   UNL A   1      51.254  26.427  24.965  1.00  0.00     0.022 A 
BRANCH  54  58
ATOM     58  S   UNL A   1      50.513  27.320  22.431  1.00  0.00     0.124 S 
ATOM     59  O   UNL A   1      50.249  28.752  22.344  1.00  0.00    -0.237 OA
ATOM     60  O   UNL A   1      51.903  26.913  22.260  1.00  0.00    -0.237 OA
ATOM     61  O   UNL A   1      49.529  26.463  21.773  1.00  0.00    -0.744 OA
ENDBRANCH  54  58
ENDBRANCH  27  51
BRANCH  39  62
ATOM     62  C   UNL A   1      45.728  32.691  28.761  1.00  0.00     0.023 A 
ATOM     63  C   UNL A   1      45.641  33.717  27.805  1.00  0.00     0.031 A 
ATOM     64  C   UNL A   1      46.326  32.987  30.000  1.00  0.00     0.131 A 
ATOM     65  C   UNL A   1      46.189  34.978  28.085  1.00  0.00     0.055 A 
ATOM     66  C   UNL A   1      46.812  34.260  30.296  1.00  0.00     0.041 A 
ATOM     67  F   UNL A   1      46.441  32.041  30.946  1.00  0.00    -0.206 F 
ATOM     68  C   UNL A   1      46.754  35.262  29.332  1.00  0.00     0.022 A 
BRANCH  65  69
ATOM     69  S   UNL A   1      46.231  36.224  26.768  1.00  0.00     0.124 S 
ATOM     70  O   UNL A   1      46.231  35.395  25.568  1.00  0.00    -0.237 OA
ATOM     71  O   UNL A   1      45.011  36.985  27.018  1.00  0.00    -0.237 OA
ATOM     72  O   UNL A   1      47.475  36.949  27.021  1.00  0.00    -0.744 OA
ENDBRANCH  65  69
ENDBRANCH  39  62
ENDBRANCH  13  14
ENDBRANCH   6   8
ENDBRANCH   3   4
ENDBRANCH   2   3
ENDBRANCH   1   2
BRANCH   1  73
ATOM     73  C   UNL A   1      35.733  21.144  25.082  1.00  0.00     0.002 C 
BRANCH  73  74
ATOM     74  C   UNL A   1      36.257  22.331  24.260  1.00  0.00     0.021 C 
BRANCH  74  75
ATOM     75  C   UNL A   1      36.402  23.678  24.978  1.00  0.00     0.116 C 
BRANCH  75  76
ATOM     76  N   UNL A   1      35.281  24.000  25.848  1.00  0.00    -0.356 N 
ATOM     77  C   UNL A   1      34.169  24.762  25.606  1.00  0.00     0.223 C 
ATOM     78  H   UNL A   1      35.329  23.610  26.752  1.00  0.00     0.163 HD
ATOM     79  O   UNL A   1      33.269  24.744  26.447  1.00  0.00    -0.275 OA
BRANCH  77  80
ATOM     80  C   UNL A   1      34.085  25.614  24.348  1.00  0.00     0.091 C 
ATOM     81  C   UNL A   1      33.568  27.031  24.629  1.00  0.00     0.014 C 
ATOM     82  C   UNL A   1      33.338  24.967  23.171  1.00  0.00     0.091 C 
ATOM     83  C   UNL A   1      33.780  27.928  23.410  1.00  0.00     0.001 C 
ATOM     84  C   UNL A   1      33.612  25.839  21.918  1.00  0.00     0.014 C 
ATOM     85  C   UNL A   1      33.261  27.323  22.104  1.00  0.00     0.001 C 
BRANCH  82  86
ATOM     86  C   UNL A   1      31.801  24.811  23.290  1.00  0.00     0.228 C 
ATOM     87  O   UNL A   1      31.030  25.766  23.371  1.00  0.00    -0.274 OA
ATOM     88  N   UNL A   1      31.280  23.568  23.017  1.00  0.00    -0.326 N 
ATOM     89  H   UNL A   1      30.524  23.539  22.386  1.00  0.00     0.169 HD
BRANCH  88  90
ATOM     90  C   UNL A   1      31.708  22.341  23.535  1.00  0.00     0.042 A 
ATOM     91  C   UNL A   1      31.885  22.177  24.908  1.00  0.00     0.026 A 
ATOM     92  C   UNL A   1      31.841  21.246  22.684  1.00  0.00     0.041 A 
ATOM     93  C   UNL A   1      32.264  20.942  25.427  1.00  0.00     0.003 A 
ATOM     94  C   UNL A   1      32.266  20.021  23.204  1.00  0.00     0.020 A 
ATOM     95  C   UNL A   1      32.493  19.868  24.571  1.00  0.00     0.016 A 
ATOM     96  Br  UNL A   1      32.535  18.550  22.051  1.00  0.00    -0.051 Br
ENDBRANCH  88  90
ENDBRANCH  82  86
ENDBRANCH  77  80
ENDBRANCH  75  76
ENDBRANCH  74  75
ENDBRANCH  73  74
ENDBRANCH   1  73
TORSDOF 18
ENDMDL
MODEL 3
REMARK VINA RESULT:     -11.4      6.121     11.210
REMARK SMILES O=C(NCCCCCCNC(=O)[C@@H]1CCCC[C@@H]1C(=O)Nc1cccc(Br)c1)c1ccc(-c2c3nc(c(-c4cc(S(=O)(=O)[O-])ccc4F)c4ccc([nH]4)c(-c4cc(S(=O)(=O)[O-])ccc4F)c4nc(c(-c5cc(S(=O)(=O)[O-])ccc5F)c5ccc2[nH]5)C=C4)C=C3)cc1
REMARK SMILES IDX 6 1 5 2 4 3 3 4 1 5 2 6 29 8 30 9 91 10 31 11 90 12 32 13
REMARK SMILES IDX 33 14 34 15 84 16 35 17 89 18 83 19 85 20 36 21 88 22 82 23
REMARK SMILES IDX 81 24 37 26 69 27 49 28 68 29 50 30 53 31 67 32 86 33 51 34
REMARK SMILES IDX 52 35 66 37 87 38 54 39 38 40 39 41 47 42 40 43 46 44 48 45
REMARK SMILES IDX 45 46 41 47 42 48 43 49 44 50 70 51 71 52 79 53 72 54 78 55
REMARK SMILES IDX 80 56 77 57 73 58 74 59 75 60 76 61 55 62 56 63 64 64 57 65
REMARK SMILES IDX 63 66 65 67 62 68 58 69 59 70 60 71 61 72 7 73 8 74 9 75
REMARK SMILES IDX 10 76 11 77 12 79 13 80 14 81 18 82 15 83 17 84 16 85 19 86
REMARK SMILES IDX 20 87 21 88 22 90 23 91 28 92 24 93 26 94 25 95 27 96
REMARK H PARENT 3 7 85 25 53 36 10 78 21 89
REMARK Flexibility Score: inf
ROOT
ATOM      1  C   UNL A   1      31.606  29.711  27.194  1.00  0.00     0.002 C 
ENDROOT
BRANCH   1   2
ATOM      2  C   UNL A   1      31.578  31.073  26.506  1.00  0.00     0.021 C 
BRANCH   2   3
ATOM      3  C   UNL A   1      32.853  31.887  26.674  1.00  0.00     0.116 C 
BRANCH   3   4
ATOM      4  N   UNL A   1      32.581  33.236  27.154  1.00  0.00    -0.352 N 
ATOM      5  O   UNL A   1      32.652  34.968  28.593  1.00  0.00    -0.269 OA
ATOM      6  C   UNL A   1      33.149  33.914  28.207  1.00  0.00     0.251 C 
ATOM      7  H   UNL A   1      31.893  33.732  26.654  1.00  0.00     0.163 HD
BRANCH   6   8
ATOM      8  C   UNL A   1      34.352  33.369  28.876  1.00  0.00     0.039 A 
ATOM      9  C   UNL A   1      34.245  32.307  29.778  1.00  0.00     0.014 A 
ATOM     10  C   UNL A   1      35.608  33.905  28.572  1.00  0.00     0.014 A 
ATOM     11  C   UNL A   1      35.367  31.865  30.468  1.00  0.00     0.010 A 
ATOM     12  C   UNL A   1      36.748  33.396  29.199  1.00  0.00     0.010 A 
ATOM     13  C   UNL A   1      36.634  32.382  30.163  1.00  0.00    -0.014 A 
BRANCH  13  14
ATOM     14  C   UNL A   1      37.837  31.798  30.806  1.00  0.00     0.031 A 
ATOM     15  C   UNL A   1      38.683  30.791  30.082  1.00  0.00     0.074 A 
ATOM     16  C   UNL A   1      38.150  32.184  32.059  1.00  0.00     0.049 A 
ATOM     17  N   UNL A   1      39.715  30.115  30.516  1.00  0.00    -0.248 NA
ATOM     18  C   UNL A   1      38.309  30.498  28.693  1.00  0.00     0.031 C 
ATOM     19  C   UNL A   1      37.398  33.165  32.846  1.00  0.00     0.029 A 
ATOM     20  N   UNL A   1      39.171  31.806  32.890  1.00  0.00    -0.354 N 
ATOM     21  C   UNL A   1      40.103  29.296  29.462  1.00  0.00     0.074 A 
ATOM     22  C   UNL A   1      39.170  29.540  28.380  1.00  0.00     0.031 C 
ATOM     23  C   UNL A   1      37.998  33.332  34.033  1.00  0.00     0.029 A 
ATOM     24  C   UNL A   1      39.123  32.410  34.125  1.00  0.00     0.049 A 
ATOM     25  H   UNL A   1      39.871  31.165  32.629  1.00  0.00     0.167 HD
ATOM     26  C   UNL A   1      41.145  28.426  29.408  1.00  0.00     0.034 A 
ATOM     27  C   UNL A   1      39.870  32.214  35.227  1.00  0.00     0.034 A 
ATOM     28  C   UNL A   1      42.049  28.199  30.512  1.00  0.00     0.049 A 
ATOM     29  C   UNL A   1      40.978  31.198  35.168  1.00  0.00     0.074 A 
ATOM     30  C   UNL A   1      43.146  27.357  30.572  1.00  0.00     0.029 A 
ATOM     31  N   UNL A   1      41.952  28.808  31.760  1.00  0.00    -0.354 N 
ATOM     32  N   UNL A   1      41.336  30.429  34.166  1.00  0.00    -0.248 NA
ATOM     33  C   UNL A   1      41.784  31.028  36.381  1.00  0.00     0.031 C 
ATOM     34  C   UNL A   1      43.661  27.398  31.873  1.00  0.00     0.029 A 
ATOM     35  C   UNL A   1      42.946  28.335  32.604  1.00  0.00     0.049 A 
ATOM     36  H   UNL A   1      41.274  29.478  32.008  1.00  0.00     0.167 HD
ATOM     37  C   UNL A   1      42.430  29.700  34.620  1.00  0.00     0.074 A 
ATOM     38  C   UNL A   1      42.674  30.130  35.983  1.00  0.00     0.031 C 
ATOM     39  C   UNL A   1      43.169  28.769  33.966  1.00  0.00     0.034 A 
BRANCH  26  40
ATOM     40  C   UNL A   1      41.310  27.620  28.138  1.00  0.00     0.023 A 
ATOM     41  C   UNL A   1      40.957  26.260  28.070  1.00  0.00     0.031 A 
ATOM     42  C   UNL A   1      41.880  28.205  26.993  1.00  0.00     0.131 A 
ATOM     43  C   UNL A   1      41.264  25.511  26.923  1.00  0.00     0.055 A 
ATOM     44  C   UNL A   1      42.099  27.477  25.821  1.00  0.00     0.041 A 
ATOM     45  F   UNL A   1      42.259  29.492  26.999  1.00  0.00    -0.206 F 
ATOM     46  C   UNL A   1      41.809  26.116  25.788  1.00  0.00     0.022 A 
BRANCH  43  47
ATOM     47  S   UNL A   1      41.108  23.705  27.003  1.00  0.00     0.124 S 
ATOM     48  O   UNL A   1      42.005  23.282  25.930  1.00  0.00    -0.237 OA
ATOM     49  O   UNL A   1      41.552  23.409  28.360  1.00  0.00    -0.237 OA
ATOM     50  O   UNL A   1      39.688  23.471  26.744  1.00  0.00    -0.744 OA
ENDBRANCH  43  47
ENDBRANCH  26  40
BRANCH  27  51
ATOM     51  C   UNL A   1      39.561  32.962  36.477  1.00  0.00     0.023 A 
ATOM     52  C   UNL A   1      40.133  34.217  36.734  1.00  0.00     0.031 A 
ATOM     53  C   UNL A   1      38.671  32.435  37.431  1.00  0.00     0.131 A 
ATOM     54  C   UNL A   1      39.829  34.890  37.927  1.00  0.00     0.055 A 
ATOM     55  C   UNL A   1      38.331  33.131  38.590  1.00  0.00     0.041 A 
ATOM     56  F   UNL A   1      38.090  31.241  37.230  1.00  0.00    -0.206 F 
ATOM     57  C   UNL A   1      38.919  34.364  38.848  1.00  0.00     0.022 A 
BRANCH  54  58
ATOM     58  S   UNL A   1      40.688  36.445  38.289  1.00  0.00     0.124 S 
ATOM     59  O   UNL A   1      41.420  36.676  37.049  1.00  0.00    -0.237 OA
ATOM     60  O   UNL A   1      39.576  37.352  38.555  1.00  0.00    -0.237 OA
ATOM     61  O   UNL A   1      41.513  36.117  39.449  1.00  0.00    -0.744 OA
ENDBRANCH  54  58
ENDBRANCH  27  51
BRANCH  39  62
ATOM     62  C   UNL A   1      44.356  28.199  34.703  1.00  0.00     0.023 A 
ATOM     63  C   UNL A   1      44.264  27.028  35.474  1.00  0.00     0.031 A 
ATOM     64  C   UNL A   1      45.603  28.846  34.626  1.00  0.00     0.131 A 
ATOM     65  C   UNL A   1      45.387  26.568  36.179  1.00  0.00     0.055 A 
ATOM     66  C   UNL A   1      46.731  28.349  35.279  1.00  0.00     0.041 A 
ATOM     67  F   UNL A   1      45.745  29.972  33.909  1.00  0.00    -0.206 F 
ATOM     68  C   UNL A   1      46.624  27.209  36.069  1.00  0.00     0.022 A 
BRANCH  65  69
ATOM     69  S   UNL A   1      45.191  25.166  37.313  1.00  0.00     0.124 S 
ATOM     70  O   UNL A   1      46.349  25.321  38.187  1.00  0.00    -0.237 OA
ATOM     71  O   UNL A   1      43.892  25.434  37.920  1.00  0.00    -0.237 OA
ATOM     72  O   UNL A   1      45.232  24.001  36.429  1.00  0.00    -0.744 OA
ENDBRANCH  65  69
ENDBRANCH  39  62
ENDBRANCH  13  14
ENDBRANCH   6   8
ENDBRANCH   3   4
ENDBRANCH   2   3
ENDBRANCH   1   2
BRANCH   1  73
ATOM     73  C   UNL A   1      31.969  28.504  26.326  1.00  0.00     0.002 C 
BRANCH  73  74
ATOM     74  C   UNL A   1      30.952  27.356  26.253  1.00  0.00     0.021 C 
BRANCH  74  75
ATOM     75  C   UNL A   1      31.489  25.958  25.924  1.00  0.00     0.116 C 
BRANCH  75  76
ATOM     76  N   UNL A   1      32.939  25.894  25.833  1.00  0.00    -0.356 N 
ATOM     77  C   UNL A   1      33.746  24.950  25.254  1.00  0.00     0.223 C 
ATOM     78  H   UNL A   1      33.416  26.646  26.255  1.00  0.00     0.163 HD
ATOM     79  O   UNL A   1      34.946  25.208  25.153  1.00  0.00    -0.275 OA
BRANCH  77  80
ATOM     80  C   UNL A   1      33.158  23.627  24.785  1.00  0.00     0.091 C 
ATOM     81  C   UNL A   1      34.219  22.528  24.644  1.00  0.00     0.014 C 
ATOM     82  C   UNL A   1      32.270  23.715  23.534  1.00  0.00     0.091 C 
ATOM     83  C   UNL A   1      33.554  21.164  24.464  1.00  0.00     0.001 C 
ATOM     84  C   UNL A   1      31.540  22.353  23.392  1.00  0.00     0.014 C 
ATOM     85  C   UNL A   1      32.484  21.141  23.371  1.00  0.00     0.001 C 
BRANCH  82  86
ATOM     86  C   UNL A   1      32.961  24.004  22.178  1.00  0.00     0.228 C 
ATOM     87  O   UNL A   1      33.662  23.183  21.589  1.00  0.00    -0.274 OA
ATOM     88  N   UNL A   1      32.541  25.120  21.493  1.00  0.00    -0.326 N 
ATOM     89  H   UNL A   1      32.312  24.992  20.544  1.00  0.00     0.169 HD
BRANCH  88  90
ATOM     90  C   UNL A   1      32.403  26.418  21.998  1.00  0.00     0.042 A 
ATOM     91  C   UNL A   1      33.527  27.200  22.255  1.00  0.00     0.026 A 
ATOM     92  C   UNL A   1      31.130  26.971  22.130  1.00  0.00     0.041 A 
ATOM     93  C   UNL A   1      33.387  28.507  22.712  1.00  0.00     0.003 A 
ATOM     94  C   UNL A   1      30.995  28.267  22.632  1.00  0.00     0.020 A 
ATOM     95  C   UNL A   1      32.118  29.033  22.938  1.00  0.00     0.016 A 
ATOM     96  Br  UNL A   1      29.275  29.000  22.899  1.00  0.00    -0.051 Br
ENDBRANCH  88  90
ENDBRANCH  82  86
ENDBRANCH  77  80
ENDBRANCH  75  76
ENDBRANCH  74  75
ENDBRANCH  73  74
ENDBRANCH   1  73
TORSDOF 18
ENDMDL
