MODEL 1
REMARK VINA RESULT:     -11.5      0.000      0.000
REMARK SMILES O=C(NCCCCCCNC(=O)c1ccc(S(=O)(=O)Nc2ccccc2I)cc1)c1ccc(-c2c3nc(c(-c4cc(S(=O)(=O)[O-])ccc4F)c4ccc([nH]4)c(-c4cc(S(=O)(=O)[O-])ccc4F)c4nc(c(-c5cc(S(=O)(=O)[O-])ccc5F)c5ccc2[nH]5)C=C4)C=C3)cc1
REMARK SMILES IDX 6 1 5 2 4 3 3 4 1 5 2 6 30 8 31 9 92 10 32 11 91 12 33 13
REMARK SMILES IDX 34 14 35 15 85 16 36 17 90 18 84 19 86 20 37 21 89 22 83 23
REMARK SMILES IDX 82 24 38 26 70 27 50 28 69 29 51 30 54 31 68 32 87 33 52 34
REMARK SMILES IDX 53 35 67 37 88 38 55 39 39 40 40 41 48 42 41 43 47 44 49 45
REMARK SMILES IDX 46 46 42 47 43 48 44 49 45 50 71 51 72 52 80 53 73 54 79 55
REMARK SMILES IDX 81 56 78 57 74 58 75 59 76 60 77 61 56 62 57 63 65 64 58 65
REMARK SMILES IDX 64 66 66 67 63 68 59 69 60 70 61 71 62 72 7 73 8 74 9 75
REMARK SMILES IDX 10 76 11 77 12 79 13 80 14 81 29 82 15 83 28 84 16 85 17 86
REMARK SMILES IDX 18 87 19 88 20 89 21 91 22 92 26 93 23 94 25 95 27 96 24 97
REMARK H PARENT 3 7 86 25 54 36 10 78 20 90
REMARK Flexibility Score: inf
ROOT
ATOM      1  C   UNL A   1      31.633  27.759  26.768  1.00  0.00     0.002 C 
ENDROOT
BRANCH   1   2
ATOM      2  C   UNL A   1      33.160  27.810  26.826  1.00  0.00     0.021 C 
BRANCH   2   3
ATOM      3  C   UNL A   1      33.822  28.885  25.970  1.00  0.00     0.116 C 
BRANCH   3   4
ATOM      4  N   UNL A   1      33.624  30.228  26.488  1.00  0.00    -0.352 N 
ATOM      5  O   UNL A   1      33.973  32.007  27.826  1.00  0.00    -0.269 OA
ATOM      6  C   UNL A   1      34.363  30.917  27.419  1.00  0.00     0.251 C 
ATOM      7  H   UNL A   1      32.850  30.713  26.119  1.00  0.00     0.163 HD
BRANCH   6   8
ATOM      8  C   UNL A   1      35.614  30.330  27.950  1.00  0.00     0.039 A 
ATOM      9  C   UNL A   1      35.630  29.657  29.174  1.00  0.00     0.014 A 
ATOM     10  C   UNL A   1      36.791  30.457  27.205  1.00  0.00     0.014 A 
ATOM     11  C   UNL A   1      36.840  29.230  29.714  1.00  0.00     0.010 A 
ATOM     12  C   UNL A   1      37.993  29.957  27.714  1.00  0.00     0.010 A 
ATOM     13  C   UNL A   1      38.033  29.368  28.988  1.00  0.00    -0.014 A 
BRANCH  13  14
ATOM     14  C   UNL A   1      39.305  28.854  29.561  1.00  0.00     0.031 A 
ATOM     15  C   UNL A   1      39.888  29.449  30.813  1.00  0.00     0.074 A 
ATOM     16  C   UNL A   1      39.922  27.822  28.953  1.00  0.00     0.049 A 
ATOM     17  N   UNL A   1      40.978  29.117  31.457  1.00  0.00    -0.248 NA
ATOM     18  C   UNL A   1      39.156  30.573  31.411  1.00  0.00     0.031 C 
ATOM     19  C   UNL A   1      39.451  27.166  27.730  1.00  0.00     0.029 A 
ATOM     20  N   UNL A   1      41.060  27.134  29.282  1.00  0.00    -0.354 N 
ATOM     21  C   UNL A   1      41.075  29.998  32.528  1.00  0.00     0.074 A 
ATOM     22  C   UNL A   1      39.951  30.906  32.419  1.00  0.00     0.031 C 
ATOM     23  C   UNL A   1      40.267  26.142  27.440  1.00  0.00     0.029 A 
ATOM     24  C   UNL A   1      41.352  26.109  28.413  1.00  0.00     0.049 A 
ATOM     25  H   UNL A   1      41.616  27.353  30.064  1.00  0.00     0.167 HD
ATOM     26  C   UNL A   1      42.007  30.038  33.515  1.00  0.00     0.034 A 
ATOM     27  C   UNL A   1      42.386  25.246  28.392  1.00  0.00     0.034 A 
ATOM     28  C   UNL A   1      43.126  29.127  33.602  1.00  0.00     0.049 A 
ATOM     29  C   UNL A   1      43.432  25.339  29.467  1.00  0.00     0.074 A 
ATOM     30  C   UNL A   1      44.111  29.058  34.572  1.00  0.00     0.029 A 
ATOM     31  N   UNL A   1      43.417  28.132  32.677  1.00  0.00    -0.354 N 
ATOM     32  N   UNL A   1      43.500  26.167  30.485  1.00  0.00    -0.248 NA
ATOM     33  C   UNL A   1      44.539  24.380  29.391  1.00  0.00     0.031 C 
ATOM     34  C   UNL A   1      45.032  28.072  34.198  1.00  0.00     0.029 A 
ATOM     35  C   UNL A   1      44.583  27.467  33.035  1.00  0.00     0.049 A 
ATOM     36  H   UNL A   1      42.875  27.926  31.881  1.00  0.00     0.167 HD
ATOM     37  C   UNL A   1      44.647  25.812  31.185  1.00  0.00     0.074 A 
ATOM     38  C   UNL A   1      45.231  24.687  30.479  1.00  0.00     0.031 C 
ATOM     39  C   UNL A   1      45.168  26.362  32.311  1.00  0.00     0.034 A 
BRANCH  26  40
ATOM     40  C   UNL A   1      41.876  31.140  34.545  1.00  0.00     0.023 A 
ATOM     41  C   UNL A   1      40.831  31.153  35.486  1.00  0.00     0.031 A 
ATOM     42  C   UNL A   1      42.780  32.217  34.554  1.00  0.00     0.131 A 
ATOM     43  C   UNL A   1      40.661  32.260  36.332  1.00  0.00     0.055 A 
ATOM     44  C   UNL A   1      42.656  33.274  35.459  1.00  0.00     0.041 A 
ATOM     45  F   UNL A   1      43.787  32.273  33.670  1.00  0.00    -0.206 F 
ATOM     46  C   UNL A   1      41.581  33.311  36.341  1.00  0.00     0.022 A 
BRANCH  43  47
ATOM     47  S   UNL A   1      39.129  32.384  37.297  1.00  0.00     0.124 S 
ATOM     48  O   UNL A   1      39.640  32.442  38.665  1.00  0.00    -0.237 OA
ATOM     49  O   UNL A   1      38.531  33.613  36.789  1.00  0.00    -0.237 OA
ATOM     50  O   UNL A   1      38.412  31.155  36.962  1.00  0.00    -0.744 OA
ENDBRANCH  43  47
ENDBRANCH  26  40
BRANCH  27  51
ATOM     51  C   UNL A   1      42.483  24.231  27.307  1.00  0.00     0.023 A 
ATOM     52  C   UNL A   1      41.758  23.032  27.372  1.00  0.00     0.031 A 
ATOM     53  C   UNL A   1      43.304  24.451  26.186  1.00  0.00     0.131 A 
ATOM     54  C   UNL A   1      41.889  22.083  26.347  1.00  0.00     0.055 A 
ATOM     55  C   UNL A   1      43.394  23.525  25.147  1.00  0.00     0.041 A 
ATOM     56  F   UNL A   1      44.010  25.587  26.074  1.00  0.00    -0.206 F 
ATOM     57  C   UNL A   1      42.691  22.327  25.228  1.00  0.00     0.022 A 
BRANCH  54  58
ATOM     58  S   UNL A   1      41.030  20.496  26.520  1.00  0.00     0.124 S 
ATOM     59  O   UNL A   1      41.741  19.666  25.553  1.00  0.00    -0.237 OA
ATOM     60  O   UNL A   1      41.257  20.180  27.926  1.00  0.00    -0.237 OA
ATOM     61  O   UNL A   1      39.648  20.817  26.171  1.00  0.00    -0.744 OA
ENDBRANCH  54  58
ENDBRANCH  27  51
BRANCH  39  62
ATOM     62  C   UNL A   1      46.415  25.717  32.866  1.00  0.00     0.023 A 
ATOM     63  C   UNL A   1      46.354  24.661  33.793  1.00  0.00     0.031 A 
ATOM     64  C   UNL A   1      47.683  26.192  32.485  1.00  0.00     0.131 A 
ATOM     65  C   UNL A   1      47.537  24.155  34.354  1.00  0.00     0.055 A 
ATOM     66  C   UNL A   1      48.858  25.643  33.002  1.00  0.00     0.041 A 
ATOM     67  F   UNL A   1      47.800  27.200  31.607  1.00  0.00    -0.206 F 
ATOM     68  C   UNL A   1      48.789  24.628  33.952  1.00  0.00     0.022 A 
BRANCH  65  69
ATOM     69  S   UNL A   1      47.415  22.936  35.692  1.00  0.00     0.124 S 
ATOM     70  O   UNL A   1      45.986  22.643  35.706  1.00  0.00    -0.237 OA
ATOM     71  O   UNL A   1      48.282  21.862  35.215  1.00  0.00    -0.237 OA
ATOM     72  O   UNL A   1      47.911  23.660  36.861  1.00  0.00    -0.744 OA
ENDBRANCH  65  69
ENDBRANCH  39  62
ENDBRANCH  13  14
ENDBRANCH   6   8
ENDBRANCH   3   4
ENDBRANCH   2   3
ENDBRANCH   1   2
BRANCH   1  73
ATOM     73  C   UNL A   1      31.021  26.631  25.933  1.00  0.00     0.002 C 
BRANCH  73  74
ATOM     74  C   UNL A   1      30.709  26.962  24.474  1.00  0.00     0.021 C 
BRANCH  74  75
ATOM     75  C   UNL A   1      30.812  25.800  23.497  1.00  0.00     0.116 C 
BRANCH  75  76
ATOM     76  N   UNL A   1      31.547  26.120  22.283  1.00  0.00    -0.352 N 
ATOM     77  C   UNL A   1      32.847  25.823  21.938  1.00  0.00     0.251 C 
ATOM     78  H   UNL A   1      31.039  26.625  21.606  1.00  0.00     0.163 HD
ATOM     79  O   UNL A   1      33.323  26.281  20.902  1.00  0.00    -0.269 OA
BRANCH  77  80
ATOM     80  C   UNL A   1      33.691  24.974  22.819  1.00  0.00     0.039 A 
ATOM     81  C   UNL A   1      34.134  25.479  24.049  1.00  0.00     0.015 A 
ATOM     82  C   UNL A   1      34.042  23.677  22.449  1.00  0.00     0.015 A 
ATOM     83  C   UNL A   1      34.891  24.674  24.912  1.00  0.00     0.023 A 
ATOM     84  C   UNL A   1      34.676  22.841  23.359  1.00  0.00     0.023 A 
ATOM     85  C   UNL A   1      35.162  23.344  24.563  1.00  0.00     0.087 A 
BRANCH  85  86
ATOM     86  S   UNL A   1      36.018  22.278  25.702  1.00  0.00     0.261 S 
ATOM     87  O   UNL A   1      36.660  21.235  24.928  1.00  0.00    -0.201 OA
ATOM     88  O   UNL A   1      36.809  23.134  26.563  1.00  0.00    -0.201 OA
BRANCH  86  89
ATOM     89  N   UNL A   1      34.901  21.469  26.714  1.00  0.00    -0.279 N 
ATOM     90  H   UNL A   1      35.207  20.760  27.324  1.00  0.00     0.180 HD
BRANCH  89  91
ATOM     91  C   UNL A   1      33.508  21.835  26.666  1.00  0.00     0.062 A 
ATOM     92  C   UNL A   1      33.056  22.943  27.398  1.00  0.00     0.028 A 
ATOM     93  C   UNL A   1      32.615  21.158  25.817  1.00  0.00     0.037 A 
ATOM     94  C   UNL A   1      31.737  23.386  27.256  1.00  0.00     0.002 A 
ATOM     95  C   UNL A   1      31.298  21.608  25.677  1.00  0.00     0.017 A 
ATOM     96  I   UNL A   1      33.184  19.466  24.713  1.00  0.00    -0.042 I 
ATOM     97  C   UNL A   1      30.863  22.727  26.391  1.00  0.00     0.001 A 
ENDBRANCH  89  91
ENDBRANCH  86  89
ENDBRANCH  85  86
ENDBRANCH  77  80
ENDBRANCH  75  76
ENDBRANCH  74  75
ENDBRANCH  73  74
ENDBRANCH   1  73
TORSDOF 19
ENDMDL
MODEL 2
REMARK VINA RESULT:     -11.4      1.312      1.540
REMARK SMILES O=C(NCCCCCCNC(=O)c1ccc(S(=O)(=O)Nc2ccccc2I)cc1)c1ccc(-c2c3nc(c(-c4cc(S(=O)(=O)[O-])ccc4F)c4ccc([nH]4)c(-c4cc(S(=O)(=O)[O-])ccc4F)c4nc(c(-c5cc(S(=O)(=O)[O-])ccc5F)c5ccc2[nH]5)C=C4)C=C3)cc1
REMARK SMILES IDX 6 1 5 2 4 3 3 4 1 5 2 6 30 8 31 9 92 10 32 11 91 12 33 13
REMARK SMILES IDX 34 14 35 15 85 16 36 17 90 18 84 19 86 20 37 21 89 22 83 23
REMARK SMILES IDX 82 24 38 26 70 27 50 28 69 29 51 30 54 31 68 32 87 33 52 34
REMARK SMILES IDX 53 35 67 37 88 38 55 39 39 40 40 41 48 42 41 43 47 44 49 45
REMARK SMILES IDX 46 46 42 47 43 48 44 49 45 50 71 51 72 52 80 53 73 54 79 55
REMARK SMILES IDX 81 56 78 57 74 58 75 59 76 60 77 61 56 62 57 63 65 64 58 65
REMARK SMILES IDX 64 66 66 67 63 68 59 69 60 70 61 71 62 72 7 73 8 74 9 75
REMARK SMILES IDX 10 76 11 77 12 79 13 80 14 81 29 82 15 83 28 84 16 85 17 86
REMARK SMILES IDX 18 87 19 88 20 89 21 91 22 92 26 93 23 94 25 95 27 96 24 97
REMARK H PARENT 3 7 86 25 54 36 10 78 20 90
REMARK Flexibility Score: inf
ROOT
ATOM      1  C   UNL A   1      31.470  27.942  25.552  1.00  0.00     0.002 C 
ENDROOT
BRANCH   1   2
ATOM      2  C   UNL A   1      32.678  27.958  26.490  1.00  0.00     0.021 C 
BRANCH   2   3
ATOM      3  C   UNL A   1      33.811  28.899  26.097  1.00  0.00     0.116 C 
BRANCH   3   4
ATOM      4  N   UNL A   1      33.628  30.251  26.596  1.00  0.00    -0.352 N 
ATOM      5  O   UNL A   1      34.008  32.050  27.899  1.00  0.00    -0.269 OA
ATOM      6  C   UNL A   1      34.386  30.951  27.504  1.00  0.00     0.251 C 
ATOM      7  H   UNL A   1      32.852  30.735  26.232  1.00  0.00     0.163 HD
BRANCH   6   8
ATOM      8  C   UNL A   1      35.642  30.366  28.025  1.00  0.00     0.039 A 
ATOM      9  C   UNL A   1      35.670  29.696  29.250  1.00  0.00     0.014 A 
ATOM     10  C   UNL A   1      36.812  30.491  27.268  1.00  0.00     0.014 A 
ATOM     11  C   UNL A   1      36.885  29.271  29.780  1.00  0.00     0.010 A 
ATOM     12  C   UNL A   1      38.019  29.993  27.767  1.00  0.00     0.010 A 
ATOM     13  C   UNL A   1      38.071  29.407  29.042  1.00  0.00    -0.014 A 
BRANCH  13  14
ATOM     14  C   UNL A   1      39.348  28.895  29.605  1.00  0.00     0.031 A 
ATOM     15  C   UNL A   1      39.949  29.502  30.843  1.00  0.00     0.074 A 
ATOM     16  C   UNL A   1      39.954  27.854  29.000  1.00  0.00     0.049 A 
ATOM     17  N   UNL A   1      41.047  29.173  31.477  1.00  0.00    -0.248 NA
ATOM     18  C   UNL A   1      39.230  30.635  31.438  1.00  0.00     0.031 C 
ATOM     19  C   UNL A   1      39.465  27.187  27.791  1.00  0.00     0.029 A 
ATOM     20  N   UNL A   1      41.094  27.166  29.323  1.00  0.00    -0.354 N 
ATOM     21  C   UNL A   1      41.160  30.065  32.537  1.00  0.00     0.074 A 
ATOM     22  C   UNL A   1      40.038  30.976  32.432  1.00  0.00     0.031 C 
ATOM     23  C   UNL A   1      40.275  26.157  27.502  1.00  0.00     0.029 A 
ATOM     24  C   UNL A   1      41.371  26.130  28.462  1.00  0.00     0.049 A 
ATOM     25  H   UNL A   1      41.661  27.392  30.095  1.00  0.00     0.167 HD
ATOM     26  C   UNL A   1      42.104  30.114  33.511  1.00  0.00     0.034 A 
ATOM     27  C   UNL A   1      42.402  25.263  28.437  1.00  0.00     0.034 A 
ATOM     28  C   UNL A   1      43.221  29.199  33.594  1.00  0.00     0.049 A 
ATOM     29  C   UNL A   1      43.462  25.365  29.498  1.00  0.00     0.074 A 
ATOM     30  C   UNL A   1      44.219  29.138  34.552  1.00  0.00     0.029 A 
ATOM     31  N   UNL A   1      43.497  28.193  32.676  1.00  0.00    -0.354 N 
ATOM     32  N   UNL A   1      43.546  26.203  30.505  1.00  0.00    -0.248 NA
ATOM     33  C   UNL A   1      44.565  24.401  29.418  1.00  0.00     0.031 C 
ATOM     34  C   UNL A   1      45.132  28.144  34.177  1.00  0.00     0.029 A 
ATOM     35  C   UNL A   1      44.665  27.528  33.027  1.00  0.00     0.049 A 
ATOM     36  H   UNL A   1      42.944  27.981  31.889  1.00  0.00     0.167 HD
ATOM     37  C   UNL A   1      44.701  25.852  31.194  1.00  0.00     0.074 A 
ATOM     38  C   UNL A   1      45.272  24.717  30.494  1.00  0.00     0.031 C 
ATOM     39  C   UNL A   1      45.238  26.413  32.308  1.00  0.00     0.034 A 
BRANCH  26  40
ATOM     40  C   UNL A   1      41.991  31.227  34.530  1.00  0.00     0.023 A 
ATOM     41  C   UNL A   1      40.985  31.230  35.514  1.00  0.00     0.031 A 
ATOM     42  C   UNL A   1      42.869  32.324  34.487  1.00  0.00     0.131 A 
ATOM     43  C   UNL A   1      40.825  32.345  36.351  1.00  0.00     0.055 A 
ATOM     44  C   UNL A   1      42.758  33.392  35.381  1.00  0.00     0.041 A 
ATOM     45  F   UNL A   1      43.837  32.390  33.561  1.00  0.00    -0.206 F 
ATOM     46  C   UNL A   1      41.720  33.417  36.307  1.00  0.00     0.022 A 
BRANCH  43  47
ATOM     47  S   UNL A   1      39.331  32.448  37.377  1.00  0.00     0.124 S 
ATOM     48  O   UNL A   1      38.594  31.261  36.951  1.00  0.00    -0.237 OA
ATOM     49  O   UNL A   1      39.872  32.409  38.730  1.00  0.00    -0.237 OA
ATOM     50  O   UNL A   1      38.729  33.718  36.980  1.00  0.00    -0.744 OA
ENDBRANCH  43  47
ENDBRANCH  26  40
BRANCH  27  51
ATOM     51  C   UNL A   1      42.481  24.236  27.362  1.00  0.00     0.023 A 
ATOM     52  C   UNL A   1      41.698  23.075  27.413  1.00  0.00     0.031 A 
ATOM     53  C   UNL A   1      43.345  24.407  26.265  1.00  0.00     0.131 A 
ATOM     54  C   UNL A   1      41.812  22.112  26.399  1.00  0.00     0.055 A 
ATOM     55  C   UNL A   1      43.421  23.469  25.236  1.00  0.00     0.041 A 
ATOM     56  F   UNL A   1      44.109  25.507  26.167  1.00  0.00    -0.206 F 
ATOM     57  C   UNL A   1      42.658  22.308  25.303  1.00  0.00     0.022 A 
BRANCH  54  58
ATOM     58  S   UNL A   1      40.873  20.570  26.556  1.00  0.00     0.124 S 
ATOM     59  O   UNL A   1      41.609  19.680  25.665  1.00  0.00    -0.237 OA
ATOM     60  O   UNL A   1      40.988  20.289  27.983  1.00  0.00    -0.237 OA
ATOM     61  O   UNL A   1      39.533  20.940  26.103  1.00  0.00    -0.744 OA
ENDBRANCH  54  58
ENDBRANCH  27  51
BRANCH  39  62
ATOM     62  C   UNL A   1      46.489  25.770  32.854  1.00  0.00     0.023 A 
ATOM     63  C   UNL A   1      47.755  26.017  32.294  1.00  0.00     0.031 A 
ATOM     64  C   UNL A   1      46.406  24.869  33.932  1.00  0.00     0.131 A 
ATOM     65  C   UNL A   1      48.879  25.326  32.773  1.00  0.00     0.055 A 
ATOM     66  C   UNL A   1      47.537  24.230  34.443  1.00  0.00     0.041 A 
ATOM     67  F   UNL A   1      45.223  24.593  34.503  1.00  0.00    -0.206 F 
ATOM     68  C   UNL A   1      48.780  24.446  33.855  1.00  0.00     0.022 A 
BRANCH  65  69
ATOM     69  S   UNL A   1      50.457  25.515  31.900  1.00  0.00     0.124 S 
ATOM     70  O   UNL A   1      50.725  24.150  31.458  1.00  0.00    -0.237 OA
ATOM     71  O   UNL A   1      50.120  26.471  30.850  1.00  0.00    -0.237 OA
ATOM     72  O   UNL A   1      51.361  26.021  32.931  1.00  0.00    -0.744 OA
ENDBRANCH  65  69
ENDBRANCH  39  62
ENDBRANCH  13  14
ENDBRANCH   6   8
ENDBRANCH   3   4
ENDBRANCH   2   3
ENDBRANCH   1   2
BRANCH   1  73
ATOM     73  C   UNL A   1      30.775  26.592  25.361  1.00  0.00     0.002 C 
BRANCH  73  74
ATOM     74  C   UNL A   1      30.082  26.371  24.017  1.00  0.00     0.021 C 
BRANCH  74  75
ATOM     75  C   UNL A   1      30.711  25.318  23.115  1.00  0.00     0.116 C 
BRANCH  75  76
ATOM     76  N   UNL A   1      31.540  25.874  22.056  1.00  0.00    -0.352 N 
ATOM     77  C   UNL A   1      32.901  25.779  21.865  1.00  0.00     0.251 C 
ATOM     78  H   UNL A   1      31.055  26.395  21.375  1.00  0.00     0.163 HD
ATOM     79  O   UNL A   1      33.434  26.418  20.961  1.00  0.00    -0.269 OA
BRANCH  77  80
ATOM     80  C   UNL A   1      33.737  24.934  22.756  1.00  0.00     0.039 A 
ATOM     81  C   UNL A   1      34.150  25.436  23.998  1.00  0.00     0.015 A 
ATOM     82  C   UNL A   1      34.109  23.644  22.385  1.00  0.00     0.015 A 
ATOM     83  C   UNL A   1      34.899  24.632  24.871  1.00  0.00     0.023 A 
ATOM     84  C   UNL A   1      34.734  22.808  23.302  1.00  0.00     0.023 A 
ATOM     85  C   UNL A   1      35.191  23.308  24.518  1.00  0.00     0.087 A 
BRANCH  85  86
ATOM     86  S   UNL A   1      36.036  22.243  25.666  1.00  0.00     0.261 S 
ATOM     87  O   UNL A   1      36.641  21.170  24.905  1.00  0.00    -0.201 OA
ATOM     88  O   UNL A   1      36.860  23.096  26.499  1.00  0.00    -0.201 OA
BRANCH  86  89
ATOM     89  N   UNL A   1      34.913  21.482  26.709  1.00  0.00    -0.279 N 
ATOM     90  H   UNL A   1      35.216  20.801  27.352  1.00  0.00     0.180 HD
BRANCH  89  91
ATOM     91  C   UNL A   1      33.522  21.848  26.640  1.00  0.00     0.062 A 
ATOM     92  C   UNL A   1      33.060  22.965  27.352  1.00  0.00     0.028 A 
ATOM     93  C   UNL A   1      32.640  21.161  25.787  1.00  0.00     0.037 A 
ATOM     94  C   UNL A   1      31.744  23.406  27.188  1.00  0.00     0.002 A 
ATOM     95  C   UNL A   1      31.324  21.610  25.625  1.00  0.00     0.017 A 
ATOM     96  I   UNL A   1      33.222  19.456  24.711  1.00  0.00    -0.042 I 
ATOM     97  C   UNL A   1      30.881  22.737  26.320  1.00  0.00     0.001 A 
ENDBRANCH  89  91
ENDBRANCH  86  89
ENDBRANCH  85  86
ENDBRANCH  77  80
ENDBRANCH  75  76
ENDBRANCH  74  75
ENDBRANCH  73  74
ENDBRANCH   1  73
TORSDOF 19
ENDMDL
MODEL 3
REMARK VINA RESULT:     -11.2      1.817      2.424
REMARK SMILES O=C(NCCCCCCNC(=O)c1ccc(S(=O)(=O)Nc2ccccc2I)cc1)c1ccc(-c2c3nc(c(-c4cc(S(=O)(=O)[O-])ccc4F)c4ccc([nH]4)c(-c4cc(S(=O)(=O)[O-])ccc4F)c4nc(c(-c5cc(S(=O)(=O)[O-])ccc5F)c5ccc2[nH]5)C=C4)C=C3)cc1
REMARK SMILES IDX 6 1 5 2 4 3 3 4 1 5 2 6 30 8 31 9 92 10 32 11 91 12 33 13
REMARK SMILES IDX 34 14 35 15 85 16 36 17 90 18 84 19 86 20 37 21 89 22 83 23
REMARK SMILES IDX 82 24 38 26 70 27 50 28 69 29 51 30 54 31 68 32 87 33 52 34
REMARK SMILES IDX 53 35 67 37 88 38 55 39 39 40 40 41 48 42 41 43 47 44 49 45
REMARK SMILES IDX 46 46 42 47 43 48 44 49 45 50 71 51 72 52 80 53 73 54 79 55
REMARK SMILES IDX 81 56 78 57 74 58 75 59 76 60 77 61 56 62 57 63 65 64 58 65
REMARK SMILES IDX 64 66 66 67 63 68 59 69 60 70 61 71 62 72 7 73 8 74 9 75
REMARK SMILES IDX 10 76 11 77 12 79 13 80 14 81 29 82 15 83 28 84 16 85 17 86
REMARK SMILES IDX 18 87 19 88 20 89 21 91 22 92 26 93 23 94 25 95 27 96 24 97
REMARK H PARENT 3 7 86 25 54 36 10 78 20 90
REMARK Flexibility Score: inf
ROOT
ATOM      1  C   UNL A   1      31.553  27.775  26.313  1.00  0.00     0.002 C 
ENDROOT
BRANCH   1   2
ATOM      2  C   UNL A   1      33.066  27.980  26.222  1.00  0.00     0.021 C 
BRANCH   2   3
ATOM      3  C   UNL A   1      33.525  29.201  25.432  1.00  0.00     0.116 C 
BRANCH   3   4
ATOM      4  N   UNL A   1      32.987  30.449  25.948  1.00  0.00    -0.352 N 
ATOM      5  O   UNL A   1      32.763  32.177  27.376  1.00  0.00    -0.269 OA
ATOM      6  C   UNL A   1      33.420  31.207  27.009  1.00  0.00     0.251 C 
ATOM      7  H   UNL A   1      32.202  30.801  25.469  1.00  0.00     0.163 HD
BRANCH   6   8
ATOM      8  C   UNL A   1      34.661  30.836  27.725  1.00  0.00     0.039 A 
ATOM      9  C   UNL A   1      34.753  29.632  28.428  1.00  0.00     0.014 A 
ATOM     10  C   UNL A   1      35.751  31.711  27.689  1.00  0.00     0.014 A 
ATOM     11  C   UNL A   1      35.880  29.366  29.201  1.00  0.00     0.010 A 
ATOM     12  C   UNL A   1      36.913  31.404  28.403  1.00  0.00     0.010 A 
ATOM     13  C   UNL A   1      36.975  30.244  29.192  1.00  0.00    -0.014 A 
BRANCH  13  14
ATOM     14  C   UNL A   1      38.190  29.910  29.981  1.00  0.00     0.031 A 
ATOM     15  C   UNL A   1      38.396  30.472  31.361  1.00  0.00     0.074 A 
ATOM     16  C   UNL A   1      39.101  29.072  29.449  1.00  0.00     0.049 A 
ATOM     17  N   UNL A   1      39.388  30.276  32.193  1.00  0.00    -0.248 NA
ATOM     18  C   UNL A   1      37.359  31.381  31.865  1.00  0.00     0.031 C 
ATOM     19  C   UNL A   1      39.008  28.469  28.117  1.00  0.00     0.029 A 
ATOM     20  N   UNL A   1      40.268  28.570  29.962  1.00  0.00    -0.354 N 
ATOM     21  C   UNL A   1      39.105  31.049  33.314  1.00  0.00     0.074 A 
ATOM     22  C   UNL A   1      37.867  31.747  33.034  1.00  0.00     0.031 C 
ATOM     23  C   UNL A   1      40.049  27.642  27.938  1.00  0.00     0.029 A 
ATOM     24  C   UNL A   1      40.914  27.706  29.109  1.00  0.00     0.049 A 
ATOM     25  H   UNL A   1      40.611  28.805  30.854  1.00  0.00     0.167 HD
ATOM     26  C   UNL A   1      39.806  31.156  34.472  1.00  0.00     0.034 A 
ATOM     27  C   UNL A   1      42.081  27.048  29.247  1.00  0.00     0.034 A 
ATOM     28  C   UNL A   1      41.044  30.455  34.730  1.00  0.00     0.049 A 
ATOM     29  C   UNL A   1      42.865  27.218  30.518  1.00  0.00     0.074 A 
ATOM     30  C   UNL A   1      41.821  30.467  35.876  1.00  0.00     0.029 A 
ATOM     31  N   UNL A   1      41.695  29.626  33.824  1.00  0.00    -0.354 N 
ATOM     32  N   UNL A   1      42.575  27.938  31.577  1.00  0.00    -0.248 NA
ATOM     33  C   UNL A   1      44.132  26.486  30.611  1.00  0.00     0.031 C 
ATOM     34  C   UNL A   1      42.971  29.704  35.639  1.00  0.00     0.029 A 
ATOM     35  C   UNL A   1      42.878  29.149  34.372  1.00  0.00     0.049 A 
ATOM     36  H   UNL A   1      41.364  29.408  32.923  1.00  0.00     0.167 HD
ATOM     37  C   UNL A   1      43.615  27.726  32.475  1.00  0.00     0.074 A 
ATOM     38  C   UNL A   1      44.531  26.800  31.836  1.00  0.00     0.031 C 
ATOM     39  C   UNL A   1      43.795  28.244  33.717  1.00  0.00     0.034 A 
BRANCH  26  40
ATOM     40  C   UNL A   1      39.269  32.107  35.520  1.00  0.00     0.023 A 
ATOM     41  C   UNL A   1      39.658  33.458  35.563  1.00  0.00     0.031 A 
ATOM     42  C   UNL A   1      38.394  31.645  36.520  1.00  0.00     0.131 A 
ATOM     43  C   UNL A   1      39.250  34.273  36.630  1.00  0.00     0.055 A 
ATOM     44  C   UNL A   1      37.922  32.485  37.531  1.00  0.00     0.041 A 
ATOM     45  F   UNL A   1      38.001  30.363  36.545  1.00  0.00    -0.206 F 
ATOM     46  C   UNL A   1      38.365  33.803  37.602  1.00  0.00     0.022 A 
BRANCH  43  47
ATOM     47  S   UNL A   1      40.029  35.902  36.820  1.00  0.00     0.124 S 
ATOM     48  O   UNL A   1      39.667  36.555  35.564  1.00  0.00    -0.237 OA
ATOM     49  O   UNL A   1      39.382  36.426  38.018  1.00  0.00    -0.237 OA
ATOM     50  O   UNL A   1      41.449  35.589  36.962  1.00  0.00    -0.744 OA
ENDBRANCH  43  47
ENDBRANCH  26  40
BRANCH  27  51
ATOM     51  C   UNL A   1      42.579  26.181  28.143  1.00  0.00     0.023 A 
ATOM     52  C   UNL A   1      42.041  24.905  27.928  1.00  0.00     0.031 A 
ATOM     53  C   UNL A   1      43.603  26.624  27.285  1.00  0.00     0.131 A 
ATOM     54  C   UNL A   1      42.547  24.099  26.897  1.00  0.00     0.055 A 
ATOM     55  C   UNL A   1      44.070  25.838  26.232  1.00  0.00     0.041 A 
ATOM     56  F   UNL A   1      44.144  27.842  27.446  1.00  0.00    -0.206 F 
ATOM     57  C   UNL A   1      43.548  24.563  26.038  1.00  0.00     0.022 A 
BRANCH  54  58
ATOM     58  S   UNL A   1      41.911  22.412  26.721  1.00  0.00     0.124 S 
ATOM     59  O   UNL A   1      40.470  22.628  26.795  1.00  0.00    -0.237 OA
ATOM     60  O   UNL A   1      42.436  22.024  25.417  1.00  0.00    -0.237 OA
ATOM     61  O   UNL A   1      42.496  21.706  27.860  1.00  0.00    -0.744 OA
ENDBRANCH  54  58
ENDBRANCH  27  51
BRANCH  39  62
ATOM     62  C   UNL A   1      45.015  27.780  34.475  1.00  0.00     0.023 A 
ATOM     63  C   UNL A   1      44.985  26.646  35.305  1.00  0.00     0.031 A 
ATOM     64  C   UNL A   1      46.216  28.507  34.389  1.00  0.00     0.131 A 
ATOM     65  C   UNL A   1      46.116  26.306  36.064  1.00  0.00     0.055 A 
ATOM     66  C   UNL A   1      47.356  28.129  35.100  1.00  0.00     0.041 A 
ATOM     67  F   UNL A   1      46.300  29.600  33.615  1.00  0.00    -0.206 F 
ATOM     68  C   UNL A   1      47.306  27.030  35.955  1.00  0.00     0.022 A 
BRANCH  65  69
ATOM     69  S   UNL A   1      45.981  24.961  37.274  1.00  0.00     0.124 S 
ATOM     70  O   UNL A   1      44.536  24.847  37.442  1.00  0.00    -0.237 OA
ATOM     71  O   UNL A   1      46.633  23.853  36.582  1.00  0.00    -0.237 OA
ATOM     72  O   UNL A   1      46.702  25.474  38.438  1.00  0.00    -0.744 OA
ENDBRANCH  65  69
ENDBRANCH  39  62
ENDBRANCH  13  14
ENDBRANCH   6   8
ENDBRANCH   3   4
ENDBRANCH   2   3
ENDBRANCH   1   2
BRANCH   1  73
ATOM     73  C   UNL A   1      31.005  26.483  25.703  1.00  0.00     0.002 C 
BRANCH  73  74
ATOM     74  C   UNL A   1      30.409  26.597  24.300  1.00  0.00     0.021 C 
BRANCH  74  75
ATOM     75  C   UNL A   1      30.782  25.483  23.331  1.00  0.00     0.116 C 
BRANCH  75  76
ATOM     76  N   UNL A   1      31.555  25.939  22.187  1.00  0.00    -0.352 N 
ATOM     77  C   UNL A   1      32.892  25.763  21.905  1.00  0.00     0.251 C 
ATOM     78  H   UNL A   1      31.048  26.448  21.514  1.00  0.00     0.163 HD
ATOM     79  O   UNL A   1      33.388  26.325  20.931  1.00  0.00    -0.269 OA
BRANCH  77  80
ATOM     80  C   UNL A   1      33.750  24.923  22.781  1.00  0.00     0.039 A 
ATOM     81  C   UNL A   1      34.205  25.438  24.003  1.00  0.00     0.015 A 
ATOM     82  C   UNL A   1      34.102  23.626  22.415  1.00  0.00     0.015 A 
ATOM     83  C   UNL A   1      34.976  24.641  24.862  1.00  0.00     0.023 A 
ATOM     84  C   UNL A   1      34.750  22.798  23.323  1.00  0.00     0.023 A 
ATOM     85  C   UNL A   1      35.248  23.310  24.518  1.00  0.00     0.087 A 
BRANCH  85  86
ATOM     86  S   UNL A   1      36.121  22.254  25.653  1.00  0.00     0.261 S 
ATOM     87  O   UNL A   1      36.754  21.206  24.879  1.00  0.00    -0.201 OA
ATOM     88  O   UNL A   1      36.922  23.119  26.496  1.00  0.00    -0.201 OA
BRANCH  86  89
ATOM     89  N   UNL A   1      35.019  21.452  26.687  1.00  0.00    -0.279 N 
ATOM     90  H   UNL A   1      35.338  20.759  27.309  1.00  0.00     0.180 HD
BRANCH  89  91
ATOM     91  C   UNL A   1      33.622  21.800  26.640  1.00  0.00     0.062 A 
ATOM     92  C   UNL A   1      33.155  22.896  27.381  1.00  0.00     0.028 A 
ATOM     93  C   UNL A   1      32.739  21.119  25.784  1.00  0.00     0.037 A 
ATOM     94  C   UNL A   1      31.831  23.324  27.240  1.00  0.00     0.002 A 
ATOM     95  C   UNL A   1      31.416  21.554  25.646  1.00  0.00     0.017 A 
ATOM     96  I   UNL A   1      33.331  19.443  24.668  1.00  0.00    -0.042 I 
ATOM     97  C   UNL A   1      30.967  22.661  26.369  1.00  0.00     0.001 A 
ENDBRANCH  89  91
ENDBRANCH  86  89
ENDBRANCH  85  86
ENDBRANCH  77  80
ENDBRANCH  75  76
ENDBRANCH  74  75
ENDBRANCH  73  74
ENDBRANCH   1  73
TORSDOF 19
ENDMDL
