MODEL 1
REMARK VINA RESULT:     -10.6      0.000      0.000
REMARK SMILES C=CCN1C(=O)/C(=C/c2ccccn2)S/C1=[NH+]\c1ccc(C(=O)NCCCCCCNC(=O)c2ccc(-c3c4nc(c(-c5cc(S(=O)(=O)[O-])ccc5F)c5ccc([nH]5)c(-c5cc(S(=O)(=O)[O-])ccc5F)c5nc(c(-c6cc(S(=O)(=O)[O-])ccc6F)c6ccc3[nH]6)C=C5)C=C4)cc2)cc1
REMARK SMILES IDX 27 1 26 2 25 3 24 4 22 5 23 6 21 8 18 9 19 10 98 11 20 12
REMARK SMILES IDX 97 13 17 14 4 15 5 16 16 17 6 18 7 19 15 20 8 21 3 23 2 24
REMARK SMILES IDX 1 25 9 26 10 27 14 28 11 29 13 30 12 31 28 32 29 33 30 34
REMARK SMILES IDX 31 35 32 36 33 38 34 39 35 40 96 41 36 42 95 43 37 44 38 45
REMARK SMILES IDX 39 46 89 47 40 48 94 49 88 50 90 51 41 52 93 53 87 54 86 55
REMARK SMILES IDX 42 57 74 58 54 59 73 60 55 61 58 62 72 63 91 64 56 65 57 66
REMARK SMILES IDX 71 68 92 69 59 70 43 71 44 72 52 73 45 74 51 75 53 76 50 77
REMARK SMILES IDX 46 78 47 79 48 80 49 81 75 82 76 83 84 84 77 85 83 86 85 87
REMARK SMILES IDX 82 88 78 89 79 90 80 91 81 92 60 93 61 94 69 95 62 96 68 97
REMARK SMILES IDX 70 98 67 99 63 100 64 101 65 102 66 103
REMARK H PARENT 24 7 17 22 31 37 90 56 58 67
REMARK Flexibility Score: inf
ROOT
ATOM      1  C   UNL A   1      35.243  31.603  27.738  1.00  0.00     0.002 C 
ENDROOT
BRANCH   1   2
ATOM      2  C   UNL A   1      35.866  30.221  27.974  1.00  0.00     0.021 C 
BRANCH   2   3
ATOM      3  C   UNL A   1      35.144  29.103  27.219  1.00  0.00     0.116 C 
BRANCH   3   4
ATOM      4  N   UNL A   1      34.055  29.664  26.438  1.00  0.00    -0.352 N 
ATOM      5  C   UNL A   1      33.199  29.107  25.525  1.00  0.00     0.251 C 
ATOM      6  O   UNL A   1      32.356  29.834  24.999  1.00  0.00    -0.269 OA
ATOM      7  H   UNL A   1      33.904  30.625  26.595  1.00  0.00     0.163 HD
BRANCH   5   8
ATOM      8  C   UNL A   1      33.199  27.654  25.212  1.00  0.00     0.040 A 
ATOM      9  C   UNL A   1      33.321  24.867  24.878  1.00  0.00     0.125 A 
ATOM     10  C   UNL A   1      32.697  25.409  26.002  1.00  0.00     0.052 A 
ATOM     11  C   UNL A   1      33.784  25.723  23.876  1.00  0.00     0.052 A 
ATOM     12  C   UNL A   1      32.643  26.795  26.171  1.00  0.00     0.018 A 
ATOM     13  C   UNL A   1      33.705  27.108  24.031  1.00  0.00     0.018 A 
BRANCH   9  14
ATOM     14  N   UNL A   1      33.437  23.482  24.732  1.00  0.00    -0.234 N 
ATOM     15  N   UNL A   1      34.738  21.546  24.845  1.00  0.00    -0.182 N 
ATOM     16  C   UNL A   1      36.004  21.056  25.078  1.00  0.00     0.349 C 
ATOM     17  C   UNL A   1      34.547  22.890  25.035  1.00  0.00     0.324 C 
ATOM     18  O   UNL A   1      36.372  19.898  24.921  1.00  0.00    -0.240 OA
ATOM     19  C   UNL A   1      36.883  22.141  25.588  1.00  0.00     0.111 C 
ATOM     20  S   UNL A   1      35.993  23.608  25.715  1.00  0.00     0.007 SA
ATOM     21  C   UNL A   1      38.174  21.935  25.885  1.00  0.00     0.052 C 
ATOM     22  H   UNL A   1      32.674  22.957  24.398  1.00  0.00     0.313 HD
BRANCH  15  23
ATOM     23  C   UNL A   1      33.670  20.678  24.393  1.00  0.00     0.275 C 
BRANCH  23  24
ATOM     24  C   UNL A   1      33.189  19.867  25.567  1.00  0.00     0.011 C 
ATOM     25  C   UNL A   1      32.693  18.626  25.474  1.00  0.00     0.008 C 
ENDBRANCH  23  24
ENDBRANCH  15  23
BRANCH  21  26
ATOM     26  C   UNL A   1      39.083  22.918  26.471  1.00  0.00     0.064 A 
ATOM     27  C   UNL A   1      38.855  24.285  26.337  1.00  0.00     0.028 A 
ATOM     28  N   UNL A   1      40.100  22.412  27.198  1.00  0.00    -0.257 NA
ATOM     29  C   UNL A   1      39.739  25.174  26.943  1.00  0.00     0.004 A 
ATOM     30  C   UNL A   1      40.947  23.298  27.772  1.00  0.00     0.111 A 
ATOM     31  C   UNL A   1      40.811  24.673  27.670  1.00  0.00     0.020 A 
ENDBRANCH  21  26
ENDBRANCH   9  14
ENDBRANCH   5   8
ENDBRANCH   3   4
ENDBRANCH   2   3
ENDBRANCH   1   2
BRANCH   1  32
ATOM     32  C   UNL A   1      35.751  32.699  28.681  1.00  0.00     0.002 C 
BRANCH  32  33
ATOM     33  C   UNL A   1      35.006  32.789  30.017  1.00  0.00     0.021 C 
BRANCH  33  34
ATOM     34  C   UNL A   1      35.913  32.704  31.240  1.00  0.00     0.116 C 
BRANCH  34  35
ATOM     35  N   UNL A   1      35.926  31.361  31.797  1.00  0.00    -0.352 N 
ATOM     36  C   UNL A   1      36.906  30.403  31.730  1.00  0.00     0.251 C 
ATOM     37  H   UNL A   1      35.117  31.102  32.293  1.00  0.00     0.163 HD
ATOM     38  O   UNL A   1      36.637  29.239  32.012  1.00  0.00    -0.269 OA
BRANCH  36  39
ATOM     39  C   UNL A   1      38.273  30.775  31.305  1.00  0.00     0.039 A 
ATOM     40  C   UNL A   1      38.621  30.650  29.960  1.00  0.00     0.014 A 
ATOM     41  C   UNL A   1      39.214  31.226  32.236  1.00  0.00     0.014 A 
ATOM     42  C   UNL A   1      39.899  31.026  29.540  1.00  0.00     0.010 A 
ATOM     43  C   UNL A   1      40.459  31.675  31.804  1.00  0.00     0.010 A 
ATOM     44  C   UNL A   1      40.819  31.572  30.452  1.00  0.00    -0.014 A 
BRANCH  44  45
ATOM     45  C   UNL A   1      42.161  32.026  30.004  1.00  0.00     0.031 A 
ATOM     46  C   UNL A   1      42.404  33.478  29.690  1.00  0.00     0.074 A 
ATOM     47  C   UNL A   1      43.150  31.123  29.851  1.00  0.00     0.049 A 
ATOM     48  N   UNL A   1      43.493  34.058  29.254  1.00  0.00    -0.248 NA
ATOM     49  C   UNL A   1      41.267  34.393  29.866  1.00  0.00     0.031 C 
ATOM     50  C   UNL A   1      43.025  29.684  30.095  1.00  0.00     0.029 A 
ATOM     51  N   UNL A   1      44.457  31.277  29.459  1.00  0.00    -0.354 N 
ATOM     52  C   UNL A   1      43.173  35.403  29.105  1.00  0.00     0.074 A 
ATOM     53  C   UNL A   1      41.769  35.538  29.426  1.00  0.00     0.031 C 
ATOM     54  C   UNL A   1      44.213  29.096  29.884  1.00  0.00     0.029 A 
ATOM     55  C   UNL A   1      45.172  30.101  29.440  1.00  0.00     0.049 A 
ATOM     56  H   UNL A   1      44.846  32.147  29.214  1.00  0.00     0.167 HD
ATOM     57  C   UNL A   1      43.983  36.436  28.759  1.00  0.00     0.034 A 
ATOM     58  C   UNL A   1      46.452  29.859  29.094  1.00  0.00     0.034 A 
ATOM     59  C   UNL A   1      45.383  36.285  28.443  1.00  0.00     0.049 A 
ATOM     60  C   UNL A   1      47.317  31.019  28.662  1.00  0.00     0.074 A 
ATOM     61  C   UNL A   1      46.301  37.266  28.111  1.00  0.00     0.029 A 
ATOM     62  N   UNL A   1      46.067  35.076  28.411  1.00  0.00    -0.354 N 
ATOM     63  N   UNL A   1      47.008  32.292  28.569  1.00  0.00    -0.248 NA
ATOM     64  C   UNL A   1      48.706  30.709  28.300  1.00  0.00     0.031 C 
ATOM     65  C   UNL A   1      47.516  36.645  27.807  1.00  0.00     0.029 A 
ATOM     66  C   UNL A   1      47.385  35.285  28.036  1.00  0.00     0.049 A 
ATOM     67  H   UNL A   1      45.672  34.199  28.624  1.00  0.00     0.167 HD
ATOM     68  C   UNL A   1      48.179  32.938  28.178  1.00  0.00     0.074 A 
ATOM     69  C   UNL A   1      49.199  31.916  28.071  1.00  0.00     0.031 C 
ATOM     70  C   UNL A   1      48.393  34.256  27.930  1.00  0.00     0.034 A 
BRANCH  57  71
ATOM     71  C   UNL A   1      43.366  37.812  28.690  1.00  0.00     0.023 A 
ATOM     72  C   UNL A   1      43.470  38.722  29.758  1.00  0.00     0.031 A 
ATOM     73  C   UNL A   1      42.659  38.223  27.545  1.00  0.00     0.131 A 
ATOM     74  C   UNL A   1      42.822  39.965  29.688  1.00  0.00     0.055 A 
ATOM     75  C   UNL A   1      42.087  39.494  27.448  1.00  0.00     0.041 A 
ATOM     76  F   UNL A   1      42.505  37.392  26.503  1.00  0.00    -0.206 F 
ATOM     77  C   UNL A   1      42.155  40.369  28.529  1.00  0.00     0.022 A 
BRANCH  74  78
ATOM     78  S   UNL A   1      42.746  40.986  31.184  1.00  0.00     0.124 S 
ATOM     79  O   UNL A   1      43.913  41.846  31.012  1.00  0.00    -0.237 OA
ATOM     80  O   UNL A   1      41.448  41.637  31.057  1.00  0.00    -0.237 OA
ATOM     81  O   UNL A   1      42.853  40.012  32.268  1.00  0.00    -0.744 OA
ENDBRANCH  74  78
ENDBRANCH  57  71
BRANCH  58  82
ATOM     82  C   UNL A   1      47.004  28.473  29.125  1.00  0.00     0.023 A 
ATOM     83  C   UNL A   1      46.886  27.623  28.012  1.00  0.00     0.031 A 
ATOM     84  C   UNL A   1      47.593  27.949  30.289  1.00  0.00     0.131 A 
ATOM     85  C   UNL A   1      47.284  26.281  28.109  1.00  0.00     0.055 A 
ATOM     86  C   UNL A   1      48.052  26.632  30.358  1.00  0.00     0.041 A 
ATOM     87  F   UNL A   1      47.734  28.715  31.384  1.00  0.00    -0.206 F 
ATOM     88  C   UNL A   1      47.880  25.784  29.269  1.00  0.00     0.022 A 
BRANCH  85  89
ATOM     89  S   UNL A   1      46.896  25.162  26.735  1.00  0.00     0.124 S 
ATOM     90  O   UNL A   1      47.461  25.882  25.600  1.00  0.00    -0.237 OA
ATOM     91  O   UNL A   1      47.591  23.942  27.134  1.00  0.00    -0.237 OA
ATOM     92  O   UNL A   1      45.438  25.085  26.763  1.00  0.00    -0.744 OA
ENDBRANCH  85  89
ENDBRANCH  58  82
BRANCH  70  93
ATOM     93  C   UNL A   1      49.803  34.668  27.574  1.00  0.00     0.023 A 
ATOM     94  C   UNL A   1      50.271  34.644  26.248  1.00  0.00     0.031 A 
ATOM     95  C   UNL A   1      50.696  35.070  28.583  1.00  0.00     0.131 A 
ATOM     96  C   UNL A   1      51.614  34.949  25.977  1.00  0.00     0.055 A 
ATOM     97  C   UNL A   1      52.010  35.442  28.297  1.00  0.00     0.041 A 
ATOM     98  F   UNL A   1      50.306  35.108  29.868  1.00  0.00    -0.206 F 
ATOM     99  C   UNL A   1      52.480  35.366  26.989  1.00  0.00     0.022 A 
BRANCH  96 100
ATOM    100  S   UNL A   1      52.242  34.679  24.297  1.00  0.00     0.124 S 
ATOM    101  O   UNL A   1      51.478  33.512  23.871  1.00  0.00    -0.237 OA
ATOM    102  O   UNL A   1      51.910  35.935  23.634  1.00  0.00    -0.237 OA
ATOM    103  O   UNL A   1      53.671  34.445  24.500  1.00  0.00    -0.744 OA
ENDBRANCH  96 100
ENDBRANCH  70  93
ENDBRANCH  44  45
ENDBRANCH  36  39
ENDBRANCH  34  35
ENDBRANCH  33  34
ENDBRANCH  32  33
ENDBRANCH   1  32
TORSDOF 20
ENDMDL
MODEL 2
REMARK VINA RESULT:     -10.4      2.650      8.829
REMARK SMILES C=CCN1C(=O)/C(=C/c2ccccn2)S/C1=[NH+]\c1ccc(C(=O)NCCCCCCNC(=O)c2ccc(-c3c4nc(c(-c5cc(S(=O)(=O)[O-])ccc5F)c5ccc([nH]5)c(-c5cc(S(=O)(=O)[O-])ccc5F)c5nc(c(-c6cc(S(=O)(=O)[O-])ccc6F)c6ccc3[nH]6)C=C5)C=C4)cc2)cc1
REMARK SMILES IDX 27 1 26 2 25 3 24 4 22 5 23 6 21 8 18 9 19 10 98 11 20 12
REMARK SMILES IDX 97 13 17 14 4 15 5 16 16 17 6 18 7 19 15 20 8 21 3 23 2 24
REMARK SMILES IDX 1 25 9 26 10 27 14 28 11 29 13 30 12 31 28 32 29 33 30 34
REMARK SMILES IDX 31 35 32 36 33 38 34 39 35 40 96 41 36 42 95 43 37 44 38 45
REMARK SMILES IDX 39 46 89 47 40 48 94 49 88 50 90 51 41 52 93 53 87 54 86 55
REMARK SMILES IDX 42 57 74 58 54 59 73 60 55 61 58 62 72 63 91 64 56 65 57 66
REMARK SMILES IDX 71 68 92 69 59 70 43 71 44 72 52 73 45 74 51 75 53 76 50 77
REMARK SMILES IDX 46 78 47 79 48 80 49 81 75 82 76 83 84 84 77 85 83 86 85 87
REMARK SMILES IDX 82 88 78 89 79 90 80 91 81 92 60 93 61 94 69 95 62 96 68 97
REMARK SMILES IDX 70 98 67 99 63 100 64 101 65 102 66 103
REMARK H PARENT 24 7 17 22 31 37 90 56 58 67
REMARK Flexibility Score: inf
ROOT
ATOM      1  C   UNL A   1      34.518  34.902  30.913  1.00  0.00     0.002 C 
ENDROOT
BRANCH   1   2
ATOM      2  C   UNL A   1      33.259  34.923  30.035  1.00  0.00     0.021 C 
BRANCH   2   3
ATOM      3  C   UNL A   1      33.493  34.336  28.642  1.00  0.00     0.116 C 
BRANCH   3   4
ATOM      4  N   UNL A   1      34.916  34.135  28.428  1.00  0.00    -0.352 N 
ATOM      5  C   UNL A   1      35.648  33.019  28.119  1.00  0.00     0.251 C 
ATOM      6  O   UNL A   1      36.867  33.137  28.000  1.00  0.00    -0.269 OA
ATOM      7  H   UNL A   1      35.454  34.954  28.523  1.00  0.00     0.163 HD
BRANCH   5   8
ATOM      8  C   UNL A   1      35.018  31.700  27.844  1.00  0.00     0.040 A 
ATOM      9  C   UNL A   1      34.023  29.175  27.117  1.00  0.00     0.125 A 
ATOM     10  C   UNL A   1      35.371  29.328  27.443  1.00  0.00     0.052 A 
ATOM     11  C   UNL A   1      33.159  30.263  27.263  1.00  0.00     0.052 A 
ATOM     12  C   UNL A   1      35.866  30.585  27.798  1.00  0.00     0.018 A 
ATOM     13  C   UNL A   1      33.648  31.513  27.645  1.00  0.00     0.018 A 
BRANCH   9  14
ATOM     14  N   UNL A   1      33.532  27.936  26.700  1.00  0.00    -0.234 N 
ATOM     15  N   UNL A   1      32.013  26.693  25.434  1.00  0.00    -0.182 N 
ATOM     16  C   UNL A   1      30.919  26.770  24.601  1.00  0.00     0.349 C 
ATOM     17  C   UNL A   1      32.579  27.878  25.826  1.00  0.00     0.324 C 
ATOM     18  O   UNL A   1      30.259  25.825  24.184  1.00  0.00    -0.240 OA
ATOM     19  C   UNL A   1      30.653  28.187  24.239  1.00  0.00     0.111 C 
ATOM     20  S   UNL A   1      31.819  29.211  24.981  1.00  0.00     0.007 SA
ATOM     21  C   UNL A   1      29.634  28.543  23.445  1.00  0.00     0.052 C 
ATOM     22  H   UNL A   1      33.910  27.106  27.071  1.00  0.00     0.313 HD
BRANCH  15  23
ATOM     23  C   UNL A   1      32.518  25.415  25.892  1.00  0.00     0.275 C 
BRANCH  23  24
ATOM     24  C   UNL A   1      33.606  24.970  24.950  1.00  0.00     0.011 C 
ATOM     25  C   UNL A   1      34.816  24.548  25.342  1.00  0.00     0.008 C 
ENDBRANCH  23  24
ENDBRANCH  15  23
BRANCH  21  26
ATOM     26  C   UNL A   1      29.353  29.896  22.970  1.00  0.00     0.064 A 
ATOM     27  C   UNL A   1      29.427  30.219  21.618  1.00  0.00     0.028 A 
ATOM     28  N   UNL A   1      28.956  30.776  23.913  1.00  0.00    -0.257 NA
ATOM     29  C   UNL A   1      29.120  31.518  21.221  1.00  0.00     0.004 A 
ATOM     30  C   UNL A   1      28.668  32.032  23.501  1.00  0.00     0.111 A 
ATOM     31  C   UNL A   1      28.738  32.446  22.181  1.00  0.00     0.020 A 
ENDBRANCH  21  26
ENDBRANCH   9  14
ENDBRANCH   5   8
ENDBRANCH   3   4
ENDBRANCH   2   3
ENDBRANCH   1   2
BRANCH   1  32
ATOM     32  C   UNL A   1      34.314  34.284  32.301  1.00  0.00     0.002 C 
BRANCH  32  33
ATOM     33  C   UNL A   1      34.393  32.755  32.338  1.00  0.00     0.021 C 
BRANCH  33  34
ATOM     34  C   UNL A   1      35.662  32.184  31.712  1.00  0.00     0.116 C 
BRANCH  34  35
ATOM     35  N   UNL A   1      35.963  30.863  32.237  1.00  0.00    -0.352 N 
ATOM     36  C   UNL A   1      37.075  30.084  32.043  1.00  0.00     0.251 C 
ATOM     37  H   UNL A   1      35.270  30.470  32.815  1.00  0.00     0.163 HD
ATOM     38  O   UNL A   1      37.039  28.891  32.330  1.00  0.00    -0.269 OA
BRANCH  36  39
ATOM     39  C   UNL A   1      38.304  30.682  31.476  1.00  0.00     0.039 A 
ATOM     40  C   UNL A   1      39.209  31.309  32.333  1.00  0.00     0.014 A 
ATOM     41  C   UNL A   1      38.551  30.642  30.100  1.00  0.00     0.014 A 
ATOM     42  C   UNL A   1      40.387  31.852  31.816  1.00  0.00     0.010 A 
ATOM     43  C   UNL A   1      39.761  31.113  29.598  1.00  0.00     0.010 A 
ATOM     44  C   UNL A   1      40.689  31.731  30.448  1.00  0.00    -0.014 A 
BRANCH  44  45
ATOM     45  C   UNL A   1      41.965  32.256  29.898  1.00  0.00     0.031 A 
ATOM     46  C   UNL A   1      43.127  31.329  29.660  1.00  0.00     0.074 A 
ATOM     47  C   UNL A   1      42.086  33.575  29.645  1.00  0.00     0.049 A 
ATOM     48  N   UNL A   1      44.329  31.605  29.221  1.00  0.00    -0.248 NA
ATOM     49  C   UNL A   1      42.918  29.909  29.980  1.00  0.00     0.031 C 
ATOM     50  C   UNL A   1      41.039  34.575  29.866  1.00  0.00     0.029 A 
ATOM     51  N   UNL A   1      43.136  34.302  29.142  1.00  0.00    -0.354 N 
ATOM     52  C   UNL A   1      45.016  30.396  29.211  1.00  0.00     0.074 A 
ATOM     53  C   UNL A   1      44.121  29.400  29.758  1.00  0.00     0.031 C 
ATOM     54  C   UNL A   1      41.486  35.777  29.466  1.00  0.00     0.029 A 
ATOM     55  C   UNL A   1      42.866  35.645  29.010  1.00  0.00     0.049 A 
ATOM     56  H   UNL A   1      44.001  33.901  28.900  1.00  0.00     0.167 HD
ATOM     57  C   UNL A   1      46.270  30.135  28.761  1.00  0.00     0.034 A 
ATOM     58  C   UNL A   1      43.645  36.658  28.581  1.00  0.00     0.034 A 
ATOM     59  C   UNL A   1      47.150  31.141  28.216  1.00  0.00     0.049 A 
ATOM     60  C   UNL A   1      45.054  36.348  28.135  1.00  0.00     0.074 A 
ATOM     61  C   UNL A   1      48.426  30.981  27.703  1.00  0.00     0.029 A 
ATOM     62  N   UNL A   1      46.852  32.494  28.119  1.00  0.00    -0.354 N 
ATOM     63  N   UNL A   1      45.673  35.190  28.092  1.00  0.00    -0.248 NA
ATOM     64  C   UNL A   1      45.865  37.481  27.669  1.00  0.00     0.031 C 
ATOM     65  C   UNL A   1      48.925  32.243  27.367  1.00  0.00     0.029 A 
ATOM     66  C   UNL A   1      47.930  33.182  27.585  1.00  0.00     0.049 A 
ATOM     67  H   UNL A   1      45.999  32.904  28.391  1.00  0.00     0.167 HD
ATOM     68  C   UNL A   1      46.931  35.454  27.554  1.00  0.00     0.074 A 
ATOM     69  C   UNL A   1      46.972  36.874  27.274  1.00  0.00     0.031 C 
ATOM     70  C   UNL A   1      47.960  34.600  27.313  1.00  0.00     0.034 A 
BRANCH  57  71
ATOM     71  C   UNL A   1      46.763  28.712  28.857  1.00  0.00     0.023 A 
ATOM     72  C   UNL A   1      46.627  27.810  27.786  1.00  0.00     0.031 A 
ATOM     73  C   UNL A   1      47.372  28.243  30.035  1.00  0.00     0.131 A 
ATOM     74  C   UNL A   1      47.030  26.474  27.936  1.00  0.00     0.055 A 
ATOM     75  C   UNL A   1      47.848  26.935  30.150  1.00  0.00     0.041 A 
ATOM     76  F   UNL A   1      47.509  29.048  31.100  1.00  0.00    -0.206 F 
ATOM     77  C   UNL A   1      47.666  26.037  29.101  1.00  0.00     0.022 A 
BRANCH  74  78
ATOM     78  S   UNL A   1      46.586  25.285  26.642  1.00  0.00     0.124 S 
ATOM     79  O   UNL A   1      47.154  24.048  27.171  1.00  0.00    -0.237 OA
ATOM     80  O   UNL A   1      45.131  25.365  26.625  1.00  0.00    -0.237 OA
ATOM     81  O   UNL A   1      47.254  25.810  25.452  1.00  0.00    -0.744 OA
ENDBRANCH  74  78
ENDBRANCH  57  71
BRANCH  58  82
ATOM     82  C   UNL A   1      43.133  38.060  28.554  1.00  0.00     0.023 A 
ATOM     83  C   UNL A   1      43.378  38.938  29.623  1.00  0.00     0.031 A 
ATOM     84  C   UNL A   1      42.330  38.522  27.498  1.00  0.00     0.131 A 
ATOM     85  C   UNL A   1      42.772  40.203  29.644  1.00  0.00     0.055 A 
ATOM     86  C   UNL A   1      41.785  39.808  27.490  1.00  0.00     0.041 A 
ATOM     87  F   UNL A   1      42.063  37.728  26.448  1.00  0.00    -0.206 F 
ATOM     88  C   UNL A   1      41.989  40.650  28.578  1.00  0.00     0.022 A 
BRANCH  85  89
ATOM     89  S   UNL A   1      42.919  41.209  31.147  1.00  0.00     0.124 S 
ATOM     90  O   UNL A   1      43.542  42.422  30.629  1.00  0.00    -0.237 OA
ATOM     91  O   UNL A   1      41.528  41.329  31.568  1.00  0.00    -0.237 OA
ATOM     92  O   UNL A   1      43.766  40.396  32.017  1.00  0.00    -0.744 OA
ENDBRANCH  85  89
ENDBRANCH  58  82
BRANCH  70  93
ATOM     93  C   UNL A   1      49.195  35.179  26.662  1.00  0.00     0.023 A 
ATOM     94  C   UNL A   1      50.305  35.598  27.416  1.00  0.00     0.031 A 
ATOM     95  C   UNL A   1      49.249  35.333  25.265  1.00  0.00     0.131 A 
ATOM     96  C   UNL A   1      51.392  36.213  26.776  1.00  0.00     0.055 A 
ATOM     97  C   UNL A   1      50.364  35.878  24.627  1.00  0.00     0.041 A 
ATOM     98  F   UNL A   1      48.217  34.954  24.493  1.00  0.00    -0.206 F 
ATOM     99  C   UNL A   1      51.437  36.337  25.386  1.00  0.00     0.022 A 
BRANCH  96 100
ATOM    100  S   UNL A   1      52.696  36.952  27.797  1.00  0.00     0.124 S 
ATOM    101  O   UNL A   1      53.893  36.665  27.014  1.00  0.00    -0.237 OA
ATOM    102  O   UNL A   1      52.292  38.353  27.853  1.00  0.00    -0.237 OA
ATOM    103  O   UNL A   1      52.592  36.227  29.062  1.00  0.00    -0.744 OA
ENDBRANCH  96 100
ENDBRANCH  70  93
ENDBRANCH  44  45
ENDBRANCH  36  39
ENDBRANCH  34  35
ENDBRANCH  33  34
ENDBRANCH  32  33
ENDBRANCH   1  32
TORSDOF 20
ENDMDL
MODEL 3
REMARK VINA RESULT:     -10.2      6.248      9.684
REMARK SMILES C=CCN1C(=O)/C(=C/c2ccccn2)S/C1=[NH+]\c1ccc(C(=O)NCCCCCCNC(=O)c2ccc(-c3c4nc(c(-c5cc(S(=O)(=O)[O-])ccc5F)c5ccc([nH]5)c(-c5cc(S(=O)(=O)[O-])ccc5F)c5nc(c(-c6cc(S(=O)(=O)[O-])ccc6F)c6ccc3[nH]6)C=C5)C=C4)cc2)cc1
REMARK SMILES IDX 27 1 26 2 25 3 24 4 22 5 23 6 21 8 18 9 19 10 98 11 20 12
REMARK SMILES IDX 97 13 17 14 4 15 5 16 16 17 6 18 7 19 15 20 8 21 3 23 2 24
REMARK SMILES IDX 1 25 9 26 10 27 14 28 11 29 13 30 12 31 28 32 29 33 30 34
REMARK SMILES IDX 31 35 32 36 33 38 34 39 35 40 96 41 36 42 95 43 37 44 38 45
REMARK SMILES IDX 39 46 89 47 40 48 94 49 88 50 90 51 41 52 93 53 87 54 86 55
REMARK SMILES IDX 42 57 74 58 54 59 73 60 55 61 58 62 72 63 91 64 56 65 57 66
REMARK SMILES IDX 71 68 92 69 59 70 43 71 44 72 52 73 45 74 51 75 53 76 50 77
REMARK SMILES IDX 46 78 47 79 48 80 49 81 75 82 76 83 84 84 77 85 83 86 85 87
REMARK SMILES IDX 82 88 78 89 79 90 80 91 81 92 60 93 61 94 69 95 62 96 68 97
REMARK SMILES IDX 70 98 67 99 63 100 64 101 65 102 66 103
REMARK H PARENT 24 7 17 22 31 37 90 56 58 67
REMARK Flexibility Score: inf
ROOT
ATOM      1  C   UNL A   1      34.768  30.312  27.807  1.00  0.00     0.002 C 
ENDROOT
BRANCH   1   2
ATOM      2  C   UNL A   1      33.867  29.121  27.456  1.00  0.00     0.021 C 
BRANCH   2   3
ATOM      3  C   UNL A   1      33.916  28.751  25.972  1.00  0.00     0.116 C 
BRANCH   3   4
ATOM      4  N   UNL A   1      32.608  28.953  25.373  1.00  0.00    -0.352 N 
ATOM      5  C   UNL A   1      31.698  28.078  24.841  1.00  0.00     0.251 C 
ATOM      6  O   UNL A   1      30.649  28.535  24.386  1.00  0.00    -0.269 OA
ATOM      7  H   UNL A   1      32.323  29.895  25.344  1.00  0.00     0.163 HD
BRANCH   5   8
ATOM      8  C   UNL A   1      31.895  26.605  24.868  1.00  0.00     0.040 A 
ATOM      9  C   UNL A   1      32.115  23.811  24.677  1.00  0.00     0.125 A 
ATOM     10  C   UNL A   1      32.507  24.617  23.609  1.00  0.00     0.052 A 
ATOM     11  C   UNL A   1      31.719  24.411  25.875  1.00  0.00     0.052 A 
ATOM     12  C   UNL A   1      32.391  26.006  23.701  1.00  0.00     0.018 A 
ATOM     13  C   UNL A   1      31.629  25.800  25.978  1.00  0.00     0.018 A 
BRANCH   9  14
ATOM     14  N   UNL A   1      32.167  22.418  24.570  1.00  0.00    -0.234 N 
ATOM     15  N   UNL A   1      33.403  20.438  24.625  1.00  0.00    -0.182 N 
ATOM     16  C   UNL A   1      34.668  19.908  24.751  1.00  0.00     0.349 C 
ATOM     17  C   UNL A   1      33.280  21.794  24.785  1.00  0.00     0.324 C 
ATOM     18  O   UNL A   1      34.979  18.732  24.601  1.00  0.00    -0.240 OA
ATOM     19  C   UNL A   1      35.631  20.974  25.135  1.00  0.00     0.111 C 
ATOM     20  S   UNL A   1      34.810  22.477  25.295  1.00  0.00     0.007 SA
ATOM     21  C   UNL A   1      36.936  20.728  25.312  1.00  0.00     0.052 C 
ATOM     22  H   UNL A   1      31.357  21.913  24.331  1.00  0.00     0.313 HD
BRANCH  15  23
ATOM     23  C   UNL A   1      32.267  19.598  24.310  1.00  0.00     0.275 C 
BRANCH  23  24
ATOM     24  C   UNL A   1      32.271  19.328  22.828  1.00  0.00     0.011 C 
ATOM     25  C   UNL A   1      32.400  18.111  22.284  1.00  0.00     0.008 C 
ENDBRANCH  23  24
ENDBRANCH  15  23
BRANCH  21  26
ATOM     26  C   UNL A   1      37.933  21.693  25.773  1.00  0.00     0.064 A 
ATOM     27  C   UNL A   1      39.217  21.293  26.133  1.00  0.00     0.028 A 
ATOM     28  N   UNL A   1      37.545  22.986  25.756  1.00  0.00    -0.257 NA
ATOM     29  C   UNL A   1      40.133  22.262  26.534  1.00  0.00     0.004 A 
ATOM     30  C   UNL A   1      38.453  23.906  26.156  1.00  0.00     0.111 A 
ATOM     31  C   UNL A   1      39.743  23.595  26.553  1.00  0.00     0.020 A 
ENDBRANCH  21  26
ENDBRANCH   9  14
ENDBRANCH   5   8
ENDBRANCH   3   4
ENDBRANCH   2   3
ENDBRANCH   1   2
BRANCH   1  32
ATOM     32  C   UNL A   1      34.231  31.672  27.348  1.00  0.00     0.002 C 
BRANCH  32  33
ATOM     33  C   UNL A   1      33.835  32.619  28.485  1.00  0.00     0.021 C 
BRANCH  33  34
ATOM     34  C   UNL A   1      33.771  34.087  28.075  1.00  0.00     0.116 C 
BRANCH  34  35
ATOM     35  N   UNL A   1      33.049  34.879  29.057  1.00  0.00    -0.352 N 
ATOM     36  C   UNL A   1      33.201  34.923  30.419  1.00  0.00     0.251 C 
ATOM     37  H   UNL A   1      32.350  35.469  28.692  1.00  0.00     0.163 HD
ATOM     38  O   UNL A   1      32.325  35.432  31.112  1.00  0.00    -0.269 OA
BRANCH  36  39
ATOM     39  C   UNL A   1      34.410  34.345  31.045  1.00  0.00     0.039 A 
ATOM     40  C   UNL A   1      34.286  33.188  31.816  1.00  0.00     0.014 A 
ATOM     41  C   UNL A   1      35.659  34.954  30.886  1.00  0.00     0.014 A 
ATOM     42  C   UNL A   1      35.423  32.615  32.388  1.00  0.00     0.010 A 
ATOM     43  C   UNL A   1      36.802  34.337  31.390  1.00  0.00     0.010 A 
ATOM     44  C   UNL A   1      36.696  33.165  32.154  1.00  0.00    -0.014 A 
BRANCH  44  45
ATOM     45  C   UNL A   1      37.918  32.530  32.712  1.00  0.00     0.031 A 
ATOM     46  C   UNL A   1      38.665  31.494  31.916  1.00  0.00     0.074 A 
ATOM     47  C   UNL A   1      38.334  32.866  33.950  1.00  0.00     0.049 A 
ATOM     48  N   UNL A   1      39.727  30.804  32.247  1.00  0.00    -0.248 NA
ATOM     49  C   UNL A   1      38.133  31.173  30.583  1.00  0.00     0.031 C 
ATOM     50  C   UNL A   1      37.673  33.834  34.828  1.00  0.00     0.029 A 
ATOM     51  N   UNL A   1      39.411  32.437  34.684  1.00  0.00    -0.354 N 
ATOM     52  C   UNL A   1      39.990  29.971  31.165  1.00  0.00     0.074 A 
ATOM     53  C   UNL A   1      38.935  30.189  30.200  1.00  0.00     0.031 C 
ATOM     54  C   UNL A   1      38.380  33.952  35.964  1.00  0.00     0.029 A 
ATOM     55  C   UNL A   1      39.512  33.034  35.920  1.00  0.00     0.049 A 
ATOM     56  H   UNL A   1      40.052  31.765  34.357  1.00  0.00     0.167 HD
ATOM     57  C   UNL A   1      41.034  29.123  30.980  1.00  0.00     0.034 A 
ATOM     58  C   UNL A   1      40.409  32.853  36.910  1.00  0.00     0.034 A 
ATOM     59  C   UNL A   1      42.081  28.919  31.952  1.00  0.00     0.049 A 
ATOM     60  C   UNL A   1      41.530  31.864  36.700  1.00  0.00     0.074 A 
ATOM     61  C   UNL A   1      43.199  28.108  31.855  1.00  0.00     0.029 A 
ATOM     62  N   UNL A   1      42.138  29.522  33.202  1.00  0.00    -0.354 N 
ATOM     63  N   UNL A   1      41.789  31.116  35.651  1.00  0.00    -0.248 NA
ATOM     64  C   UNL A   1      42.487  31.704  37.802  1.00  0.00     0.031 C 
ATOM     65  C   UNL A   1      43.889  28.164  33.070  1.00  0.00     0.029 A 
ATOM     66  C   UNL A   1      43.254  29.078  33.895  1.00  0.00     0.049 A 
ATOM     67  H   UNL A   1      41.481  30.171  33.545  1.00  0.00     0.167 HD
ATOM     68  C   UNL A   1      42.962  30.430  35.956  1.00  0.00     0.074 A 
ATOM     69  C   UNL A   1      43.367  30.867  37.276  1.00  0.00     0.031 C 
ATOM     70  C   UNL A   1      43.644  29.520  35.213  1.00  0.00     0.034 A 
BRANCH  57  71
ATOM     71  C   UNL A   1      41.079  28.344  29.688  1.00  0.00     0.023 A 
ATOM     72  C   UNL A   1      41.996  28.659  28.669  1.00  0.00     0.031 A 
ATOM     73  C   UNL A   1      40.192  27.276  29.464  1.00  0.00     0.131 A 
ATOM     74  C   UNL A   1      41.960  27.961  27.451  1.00  0.00     0.055 A 
ATOM     75  C   UNL A   1      40.218  26.530  28.284  1.00  0.00     0.041 A 
ATOM     76  F   UNL A   1      39.278  26.942  30.389  1.00  0.00    -0.206 F 
ATOM     77  C   UNL A   1      41.097  26.880  27.262  1.00  0.00     0.022 A 
BRANCH  74  78
ATOM     78  S   UNL A   1      42.962  28.577  26.071  1.00  0.00     0.124 S 
ATOM     79  O   UNL A   1      42.193  28.115  24.920  1.00  0.00    -0.237 OA
ATOM     80  O   UNL A   1      42.966  30.016  26.301  1.00  0.00    -0.237 OA
ATOM     81  O   UNL A   1      44.249  27.911  26.260  1.00  0.00    -0.744 OA
ENDBRANCH  74  78
ENDBRANCH  57  71
BRANCH  58  82
ATOM     82  C   UNL A   1      40.293  33.605  38.194  1.00  0.00     0.023 A 
ATOM     83  C   UNL A   1      39.441  33.160  39.218  1.00  0.00     0.031 A 
ATOM     84  C   UNL A   1      40.975  34.819  38.391  1.00  0.00     0.131 A 
ATOM     85  C   UNL A   1      39.239  33.953  40.358  1.00  0.00     0.055 A 
ATOM     86  C   UNL A   1      40.824  35.572  39.558  1.00  0.00     0.041 A 
ATOM     87  F   UNL A   1      41.805  35.294  37.448  1.00  0.00    -0.206 F 
ATOM     88  C   UNL A   1      39.937  35.149  40.541  1.00  0.00     0.022 A 
BRANCH  85  89
ATOM     89  S   UNL A   1      37.955  33.459  41.540  1.00  0.00     0.124 S 
ATOM     90  O   UNL A   1      37.260  34.722  41.764  1.00  0.00    -0.237 OA
ATOM     91  O   UNL A   1      37.224  32.446  40.787  1.00  0.00    -0.237 OA
ATOM     92  O   UNL A   1      38.720  32.957  42.679  1.00  0.00    -0.744 OA
ENDBRANCH  85  89
ENDBRANCH  58  82
BRANCH  70  93
ATOM     93  C   UNL A   1      44.932  28.985  35.796  1.00  0.00     0.023 A 
ATOM     94  C   UNL A   1      44.964  27.818  36.579  1.00  0.00     0.031 A 
ATOM     95  C   UNL A   1      46.142  29.668  35.580  1.00  0.00     0.131 A 
ATOM     96  C   UNL A   1      46.167  27.409  37.174  1.00  0.00     0.055 A 
ATOM     97  C   UNL A   1      47.348  29.215  36.114  1.00  0.00     0.041 A 
ATOM     98  F   UNL A   1      46.172  30.791  34.843  1.00  0.00    -0.206 F 
ATOM     99  C   UNL A   1      47.362  28.088  36.930  1.00  0.00     0.022 A 
BRANCH  96 100
ATOM    100  S   UNL A   1      46.126  26.041  38.365  1.00  0.00     0.124 S 
ATOM    101  O   UNL A   1      47.282  26.335  39.205  1.00  0.00    -0.237 OA
ATOM    102  O   UNL A   1      44.822  26.214  38.994  1.00  0.00    -0.237 OA
ATOM    103  O   UNL A   1      46.255  24.851  37.525  1.00  0.00    -0.744 OA
ENDBRANCH  96 100
ENDBRANCH  70  93
ENDBRANCH  44  45
ENDBRANCH  36  39
ENDBRANCH  34  35
ENDBRANCH  33  34
ENDBRANCH  32  33
ENDBRANCH   1  32
TORSDOF 20
ENDMDL
