MODEL 1
REMARK VINA RESULT:     -11.7      0.000      0.000
REMARK SMILES C=C[C@@H]1[C@@H](O)C[C@H]2[C@]3(CC[C@]4(C)[C@@H]([C@H](C)CCC=C(C)C)CC[C@]24C)C[C@]13CCC(=O)NCCCCCCNC(=O)c1ccc(-c2c3nc(c(-c4cc(S(=O)(=O)[O-])ccc4F)c4ccc([nH]4)c(-c4cc(S(=O)(=O)[O-])ccc4F)c4nc(c(-c5cc(S(=O)(=O)[O-])ccc5F)c5ccc2[nH]5)C=C4)C=C3)cc1
REMARK SMILES IDX 34 1 33 2 32 3 30 4 31 5 29 7 28 8 27 9 3 10 4 11 6 12 8 13
REMARK SMILES IDX 26 14 7 15 9 16 24 17 10 18 11 19 23 20 25 21 13 22 12 23
REMARK SMILES IDX 22 24 2 25 1 26 5 27 14 29 15 30 16 31 17 32 18 33 19 34
REMARK SMILES IDX 20 35 21 36 35 37 36 38 37 39 38 40 39 41 40 42 41 44 42 45
REMARK SMILES IDX 43 46 104 47 44 48 103 49 45 50 46 51 47 52 97 53 48 54
REMARK SMILES IDX 102 55 96 56 98 57 49 58 101 59 95 60 94 61 50 63 82 64
REMARK SMILES IDX 62 65 81 66 63 67 66 68 80 69 99 70 64 71 65 72 79 74 100 75
REMARK SMILES IDX 67 76 51 77 52 78 60 79 53 80 59 81 61 82 58 83 54 84 55 85
REMARK SMILES IDX 56 86 57 87 83 88 84 89 92 90 85 91 91 92 93 93 90 94 86 95
REMARK SMILES IDX 87 96 88 97 89 98 68 99 69 100 77 101 70 102 76 103 78 104
REMARK SMILES IDX 75 105 71 106 72 107 73 108 74 109
REMARK H PARENT 32 6 5 28 39 43 98 62 66 73
REMARK Flexibility Score: inf
ROOT
ATOM      1  C   UNL A   1      35.717  33.901  29.524  1.00  0.00     0.021 C 
ENDROOT
BRANCH   1   2
ATOM      2  C   UNL A   1      35.366  32.939  28.297  1.00  0.00     0.116 C 
BRANCH   2   3
ATOM      3  N   UNL A   1      35.715  31.361  28.294  1.00  0.00    -0.356 N 
ATOM      4  C   UNL A   1      35.567  30.057  27.823  1.00  0.00     0.220 C 
ATOM      5  O   UNL A   1      36.395  29.324  28.421  1.00  0.00    -0.275 OA
ATOM      6  H   UNL A   1      36.394  31.274  29.003  1.00  0.00     0.163 HD
BRANCH   4   7
ATOM      7  C   UNL A   1      34.688  29.197  26.629  1.00  0.00     0.100 C 
BRANCH   7   8
ATOM      8  C   UNL A   1      33.117  29.204  25.896  1.00  0.00     0.018 C 
BRANCH   8   9
ATOM      9  C   UNL A   1      32.741  27.984  24.883  1.00  0.00    -0.014 C 
ATOM     10  C   UNL A   1      32.344  28.660  23.615  1.00  0.00     0.047 C 
ATOM     11  C   UNL A   1      32.387  27.899  22.299  1.00  0.00     0.122 C 
ATOM     12  C   UNL A   1      31.855  26.507  22.450  1.00  0.00     0.037 C 
ATOM     13  C   UNL A   1      32.857  26.390  24.876  1.00  0.00    -0.019 C 
ATOM     14  C   UNL A   1      31.663  26.998  25.437  1.00  0.00     0.016 C 
ATOM     15  C   UNL A   1      32.668  25.677  23.472  1.00  0.00     0.005 C 
ATOM     16  C   UNL A   1      33.408  25.515  25.977  1.00  0.00     0.008 C 
ATOM     17  C   UNL A   1      32.074  24.193  23.537  1.00  0.00    -0.023 C 
ATOM     18  C   UNL A   1      32.516  24.257  26.032  1.00  0.00     0.008 C 
ATOM     19  C   UNL A   1      32.669  23.400  24.761  1.00  0.00    -0.024 C 
ATOM     20  C   UNL A   1      32.634  23.368  22.338  1.00  0.00     0.008 C 
ATOM     21  C   UNL A   1      30.522  24.208  23.457  1.00  0.00     0.012 C 
ATOM     22  C   UNL A   1      34.141  23.223  24.268  1.00  0.00    -0.002 C 
ATOM     23  C   UNL A   1      31.987  22.013  24.948  1.00  0.00     0.012 C 
ATOM     24  C   UNL A   1      33.970  22.763  22.807  1.00  0.00     0.005 C 
BRANCH  10  25
ATOM     25  C   UNL A   1      31.014  29.266  23.955  1.00  0.00    -0.028 C 
ATOM     26  C   UNL A   1      30.019  29.554  23.058  1.00  0.00     0.004 C 
ENDBRANCH  10  25
BRANCH  11  27
ATOM     27  O   UNL A   1      33.715  27.854  21.768  1.00  0.00    -0.392 OA
ATOM     28  H   UNL A   1      33.680  27.610  20.830  1.00  0.00     0.210 HD
ENDBRANCH  11  27
BRANCH  22  29
ATOM     29  C   UNL A   1      35.257  22.615  25.171  1.00  0.00    -0.010 C 
ATOM     30  C   UNL A   1      36.451  23.557  25.315  1.00  0.00     0.008 C 
BRANCH  29  31
ATOM     31  C   UNL A   1      35.709  21.169  24.883  1.00  0.00     0.008 C 
BRANCH  31  32
ATOM     32  C   UNL A   1      34.726  20.062  25.301  1.00  0.00     0.027 C 
BRANCH  32  33
ATOM     33  C   UNL A   1      34.861  18.783  24.502  1.00  0.00    -0.028 C 
ATOM     34  C   UNL A   1      33.857  18.008  24.044  1.00  0.00    -0.080 C 
ATOM     35  C   UNL A   1      34.128  16.773  23.226  1.00  0.00     0.039 C 
ATOM     36  C   UNL A   1      32.404  18.311  24.283  1.00  0.00     0.039 C 
ENDBRANCH  32  33
ENDBRANCH  31  32
ENDBRANCH  29  31
ENDBRANCH  22  29
ENDBRANCH   8   9
ENDBRANCH   7   8
ENDBRANCH   4   7
ENDBRANCH   2   3
ENDBRANCH   1   2
BRANCH   1  37
ATOM     37  C   UNL A   1      35.014  33.878  30.871  1.00  0.00     0.002 C 
BRANCH  37  38
ATOM     38  C   UNL A   1      34.773  32.517  31.495  1.00  0.00     0.002 C 
BRANCH  38  39
ATOM     39  C   UNL A   1      35.966  31.853  32.205  1.00  0.00     0.021 C 
BRANCH  39  40
ATOM     40  C   UNL A   1      36.663  30.707  31.462  1.00  0.00     0.116 C 
BRANCH  40  41
ATOM     41  N   UNL A   1      37.245  29.737  32.380  1.00  0.00    -0.352 N 
ATOM     42  C   UNL A   1      38.523  29.246  32.411  1.00  0.00     0.251 C 
ATOM     43  H   UNL A   1      36.638  29.387  33.070  1.00  0.00     0.163 HD
ATOM     44  O   UNL A   1      38.760  28.178  32.989  1.00  0.00    -0.269 OA
BRANCH  42  45
ATOM     45  C   UNL A   1      39.611  29.998  31.762  1.00  0.00     0.039 A 
ATOM     46  C   UNL A   1      40.412  30.858  32.517  1.00  0.00     0.014 A 
ATOM     47  C   UNL A   1      39.824  29.855  30.387  1.00  0.00     0.014 A 
ATOM     48  C   UNL A   1      41.469  31.533  31.899  1.00  0.00     0.010 A 
ATOM     49  C   UNL A   1      40.916  30.473  29.791  1.00  0.00     0.010 A 
ATOM     50  C   UNL A   1      41.748  31.322  30.539  1.00  0.00    -0.014 A 
BRANCH  50  51
ATOM     51  C   UNL A   1      42.897  31.984  29.870  1.00  0.00     0.031 A 
ATOM     52  C   UNL A   1      44.153  31.203  29.590  1.00  0.00     0.074 A 
ATOM     53  C   UNL A   1      42.839  33.301  29.593  1.00  0.00     0.049 A 
ATOM     54  N   UNL A   1      45.298  31.617  29.115  1.00  0.00    -0.248 NA
ATOM     55  C   UNL A   1      44.123  29.772  29.928  1.00  0.00     0.031 C 
ATOM     56  C   UNL A   1      41.689  34.169  29.861  1.00  0.00     0.029 A 
ATOM     57  N   UNL A   1      43.770  34.147  29.043  1.00  0.00    -0.354 N 
ATOM     58  C   UNL A   1      46.133  30.504  29.117  1.00  0.00     0.074 A 
ATOM     59  C   UNL A   1      45.377  29.415  29.699  1.00  0.00     0.031 C 
ATOM     60  C   UNL A   1      41.978  35.418  29.461  1.00  0.00     0.029 A 
ATOM     61  C   UNL A   1      43.347  35.454  28.957  1.00  0.00     0.049 A 
ATOM     62  H   UNL A   1      44.657  33.848  28.740  1.00  0.00     0.167 HD
ATOM     63  C   UNL A   1      47.404  30.398  28.657  1.00  0.00     0.034 A 
ATOM     64  C   UNL A   1      43.995  36.560  28.540  1.00  0.00     0.034 A 
ATOM     65  C   UNL A   1      48.132  31.498  28.072  1.00  0.00     0.049 A 
ATOM     66  C   UNL A   1      45.414  36.425  28.048  1.00  0.00     0.074 A 
ATOM     67  C   UNL A   1      49.397  31.493  27.510  1.00  0.00     0.029 A 
ATOM     68  N   UNL A   1      47.668  32.806  27.988  1.00  0.00    -0.354 N 
ATOM     69  N   UNL A   1      46.171  35.352  27.996  1.00  0.00    -0.248 NA
ATOM     70  C   UNL A   1      46.061  37.643  27.548  1.00  0.00     0.031 C 
ATOM     71  C   UNL A   1      49.729  32.807  27.167  1.00  0.00     0.029 A 
ATOM     72  C   UNL A   1      48.636  33.622  27.422  1.00  0.00     0.049 A 
ATOM     73  H   UNL A   1      46.780  33.109  28.287  1.00  0.00     0.167 HD
ATOM     74  C   UNL A   1      47.373  35.762  27.427  1.00  0.00     0.074 A 
ATOM     75  C   UNL A   1      47.233  37.176  27.144  1.00  0.00     0.031 C 
ATOM     76  C   UNL A   1      48.488  35.035  27.156  1.00  0.00     0.034 A 
BRANCH  63  77
ATOM     77  C   UNL A   1      48.092  29.059  28.806  1.00  0.00     0.023 A 
ATOM     78  C   UNL A   1      48.177  28.143  27.742  1.00  0.00     0.031 A 
ATOM     79  C   UNL A   1      48.639  28.675  30.044  1.00  0.00     0.131 A 
ATOM     80  C   UNL A   1      48.709  26.863  27.958  1.00  0.00     0.055 A 
ATOM     81  C   UNL A   1      49.253  27.434  30.227  1.00  0.00     0.041 A 
ATOM     82  F   UNL A   1      48.571  29.493  31.105  1.00  0.00    -0.206 F 
ATOM     83  C   UNL A   1      49.273  26.511  29.185  1.00  0.00     0.022 A 
BRANCH  80  84
ATOM     84  S   UNL A   1      48.497  25.609  26.664  1.00  0.00     0.124 S 
ATOM     85  O   UNL A   1      49.815  25.608  26.035  1.00  0.00    -0.237 OA
ATOM     86  O   UNL A   1      48.155  24.417  27.432  1.00  0.00    -0.237 OA
ATOM     87  O   UNL A   1      47.421  26.149  25.836  1.00  0.00    -0.744 OA
ENDBRANCH  80  84
ENDBRANCH  63  77
BRANCH  64  88
ATOM     88  C   UNL A   1      43.319  37.889  28.587  1.00  0.00     0.023 A 
ATOM     89  C   UNL A   1      43.492  38.757  29.678  1.00  0.00     0.031 A 
ATOM     90  C   UNL A   1      42.471  38.304  27.545  1.00  0.00     0.131 A 
ATOM     91  C   UNL A   1      42.797  39.976  29.719  1.00  0.00     0.055 A 
ATOM     92  C   UNL A   1      41.825  39.541  27.565  1.00  0.00     0.041 A 
ATOM     93  F   UNL A   1      42.274  37.516  26.476  1.00  0.00    -0.206 F 
ATOM     94  C   UNL A   1      41.977  40.380  28.662  1.00  0.00     0.022 A 
BRANCH  91  95
ATOM     95  S   UNL A   1      42.919  40.997  31.213  1.00  0.00     0.124 S 
ATOM     96  O   UNL A   1      43.543  40.074  32.154  1.00  0.00    -0.237 OA
ATOM     97  O   UNL A   1      43.749  42.106  30.755  1.00  0.00    -0.237 OA
ATOM     98  O   UNL A   1      41.529  41.341  31.504  1.00  0.00    -0.744 OA
ENDBRANCH  91  95
ENDBRANCH  64  88
BRANCH  76  99
ATOM     99  C   UNL A   1      49.628  35.750  26.471  1.00  0.00     0.023 A 
ATOM    100  C   UNL A   1      50.670  36.357  27.193  1.00  0.00     0.031 A 
ATOM    101  C   UNL A   1      49.671  35.821  25.066  1.00  0.00     0.131 A 
ATOM    102  C   UNL A   1      51.679  37.056  26.511  1.00  0.00     0.055 A 
ATOM    103  C   UNL A   1      50.713  36.457  24.392  1.00  0.00     0.041 A 
ATOM    104  F   UNL A   1      48.700  35.264  24.324  1.00  0.00    -0.206 F 
ATOM    105  C   UNL A   1      51.718  37.091  25.115  1.00  0.00     0.022 A 
BRANCH 102 106
ATOM    106  S   UNL A   1      52.885  38.006  27.476  1.00  0.00     0.124 S 
ATOM    107  O   UNL A   1      54.128  37.731  26.763  1.00  0.00    -0.237 OA
ATOM    108  O   UNL A   1      52.372  39.368  27.363  1.00  0.00    -0.237 OA
ATOM    109  O   UNL A   1      52.794  37.419  28.812  1.00  0.00    -0.744 OA
ENDBRANCH 102 106
ENDBRANCH  76  99
ENDBRANCH  50  51
ENDBRANCH  42  45
ENDBRANCH  40  41
ENDBRANCH  39  40
ENDBRANCH  38  39
ENDBRANCH  37  38
ENDBRANCH   1  37
TORSDOF 24
ENDMDL
MODEL 2
REMARK VINA RESULT:     -11.6      3.052      7.390
REMARK SMILES C=C[C@@H]1[C@@H](O)C[C@H]2[C@]3(CC[C@]4(C)[C@@H]([C@H](C)CCC=C(C)C)CC[C@]24C)C[C@]13CCC(=O)NCCCCCCNC(=O)c1ccc(-c2c3nc(c(-c4cc(S(=O)(=O)[O-])ccc4F)c4ccc([nH]4)c(-c4cc(S(=O)(=O)[O-])ccc4F)c4nc(c(-c5cc(S(=O)(=O)[O-])ccc5F)c5ccc2[nH]5)C=C4)C=C3)cc1
REMARK SMILES IDX 34 1 33 2 32 3 30 4 31 5 29 7 28 8 27 9 3 10 4 11 6 12 8 13
REMARK SMILES IDX 26 14 7 15 9 16 24 17 10 18 11 19 23 20 25 21 13 22 12 23
REMARK SMILES IDX 22 24 2 25 1 26 5 27 14 29 15 30 16 31 17 32 18 33 19 34
REMARK SMILES IDX 20 35 21 36 35 37 36 38 37 39 38 40 39 41 40 42 41 44 42 45
REMARK SMILES IDX 43 46 104 47 44 48 103 49 45 50 46 51 47 52 97 53 48 54
REMARK SMILES IDX 102 55 96 56 98 57 49 58 101 59 95 60 94 61 50 63 82 64
REMARK SMILES IDX 62 65 81 66 63 67 66 68 80 69 99 70 64 71 65 72 79 74 100 75
REMARK SMILES IDX 67 76 51 77 52 78 60 79 53 80 59 81 61 82 58 83 54 84 55 85
REMARK SMILES IDX 56 86 57 87 83 88 84 89 92 90 85 91 91 92 93 93 90 94 86 95
REMARK SMILES IDX 87 96 88 97 89 98 68 99 69 100 77 101 70 102 76 103 78 104
REMARK SMILES IDX 75 105 71 106 72 107 73 108 74 109
REMARK H PARENT 32 6 5 28 39 43 98 62 66 73
REMARK Flexibility Score: inf
ROOT
ATOM      1  C   UNL A   1      33.877  35.156  29.284  1.00  0.00     0.021 C 
ENDROOT
BRANCH   1   2
ATOM      2  C   UNL A   1      33.406  33.896  28.420  1.00  0.00     0.116 C 
BRANCH   2   3
ATOM      3  N   UNL A   1      34.338  32.597  28.186  1.00  0.00    -0.356 N 
ATOM      4  C   UNL A   1      34.565  31.296  27.739  1.00  0.00     0.220 C 
ATOM      5  O   UNL A   1      35.781  31.026  27.912  1.00  0.00    -0.275 OA
ATOM      6  H   UNL A   1      35.209  32.868  28.558  1.00  0.00     0.163 HD
BRANCH   4   7
ATOM      7  C   UNL A   1      33.728  30.027  26.948  1.00  0.00     0.100 C 
BRANCH   7   8
ATOM      8  C   UNL A   1      32.171  29.716  26.251  1.00  0.00     0.018 C 
BRANCH   8   9
ATOM      9  C   UNL A   1      32.043  28.491  25.183  1.00  0.00    -0.014 C 
ATOM     10  C   UNL A   1      31.741  29.158  23.884  1.00  0.00     0.047 C 
ATOM     11  C   UNL A   1      32.019  28.439  22.574  1.00  0.00     0.122 C 
ATOM     12  C   UNL A   1      31.610  26.999  22.639  1.00  0.00     0.037 C 
ATOM     13  C   UNL A   1      32.314  26.916  25.169  1.00  0.00    -0.019 C 
ATOM     14  C   UNL A   1      31.006  27.394  25.586  1.00  0.00     0.016 C 
ATOM     15  C   UNL A   1      32.369  26.225  23.743  1.00  0.00     0.005 C 
ATOM     16  C   UNL A   1      32.808  26.070  26.318  1.00  0.00     0.008 C 
ATOM     17  C   UNL A   1      31.919  24.690  23.714  1.00  0.00    -0.023 C 
ATOM     18  C   UNL A   1      32.044  24.732  26.245  1.00  0.00     0.008 C 
ATOM     19  C   UNL A   1      32.434  23.926  24.992  1.00  0.00    -0.024 C 
ATOM     20  C   UNL A   1      32.700  23.953  22.583  1.00  0.00     0.008 C 
ATOM     21  C   UNL A   1      30.394  24.559  23.441  1.00  0.00     0.012 C 
ATOM     22  C   UNL A   1      33.966  23.902  24.683  1.00  0.00    -0.002 C 
ATOM     23  C   UNL A   1      31.873  22.476  25.074  1.00  0.00     0.012 C 
ATOM     24  C   UNL A   1      34.021  23.466  23.206  1.00  0.00     0.005 C 
BRANCH  10  25
ATOM     25  C   UNL A   1      30.326  29.626  24.064  1.00  0.00    -0.028 C 
ATOM     26  C   UNL A   1      29.533  30.156  23.081  1.00  0.00     0.004 C 
ENDBRANCH  10  25
BRANCH  11  27
ATOM     27  O   UNL A   1      33.399  28.534  22.212  1.00  0.00    -0.392 OA
ATOM     28  H   UNL A   1      33.529  29.293  21.624  1.00  0.00     0.210 HD
ENDBRANCH  11  27
BRANCH  22  29
ATOM     29  C   UNL A   1      35.017  23.381  25.710  1.00  0.00    -0.010 C 
ATOM     30  C   UNL A   1      36.443  23.745  25.302  1.00  0.00     0.008 C 
BRANCH  29  31
ATOM     31  C   UNL A   1      34.915  21.909  26.160  1.00  0.00     0.008 C 
BRANCH  31  32
ATOM     32  C   UNL A   1      35.226  20.854  25.085  1.00  0.00     0.027 C 
BRANCH  32  33
ATOM     33  C   UNL A   1      34.024  20.044  24.650  1.00  0.00    -0.028 C 
ATOM     34  C   UNL A   1      33.984  18.714  24.430  1.00  0.00    -0.080 C 
ATOM     35  C   UNL A   1      32.707  18.021  24.032  1.00  0.00     0.039 C 
ATOM     36  C   UNL A   1      35.179  17.815  24.581  1.00  0.00     0.039 C 
ENDBRANCH  32  33
ENDBRANCH  31  32
ENDBRANCH  29  31
ENDBRANCH  22  29
ENDBRANCH   8   9
ENDBRANCH   7   8
ENDBRANCH   4   7
ENDBRANCH   2   3
ENDBRANCH   1   2
BRANCH   1  37
ATOM     37  C   UNL A   1      32.941  36.103  30.015  1.00  0.00     0.002 C 
BRANCH  37  38
ATOM     38  C   UNL A   1      33.021  36.111  31.529  1.00  0.00     0.002 C 
BRANCH  38  39
ATOM     39  C   UNL A   1      34.386  36.444  32.155  1.00  0.00     0.021 C 
BRANCH  39  40
ATOM     40  C   UNL A   1      35.114  35.304  32.877  1.00  0.00     0.116 C 
BRANCH  40  41
ATOM     41  N   UNL A   1      34.481  34.014  32.636  1.00  0.00    -0.352 N 
ATOM     42  C   UNL A   1      34.960  32.942  31.931  1.00  0.00     0.251 C 
ATOM     43  H   UNL A   1      33.588  33.898  33.033  1.00  0.00     0.163 HD
ATOM     44  O   UNL A   1      34.177  32.084  31.504  1.00  0.00    -0.269 OA
BRANCH  42  45
ATOM     45  C   UNL A   1      36.408  32.811  31.694  1.00  0.00     0.039 A 
ATOM     46  C   UNL A   1      37.212  32.150  32.626  1.00  0.00     0.014 A 
ATOM     47  C   UNL A   1      36.971  33.367  30.541  1.00  0.00     0.014 A 
ATOM     48  C   UNL A   1      38.577  31.995  32.369  1.00  0.00     0.010 A 
ATOM     49  C   UNL A   1      38.314  33.150  30.255  1.00  0.00     0.010 A 
ATOM     50  C   UNL A   1      39.133  32.467  31.168  1.00  0.00    -0.014 A 
BRANCH  50  51
ATOM     51  C   UNL A   1      40.569  32.268  30.846  1.00  0.00     0.031 A 
ATOM     52  C   UNL A   1      41.584  33.287  31.288  1.00  0.00     0.074 A 
ATOM     53  C   UNL A   1      40.942  31.219  30.087  1.00  0.00     0.049 A 
ATOM     54  N   UNL A   1      42.862  33.355  31.020  1.00  0.00    -0.248 NA
ATOM     55  C   UNL A   1      41.082  34.398  32.111  1.00  0.00     0.031 C 
ATOM     56  C   UNL A   1      40.038  30.192  29.564  1.00  0.00     0.029 A 
ATOM     57  N   UNL A   1      42.174  30.850  29.607  1.00  0.00    -0.354 N 
ATOM     58  C   UNL A   1      43.313  34.525  31.621  1.00  0.00     0.074 A 
ATOM     59  C   UNL A   1      42.157  35.164  32.213  1.00  0.00     0.031 C 
ATOM     60  C   UNL A   1      40.747  29.302  28.851  1.00  0.00     0.029 A 
ATOM     61  C   UNL A   1      42.146  29.720  28.821  1.00  0.00     0.049 A 
ATOM     62  H   UNL A   1      43.001  31.346  29.806  1.00  0.00     0.167 HD
ATOM     63  C   UNL A   1      44.578  35.009  31.689  1.00  0.00     0.034 A 
ATOM     64  C   UNL A   1      43.129  29.104  28.135  1.00  0.00     0.034 A 
ATOM     65  C   UNL A   1      45.715  34.348  31.096  1.00  0.00     0.049 A 
ATOM     66  C   UNL A   1      44.525  29.667  28.209  1.00  0.00     0.074 A 
ATOM     67  C   UNL A   1      47.050  34.706  31.159  1.00  0.00     0.029 A 
ATOM     68  N   UNL A   1      45.652  33.197  30.319  1.00  0.00    -0.354 N 
ATOM     69  N   UNL A   1      44.950  30.741  28.835  1.00  0.00    -0.248 NA
ATOM     70  C   UNL A   1      45.575  28.930  27.497  1.00  0.00     0.031 C 
ATOM     71  C   UNL A   1      47.778  33.827  30.351  1.00  0.00     0.029 A 
ATOM     72  C   UNL A   1      46.916  32.858  29.861  1.00  0.00     0.049 A 
ATOM     73  H   UNL A   1      44.828  32.696  30.120  1.00  0.00     0.167 HD
ATOM     74  C   UNL A   1      46.324  30.790  28.617  1.00  0.00     0.074 A 
ATOM     75  C   UNL A   1      46.654  29.631  27.812  1.00  0.00     0.031 C 
ATOM     76  C   UNL A   1      47.231  31.705  29.049  1.00  0.00     0.034 A 
BRANCH  63  77
ATOM     77  C   UNL A   1      44.783  36.332  32.393  1.00  0.00     0.023 A 
ATOM     78  C   UNL A   1      44.621  37.562  31.730  1.00  0.00     0.031 A 
ATOM     79  C   UNL A   1      45.183  36.365  33.742  1.00  0.00     0.131 A 
ATOM     80  C   UNL A   1      44.944  38.761  32.383  1.00  0.00     0.055 A 
ATOM     81  C   UNL A   1      45.411  37.567  34.415  1.00  0.00     0.041 A 
ATOM     82  F   UNL A   1      45.376  35.227  34.425  1.00  0.00    -0.206 F 
ATOM     83  C   UNL A   1      45.311  38.775  33.730  1.00  0.00     0.022 A 
BRANCH  80  84
ATOM     84  S   UNL A   1      45.043  40.282  31.400  1.00  0.00     0.124 S 
ATOM     85  O   UNL A   1      43.880  41.022  31.884  1.00  0.00    -0.237 OA
ATOM     86  O   UNL A   1      46.345  40.819  31.780  1.00  0.00    -0.237 OA
ATOM     87  O   UNL A   1      44.940  39.807  30.022  1.00  0.00    -0.744 OA
ENDBRANCH  80  84
ENDBRANCH  63  77
BRANCH  64  88
ATOM     88  C   UNL A   1      42.825  27.900  27.308  1.00  0.00     0.023 A 
ATOM     89  C   UNL A   1      43.002  26.603  27.816  1.00  0.00     0.031 A 
ATOM     90  C   UNL A   1      42.370  28.032  25.983  1.00  0.00     0.131 A 
ATOM     91  C   UNL A   1      42.761  25.491  26.993  1.00  0.00     0.055 A 
ATOM     92  C   UNL A   1      42.080  26.923  25.187  1.00  0.00     0.041 A 
ATOM     93  F   UNL A   1      42.179  29.249  25.449  1.00  0.00    -0.206 F 
ATOM     94  C   UNL A   1      42.287  25.642  25.688  1.00  0.00     0.022 A 
BRANCH  91  95
ATOM     95  S   UNL A   1      43.152  23.838  27.629  1.00  0.00     0.124 S 
ATOM     96  O   UNL A   1      42.628  23.910  28.988  1.00  0.00    -0.237 OA
ATOM     97  O   UNL A   1      42.423  22.977  26.704  1.00  0.00    -0.237 OA
ATOM     98  O   UNL A   1      44.608  23.768  27.524  1.00  0.00    -0.744 OA
ENDBRANCH  91  95
ENDBRANCH  64  88
BRANCH  76  99
ATOM     99  C   UNL A   1      48.679  31.457  28.700  1.00  0.00     0.023 A 
ATOM    100  C   UNL A   1      49.303  32.089  27.611  1.00  0.00     0.031 A 
ATOM    101  C   UNL A   1      49.448  30.572  29.478  1.00  0.00     0.131 A 
ATOM    102  C   UNL A   1      50.637  31.785  27.297  1.00  0.00     0.055 A 
ATOM    103  C   UNL A   1      50.793  30.327  29.203  1.00  0.00     0.041 A 
ATOM    104  F   UNL A   1      48.903  29.935  30.528  1.00  0.00    -0.206 F 
ATOM    105  C   UNL A   1      51.392  30.924  28.098  1.00  0.00     0.022 A 
BRANCH 102 106
ATOM    106  S   UNL A   1      51.345  32.450  25.765  1.00  0.00     0.124 S 
ATOM    107  O   UNL A   1      50.249  33.268  25.254  1.00  0.00    -0.237 OA
ATOM    108  O   UNL A   1      52.512  33.179  26.251  1.00  0.00    -0.237 OA
ATOM    109  O   UNL A   1      51.645  31.254  24.979  1.00  0.00    -0.744 OA
ENDBRANCH 102 106
ENDBRANCH  76  99
ENDBRANCH  50  51
ENDBRANCH  42  45
ENDBRANCH  40  41
ENDBRANCH  39  40
ENDBRANCH  38  39
ENDBRANCH  37  38
ENDBRANCH   1  37
TORSDOF 24
ENDMDL
MODEL 3
REMARK VINA RESULT:     -11.3      3.831      8.400
REMARK SMILES C=C[C@@H]1[C@@H](O)C[C@H]2[C@]3(CC[C@]4(C)[C@@H]([C@H](C)CCC=C(C)C)CC[C@]24C)C[C@]13CCC(=O)NCCCCCCNC(=O)c1ccc(-c2c3nc(c(-c4cc(S(=O)(=O)[O-])ccc4F)c4ccc([nH]4)c(-c4cc(S(=O)(=O)[O-])ccc4F)c4nc(c(-c5cc(S(=O)(=O)[O-])ccc5F)c5ccc2[nH]5)C=C4)C=C3)cc1
REMARK SMILES IDX 34 1 33 2 32 3 30 4 31 5 29 7 28 8 27 9 3 10 4 11 6 12 8 13
REMARK SMILES IDX 26 14 7 15 9 16 24 17 10 18 11 19 23 20 25 21 13 22 12 23
REMARK SMILES IDX 22 24 2 25 1 26 5 27 14 29 15 30 16 31 17 32 18 33 19 34
REMARK SMILES IDX 20 35 21 36 35 37 36 38 37 39 38 40 39 41 40 42 41 44 42 45
REMARK SMILES IDX 43 46 104 47 44 48 103 49 45 50 46 51 47 52 97 53 48 54
REMARK SMILES IDX 102 55 96 56 98 57 49 58 101 59 95 60 94 61 50 63 82 64
REMARK SMILES IDX 62 65 81 66 63 67 66 68 80 69 99 70 64 71 65 72 79 74 100 75
REMARK SMILES IDX 67 76 51 77 52 78 60 79 53 80 59 81 61 82 58 83 54 84 55 85
REMARK SMILES IDX 56 86 57 87 83 88 84 89 92 90 85 91 91 92 93 93 90 94 86 95
REMARK SMILES IDX 87 96 88 97 89 98 68 99 69 100 77 101 70 102 76 103 78 104
REMARK SMILES IDX 75 105 71 106 72 107 73 108 74 109
REMARK H PARENT 32 6 5 28 39 43 98 62 66 73
REMARK Flexibility Score: inf
ROOT
ATOM      1  C   UNL A   1      42.275  21.996  27.156  1.00  0.00     0.021 C 
ENDROOT
BRANCH   1   2
ATOM      2  C   UNL A   1      41.905  20.498  26.738  1.00  0.00     0.116 C 
BRANCH   2   3
ATOM      3  N   UNL A   1      40.454  20.085  26.158  1.00  0.00    -0.356 N 
ATOM      4  C   UNL A   1      39.168  20.378  25.706  1.00  0.00     0.220 C 
ATOM      5  O   UNL A   1      38.631  19.307  25.323  1.00  0.00    -0.275 OA
ATOM      6  H   UNL A   1      40.505  19.104  26.087  1.00  0.00     0.163 HD
BRANCH   4   7
ATOM      7  C   UNL A   1      38.166  21.739  25.426  1.00  0.00     0.100 C 
BRANCH   7   8
ATOM      8  C   UNL A   1      37.008  22.299  24.263  1.00  0.00     0.018 C 
BRANCH   8   9
ATOM      9  C   UNL A   1      35.501  22.638  24.787  1.00  0.00    -0.014 C 
ATOM     10  C   UNL A   1      35.179  21.534  25.735  1.00  0.00     0.047 C 
ATOM     11  C   UNL A   1      34.095  21.722  26.785  1.00  0.00     0.122 C 
ATOM     12  C   UNL A   1      32.897  22.422  26.221  1.00  0.00     0.037 C 
ATOM     13  C   UNL A   1      34.465  23.849  24.668  1.00  0.00    -0.019 C 
ATOM     14  C   UNL A   1      34.450  22.817  23.645  1.00  0.00     0.016 C 
ATOM     15  C   UNL A   1      33.243  23.830  25.678  1.00  0.00     0.005 C 
ATOM     16  C   UNL A   1      34.665  25.144  23.918  1.00  0.00     0.008 C 
ATOM     17  C   UNL A   1      31.908  24.531  25.144  1.00  0.00    -0.023 C 
ATOM     18  C   UNL A   1      33.311  25.492  23.265  1.00  0.00     0.008 C 
ATOM     19  C   UNL A   1      32.244  25.832  24.322  1.00  0.00    -0.024 C 
ATOM     20  C   UNL A   1      31.128  25.129  26.356  1.00  0.00     0.008 C 
ATOM     21  C   UNL A   1      30.994  23.509  24.412  1.00  0.00     0.012 C 
ATOM     22  C   UNL A   1      32.746  26.752  25.482  1.00  0.00    -0.002 C 
ATOM     23  C   UNL A   1      30.979  26.444  23.651  1.00  0.00     0.012 C 
ATOM     24  C   UNL A   1      31.684  26.547  26.579  1.00  0.00     0.005 C 
BRANCH  10  25
ATOM     25  C   UNL A   1      34.987  20.353  24.829  1.00  0.00    -0.028 C 
ATOM     26  C   UNL A   1      33.917  19.498  24.855  1.00  0.00     0.004 C 
ENDBRANCH  10  25
BRANCH  11  27
ATOM     27  O   UNL A   1      34.589  22.445  27.917  1.00  0.00    -0.392 OA
ATOM     28  H   UNL A   1      34.960  21.824  28.562  1.00  0.00     0.210 HD
ENDBRANCH  11  27
BRANCH  22  29
ATOM     29  C   UNL A   1      33.365  28.159  25.223  1.00  0.00    -0.010 C 
ATOM     30  C   UNL A   1      33.545  28.438  23.731  1.00  0.00     0.008 C 
BRANCH  29  31
ATOM     31  C   UNL A   1      34.621  28.553  26.027  1.00  0.00     0.008 C 
BRANCH  31  32
ATOM     32  C   UNL A   1      34.376  29.010  27.475  1.00  0.00     0.027 C 
BRANCH  32  33
ATOM     33  C   UNL A   1      35.059  30.313  27.835  1.00  0.00    -0.028 C 
ATOM     34  C   UNL A   1      36.323  30.465  28.280  1.00  0.00    -0.080 C 
ATOM     35  C   UNL A   1      36.894  31.828  28.570  1.00  0.00     0.039 C 
ATOM     36  C   UNL A   1      37.265  29.316  28.502  1.00  0.00     0.039 C 
ENDBRANCH  32  33
ENDBRANCH  31  32
ENDBRANCH  29  31
ENDBRANCH  22  29
ENDBRANCH   8   9
ENDBRANCH   7   8
ENDBRANCH   4   7
ENDBRANCH   2   3
ENDBRANCH   1   2
BRANCH   1  37
ATOM     37  C   UNL A   1      41.924  22.635  28.488  1.00  0.00     0.002 C 
BRANCH  37  38
ATOM     38  C   UNL A   1      41.401  24.058  28.449  1.00  0.00     0.002 C 
BRANCH  38  39
ATOM     39  C   UNL A   1      40.102  24.303  27.661  1.00  0.00     0.021 C 
BRANCH  39  40
ATOM     40  C   UNL A   1      40.223  25.106  26.361  1.00  0.00     0.116 C 
BRANCH  40  41
ATOM     41  N   UNL A   1      41.495  24.873  25.691  1.00  0.00    -0.352 N 
ATOM     42  C   UNL A   1      42.514  25.756  25.453  1.00  0.00     0.251 C 
ATOM     43  H   UNL A   1      41.643  23.955  25.367  1.00  0.00     0.163 HD
ATOM     44  O   UNL A   1      43.343  25.518  24.566  1.00  0.00    -0.269 OA
BRANCH  42  45
ATOM     45  C   UNL A   1      42.621  26.984  26.260  1.00  0.00     0.039 A 
ATOM     46  C   UNL A   1      43.371  26.981  27.439  1.00  0.00     0.014 A 
ATOM     47  C   UNL A   1      41.955  28.142  25.848  1.00  0.00     0.014 A 
ATOM     48  C   UNL A   1      43.501  28.162  28.174  1.00  0.00     0.010 A 
ATOM     49  C   UNL A   1      42.143  29.330  26.542  1.00  0.00     0.010 A 
ATOM     50  C   UNL A   1      42.913  29.353  27.716  1.00  0.00    -0.014 A 
BRANCH  50  51
ATOM     51  C   UNL A   1      43.081  30.634  28.449  1.00  0.00     0.031 A 
ATOM     52  C   UNL A   1      44.207  31.564  28.085  1.00  0.00     0.074 A 
ATOM     53  C   UNL A   1      42.274  30.916  29.490  1.00  0.00     0.049 A 
ATOM     54  N   UNL A   1      44.588  32.672  28.665  1.00  0.00    -0.248 NA
ATOM     55  C   UNL A   1      45.035  31.170  26.934  1.00  0.00     0.031 C 
ATOM     56  C   UNL A   1      41.178  30.067  29.962  1.00  0.00     0.029 A 
ATOM     57  N   UNL A   1      42.260  31.984  30.353  1.00  0.00    -0.354 N 
ATOM     58  C   UNL A   1      45.713  33.097  27.966  1.00  0.00     0.074 A 
ATOM     59  C   UNL A   1      45.985  32.092  26.960  1.00  0.00     0.031 C 
ATOM     60  C   UNL A   1      40.589  30.654  31.017  1.00  0.00     0.029 A 
ATOM     61  C   UNL A   1      41.294  31.892  31.330  1.00  0.00     0.049 A 
ATOM     62  H   UNL A   1      42.881  32.744  30.280  1.00  0.00     0.167 HD
ATOM     63  C   UNL A   1      46.438  34.230  28.138  1.00  0.00     0.034 A 
ATOM     64  C   UNL A   1      41.022  32.702  32.372  1.00  0.00     0.034 A 
ATOM     65  C   UNL A   1      46.140  35.220  29.144  1.00  0.00     0.049 A 
ATOM     66  C   UNL A   1      41.850  33.948  32.556  1.00  0.00     0.074 A 
ATOM     67  C   UNL A   1      46.760  36.437  29.366  1.00  0.00     0.029 A 
ATOM     68  N   UNL A   1      45.146  35.102  30.108  1.00  0.00    -0.354 N 
ATOM     69  N   UNL A   1      42.873  34.372  31.848  1.00  0.00    -0.248 NA
ATOM     70  C   UNL A   1      41.481  34.832  33.668  1.00  0.00     0.031 C 
ATOM     71  C   UNL A   1      46.201  37.011  30.512  1.00  0.00     0.029 A 
ATOM     72  C   UNL A   1      45.163  36.202  30.952  1.00  0.00     0.049 A 
ATOM     73  H   UNL A   1      44.520  34.345  30.183  1.00  0.00     0.167 HD
ATOM     74  C   UNL A   1      43.249  35.588  32.412  1.00  0.00     0.074 A 
ATOM     75  C   UNL A   1      42.335  35.832  33.509  1.00  0.00     0.031 C 
ATOM     76  C   UNL A   1      44.253  36.429  32.051  1.00  0.00     0.034 A 
BRANCH  63  77
ATOM     77  C   UNL A   1      47.641  34.431  27.242  1.00  0.00     0.023 A 
ATOM     78  C   UNL A   1      48.935  34.042  27.634  1.00  0.00     0.031 A 
ATOM     79  C   UNL A   1      47.498  35.057  25.990  1.00  0.00     0.131 A 
ATOM     80  C   UNL A   1      50.039  34.362  26.830  1.00  0.00     0.055 A 
ATOM     81  C   UNL A   1      48.591  35.288  25.152  1.00  0.00     0.041 A 
ATOM     82  F   UNL A   1      46.295  35.473  25.567  1.00  0.00    -0.206 F 
ATOM     83  C   UNL A   1      49.874  34.957  25.578  1.00  0.00     0.022 A 
BRANCH  80  84
ATOM     84  S   UNL A   1      51.703  34.145  27.519  1.00  0.00     0.124 S 
ATOM     85  O   UNL A   1      51.493  33.043  28.454  1.00  0.00    -0.237 OA
ATOM     86  O   UNL A   1      52.497  33.836  26.335  1.00  0.00    -0.237 OA
ATOM     87  O   UNL A   1      51.987  35.436  28.143  1.00  0.00    -0.744 OA
ENDBRANCH  80  84
ENDBRANCH  63  77
BRANCH  64  88
ATOM     88  C   UNL A   1      39.934  32.352  33.330  1.00  0.00     0.023 A 
ATOM     89  C   UNL A   1      38.681  32.984  33.273  1.00  0.00     0.031 A 
ATOM     90  C   UNL A   1      40.139  31.388  34.334  1.00  0.00     0.131 A 
ATOM     91  C   UNL A   1      37.696  32.672  34.225  1.00  0.00     0.055 A 
ATOM     92  C   UNL A   1      39.138  31.042  35.243  1.00  0.00     0.041 A 
ATOM     93  F   UNL A   1      41.315  30.748  34.430  1.00  0.00    -0.206 F 
ATOM     94  C   UNL A   1      37.911  31.695  35.199  1.00  0.00     0.022 A 
BRANCH  91  95
ATOM     95  S   UNL A   1      36.150  33.622  34.219  1.00  0.00     0.124 S 
ATOM     96  O   UNL A   1      35.323  32.838  33.309  1.00  0.00    -0.237 OA
ATOM     97  O   UNL A   1      35.769  33.587  35.627  1.00  0.00    -0.237 OA
ATOM     98  O   UNL A   1      36.558  34.933  33.719  1.00  0.00    -0.744 OA
ENDBRANCH  91  95
ENDBRANCH  64  88
BRANCH  76  99
ATOM     99  C   UNL A   1      44.380  37.721  32.822  1.00  0.00     0.023 A 
ATOM    100  C   UNL A   1      43.610  38.855  32.509  1.00  0.00     0.031 A 
ATOM    101  C   UNL A   1      45.289  37.815  33.891  1.00  0.00     0.131 A 
ATOM    102  C   UNL A   1      43.804  40.049  33.222  1.00  0.00     0.055 A 
ATOM    103  C   UNL A   1      45.427  38.984  34.640  1.00  0.00     0.041 A 
ATOM    104  F   UNL A   1      46.056  36.766  34.231  1.00  0.00    -0.206 F 
ATOM    105  C   UNL A   1      44.692  40.114  34.299  1.00  0.00     0.022 A 
BRANCH 102 106
ATOM    106  S   UNL A   1      42.953  41.548  32.657  1.00  0.00     0.124 S 
ATOM    107  O   UNL A   1      44.020  42.257  31.957  1.00  0.00    -0.237 OA
ATOM    108  O   UNL A   1      41.889  41.006  31.817  1.00  0.00    -0.237 OA
ATOM    109  O   UNL A   1      42.503  42.174  33.899  1.00  0.00    -0.744 OA
ENDBRANCH 102 106
ENDBRANCH  76  99
ENDBRANCH  50  51
ENDBRANCH  42  45
ENDBRANCH  40  41
ENDBRANCH  39  40
ENDBRANCH  38  39
ENDBRANCH  37  38
ENDBRANCH   1  37
TORSDOF 24
ENDMDL
