MODEL 1
REMARK VINA RESULT:     -12.6      0.000      0.000
REMARK SMILES O=C(NCCCCCCNC(=O)c1ccc(-c2c3nc(c(-c4cc(S(=O)(=O)[O-])ccc4F)c4ccc([nH]4)c(-c4cc(S(=O)(=O)[O-])ccc4F)c4nc(c(-c5cc(S(=O)(=O)[O-])ccc5F)c5ccc2[nH]5)C=C4)C=C3)cc1)C1=Cc2cc(Cl)cc(-c3ccc(O)cc3)c2O[C@@H]1C(F)(F)F
REMARK SMILES IDX 7 1 6 2 5 3 4 4 3 5 1 6 2 7 76 9 77 10 93 11 78 12 92 13
REMARK SMILES IDX 79 14 91 15 80 16 83 17 81 18 82 19 94 20 95 21 96 22 97 23
REMARK SMILES IDX 84 24 85 25 90 26 86 27 89 28 87 29 88 30 8 32 9 33 10 34
REMARK SMILES IDX 11 35 12 37 13 38 14 39 75 40 15 41 74 42 16 43 17 44 18 45
REMARK SMILES IDX 68 46 19 47 73 48 67 49 69 50 20 51 72 52 66 53 65 54 21 56
REMARK SMILES IDX 53 57 33 58 52 59 34 60 37 61 51 62 70 63 35 64 36 65 50 67
REMARK SMILES IDX 71 68 38 69 22 70 23 71 31 72 24 73 30 74 32 75 29 76 25 77
REMARK SMILES IDX 26 78 27 79 28 80 54 81 55 82 63 83 56 84 62 85 64 86 61 87
REMARK SMILES IDX 57 88 58 89 59 90 60 91 39 92 40 93 48 94 41 95 47 96 49 97
REMARK SMILES IDX 46 98 42 99 43 100 44 101 45 102
REMARK H PARENT 3 8 88 31 10 36 69 55 37 66
REMARK Flexibility Score: inf
ROOT
ATOM      1  C   UNL A   1      31.527  30.421  26.303  1.00  0.00     0.002 C 
ENDROOT
BRANCH   1   2
ATOM      2  C   UNL A   1      31.142  29.998  24.880  1.00  0.00     0.002 C 
BRANCH   2   3
ATOM      3  C   UNL A   1      32.227  29.324  24.038  1.00  0.00     0.021 C 
BRANCH   3   4
ATOM      4  C   UNL A   1      31.782  28.673  22.729  1.00  0.00     0.116 C 
BRANCH   4   5
ATOM      5  N   UNL A   1      32.730  27.733  22.148  1.00  0.00    -0.352 N 
ATOM      6  O   UNL A   1      33.715  25.757  21.740  1.00  0.00    -0.270 OA
ATOM      7  C   UNL A   1      32.982  26.426  22.469  1.00  0.00     0.251 C 
ATOM      8  H   UNL A   1      33.275  28.093  21.411  1.00  0.00     0.163 HD
BRANCH   7   9
ATOM      9  C   UNL A   1      32.328  25.738  23.623  1.00  0.00     0.067 C 
ATOM     10  C   UNL A   1      31.602  24.620  23.460  1.00  0.00     0.025 C 
ATOM     11  C   UNL A   1      33.099  25.906  24.910  1.00  0.00     0.314 C 
ATOM     12  C   UNL A   1      32.263  23.417  24.018  1.00  0.00     0.019 A 
ATOM     13  O   UNL A   1      33.948  24.758  25.160  1.00  0.00    -0.475 OA
ATOM     14  C   UNL A   1      31.833  22.171  23.549  1.00  0.00     0.032 A 
ATOM     15  C   UNL A   1      33.490  23.543  24.703  1.00  0.00     0.135 A 
ATOM     16  C   UNL A   1      32.669  21.069  23.688  1.00  0.00     0.042 A 
ATOM     17  C   UNL A   1      34.359  22.441  24.796  1.00  0.00     0.026 A 
ATOM     18  Cl  UNL A   1      32.229  19.577  22.953  1.00  0.00    -0.084 Cl
ATOM     19  C   UNL A   1      33.919  21.200  24.291  1.00  0.00     0.033 A 
BRANCH  11  20
ATOM     20  C   UNL A   1      32.163  26.219  26.094  1.00  0.00     0.429 C 
ATOM     21  F   UNL A   1      32.699  27.148  26.921  1.00  0.00    -0.167 F 
ATOM     22  F   UNL A   1      30.975  26.716  25.667  1.00  0.00    -0.167 F 
ATOM     23  F   UNL A   1      31.883  25.128  26.846  1.00  0.00    -0.167 F 
ENDBRANCH  11  20
BRANCH  17  24
ATOM     24  C   UNL A   1      35.778  22.587  25.165  1.00  0.00    -0.014 A 
ATOM     25  C   UNL A   1      36.651  21.515  24.911  1.00  0.00     0.012 A 
ATOM     26  C   UNL A   1      36.304  23.729  25.772  1.00  0.00     0.012 A 
ATOM     27  C   UNL A   1      37.992  21.549  25.280  1.00  0.00     0.047 A 
ATOM     28  C   UNL A   1      37.655  23.775  26.147  1.00  0.00     0.047 A 
ATOM     29  C   UNL A   1      38.483  22.680  25.908  1.00  0.00     0.115 A 
BRANCH  29  30
ATOM     30  O   UNL A   1      39.794  22.673  26.280  1.00  0.00    -0.508 OA
ATOM     31  H   UNL A   1      40.070  22.156  27.011  1.00  0.00     0.293 HD
ENDBRANCH  29  30
ENDBRANCH  17  24
ENDBRANCH   7   9
ENDBRANCH   4   5
ENDBRANCH   3   4
ENDBRANCH   2   3
ENDBRANCH   1   2
BRANCH   1  32
ATOM     32  C   UNL A   1      31.562  31.926  26.591  1.00  0.00     0.021 C 
BRANCH  32  33
ATOM     33  C   UNL A   1      32.865  32.475  27.155  1.00  0.00     0.116 C 
BRANCH  33  34
ATOM     34  N   UNL A   1      32.717  33.842  27.625  1.00  0.00    -0.352 N 
ATOM     35  C   UNL A   1      33.288  34.492  28.693  1.00  0.00     0.251 C 
ATOM     36  H   UNL A   1      32.104  34.393  27.089  1.00  0.00     0.163 HD
ATOM     37  O   UNL A   1      32.827  35.580  29.028  1.00  0.00    -0.269 OA
BRANCH  35  38
ATOM     38  C   UNL A   1      34.429  33.910  29.446  1.00  0.00     0.039 A 
ATOM     39  C   UNL A   1      35.726  34.337  29.132  1.00  0.00     0.014 A 
ATOM     40  C   UNL A   1      34.254  32.904  30.398  1.00  0.00     0.014 A 
ATOM     41  C   UNL A   1      36.829  33.786  29.793  1.00  0.00     0.010 A 
ATOM     42  C   UNL A   1      35.345  32.419  31.119  1.00  0.00     0.010 A 
ATOM     43  C   UNL A   1      36.647  32.838  30.812  1.00  0.00    -0.014 A 
BRANCH  43  44
ATOM     44  C   UNL A   1      37.805  32.239  31.532  1.00  0.00     0.031 A 
ATOM     45  C   UNL A   1      38.615  31.149  30.879  1.00  0.00     0.074 A 
ATOM     46  C   UNL A   1      38.092  32.634  32.788  1.00  0.00     0.049 A 
ATOM     47  N   UNL A   1      39.598  30.436  31.369  1.00  0.00    -0.248 NA
ATOM     48  C   UNL A   1      38.246  30.791  29.501  1.00  0.00     0.031 C 
ATOM     49  C   UNL A   1      37.359  33.655  33.541  1.00  0.00     0.029 A 
ATOM     50  N   UNL A   1      39.068  32.219  33.660  1.00  0.00    -0.354 N 
ATOM     51  C   UNL A   1      39.948  29.533  30.369  1.00  0.00     0.074 A 
ATOM     52  C   UNL A   1      39.030  29.749  29.273  1.00  0.00     0.031 C 
ATOM     53  C   UNL A   1      37.927  33.803  34.749  1.00  0.00     0.029 A 
ATOM     54  C   UNL A   1      39.030  32.857  34.878  1.00  0.00     0.049 A 
ATOM     55  H   UNL A   1      39.732  31.528  33.434  1.00  0.00     0.167 HD
ATOM     56  C   UNL A   1      40.956  28.625  30.359  1.00  0.00     0.034 A 
ATOM     57  C   UNL A   1      39.789  32.690  35.980  1.00  0.00     0.034 A 
ATOM     58  C   UNL A   1      41.877  28.439  31.455  1.00  0.00     0.049 A 
ATOM     59  C   UNL A   1      40.896  31.666  35.950  1.00  0.00     0.074 A 
ATOM     60  C   UNL A   1      42.968  27.591  31.532  1.00  0.00     0.029 A 
ATOM     61  N   UNL A   1      41.811  29.111  32.670  1.00  0.00    -0.354 N 
ATOM     62  N   UNL A   1      41.241  30.849  34.982  1.00  0.00    -0.248 NA
ATOM     63  C   UNL A   1      41.722  31.550  37.159  1.00  0.00     0.031 C 
ATOM     64  C   UNL A   1      43.521  27.701  32.812  1.00  0.00     0.029 A 
ATOM     65  C   UNL A   1      42.824  28.675  33.512  1.00  0.00     0.049 A 
ATOM     66  H   UNL A   1      41.143  29.796  32.900  1.00  0.00     0.167 HD
ATOM     67  C   UNL A   1      42.344  30.145  35.456  1.00  0.00     0.074 A 
ATOM     68  C   UNL A   1      42.614  30.643  36.788  1.00  0.00     0.031 C 
ATOM     69  C   UNL A   1      43.072  29.175  34.843  1.00  0.00     0.034 A 
BRANCH  56  70
ATOM     70  C   UNL A   1      41.094  27.752  29.132  1.00  0.00     0.023 A 
ATOM     71  C   UNL A   1      42.112  27.961  28.184  1.00  0.00     0.031 A 
ATOM     72  C   UNL A   1      40.176  26.715  28.887  1.00  0.00     0.131 A 
ATOM     73  C   UNL A   1      42.137  27.207  27.001  1.00  0.00     0.055 A 
ATOM     74  C   UNL A   1      40.258  25.909  27.749  1.00  0.00     0.041 A 
ATOM     75  F   UNL A   1      39.170  26.476  29.743  1.00  0.00    -0.206 F 
ATOM     76  C   UNL A   1      41.233  26.164  26.789  1.00  0.00     0.022 A 
BRANCH  73  77
ATOM     77  S   UNL A   1      43.270  27.711  25.677  1.00  0.00     0.124 S 
ATOM     78  O   UNL A   1      43.772  28.984  26.188  1.00  0.00    -0.237 OA
ATOM     79  O   UNL A   1      44.227  26.612  25.644  1.00  0.00    -0.237 OA
ATOM     80  O   UNL A   1      42.400  27.818  24.505  1.00  0.00    -0.744 OA
ENDBRANCH  73  77
ENDBRANCH  56  70
BRANCH  57  81
ATOM     81  C   UNL A   1      39.531  33.500  37.205  1.00  0.00     0.023 A 
ATOM     82  C   UNL A   1      40.267  34.665  37.471  1.00  0.00     0.031 A 
ATOM     83  C   UNL A   1      38.566  33.100  38.147  1.00  0.00     0.131 A 
ATOM     84  C   UNL A   1      40.058  35.368  38.668  1.00  0.00     0.055 A 
ATOM     85  C   UNL A   1      38.325  33.832  39.311  1.00  0.00     0.041 A 
ATOM     86  F   UNL A   1      37.830  31.997  37.940  1.00  0.00    -0.206 F 
ATOM     87  C   UNL A   1      39.083  34.965  39.584  1.00  0.00     0.022 A 
BRANCH  84  88
ATOM     88  S   UNL A   1      41.140  36.772  39.052  1.00  0.00     0.124 S 
ATOM     89  O   UNL A   1      41.842  36.293  40.236  1.00  0.00    -0.237 OA
ATOM     90  O   UNL A   1      41.935  36.882  37.833  1.00  0.00    -0.237 OA
ATOM     91  O   UNL A   1      40.203  37.870  39.282  1.00  0.00    -0.744 OA
ENDBRANCH  84  88
ENDBRANCH  57  81
BRANCH  69  92
ATOM     92  C   UNL A   1      44.257  28.627  35.601  1.00  0.00     0.023 A 
ATOM     93  C   UNL A   1      44.129  27.557  36.503  1.00  0.00     0.031 A 
ATOM     94  C   UNL A   1      45.531  29.195  35.424  1.00  0.00     0.131 A 
ATOM     95  C   UNL A   1      45.244  27.125  37.237  1.00  0.00     0.055 A 
ATOM     96  C   UNL A   1      46.649  28.720  36.111  1.00  0.00     0.041 A 
ATOM     97  F   UNL A   1      45.711  30.221  34.577  1.00  0.00    -0.206 F 
ATOM     98  C   UNL A   1      46.507  27.688  37.034  1.00  0.00     0.022 A 
BRANCH  95  99
ATOM     99  S   UNL A   1      45.005  25.876  38.530  1.00  0.00     0.124 S 
ATOM    100  O   UNL A   1      46.379  25.555  38.900  1.00  0.00    -0.237 OA
ATOM    101  O   UNL A   1      44.229  26.605  39.528  1.00  0.00    -0.237 OA
ATOM    102  O   UNL A   1      44.282  24.806  37.844  1.00  0.00    -0.744 OA
ENDBRANCH  95  99
ENDBRANCH  69  92
ENDBRANCH  43  44
ENDBRANCH  35  38
ENDBRANCH  33  34
ENDBRANCH  32  33
ENDBRANCH   1  32
TORSDOF 19
ENDMDL
MODEL 2
REMARK VINA RESULT:     -12.6      5.491      8.790
REMARK SMILES O=C(NCCCCCCNC(=O)c1ccc(-c2c3nc(c(-c4cc(S(=O)(=O)[O-])ccc4F)c4ccc([nH]4)c(-c4cc(S(=O)(=O)[O-])ccc4F)c4nc(c(-c5cc(S(=O)(=O)[O-])ccc5F)c5ccc2[nH]5)C=C4)C=C3)cc1)C1=Cc2cc(Cl)cc(-c3ccc(O)cc3)c2O[C@@H]1C(F)(F)F
REMARK SMILES IDX 7 1 6 2 5 3 4 4 3 5 1 6 2 7 76 9 77 10 93 11 78 12 92 13
REMARK SMILES IDX 79 14 91 15 80 16 83 17 81 18 82 19 94 20 95 21 96 22 97 23
REMARK SMILES IDX 84 24 85 25 90 26 86 27 89 28 87 29 88 30 8 32 9 33 10 34
REMARK SMILES IDX 11 35 12 37 13 38 14 39 75 40 15 41 74 42 16 43 17 44 18 45
REMARK SMILES IDX 68 46 19 47 73 48 67 49 69 50 20 51 72 52 66 53 65 54 21 56
REMARK SMILES IDX 53 57 33 58 52 59 34 60 37 61 51 62 70 63 35 64 36 65 50 67
REMARK SMILES IDX 71 68 38 69 22 70 23 71 31 72 24 73 30 74 32 75 29 76 25 77
REMARK SMILES IDX 26 78 27 79 28 80 54 81 55 82 63 83 56 84 62 85 64 86 61 87
REMARK SMILES IDX 57 88 58 89 59 90 60 91 39 92 40 93 48 94 41 95 47 96 49 97
REMARK SMILES IDX 46 98 42 99 43 100 44 101 45 102
REMARK H PARENT 3 8 88 31 10 36 69 55 37 66
REMARK Flexibility Score: inf
ROOT
ATOM      1  C   UNL A   1      35.387  22.066  26.187  1.00  0.00     0.002 C 
ENDROOT
BRANCH   1   2
ATOM      2  C   UNL A   1      33.958  21.783  26.666  1.00  0.00     0.002 C 
BRANCH   2   3
ATOM      3  C   UNL A   1      33.111  20.840  25.808  1.00  0.00     0.021 C 
BRANCH   3   4
ATOM      4  C   UNL A   1      31.730  21.340  25.387  1.00  0.00     0.116 C 
BRANCH   4   5
ATOM      5  N   UNL A   1      31.205  22.450  26.168  1.00  0.00    -0.352 N 
ATOM      6  O   UNL A   1      30.414  24.510  26.587  1.00  0.00    -0.270 OA
ATOM      7  C   UNL A   1      31.030  23.764  25.824  1.00  0.00     0.251 C 
ATOM      8  H   UNL A   1      30.934  22.221  27.087  1.00  0.00     0.163 HD
BRANCH   7   9
ATOM      9  C   UNL A   1      31.476  24.321  24.511  1.00  0.00     0.067 C 
ATOM     10  C   UNL A   1      30.609  24.869  23.645  1.00  0.00     0.025 C 
ATOM     11  C   UNL A   1      32.879  24.877  24.564  1.00  0.00     0.314 C 
ATOM     12  C   UNL A   1      30.761  26.338  23.527  1.00  0.00     0.019 A 
ATOM     13  O   UNL A   1      32.861  26.312  24.768  1.00  0.00    -0.475 OA
ATOM     14  C   UNL A   1      29.679  27.058  23.011  1.00  0.00     0.032 A 
ATOM     15  C   UNL A   1      31.792  26.995  24.231  1.00  0.00     0.135 A 
ATOM     16  C   UNL A   1      29.583  28.419  23.272  1.00  0.00     0.042 A 
ATOM     17  C   UNL A   1      31.669  28.362  24.543  1.00  0.00     0.026 A 
ATOM     18  Cl  UNL A   1      28.167  29.274  22.798  1.00  0.00    -0.084 Cl
ATOM     19  C   UNL A   1      30.555  29.063  24.036  1.00  0.00     0.033 A 
BRANCH  11  20
ATOM     20  C   UNL A   1      33.699  24.466  23.326  1.00  0.00     0.429 C 
ATOM     21  F   UNL A   1      35.027  24.464  23.584  1.00  0.00    -0.167 F 
ATOM     22  F   UNL A   1      33.380  23.212  22.916  1.00  0.00    -0.167 F 
ATOM     23  F   UNL A   1      33.499  25.285  22.266  1.00  0.00    -0.167 F 
ENDBRANCH  11  20
BRANCH  17  24
ATOM     24  C   UNL A   1      32.508  29.015  25.563  1.00  0.00    -0.014 A 
ATOM     25  C   UNL A   1      33.762  28.454  25.861  1.00  0.00     0.012 A 
ATOM     26  C   UNL A   1      32.117  30.156  26.268  1.00  0.00     0.012 A 
ATOM     27  C   UNL A   1      34.590  28.975  26.850  1.00  0.00     0.047 A 
ATOM     28  C   UNL A   1      32.945  30.690  27.267  1.00  0.00     0.047 A 
ATOM     29  C   UNL A   1      34.168  30.087  27.556  1.00  0.00     0.115 A 
BRANCH  29  30
ATOM     30  O   UNL A   1      34.989  30.558  28.536  1.00  0.00    -0.508 OA
ATOM     31  H   UNL A   1      34.696  31.244  29.103  1.00  0.00     0.293 HD
ENDBRANCH  29  30
ENDBRANCH  17  24
ENDBRANCH   7   9
ENDBRANCH   4   5
ENDBRANCH   3   4
ENDBRANCH   2   3
ENDBRANCH   1   2
BRANCH   1  32
ATOM     32  C   UNL A   1      35.732  21.647  24.754  1.00  0.00     0.021 C 
BRANCH  32  33
ATOM     33  C   UNL A   1      37.209  21.655  24.386  1.00  0.00     0.116 C 
BRANCH  33  34
ATOM     34  N   UNL A   1      37.965  20.695  25.172  1.00  0.00    -0.352 N 
ATOM     35  C   UNL A   1      39.123  20.842  25.898  1.00  0.00     0.251 C 
ATOM     36  H   UNL A   1      37.585  19.788  25.187  1.00  0.00     0.163 HD
ATOM     37  O   UNL A   1      39.701  19.830  26.286  1.00  0.00    -0.269 OA
BRANCH  35  38
ATOM     38  C   UNL A   1      39.688  22.180  26.211  1.00  0.00     0.039 A 
ATOM     39  C   UNL A   1      41.037  22.268  26.577  1.00  0.00     0.014 A 
ATOM     40  C   UNL A   1      38.901  23.334  26.222  1.00  0.00     0.014 A 
ATOM     41  C   UNL A   1      41.597  23.506  26.913  1.00  0.00     0.010 A 
ATOM     42  C   UNL A   1      39.480  24.578  26.471  1.00  0.00     0.010 A 
ATOM     43  C   UNL A   1      40.828  24.678  26.840  1.00  0.00    -0.014 A 
BRANCH  43  44
ATOM     44  C   UNL A   1      41.402  26.007  27.190  1.00  0.00     0.031 A 
ATOM     45  C   UNL A   1      42.772  26.389  26.691  1.00  0.00     0.074 A 
ATOM     46  C   UNL A   1      40.720  26.842  27.998  1.00  0.00     0.049 A 
ATOM     47  N   UNL A   1      43.486  27.454  26.958  1.00  0.00    -0.248 NA
ATOM     48  C   UNL A   1      43.440  25.429  25.801  1.00  0.00     0.031 C 
ATOM     49  C   UNL A   1      39.400  26.570  28.573  1.00  0.00     0.029 A 
ATOM     50  N   UNL A   1      41.041  28.084  28.485  1.00  0.00    -0.354 N 
ATOM     51  C   UNL A   1      44.693  27.280  26.287  1.00  0.00     0.074 A 
ATOM     52  C   UNL A   1      44.635  25.980  25.655  1.00  0.00     0.031 C 
ATOM     53  C   UNL A   1      39.016  27.623  29.313  1.00  0.00     0.029 A 
ATOM     54  C   UNL A   1      40.079  28.623  29.307  1.00  0.00     0.049 A 
ATOM     55  H   UNL A   1      41.884  28.546  28.267  1.00  0.00     0.167 HD
ATOM     56  C   UNL A   1      45.743  28.135  26.188  1.00  0.00     0.034 A 
ATOM     57  C   UNL A   1      40.059  29.786  29.990  1.00  0.00     0.034 A 
ATOM     58  C   UNL A   1      45.773  29.438  26.807  1.00  0.00     0.049 A 
ATOM     59  C   UNL A   1      41.241  30.715  29.875  1.00  0.00     0.074 A 
ATOM     60  C   UNL A   1      46.756  30.409  26.727  1.00  0.00     0.029 A 
ATOM     61  N   UNL A   1      44.775  29.952  27.626  1.00  0.00    -0.354 N 
ATOM     62  N   UNL A   1      42.357  30.554  29.203  1.00  0.00    -0.248 NA
ATOM     63  C   UNL A   1      41.155  31.987  30.604  1.00  0.00     0.031 C 
ATOM     64  C   UNL A   1      46.384  31.480  27.548  1.00  0.00     0.029 A 
ATOM     65  C   UNL A   1      45.132  31.213  28.080  1.00  0.00     0.049 A 
ATOM     66  H   UNL A   1      43.936  29.489  27.851  1.00  0.00     0.167 HD
ATOM     67  C   UNL A   1      43.092  31.720  29.403  1.00  0.00     0.074 A 
ATOM     68  C   UNL A   1      42.286  32.578  30.246  1.00  0.00     0.031 C 
ATOM     69  C   UNL A   1      44.321  32.052  28.931  1.00  0.00     0.034 A 
BRANCH  56  70
ATOM     70  C   UNL A   1      46.947  27.671  25.401  1.00  0.00     0.023 A 
ATOM     71  C   UNL A   1      47.158  28.067  24.067  1.00  0.00     0.031 A 
ATOM     72  C   UNL A   1      47.882  26.793  25.978  1.00  0.00     0.131 A 
ATOM     73  C   UNL A   1      48.223  27.523  23.333  1.00  0.00     0.055 A 
ATOM     74  C   UNL A   1      48.990  26.323  25.268  1.00  0.00     0.041 A 
ATOM     75  F   UNL A   1      47.727  26.362  27.240  1.00  0.00    -0.206 F 
ATOM     76  C   UNL A   1      49.156  26.674  23.932  1.00  0.00     0.022 A 
BRANCH  73  77
ATOM     77  S   UNL A   1      48.280  27.819  21.543  1.00  0.00     0.124 S 
ATOM     78  O   UNL A   1      48.623  26.493  21.036  1.00  0.00    -0.237 OA
ATOM     79  O   UNL A   1      46.929  28.285  21.257  1.00  0.00    -0.237 OA
ATOM     80  O   UNL A   1      49.333  28.824  21.397  1.00  0.00    -0.744 OA
ENDBRANCH  73  77
ENDBRANCH  56  70
BRANCH  57  81
ATOM     81  C   UNL A   1      38.891  30.139  30.847  1.00  0.00     0.023 A 
ATOM     82  C   UNL A   1      37.969  31.119  30.445  1.00  0.00     0.031 A 
ATOM     83  C   UNL A   1      38.698  29.525  32.097  1.00  0.00     0.131 A 
ATOM     84  C   UNL A   1      36.920  31.487  31.304  1.00  0.00     0.055 A 
ATOM     85  C   UNL A   1      37.624  29.857  32.924  1.00  0.00     0.041 A 
ATOM     86  F   UNL A   1      39.546  28.578  32.527  1.00  0.00    -0.206 F 
ATOM     87  C   UNL A   1      36.735  30.854  32.535  1.00  0.00     0.022 A 
BRANCH  84  88
ATOM     88  S   UNL A   1      35.848  32.868  30.823  1.00  0.00     0.124 S 
ATOM     89  O   UNL A   1      34.521  32.314  31.062  1.00  0.00    -0.237 OA
ATOM     90  O   UNL A   1      36.280  33.919  31.739  1.00  0.00    -0.237 OA
ATOM     91  O   UNL A   1      36.190  33.090  29.420  1.00  0.00    -0.744 OA
ENDBRANCH  84  88
ENDBRANCH  57  81
BRANCH  69  92
ATOM     92  C   UNL A   1      44.841  33.425  29.284  1.00  0.00     0.023 A 
ATOM     93  C   UNL A   1      44.486  34.564  28.542  1.00  0.00     0.031 A 
ATOM     94  C   UNL A   1      45.715  33.589  30.373  1.00  0.00     0.131 A 
ATOM     95  C   UNL A   1      45.047  35.809  28.864  1.00  0.00     0.055 A 
ATOM     96  C   UNL A   1      46.221  34.840  30.727  1.00  0.00     0.041 A 
ATOM     97  F   UNL A   1      46.090  32.534  31.115  1.00  0.00    -0.206 F 
ATOM     98  C   UNL A   1      45.899  35.958  29.962  1.00  0.00     0.022 A 
BRANCH  95  99
ATOM     99  S   UNL A   1      44.721  37.220  27.771  1.00  0.00     0.124 S 
ATOM    100  O   UNL A   1      43.756  36.659  26.831  1.00  0.00    -0.237 OA
ATOM    101  O   UNL A   1      44.201  38.220  28.699  1.00  0.00    -0.237 OA
ATOM    102  O   UNL A   1      46.034  37.525  27.205  1.00  0.00    -0.744 OA
ENDBRANCH  95  99
ENDBRANCH  69  92
ENDBRANCH  43  44
ENDBRANCH  35  38
ENDBRANCH  33  34
ENDBRANCH  32  33
ENDBRANCH   1  32
TORSDOF 19
ENDMDL
MODEL 3
REMARK VINA RESULT:     -12.5      3.054      8.185
REMARK SMILES O=C(NCCCCCCNC(=O)c1ccc(-c2c3nc(c(-c4cc(S(=O)(=O)[O-])ccc4F)c4ccc([nH]4)c(-c4cc(S(=O)(=O)[O-])ccc4F)c4nc(c(-c5cc(S(=O)(=O)[O-])ccc5F)c5ccc2[nH]5)C=C4)C=C3)cc1)C1=Cc2cc(Cl)cc(-c3ccc(O)cc3)c2O[C@@H]1C(F)(F)F
REMARK SMILES IDX 7 1 6 2 5 3 4 4 3 5 1 6 2 7 76 9 77 10 93 11 78 12 92 13
REMARK SMILES IDX 79 14 91 15 80 16 83 17 81 18 82 19 94 20 95 21 96 22 97 23
REMARK SMILES IDX 84 24 85 25 90 26 86 27 89 28 87 29 88 30 8 32 9 33 10 34
REMARK SMILES IDX 11 35 12 37 13 38 14 39 75 40 15 41 74 42 16 43 17 44 18 45
REMARK SMILES IDX 68 46 19 47 73 48 67 49 69 50 20 51 72 52 66 53 65 54 21 56
REMARK SMILES IDX 53 57 33 58 52 59 34 60 37 61 51 62 70 63 35 64 36 65 50 67
REMARK SMILES IDX 71 68 38 69 22 70 23 71 31 72 24 73 30 74 32 75 29 76 25 77
REMARK SMILES IDX 26 78 27 79 28 80 54 81 55 82 63 83 56 84 62 85 64 86 61 87
REMARK SMILES IDX 57 88 58 89 59 90 60 91 39 92 40 93 48 94 41 95 47 96 49 97
REMARK SMILES IDX 46 98 42 99 43 100 44 101 45 102
REMARK H PARENT 3 8 88 31 10 36 69 55 37 66
REMARK Flexibility Score: inf
ROOT
ATOM      1  C   UNL A   1      30.990  28.768  23.998  1.00  0.00     0.002 C 
ENDROOT
BRANCH   1   2
ATOM      2  C   UNL A   1      30.408  27.375  24.263  1.00  0.00     0.002 C 
BRANCH   2   3
ATOM      3  C   UNL A   1      30.710  26.743  25.623  1.00  0.00     0.021 C 
BRANCH   3   4
ATOM      4  C   UNL A   1      30.036  25.406  25.930  1.00  0.00     0.116 C 
BRANCH   4   5
ATOM      5  N   UNL A   1      30.764  24.537  26.843  1.00  0.00    -0.352 N 
ATOM      6  O   UNL A   1      32.488  23.349  27.655  1.00  0.00    -0.270 OA
ATOM      7  C   UNL A   1      31.972  23.912  26.689  1.00  0.00     0.251 C 
ATOM      8  H   UNL A   1      30.317  24.372  27.705  1.00  0.00     0.163 HD
BRANCH   7   9
ATOM      9  C   UNL A   1      32.749  23.962  25.413  1.00  0.00     0.067 C 
ATOM     10  C   UNL A   1      34.060  24.250  25.395  1.00  0.00     0.025 C 
ATOM     11  C   UNL A   1      32.214  23.007  24.372  1.00  0.00     0.314 C 
ATOM     12  C   UNL A   1      34.903  23.083  25.048  1.00  0.00     0.019 A 
ATOM     13  O   UNL A   1      32.965  21.767  24.371  1.00  0.00    -0.475 OA
ATOM     14  C   UNL A   1      36.255  23.136  25.405  1.00  0.00     0.032 A 
ATOM     15  C   UNL A   1      34.297  21.855  24.709  1.00  0.00     0.135 A 
ATOM     16  C   UNL A   1      36.976  21.953  25.507  1.00  0.00     0.042 A 
ATOM     17  C   UNL A   1      35.011  20.652  24.864  1.00  0.00     0.026 A 
ATOM     18  Cl  UNL A   1      38.583  21.994  26.121  1.00  0.00    -0.084 Cl
ATOM     19  C   UNL A   1      36.365  20.727  25.253  1.00  0.00     0.033 A 
BRANCH  11  20
ATOM     20  C   UNL A   1      32.154  23.663  22.979  1.00  0.00     0.429 C 
ATOM     21  F   UNL A   1      32.533  22.803  22.005  1.00  0.00    -0.167 F 
ATOM     22  F   UNL A   1      30.894  24.065  22.676  1.00  0.00    -0.167 F 
ATOM     23  F   UNL A   1      32.948  24.756  22.878  1.00  0.00    -0.167 F 
ENDBRANCH  11  20
BRANCH  17  24
ATOM     24  C   UNL A   1      34.345  19.338  24.880  1.00  0.00    -0.014 A 
ATOM     25  C   UNL A   1      34.983  18.255  24.251  1.00  0.00     0.012 A 
ATOM     26  C   UNL A   1      33.102  19.110  25.473  1.00  0.00     0.012 A 
ATOM     27  C   UNL A   1      34.397  16.996  24.171  1.00  0.00     0.047 A 
ATOM     28  C   UNL A   1      32.502  17.844  25.400  1.00  0.00     0.047 A 
ATOM     29  C   UNL A   1      33.151  16.802  24.739  1.00  0.00     0.115 A 
BRANCH  29  30
ATOM     30  O   UNL A   1      32.592  15.565  24.622  1.00  0.00    -0.508 OA
ATOM     31  H   UNL A   1      31.749  15.395  24.993  1.00  0.00     0.293 HD
ENDBRANCH  29  30
ENDBRANCH  17  24
ENDBRANCH   7   9
ENDBRANCH   4   5
ENDBRANCH   3   4
ENDBRANCH   2   3
ENDBRANCH   1   2
BRANCH   1  32
ATOM     32  C   UNL A   1      32.514  28.868  23.866  1.00  0.00     0.021 C 
BRANCH  32  33
ATOM     33  C   UNL A   1      33.278  29.229  25.132  1.00  0.00     0.116 C 
BRANCH  33  34
ATOM     34  N   UNL A   1      32.832  30.496  25.688  1.00  0.00    -0.352 N 
ATOM     35  C   UNL A   1      33.199  31.150  26.840  1.00  0.00     0.251 C 
ATOM     36  H   UNL A   1      32.154  30.962  25.149  1.00  0.00     0.163 HD
ATOM     37  O   UNL A   1      32.510  32.095  27.218  1.00  0.00    -0.269 OA
BRANCH  35  38
ATOM     38  C   UNL A   1      34.387  30.738  27.631  1.00  0.00     0.039 A 
ATOM     39  C   UNL A   1      35.375  31.694  27.902  1.00  0.00     0.014 A 
ATOM     40  C   UNL A   1      34.581  29.419  28.046  1.00  0.00     0.014 A 
ATOM     41  C   UNL A   1      36.526  31.336  28.613  1.00  0.00     0.010 A 
ATOM     42  C   UNL A   1      35.685  29.083  28.830  1.00  0.00     0.010 A 
ATOM     43  C   UNL A   1      36.681  30.031  29.105  1.00  0.00    -0.014 A 
BRANCH  43  44
ATOM     44  C   UNL A   1      37.895  29.626  29.867  1.00  0.00     0.031 A 
ATOM     45  C   UNL A   1      38.094  30.116  31.278  1.00  0.00     0.074 A 
ATOM     46  C   UNL A   1      38.839  28.870  29.274  1.00  0.00     0.049 A 
ATOM     47  N   UNL A   1      39.120  29.957  32.076  1.00  0.00    -0.248 NA
ATOM     48  C   UNL A   1      37.008  30.921  31.856  1.00  0.00     0.031 C 
ATOM     49  C   UNL A   1      38.777  28.364  27.901  1.00  0.00     0.029 A 
ATOM     50  N   UNL A   1      40.041  28.402  29.744  1.00  0.00    -0.354 N 
ATOM     51  C   UNL A   1      38.811  30.659  33.238  1.00  0.00     0.074 A 
ATOM     52  C   UNL A   1      37.532  31.295  33.012  1.00  0.00     0.031 C 
ATOM     53  C   UNL A   1      39.877  27.637  27.649  1.00  0.00     0.029 A 
ATOM     54  C   UNL A   1      40.747  27.664  28.821  1.00  0.00     0.049 A 
ATOM     55  H   UNL A   1      40.368  28.578  30.656  1.00  0.00     0.167 HD
ATOM     56  C   UNL A   1      39.519  30.745  34.393  1.00  0.00     0.034 A 
ATOM     57  C   UNL A   1      41.962  27.085  28.905  1.00  0.00     0.034 A 
ATOM     58  C   UNL A   1      40.784  30.085  34.607  1.00  0.00     0.049 A 
ATOM     59  C   UNL A   1      42.736  27.205  30.193  1.00  0.00     0.074 A 
ATOM     60  C   UNL A   1      41.559  30.055  35.754  1.00  0.00     0.029 A 
ATOM     61  N   UNL A   1      41.463  29.339  33.651  1.00  0.00    -0.354 N 
ATOM     62  N   UNL A   1      42.411  27.837  31.298  1.00  0.00    -0.248 NA
ATOM     63  C   UNL A   1      44.035  26.524  30.250  1.00  0.00     0.031 C 
ATOM     64  C   UNL A   1      42.734  29.350  35.471  1.00  0.00     0.029 A 
ATOM     65  C   UNL A   1      42.660  28.871  34.172  1.00  0.00     0.049 A 
ATOM     66  H   UNL A   1      41.141  29.168  32.736  1.00  0.00     0.167 HD
ATOM     67  C   UNL A   1      43.453  27.602  32.190  1.00  0.00     0.074 A 
ATOM     68  C   UNL A   1      44.407  26.759  31.500  1.00  0.00     0.031 C 
ATOM     69  C   UNL A   1      43.607  28.041  33.466  1.00  0.00     0.034 A 
BRANCH  56  70
ATOM     70  C   UNL A   1      38.945  31.604  35.498  1.00  0.00     0.023 A 
ATOM     71  C   UNL A   1      38.408  31.042  36.670  1.00  0.00     0.031 A 
ATOM     72  C   UNL A   1      38.904  33.003  35.366  1.00  0.00     0.131 A 
ATOM     73  C   UNL A   1      37.780  31.863  37.619  1.00  0.00     0.055 A 
ATOM     74  C   UNL A   1      38.355  33.823  36.354  1.00  0.00     0.041 A 
ATOM     75  F   UNL A   1      39.383  33.601  34.262  1.00  0.00    -0.206 F 
ATOM     76  C   UNL A   1      37.773  33.252  37.482  1.00  0.00     0.022 A 
BRANCH  73  77
ATOM     77  S   UNL A   1      36.837  31.076  38.954  1.00  0.00     0.124 S 
ATOM     78  O   UNL A   1      37.752  31.217  40.084  1.00  0.00    -0.237 OA
ATOM     79  O   UNL A   1      35.626  31.885  39.006  1.00  0.00    -0.237 OA
ATOM     80  O   UNL A   1      36.653  29.704  38.480  1.00  0.00    -0.744 OA
ENDBRANCH  73  77
ENDBRANCH  56  70
BRANCH  57  81
ATOM     81  C   UNL A   1      42.529  26.348  27.739  1.00  0.00     0.023 A 
ATOM     82  C   UNL A   1      42.361  24.961  27.610  1.00  0.00     0.031 A 
ATOM     83  C   UNL A   1      43.277  27.017  26.754  1.00  0.00     0.131 A 
ATOM     84  C   UNL A   1      42.970  24.279  26.543  1.00  0.00     0.055 A 
ATOM     85  C   UNL A   1      43.836  26.342  25.668  1.00  0.00     0.041 A 
ATOM     86  F   UNL A   1      43.464  28.344  26.827  1.00  0.00    -0.206 F 
ATOM     87  C   UNL A   1      43.696  24.962  25.565  1.00  0.00     0.022 A 
BRANCH  84  88
ATOM     88  S   UNL A   1      42.869  22.468  26.499  1.00  0.00     0.124 S 
ATOM     89  O   UNL A   1      44.254  22.098  26.236  1.00  0.00    -0.237 OA
ATOM     90  O   UNL A   1      42.364  22.162  27.834  1.00  0.00    -0.237 OA
ATOM     91  O   UNL A   1      41.933  22.207  25.408  1.00  0.00    -0.744 OA
ENDBRANCH  84  88
ENDBRANCH  57  81
BRANCH  69  92
ATOM     92  C   UNL A   1      44.836  27.572  34.206  1.00  0.00     0.023 A 
ATOM     93  C   UNL A   1      44.840  26.384  34.958  1.00  0.00     0.031 A 
ATOM     94  C   UNL A   1      46.017  28.335  34.167  1.00  0.00     0.131 A 
ATOM     95  C   UNL A   1      45.984  26.023  35.685  1.00  0.00     0.055 A 
ATOM     96  C   UNL A   1      47.171  27.938  34.843  1.00  0.00     0.041 A 
ATOM     97  F   UNL A   1      46.069  29.480  33.467  1.00  0.00    -0.206 F 
ATOM     98  C   UNL A   1      47.155  26.783  35.619  1.00  0.00     0.022 A 
BRANCH  95  99
ATOM     99  S   UNL A   1      45.893  24.592  36.796  1.00  0.00     0.124 S 
ATOM    100  O   UNL A   1      47.299  24.363  37.112  1.00  0.00    -0.237 OA
ATOM    101  O   UNL A   1      45.067  25.096  37.889  1.00  0.00    -0.237 OA
ATOM    102  O   UNL A   1      45.266  23.558  35.973  1.00  0.00    -0.744 OA
ENDBRANCH  95  99
ENDBRANCH  69  92
ENDBRANCH  43  44
ENDBRANCH  35  38
ENDBRANCH  33  34
ENDBRANCH  32  33
ENDBRANCH   1  32
TORSDOF 19
ENDMDL
