MODEL 1
REMARK VINA RESULT:     -10.8      0.000      0.000
REMARK SMILES CCCOC(=O)c1c(NC(=O)[C@@H]2CC=CC[C@H]2C(=O)NCCCCCCNC(=O)c2ccc(-c3c4nc(c(-c5cc(S(=O)(=O)[O-])ccc5F)c5ccc([nH]5)c(-c5cc(S(=O)(=O)[O-])ccc5F)c5nc(c(-c6cc(S(=O)(=O)[O-])ccc6F)c6ccc3[nH]6)C=C5)C=C4)cc2)sc2c1CCCC2
REMARK SMILES IDX 22 1 21 2 20 3 18 4 19 5 17 7 12 8 13 9 14 10 16 11 15 12
REMARK SMILES IDX 10 13 9 14 11 16 8 17 7 18 95 19 93 20 94 21 96 22 99 23
REMARK SMILES IDX 97 24 98 25 5 26 6 27 4 28 3 29 2 30 1 31 23 32 24 33 25 34
REMARK SMILES IDX 26 35 27 36 28 37 29 39 30 40 31 41 92 42 32 43 91 44 33 45
REMARK SMILES IDX 34 46 35 47 85 48 36 49 90 50 84 51 86 52 37 53 89 54 83 55
REMARK SMILES IDX 82 56 38 58 70 59 50 60 69 61 51 62 54 63 68 64 87 65 52 66
REMARK SMILES IDX 53 67 67 69 88 70 55 71 39 72 40 73 48 74 41 75 47 76 49 77
REMARK SMILES IDX 46 78 42 79 43 80 44 81 45 82 71 83 72 84 80 85 73 86 79 87
REMARK SMILES IDX 81 88 78 89 74 90 75 91 76 92 77 93 56 94 57 95 65 96 58 97
REMARK SMILES IDX 64 98 66 99 63 100 59 101 60 102 61 103 62 104
REMARK H PARENT 20 6 9 15 27 38 86 57 54 68
REMARK Flexibility Score: inf
ROOT
ATOM      1  C   UNL A   1      35.224  30.157  27.603  1.00  0.00     0.021 C 
ENDROOT
BRANCH   1   2
ATOM      2  C   UNL A   1      34.257  29.112  27.077  1.00  0.00     0.116 C 
BRANCH   2   3
ATOM      3  N   UNL A   1      33.264  29.644  26.172  1.00  0.00    -0.356 N 
ATOM      4  C   UNL A   1      32.534  29.039  25.193  1.00  0.00     0.224 C 
ATOM      5  O   UNL A   1      31.691  29.730  24.612  1.00  0.00    -0.275 OA
ATOM      6  H   UNL A   1      33.083  30.605  26.282  1.00  0.00     0.163 HD
BRANCH   4   7
ATOM      7  C   UNL A   1      32.689  27.552  24.834  1.00  0.00     0.095 C 
ATOM      8  C   UNL A   1      31.324  26.861  24.623  1.00  0.00     0.095 C 
ATOM      9  C   UNL A   1      30.941  26.400  23.215  1.00  0.00     0.041 C 
ATOM     10  C   UNL A   1      31.974  26.642  22.168  1.00  0.00    -0.030 C 
ATOM     11  C   UNL A   1      33.747  27.419  23.730  1.00  0.00     0.041 C 
ATOM     12  C   UNL A   1      33.220  27.068  22.383  1.00  0.00    -0.030 C 
BRANCH   8  13
ATOM     13  C   UNL A   1      31.025  25.742  25.611  1.00  0.00     0.229 C 
ATOM     14  N   UNL A   1      31.222  24.415  25.296  1.00  0.00    -0.317 N 
ATOM     15  H   UNL A   1      30.450  23.806  25.251  1.00  0.00     0.170 HD
ATOM     16  O   UNL A   1      30.499  26.001  26.700  1.00  0.00    -0.274 OA
BRANCH  14  17
ATOM     17  C   UNL A   1      32.491  23.931  25.043  1.00  0.00     0.110 A 
ATOM     18  C   UNL A   1      33.170  23.335  23.992  1.00  0.00     0.098 A 
ATOM     19  C   UNL A   1      34.600  23.274  24.356  1.00  0.00    -0.017 A 
ATOM     20  S   UNL A   1      33.423  24.037  26.481  1.00  0.00    -0.122 S 
ATOM     21  C   UNL A   1      34.844  23.662  25.657  1.00  0.00     0.011 A 
ATOM     22  C   UNL A   1      35.742  22.881  23.450  1.00  0.00     0.038 C 
ATOM     23  C   UNL A   1      36.182  23.713  26.329  1.00  0.00     0.047 C 
ATOM     24  C   UNL A   1      37.034  22.590  24.225  1.00  0.00     0.005 C 
ATOM     25  C   UNL A   1      37.310  23.653  25.292  1.00  0.00     0.006 C 
BRANCH  18  26
ATOM     26  C   UNL A   1      32.707  22.866  22.664  1.00  0.00     0.341 C 
ATOM     27  O   UNL A   1      33.174  23.364  21.642  1.00  0.00    -0.246 OA
BRANCH  26  28
ATOM     28  O   UNL A   1      31.812  21.809  22.605  1.00  0.00    -0.462 OA
BRANCH  28  29
ATOM     29  C   UNL A   1      32.508  20.543  22.778  1.00  0.00     0.233 C 
BRANCH  29  30
ATOM     30  C   UNL A   1      32.528  19.976  24.206  1.00  0.00     0.038 C 
ATOM     31  C   UNL A   1      33.831  19.291  24.622  1.00  0.00     0.007 C 
ENDBRANCH  29  30
ENDBRANCH  28  29
ENDBRANCH  26  28
ENDBRANCH  18  26
ENDBRANCH  14  17
ENDBRANCH   8  13
ENDBRANCH   4   7
ENDBRANCH   2   3
ENDBRANCH   1   2
BRANCH   1  32
ATOM     32  C   UNL A   1      34.544  31.455  28.018  1.00  0.00     0.002 C 
BRANCH  32  33
ATOM     33  C   UNL A   1      35.344  32.720  27.690  1.00  0.00     0.002 C 
BRANCH  33  34
ATOM     34  C   UNL A   1      34.539  34.023  27.701  1.00  0.00     0.021 C 
BRANCH  34  35
ATOM     35  C   UNL A   1      33.136  33.901  28.289  1.00  0.00     0.116 C 
BRANCH  35  36
ATOM     36  N   UNL A   1      32.903  34.878  29.340  1.00  0.00    -0.352 N 
ATOM     37  C   UNL A   1      33.461  34.960  30.593  1.00  0.00     0.251 C 
ATOM     38  H   UNL A   1      32.250  35.582  29.123  1.00  0.00     0.163 HD
ATOM     39  O   UNL A   1      33.002  35.726  31.423  1.00  0.00    -0.269 OA
BRANCH  37  40
ATOM     40  C   UNL A   1      34.609  34.093  30.915  1.00  0.00     0.039 A 
ATOM     41  C   UNL A   1      35.902  34.578  30.708  1.00  0.00     0.014 A 
ATOM     42  C   UNL A   1      34.401  32.814  31.440  1.00  0.00     0.014 A 
ATOM     43  C   UNL A   1      36.994  33.798  31.090  1.00  0.00     0.010 A 
ATOM     44  C   UNL A   1      35.487  32.066  31.875  1.00  0.00     0.010 A 
ATOM     45  C   UNL A   1      36.793  32.554  31.706  1.00  0.00    -0.014 A 
BRANCH  45  46
ATOM     46  C   UNL A   1      37.933  31.738  32.189  1.00  0.00     0.031 A 
ATOM     47  C   UNL A   1      38.597  32.082  33.491  1.00  0.00     0.074 A 
ATOM     48  C   UNL A   1      38.416  30.748  31.413  1.00  0.00     0.049 A 
ATOM     49  N   UNL A   1      39.677  31.578  34.029  1.00  0.00    -0.248 NA
ATOM     50  C   UNL A   1      37.977  33.160  34.278  1.00  0.00     0.031 C 
ATOM     51  C   UNL A   1      37.868  30.350  30.113  1.00  0.00     0.029 A 
ATOM     52  N   UNL A   1      39.487  29.910  31.591  1.00  0.00    -0.354 N 
ATOM     53  C   UNL A   1      39.877  32.286  35.208  1.00  0.00     0.074 A 
ATOM     54  C   UNL A   1      38.837  33.292  35.277  1.00  0.00     0.031 C 
ATOM     55  C   UNL A   1      38.600  29.339  29.619  1.00  0.00     0.029 A 
ATOM     56  C   UNL A   1      39.697  29.050  30.538  1.00  0.00     0.049 A 
ATOM     57  H   UNL A   1      40.053  29.923  32.397  1.00  0.00     0.167 HD
ATOM     58  C   UNL A   1      40.830  32.100  36.155  1.00  0.00     0.034 A 
ATOM     59  C   UNL A   1      40.675  28.147  30.329  1.00  0.00     0.034 A 
ATOM     60  C   UNL A   1      41.849  31.082  36.071  1.00  0.00     0.049 A 
ATOM     61  C   UNL A   1      41.747  27.985  31.375  1.00  0.00     0.074 A 
ATOM     62  C   UNL A   1      42.819  30.754  37.001  1.00  0.00     0.029 A 
ATOM     63  N   UNL A   1      42.035  30.232  34.987  1.00  0.00    -0.354 N 
ATOM     64  N   UNL A   1      41.894  28.626  32.512  1.00  0.00    -0.248 NA
ATOM     65  C   UNL A   1      42.783  26.978  31.113  1.00  0.00     0.031 C 
ATOM     66  C   UNL A   1      43.632  29.757  36.453  1.00  0.00     0.029 A 
ATOM     67  C   UNL A   1      43.127  29.410  35.209  1.00  0.00     0.049 A 
ATOM     68  H   UNL A   1      41.472  30.218  34.179  1.00  0.00     0.167 HD
ATOM     69  C   UNL A   1      43.026  28.083  33.109  1.00  0.00     0.074 A 
ATOM     70  C   UNL A   1      43.516  27.054  32.215  1.00  0.00     0.031 C 
ATOM     71  C   UNL A   1      43.609  28.402  34.293  1.00  0.00     0.034 A 
BRANCH  58  72
ATOM     72  C   UNL A   1      40.824  33.034  37.340  1.00  0.00     0.023 A 
ATOM     73  C   UNL A   1      40.159  32.708  38.535  1.00  0.00     0.031 A 
ATOM     74  C   UNL A   1      41.470  34.281  37.266  1.00  0.00     0.131 A 
ATOM     75  C   UNL A   1      40.087  33.645  39.575  1.00  0.00     0.055 A 
ATOM     76  C   UNL A   1      41.465  35.176  38.336  1.00  0.00     0.041 A 
ATOM     77  F   UNL A   1      42.107  34.656  36.145  1.00  0.00    -0.206 F 
ATOM     78  C   UNL A   1      40.757  34.869  39.494  1.00  0.00     0.022 A 
BRANCH  75  79
ATOM     79  S   UNL A   1      38.990  33.300  40.977  1.00  0.00     0.124 S 
ATOM     80  O   UNL A   1      39.840  32.453  41.813  1.00  0.00    -0.237 OA
ATOM     81  O   UNL A   1      38.711  34.634  41.496  1.00  0.00    -0.237 OA
ATOM     82  O   UNL A   1      37.854  32.618  40.364  1.00  0.00    -0.744 OA
ENDBRANCH  75  79
ENDBRANCH  58  72
BRANCH  59  83
ATOM     83  C   UNL A   1      40.707  27.348  29.072  1.00  0.00     0.023 A 
ATOM     84  C   UNL A   1      41.631  27.637  28.056  1.00  0.00     0.031 A 
ATOM     85  C   UNL A   1      39.789  26.305  28.852  1.00  0.00     0.131 A 
ATOM     86  C   UNL A   1      41.592  26.919  26.850  1.00  0.00     0.055 A 
ATOM     87  C   UNL A   1      39.786  25.561  27.671  1.00  0.00     0.041 A 
ATOM     88  F   UNL A   1      38.887  25.984  29.794  1.00  0.00    -0.206 F 
ATOM     89  C   UNL A   1      40.684  25.875  26.657  1.00  0.00     0.022 A 
BRANCH  86  90
ATOM     90  S   UNL A   1      42.697  27.423  25.503  1.00  0.00     0.124 S 
ATOM     91  O   UNL A   1      43.949  27.647  26.216  1.00  0.00    -0.237 OA
ATOM     92  O   UNL A   1      42.655  26.258  24.626  1.00  0.00    -0.237 OA
ATOM     93  O   UNL A   1      42.057  28.624  24.971  1.00  0.00    -0.744 OA
ENDBRANCH  86  90
ENDBRANCH  59  83
BRANCH  71  94
ATOM     94  C   UNL A   1      44.823  27.603  34.694  1.00  0.00     0.023 A 
ATOM     95  C   UNL A   1      44.710  26.425  35.452  1.00  0.00     0.031 A 
ATOM     96  C   UNL A   1      46.106  28.025  34.306  1.00  0.00     0.131 A 
ATOM     97  C   UNL A   1      45.866  25.729  35.834  1.00  0.00     0.055 A 
ATOM     98  C   UNL A   1      47.249  27.300  34.645  1.00  0.00     0.041 A 
ATOM     99  F   UNL A   1      46.269  29.145  33.584  1.00  0.00    -0.206 F 
ATOM    100  C   UNL A   1      47.133  26.150  35.421  1.00  0.00     0.022 A 
BRANCH  97 101
ATOM    101  S   UNL A   1      45.698  24.298  36.933  1.00  0.00     0.124 S 
ATOM    102  O   UNL A   1      45.153  23.286  36.033  1.00  0.00    -0.237 OA
ATOM    103  O   UNL A   1      47.070  24.080  37.380  1.00  0.00    -0.237 OA
ATOM    104  O   UNL A   1      44.778  24.766  37.968  1.00  0.00    -0.744 OA
ENDBRANCH  97 101
ENDBRANCH  71  94
ENDBRANCH  45  46
ENDBRANCH  37  40
ENDBRANCH  35  36
ENDBRANCH  34  35
ENDBRANCH  33  34
ENDBRANCH  32  33
ENDBRANCH   1  32
TORSDOF 22
ENDMDL
MODEL 2
REMARK VINA RESULT:     -10.7      1.817      2.369
REMARK SMILES CCCOC(=O)c1c(NC(=O)[C@@H]2CC=CC[C@H]2C(=O)NCCCCCCNC(=O)c2ccc(-c3c4nc(c(-c5cc(S(=O)(=O)[O-])ccc5F)c5ccc([nH]5)c(-c5cc(S(=O)(=O)[O-])ccc5F)c5nc(c(-c6cc(S(=O)(=O)[O-])ccc6F)c6ccc3[nH]6)C=C5)C=C4)cc2)sc2c1CCCC2
REMARK SMILES IDX 22 1 21 2 20 3 18 4 19 5 17 7 12 8 13 9 14 10 16 11 15 12
REMARK SMILES IDX 10 13 9 14 11 16 8 17 7 18 95 19 93 20 94 21 96 22 99 23
REMARK SMILES IDX 97 24 98 25 5 26 6 27 4 28 3 29 2 30 1 31 23 32 24 33 25 34
REMARK SMILES IDX 26 35 27 36 28 37 29 39 30 40 31 41 92 42 32 43 91 44 33 45
REMARK SMILES IDX 34 46 35 47 85 48 36 49 90 50 84 51 86 52 37 53 89 54 83 55
REMARK SMILES IDX 82 56 38 58 70 59 50 60 69 61 51 62 54 63 68 64 87 65 52 66
REMARK SMILES IDX 53 67 67 69 88 70 55 71 39 72 40 73 48 74 41 75 47 76 49 77
REMARK SMILES IDX 46 78 42 79 43 80 44 81 45 82 71 83 72 84 80 85 73 86 79 87
REMARK SMILES IDX 81 88 78 89 74 90 75 91 76 92 77 93 56 94 57 95 65 96 58 97
REMARK SMILES IDX 64 98 66 99 63 100 59 101 60 102 61 103 62 104
REMARK H PARENT 20 6 9 15 27 38 86 57 54 68
REMARK Flexibility Score: inf
ROOT
ATOM      1  C   UNL A   1      32.611  28.190  26.798  1.00  0.00     0.021 C 
ENDROOT
BRANCH   1   2
ATOM      2  C   UNL A   1      32.795  28.353  25.299  1.00  0.00     0.116 C 
BRANCH   2   3
ATOM      3  N   UNL A   1      31.670  27.882  24.523  1.00  0.00    -0.356 N 
ATOM      4  C   UNL A   1      31.295  26.621  24.170  1.00  0.00     0.224 C 
ATOM      5  O   UNL A   1      30.232  26.502  23.554  1.00  0.00    -0.275 OA
ATOM      6  H   UNL A   1      31.074  28.593  24.194  1.00  0.00     0.163 HD
BRANCH   4   7
ATOM      7  C   UNL A   1      32.107  25.372  24.551  1.00  0.00     0.095 C 
ATOM      8  C   UNL A   1      31.202  24.147  24.806  1.00  0.00     0.095 C 
ATOM      9  C   UNL A   1      31.255  22.975  23.823  1.00  0.00     0.041 C 
ATOM     10  C   UNL A   1      32.232  23.129  22.708  1.00  0.00    -0.030 C 
ATOM     11  C   UNL A   1      33.271  25.220  23.563  1.00  0.00     0.041 C 
ATOM     12  C   UNL A   1      33.140  24.099  22.593  1.00  0.00    -0.030 C 
BRANCH   8  13
ATOM     13  C   UNL A   1      31.258  23.605  26.227  1.00  0.00     0.229 C 
ATOM     14  N   UNL A   1      31.627  22.306  26.502  1.00  0.00    -0.317 N 
ATOM     15  H   UNL A   1      30.973  21.689  26.904  1.00  0.00     0.170 HD
ATOM     16  O   UNL A   1      30.876  24.305  27.173  1.00  0.00    -0.274 OA
BRANCH  14  17
ATOM     17  C   UNL A   1      32.903  21.860  26.220  1.00  0.00     0.110 A 
ATOM     18  C   UNL A   1      33.497  20.751  25.636  1.00  0.00     0.098 A 
ATOM     19  C   UNL A   1      34.933  21.044  25.469  1.00  0.00    -0.017 A 
ATOM     20  S   UNL A   1      34.038  22.977  26.863  1.00  0.00    -0.122 S 
ATOM     21  C   UNL A   1      35.317  22.230  26.061  1.00  0.00     0.011 A 
ATOM     22  C   UNL A   1      35.938  20.211  24.711  1.00  0.00     0.038 C 
ATOM     23  C   UNL A   1      36.698  22.809  26.069  1.00  0.00     0.047 C 
ATOM     24  C   UNL A   1      37.388  20.608  25.022  1.00  0.00     0.005 C 
ATOM     25  C   UNL A   1      37.576  22.127  25.012  1.00  0.00     0.006 C 
BRANCH  18  26
ATOM     26  C   UNL A   1      32.923  19.474  25.149  1.00  0.00     0.341 C 
ATOM     27  O   UNL A   1      32.459  18.667  25.951  1.00  0.00    -0.246 OA
BRANCH  26  28
ATOM     28  O   UNL A   1      32.847  19.255  23.783  1.00  0.00    -0.462 OA
BRANCH  28  29
ATOM     29  C   UNL A   1      32.811  17.828  23.499  1.00  0.00     0.233 C 
BRANCH  29  30
ATOM     30  C   UNL A   1      34.176  17.136  23.360  1.00  0.00     0.038 C 
ATOM     31  C   UNL A   1      34.530  16.154  24.480  1.00  0.00     0.007 C 
ENDBRANCH  29  30
ENDBRANCH  28  29
ENDBRANCH  26  28
ENDBRANCH  18  26
ENDBRANCH  14  17
ENDBRANCH   8  13
ENDBRANCH   4   7
ENDBRANCH   2   3
ENDBRANCH   1   2
BRANCH   1  32
ATOM     32  C   UNL A   1      32.880  29.468  27.582  1.00  0.00     0.002 C 
BRANCH  32  33
ATOM     33  C   UNL A   1      34.186  30.176  27.206  1.00  0.00     0.002 C 
BRANCH  33  34
ATOM     34  C   UNL A   1      34.152  31.704  27.306  1.00  0.00     0.021 C 
BRANCH  34  35
ATOM     35  C   UNL A   1      32.787  32.291  27.653  1.00  0.00     0.116 C 
BRANCH  35  36
ATOM     36  N   UNL A   1      32.832  33.740  27.764  1.00  0.00    -0.352 N 
ATOM     37  C   UNL A   1      33.586  34.527  28.599  1.00  0.00     0.251 C 
ATOM     38  H   UNL A   1      32.235  34.227  27.152  1.00  0.00     0.163 HD
ATOM     39  O   UNL A   1      33.352  35.719  28.701  1.00  0.00    -0.269 OA
BRANCH  37  40
ATOM     40  C   UNL A   1      34.668  33.897  29.380  1.00  0.00     0.039 A 
ATOM     41  C   UNL A   1      34.334  33.020  30.413  1.00  0.00     0.014 A 
ATOM     42  C   UNL A   1      36.006  34.160  29.069  1.00  0.00     0.014 A 
ATOM     43  C   UNL A   1      35.349  32.352  31.099  1.00  0.00     0.010 A 
ATOM     44  C   UNL A   1      37.011  33.450  29.712  1.00  0.00     0.010 A 
ATOM     45  C   UNL A   1      36.690  32.537  30.730  1.00  0.00    -0.014 A 
BRANCH  45  46
ATOM     46  C   UNL A   1      37.784  31.786  31.392  1.00  0.00     0.031 A 
ATOM     47  C   UNL A   1      38.256  32.203  32.755  1.00  0.00     0.074 A 
ATOM     48  C   UNL A   1      38.400  30.789  30.727  1.00  0.00     0.049 A 
ATOM     49  N   UNL A   1      39.272  31.763  33.450  1.00  0.00    -0.248 NA
ATOM     50  C   UNL A   1      37.500  33.283  33.408  1.00  0.00     0.031 C 
ATOM     51  C   UNL A   1      38.044  30.322  29.385  1.00  0.00     0.029 A 
ATOM     52  N   UNL A   1      39.467  30.002  31.079  1.00  0.00    -0.354 N 
ATOM     53  C   UNL A   1      39.288  32.521  34.615  1.00  0.00     0.074 A 
ATOM     54  C   UNL A   1      38.213  33.486  34.505  1.00  0.00     0.031 C 
ATOM     55  C   UNL A   1      38.871  29.324  29.033  1.00  0.00     0.029 A 
ATOM     56  C   UNL A   1      39.845  29.113  30.099  1.00  0.00     0.049 A 
ATOM     57  H   UNL A   1      39.919  30.067  31.951  1.00  0.00     0.167 HD
ATOM     58  C   UNL A   1      40.113  32.408  35.686  1.00  0.00     0.034 A 
ATOM     59  C   UNL A   1      40.874  28.244  30.058  1.00  0.00     0.034 A 
ATOM     60  C   UNL A   1      41.169  31.429  35.778  1.00  0.00     0.049 A 
ATOM     61  C   UNL A   1      41.802  28.163  31.242  1.00  0.00     0.074 A 
ATOM     62  C   UNL A   1      42.019  31.175  36.840  1.00  0.00     0.029 A 
ATOM     63  N   UNL A   1      41.528  30.550  34.764  1.00  0.00    -0.354 N 
ATOM     64  N   UNL A   1      41.774  28.851  32.360  1.00  0.00    -0.248 NA
ATOM     65  C   UNL A   1      42.898  27.190  31.160  1.00  0.00     0.031 C 
ATOM     66  C   UNL A   1      42.931  30.192  36.445  1.00  0.00     0.029 A 
ATOM     67  C   UNL A   1      42.609  29.781  35.161  1.00  0.00     0.049 A 
ATOM     68  H   UNL A   1      41.078  30.483  33.891  1.00  0.00     0.167 HD
ATOM     69  C   UNL A   1      42.835  28.376  33.124  1.00  0.00     0.074 A 
ATOM     70  C   UNL A   1      43.475  27.336  32.345  1.00  0.00     0.031 C 
ATOM     71  C   UNL A   1      43.244  28.761  34.360  1.00  0.00     0.034 A 
BRANCH  58  72
ATOM     72  C   UNL A   1      39.917  33.383  36.820  1.00  0.00     0.023 A 
ATOM     73  C   UNL A   1      40.769  34.487  37.000  1.00  0.00     0.031 A 
ATOM     74  C   UNL A   1      38.882  33.193  37.752  1.00  0.00     0.131 A 
ATOM     75  C   UNL A   1      40.620  35.312  38.125  1.00  0.00     0.055 A 
ATOM     76  C   UNL A   1      38.688  34.065  38.824  1.00  0.00     0.041 A 
ATOM     77  F   UNL A   1      38.048  32.146  37.644  1.00  0.00    -0.206 F 
ATOM     78  C   UNL A   1      39.569  35.123  39.026  1.00  0.00     0.022 A 
BRANCH  75  79
ATOM     79  S   UNL A   1      41.902  36.547  38.468  1.00  0.00     0.124 S 
ATOM     80  O   UNL A   1      42.487  36.740  37.143  1.00  0.00    -0.237 OA
ATOM     81  O   UNL A   1      41.129  37.667  38.994  1.00  0.00    -0.237 OA
ATOM     82  O   UNL A   1      42.772  35.880  39.434  1.00  0.00    -0.744 OA
ENDBRANCH  75  79
ENDBRANCH  58  72
BRANCH  59  83
ATOM     83  C   UNL A   1      41.101  27.402  28.850  1.00  0.00     0.023 A 
ATOM     84  C   UNL A   1      42.087  27.738  27.910  1.00  0.00     0.031 A 
ATOM     85  C   UNL A   1      40.309  26.266  28.599  1.00  0.00     0.131 A 
ATOM     86  C   UNL A   1      42.231  26.971  26.743  1.00  0.00     0.055 A 
ATOM     87  C   UNL A   1      40.489  25.478  27.460  1.00  0.00     0.041 A 
ATOM     88  F   UNL A   1      39.354  25.897  29.468  1.00  0.00    -0.206 F 
ATOM     89  C   UNL A   1      41.447  25.837  26.518  1.00  0.00     0.022 A 
BRANCH  86  90
ATOM     90  S   UNL A   1      43.409  27.526  25.480  1.00  0.00     0.124 S 
ATOM     91  O   UNL A   1      44.138  28.570  26.193  1.00  0.00    -0.237 OA
ATOM     92  O   UNL A   1      44.150  26.301  25.200  1.00  0.00    -0.237 OA
ATOM     93  O   UNL A   1      42.549  27.993  24.395  1.00  0.00    -0.744 OA
ENDBRANCH  86  90
ENDBRANCH  59  83
BRANCH  71  94
ATOM     94  C   UNL A   1      44.421  28.027  34.949  1.00  0.00     0.023 A 
ATOM     95  C   UNL A   1      44.253  26.847  35.695  1.00  0.00     0.031 A 
ATOM     96  C   UNL A   1      45.726  28.512  34.755  1.00  0.00     0.131 A 
ATOM     97  C   UNL A   1      45.371  26.213  36.257  1.00  0.00     0.055 A 
ATOM     98  C   UNL A   1      46.839  27.847  35.271  1.00  0.00     0.041 A 
ATOM     99  F   UNL A   1      45.940  29.635  34.051  1.00  0.00    -0.206 F 
ATOM    100  C   UNL A   1      46.664  26.696  36.035  1.00  0.00     0.022 A 
BRANCH  97 101
ATOM    101  S   UNL A   1      45.110  24.780  37.335  1.00  0.00     0.124 S 
ATOM    102  O   UNL A   1      44.168  25.307  38.318  1.00  0.00    -0.237 OA
ATOM    103  O   UNL A   1      44.576  23.784  36.412  1.00  0.00    -0.237 OA
ATOM    104  O   UNL A   1      46.446  24.490  37.851  1.00  0.00    -0.744 OA
ENDBRANCH  97 101
ENDBRANCH  71  94
ENDBRANCH  45  46
ENDBRANCH  37  40
ENDBRANCH  35  36
ENDBRANCH  34  35
ENDBRANCH  33  34
ENDBRANCH  32  33
ENDBRANCH   1  32
TORSDOF 22
ENDMDL
MODEL 3
REMARK VINA RESULT:     -10.6      1.606      7.652
REMARK SMILES CCCOC(=O)c1c(NC(=O)[C@@H]2CC=CC[C@H]2C(=O)NCCCCCCNC(=O)c2ccc(-c3c4nc(c(-c5cc(S(=O)(=O)[O-])ccc5F)c5ccc([nH]5)c(-c5cc(S(=O)(=O)[O-])ccc5F)c5nc(c(-c6cc(S(=O)(=O)[O-])ccc6F)c6ccc3[nH]6)C=C5)C=C4)cc2)sc2c1CCCC2
REMARK SMILES IDX 22 1 21 2 20 3 18 4 19 5 17 7 12 8 13 9 14 10 16 11 15 12
REMARK SMILES IDX 10 13 9 14 11 16 8 17 7 18 95 19 93 20 94 21 96 22 99 23
REMARK SMILES IDX 97 24 98 25 5 26 6 27 4 28 3 29 2 30 1 31 23 32 24 33 25 34
REMARK SMILES IDX 26 35 27 36 28 37 29 39 30 40 31 41 92 42 32 43 91 44 33 45
REMARK SMILES IDX 34 46 35 47 85 48 36 49 90 50 84 51 86 52 37 53 89 54 83 55
REMARK SMILES IDX 82 56 38 58 70 59 50 60 69 61 51 62 54 63 68 64 87 65 52 66
REMARK SMILES IDX 53 67 67 69 88 70 55 71 39 72 40 73 48 74 41 75 47 76 49 77
REMARK SMILES IDX 46 78 42 79 43 80 44 81 45 82 71 83 72 84 80 85 73 86 79 87
REMARK SMILES IDX 81 88 78 89 74 90 75 91 76 92 77 93 56 94 57 95 65 96 58 97
REMARK SMILES IDX 64 98 66 99 63 100 59 101 60 102 61 103 62 104
REMARK H PARENT 20 6 9 15 27 38 86 57 54 68
REMARK Flexibility Score: inf
ROOT
ATOM      1  C   UNL A   1      32.623  28.468  25.822  1.00  0.00     0.021 C 
ENDROOT
BRANCH   1   2
ATOM      2  C   UNL A   1      31.442  27.548  25.562  1.00  0.00     0.116 C 
BRANCH   2   3
ATOM      3  N   UNL A   1      31.216  27.277  24.161  1.00  0.00    -0.356 N 
ATOM      4  C   UNL A   1      31.552  26.202  23.395  1.00  0.00     0.224 C 
ATOM      5  O   UNL A   1      31.165  26.204  22.222  1.00  0.00    -0.275 OA
ATOM      6  H   UNL A   1      30.739  27.989  23.678  1.00  0.00     0.163 HD
BRANCH   4   7
ATOM      7  C   UNL A   1      32.333  24.996  23.945  1.00  0.00     0.095 C 
ATOM      8  C   UNL A   1      31.397  23.848  24.380  1.00  0.00     0.095 C 
ATOM      9  C   UNL A   1      31.404  22.547  23.574  1.00  0.00     0.041 C 
ATOM     10  C   UNL A   1      32.371  22.510  22.441  1.00  0.00    -0.030 C 
ATOM     11  C   UNL A   1      33.480  24.670  22.979  1.00  0.00     0.041 C 
ATOM     12  C   UNL A   1      33.305  23.426  22.181  1.00  0.00    -0.030 C 
BRANCH   8  13
ATOM     13  C   UNL A   1      31.455  23.514  25.864  1.00  0.00     0.229 C 
ATOM     14  N   UNL A   1      31.797  22.260  26.319  1.00  0.00    -0.317 N 
ATOM     15  H   UNL A   1      31.134  21.722  26.810  1.00  0.00     0.170 HD
ATOM     16  O   UNL A   1      31.096  24.350  26.701  1.00  0.00    -0.274 OA
BRANCH  14  17
ATOM     17  C   UNL A   1      33.061  21.749  26.095  1.00  0.00     0.110 A 
ATOM     18  C   UNL A   1      33.623  20.590  25.581  1.00  0.00     0.098 A 
ATOM     19  C   UNL A   1      35.075  20.816  25.443  1.00  0.00    -0.017 A 
ATOM     20  S   UNL A   1      34.224  22.847  26.720  1.00  0.00    -0.122 S 
ATOM     21  C   UNL A   1      35.491  22.012  25.991  1.00  0.00     0.011 A 
ATOM     22  C   UNL A   1      36.064  19.907  24.754  1.00  0.00     0.038 C 
ATOM     23  C   UNL A   1      36.896  22.533  26.014  1.00  0.00     0.047 C 
ATOM     24  C   UNL A   1      37.520  20.258  25.089  1.00  0.00     0.005 C 
ATOM     25  C   UNL A   1      37.773  21.767  25.015  1.00  0.00     0.006 C 
BRANCH  18  26
ATOM     26  C   UNL A   1      33.009  19.316  25.136  1.00  0.00     0.341 C 
ATOM     27  O   UNL A   1      32.485  18.570  25.960  1.00  0.00    -0.246 OA
BRANCH  26  28
ATOM     28  O   UNL A   1      32.966  19.034  23.780  1.00  0.00    -0.462 OA
BRANCH  28  29
ATOM     29  C   UNL A   1      32.816  17.603  23.563  1.00  0.00     0.233 C 
BRANCH  29  30
ATOM     30  C   UNL A   1      34.119  16.814  23.360  1.00  0.00     0.038 C 
ATOM     31  C   UNL A   1      34.801  16.334  24.643  1.00  0.00     0.007 C 
ENDBRANCH  29  30
ENDBRANCH  28  29
ENDBRANCH  26  28
ENDBRANCH  18  26
ENDBRANCH  14  17
ENDBRANCH   8  13
ENDBRANCH   4   7
ENDBRANCH   2   3
ENDBRANCH   1   2
BRANCH   1  32
ATOM     32  C   UNL A   1      32.388  29.444  26.968  1.00  0.00     0.002 C 
BRANCH  32  33
ATOM     33  C   UNL A   1      33.620  30.267  27.358  1.00  0.00     0.002 C 
BRANCH  33  34
ATOM     34  C   UNL A   1      33.322  31.594  28.062  1.00  0.00     0.021 C 
BRANCH  34  35
ATOM     35  C   UNL A   1      33.563  32.837  27.210  1.00  0.00     0.116 C 
BRANCH  35  36
ATOM     36  N   UNL A   1      32.965  34.023  27.801  1.00  0.00    -0.352 N 
ATOM     37  C   UNL A   1      33.241  34.633  29.001  1.00  0.00     0.251 C 
ATOM     38  H   UNL A   1      32.261  34.451  27.264  1.00  0.00     0.163 HD
ATOM     39  O   UNL A   1      32.505  35.503  29.433  1.00  0.00    -0.269 OA
BRANCH  37  40
ATOM     40  C   UNL A   1      34.431  34.201  29.757  1.00  0.00     0.039 A 
ATOM     41  C   UNL A   1      34.255  33.521  30.964  1.00  0.00     0.014 A 
ATOM     42  C   UNL A   1      35.713  34.449  29.256  1.00  0.00     0.014 A 
ATOM     43  C   UNL A   1      35.372  33.032  31.643  1.00  0.00     0.010 A 
ATOM     44  C   UNL A   1      36.818  33.909  29.902  1.00  0.00     0.010 A 
ATOM     45  C   UNL A   1      36.656  33.193  31.099  1.00  0.00    -0.014 A 
BRANCH  45  46
ATOM     46  C   UNL A   1      37.852  32.620  31.761  1.00  0.00     0.031 A 
ATOM     47  C   UNL A   1      38.603  31.499  31.102  1.00  0.00     0.074 A 
ATOM     48  C   UNL A   1      38.203  33.053  32.987  1.00  0.00     0.049 A 
ATOM     49  N   UNL A   1      39.592  30.780  31.564  1.00  0.00    -0.248 NA
ATOM     50  C   UNL A   1      38.158  31.118  29.752  1.00  0.00     0.031 C 
ATOM     51  C   UNL A   1      37.523  34.115  33.735  1.00  0.00     0.029 A 
ATOM     52  N   UNL A   1      39.204  32.643  33.831  1.00  0.00    -0.354 N 
ATOM     53  C   UNL A   1      39.879  29.851  30.571  1.00  0.00     0.074 A 
ATOM     54  C   UNL A   1      38.922  30.064  29.505  1.00  0.00     0.031 C 
ATOM     55  C   UNL A   1      38.134  34.278  34.920  1.00  0.00     0.029 A 
ATOM     56  C   UNL A   1      39.214  33.303  35.038  1.00  0.00     0.049 A 
ATOM     57  H   UNL A   1      39.854  31.943  33.595  1.00  0.00     0.167 HD
ATOM     58  C   UNL A   1      40.865  28.919  30.545  1.00  0.00     0.034 A 
ATOM     59  C   UNL A   1      39.991  33.125  36.125  1.00  0.00     0.034 A 
ATOM     60  C   UNL A   1      41.816  28.734  31.614  1.00  0.00     0.049 A 
ATOM     61  C   UNL A   1      41.053  32.057  36.089  1.00  0.00     0.074 A 
ATOM     62  C   UNL A   1      42.897  27.874  31.666  1.00  0.00     0.029 A 
ATOM     63  N   UNL A   1      41.792  29.416  32.824  1.00  0.00    -0.354 N 
ATOM     64  N   UNL A   1      41.348  31.220  35.121  1.00  0.00    -0.248 NA
ATOM     65  C   UNL A   1      41.887  31.911  37.288  1.00  0.00     0.031 C 
ATOM     66  C   UNL A   1      43.485  27.986  32.930  1.00  0.00     0.029 A 
ATOM     67  C   UNL A   1      42.814  28.967  33.644  1.00  0.00     0.049 A 
ATOM     68  H   UNL A   1      41.142  30.116  33.064  1.00  0.00     0.167 HD
ATOM     69  C   UNL A   1      42.417  30.463  35.588  1.00  0.00     0.074 A 
ATOM     70  C   UNL A   1      42.724  30.951  36.917  1.00  0.00     0.031 C 
ATOM     71  C   UNL A   1      43.090  29.456  34.974  1.00  0.00     0.034 A 
BRANCH  58  72
ATOM     72  C   UNL A   1      40.938  28.020  29.336  1.00  0.00     0.023 A 
ATOM     73  C   UNL A   1      41.918  28.195  28.343  1.00  0.00     0.031 A 
ATOM     74  C   UNL A   1      39.998  26.988  29.158  1.00  0.00     0.131 A 
ATOM     75  C   UNL A   1      41.890  27.406  27.183  1.00  0.00     0.055 A 
ATOM     76  C   UNL A   1      40.026  26.153  28.040  1.00  0.00     0.041 A 
ATOM     77  F   UNL A   1      39.028  26.785  30.063  1.00  0.00    -0.206 F 
ATOM     78  C   UNL A   1      40.965  26.370  27.036  1.00  0.00     0.022 A 
BRANCH  75  79
ATOM     79  S   UNL A   1      42.989  27.846  25.810  1.00  0.00     0.124 S 
ATOM     80  O   UNL A   1      44.181  27.060  26.125  1.00  0.00    -0.237 OA
ATOM     81  O   UNL A   1      42.228  27.413  24.644  1.00  0.00    -0.237 OA
ATOM     82  O   UNL A   1      43.150  29.291  25.950  1.00  0.00    -0.744 OA
ENDBRANCH  75  79
ENDBRANCH  58  72
BRANCH  59  83
ATOM     83  C   UNL A   1      39.780  33.953  37.346  1.00  0.00     0.023 A 
ATOM     84  C   UNL A   1      39.053  33.457  38.438  1.00  0.00     0.031 A 
ATOM     85  C   UNL A   1      40.274  35.268  37.424  1.00  0.00     0.131 A 
ATOM     86  C   UNL A   1      38.804  34.283  39.545  1.00  0.00     0.055 A 
ATOM     87  C   UNL A   1      40.067  36.068  38.549  1.00  0.00     0.041 A 
ATOM     88  F   UNL A   1      40.982  35.790  36.409  1.00  0.00    -0.206 F 
ATOM     89  C   UNL A   1      39.316  35.580  39.613  1.00  0.00     0.022 A 
BRANCH  86  90
ATOM     90  S   UNL A   1      37.729  33.660  40.868  1.00  0.00     0.124 S 
ATOM     91  O   UNL A   1      38.627  32.759  41.580  1.00  0.00    -0.237 OA
ATOM     92  O   UNL A   1      37.365  34.889  41.564  1.00  0.00    -0.237 OA
ATOM     93  O   UNL A   1      36.639  33.011  40.142  1.00  0.00    -0.744 OA
ENDBRANCH  86  90
ENDBRANCH  59  83
BRANCH  71  94
ATOM     94  C   UNL A   1      44.241  28.843  35.730  1.00  0.00     0.023 A 
ATOM     95  C   UNL A   1      44.080  27.674  36.493  1.00  0.00     0.031 A 
ATOM     96  C   UNL A   1      45.515  29.435  35.678  1.00  0.00     0.131 A 
ATOM     97  C   UNL A   1      45.169  27.155  37.210  1.00  0.00     0.055 A 
ATOM     98  C   UNL A   1      46.607  28.884  36.351  1.00  0.00     0.041 A 
ATOM     99  F   UNL A   1      45.722  30.553  34.964  1.00  0.00    -0.206 F 
ATOM    100  C   UNL A   1      46.434  27.743  37.130  1.00  0.00     0.022 A 
BRANCH  97 101
ATOM    101  S   UNL A   1      44.895  25.734  38.301  1.00  0.00     0.124 S 
ATOM    102  O   UNL A   1      45.986  24.843  37.920  1.00  0.00    -0.237 OA
ATOM    103  O   UNL A   1      44.994  26.332  39.629  1.00  0.00    -0.237 OA
ATOM    104  O   UNL A   1      43.559  25.271  37.932  1.00  0.00    -0.744 OA
ENDBRANCH  97 101
ENDBRANCH  71  94
ENDBRANCH  45  46
ENDBRANCH  37  40
ENDBRANCH  35  36
ENDBRANCH  34  35
ENDBRANCH  33  34
ENDBRANCH  32  33
ENDBRANCH   1  32
TORSDOF 22
ENDMDL
