MODEL 1
REMARK VINA RESULT:     -12.7      0.000      0.000
REMARK SMILES CN1C(=O)[C@@H]2CC=CC[C@]2(C(=O)NCCCCCCNC(=O)c2ccc(-c3c4nc(c(-c5cc(S(=O)(=O)[O-])ccc5F)c5ccc([nH]5)c(-c5cc(S(=O)(=O)[O-])ccc5F)c5nc(c(-c6cc(S(=O)(=O)[O-])ccc6F)c6ccc3[nH]6)C=C5)C=C4)cc2)[C@H]1c1ccccc1
REMARK SMILES IDX 17 1 16 2 15 3 14 4 13 5 11 6 12 7 10 9 1 10 2 11 3 12 86 13
REMARK SMILES IDX 4 14 5 15 6 16 9 17 7 18 8 19 87 20 88 21 92 22 89 23 91 24
REMARK SMILES IDX 90 25 18 26 19 27 20 28 21 29 22 31 23 32 24 33 85 34 25 35
REMARK SMILES IDX 84 36 26 37 27 38 28 39 78 40 29 41 83 42 77 43 79 44 30 45
REMARK SMILES IDX 82 46 76 47 75 48 31 50 63 51 43 52 62 53 44 54 47 55 61 56
REMARK SMILES IDX 80 57 45 58 46 59 60 61 81 62 48 63 32 64 33 65 41 66 34 67
REMARK SMILES IDX 40 68 42 69 39 70 35 71 36 72 37 73 38 74 64 75 65 76 73 77
REMARK SMILES IDX 66 78 72 79 74 80 71 81 67 82 68 83 69 84 70 85 49 86 50 87
REMARK SMILES IDX 58 88 51 89 57 90 59 91 56 92 52 93 53 94 54 95 55 96
REMARK H PARENT 13 8 20 30 79 49 47 60
REMARK Flexibility Score: inf
ROOT
ATOM      1  C   UNL A   1      31.567  30.275  26.528  1.00  0.00     0.002 C 
ENDROOT
BRANCH   1   2
ATOM      2  C   UNL A   1      31.815  29.635  25.156  1.00  0.00     0.002 C 
BRANCH   2   3
ATOM      3  C   UNL A   1      33.241  29.196  24.831  1.00  0.00     0.021 C 
BRANCH   3   4
ATOM      4  C   UNL A   1      33.566  27.711  24.952  1.00  0.00     0.116 C 
BRANCH   4   5
ATOM      5  N   UNL A   1      33.923  26.896  23.793  1.00  0.00    -0.356 N 
ATOM      6  C   UNL A   1      33.227  25.819  23.227  1.00  0.00     0.229 C 
ATOM      7  O   UNL A   1      33.442  25.549  22.043  1.00  0.00    -0.274 OA
ATOM      8  H   UNL A   1      34.769  27.135  23.350  1.00  0.00     0.163 HD
BRANCH   6   9
ATOM      9  C   UNL A   1      32.320  24.909  24.107  1.00  0.00     0.089 C 
ATOM     10  C   UNL A   1      32.556  21.555  25.797  1.00  0.00     0.147 C 
ATOM     11  N   UNL A   1      32.491  22.977  25.522  1.00  0.00    -0.337 N 
ATOM     12  C   UNL A   1      31.914  23.935  26.318  1.00  0.00     0.227 C 
ATOM     13  C   UNL A   1      33.051  23.528  24.324  1.00  0.00     0.131 C 
ATOM     14  O   UNL A   1      31.407  23.730  27.405  1.00  0.00    -0.275 OA
ATOM     15  C   UNL A   1      32.066  25.293  25.618  1.00  0.00     0.101 C 
ATOM     16  C   UNL A   1      30.903  26.197  26.029  1.00  0.00     0.041 C 
ATOM     17  C   UNL A   1      30.974  24.901  23.310  1.00  0.00     0.047 C 
ATOM     18  C   UNL A   1      29.861  26.407  24.995  1.00  0.00    -0.030 C 
ATOM     19  C   UNL A   1      29.891  25.829  23.793  1.00  0.00    -0.030 C 
BRANCH  13  20
ATOM     20  C   UNL A   1      34.589  23.581  24.418  1.00  0.00    -0.024 A 
ATOM     21  C   UNL A   1      35.433  23.091  23.407  1.00  0.00     0.006 A 
ATOM     22  C   UNL A   1      35.203  24.027  25.600  1.00  0.00     0.006 A 
ATOM     23  C   UNL A   1      36.792  22.870  23.634  1.00  0.00     0.000 A 
ATOM     24  C   UNL A   1      36.563  23.797  25.834  1.00  0.00     0.000 A 
ATOM     25  C   UNL A   1      37.350  23.185  24.863  1.00  0.00     0.000 A 
ENDBRANCH  13  20
ENDBRANCH   6   9
ENDBRANCH   4   5
ENDBRANCH   3   4
ENDBRANCH   2   3
ENDBRANCH   1   2
BRANCH   1  26
ATOM     26  C   UNL A   1      31.563  31.807  26.610  1.00  0.00     0.021 C 
BRANCH  26  27
ATOM     27  C   UNL A   1      32.821  32.459  27.182  1.00  0.00     0.116 C 
BRANCH  27  28
ATOM     28  N   UNL A   1      32.596  33.836  27.585  1.00  0.00    -0.352 N 
ATOM     29  C   UNL A   1      33.155  34.570  28.601  1.00  0.00     0.251 C 
ATOM     30  H   UNL A   1      31.935  34.321  27.041  1.00  0.00     0.163 HD
ATOM     31  O   UNL A   1      32.645  35.643  28.914  1.00  0.00    -0.269 OA
BRANCH  29  32
ATOM     32  C   UNL A   1      34.351  34.080  29.321  1.00  0.00     0.039 A 
ATOM     33  C   UNL A   1      34.178  33.302  30.471  1.00  0.00     0.014 A 
ATOM     34  C   UNL A   1      35.639  34.417  28.896  1.00  0.00     0.014 A 
ATOM     35  C   UNL A   1      35.292  32.811  31.154  1.00  0.00     0.010 A 
ATOM     36  C   UNL A   1      36.748  33.872  29.540  1.00  0.00     0.010 A 
ATOM     37  C   UNL A   1      36.587  33.060  30.672  1.00  0.00    -0.014 A 
BRANCH  37  38
ATOM     38  C   UNL A   1      37.785  32.472  31.330  1.00  0.00     0.031 A 
ATOM     39  C   UNL A   1      38.486  31.295  30.709  1.00  0.00     0.074 A 
ATOM     40  C   UNL A   1      38.198  32.962  32.516  1.00  0.00     0.049 A 
ATOM     41  N   UNL A   1      39.470  30.574  31.183  1.00  0.00    -0.248 NA
ATOM     42  C   UNL A   1      38.001  30.857  29.392  1.00  0.00     0.031 C 
ATOM     43  C   UNL A   1      37.589  34.093  33.221  1.00  0.00     0.029 A 
ATOM     44  N   UNL A   1      39.219  32.569  33.345  1.00  0.00    -0.354 N 
ATOM     45  C   UNL A   1      39.722  29.598  30.225  1.00  0.00     0.074 A 
ATOM     46  C   UNL A   1      38.745  29.783  29.173  1.00  0.00     0.031 C 
ATOM     47  C   UNL A   1      38.259  34.313  34.362  1.00  0.00     0.029 A 
ATOM     48  C   UNL A   1      39.306  33.306  34.505  1.00  0.00     0.049 A 
ATOM     49  H   UNL A   1      39.832  31.829  33.132  1.00  0.00     0.167 HD
ATOM     50  C   UNL A   1      40.692  28.651  30.215  1.00  0.00     0.034 A 
ATOM     51  C   UNL A   1      40.119  33.172  35.571  1.00  0.00     0.034 A 
ATOM     52  C   UNL A   1      41.659  28.481  31.273  1.00  0.00     0.049 A 
ATOM     53  C   UNL A   1      41.141  32.059  35.567  1.00  0.00     0.074 A 
ATOM     54  C   UNL A   1      42.701  27.572  31.350  1.00  0.00     0.029 A 
ATOM     55  N   UNL A   1      41.701  29.230  32.441  1.00  0.00    -0.354 N 
ATOM     56  N   UNL A   1      41.385  31.164  34.636  1.00  0.00    -0.248 NA
ATOM     57  C   UNL A   1      41.998  31.943  36.753  1.00  0.00     0.031 C 
ATOM     58  C   UNL A   1      43.323  27.722  32.593  1.00  0.00     0.029 A 
ATOM     59  C   UNL A   1      42.726  28.780  33.260  1.00  0.00     0.049 A 
ATOM     60  H   UNL A   1      41.091  29.972  32.658  1.00  0.00     0.167 HD
ATOM     61  C   UNL A   1      42.449  30.403  35.115  1.00  0.00     0.074 A 
ATOM     62  C   UNL A   1      42.811  30.959  36.402  1.00  0.00     0.031 C 
ATOM     63  C   UNL A   1      43.071  29.341  34.544  1.00  0.00     0.034 A 
BRANCH  50  64
ATOM     64  C   UNL A   1      40.742  27.713  29.033  1.00  0.00     0.023 A 
ATOM     65  C   UNL A   1      41.687  27.875  28.004  1.00  0.00     0.031 A 
ATOM     66  C   UNL A   1      39.838  26.641  28.930  1.00  0.00     0.131 A 
ATOM     67  C   UNL A   1      41.667  27.020  26.893  1.00  0.00     0.055 A 
ATOM     68  C   UNL A   1      39.875  25.745  27.860  1.00  0.00     0.041 A 
ATOM     69  F   UNL A   1      38.898  26.449  29.870  1.00  0.00    -0.206 F 
ATOM     70  C   UNL A   1      40.785  25.939  26.826  1.00  0.00     0.022 A 
BRANCH  67  71
ATOM     71  S   UNL A   1      42.723  27.420  25.474  1.00  0.00     0.124 S 
ATOM     72  O   UNL A   1      42.026  28.571  24.904  1.00  0.00    -0.237 OA
ATOM     73  O   UNL A   1      44.007  27.700  26.105  1.00  0.00    -0.237 OA
ATOM     74  O   UNL A   1      42.678  26.207  24.659  1.00  0.00    -0.744 OA
ENDBRANCH  67  71
ENDBRANCH  50  64
BRANCH  51  75
ATOM     75  C   UNL A   1      39.997  34.082  36.748  1.00  0.00     0.023 A 
ATOM     76  C   UNL A   1      39.459  33.621  37.960  1.00  0.00     0.031 A 
ATOM     77  C   UNL A   1      40.340  35.443  36.657  1.00  0.00     0.131 A 
ATOM     78  C   UNL A   1      39.215  34.525  39.006  1.00  0.00     0.055 A 
ATOM     79  C   UNL A   1      40.160  36.324  37.725  1.00  0.00     0.041 A 
ATOM     80  F   UNL A   1      40.857  35.940  35.522  1.00  0.00    -0.206 F 
ATOM     81  C   UNL A   1      39.575  35.869  38.903  1.00  0.00     0.022 A 
BRANCH  78  82
ATOM     82  S   UNL A   1      38.293  33.939  40.455  1.00  0.00     0.124 S 
ATOM     83  O   UNL A   1      38.015  35.189  41.153  1.00  0.00    -0.237 OA
ATOM     84  O   UNL A   1      37.149  33.279  39.838  1.00  0.00    -0.237 OA
ATOM     85  O   UNL A   1      39.242  33.049  41.122  1.00  0.00    -0.744 OA
ENDBRANCH  78  82
ENDBRANCH  51  75
BRANCH  63  86
ATOM     86  C   UNL A   1      44.237  28.743  35.295  1.00  0.00     0.023 A 
ATOM     87  C   UNL A   1      44.055  27.760  36.283  1.00  0.00     0.031 A 
ATOM     88  C   UNL A   1      45.548  29.175  35.027  1.00  0.00     0.131 A 
ATOM     89  C   UNL A   1      45.157  27.286  37.009  1.00  0.00     0.055 A 
ATOM     90  C   UNL A   1      46.648  28.649  35.704  1.00  0.00     0.041 A 
ATOM     91  F   UNL A   1      45.783  30.115  34.096  1.00  0.00    -0.206 F 
ATOM     92  C   UNL A   1      46.456  27.709  36.712  1.00  0.00     0.022 A 
BRANCH  89  93
ATOM     93  S   UNL A   1      44.861  26.182  38.417  1.00  0.00     0.124 S 
ATOM     94  O   UNL A   1      43.487  26.515  38.780  1.00  0.00    -0.237 OA
ATOM     95  O   UNL A   1      45.062  24.862  37.826  1.00  0.00    -0.237 OA
ATOM     96  O   UNL A   1      45.876  26.585  39.389  1.00  0.00    -0.744 OA
ENDBRANCH  89  93
ENDBRANCH  63  86
ENDBRANCH  37  38
ENDBRANCH  29  32
ENDBRANCH  27  28
ENDBRANCH  26  27
ENDBRANCH   1  26
TORSDOF 17
ENDMDL
MODEL 2
REMARK VINA RESULT:     -12.5      5.481     11.329
REMARK SMILES CN1C(=O)[C@@H]2CC=CC[C@]2(C(=O)NCCCCCCNC(=O)c2ccc(-c3c4nc(c(-c5cc(S(=O)(=O)[O-])ccc5F)c5ccc([nH]5)c(-c5cc(S(=O)(=O)[O-])ccc5F)c5nc(c(-c6cc(S(=O)(=O)[O-])ccc6F)c6ccc3[nH]6)C=C5)C=C4)cc2)[C@H]1c1ccccc1
REMARK SMILES IDX 17 1 16 2 15 3 14 4 13 5 11 6 12 7 10 9 1 10 2 11 3 12 86 13
REMARK SMILES IDX 4 14 5 15 6 16 9 17 7 18 8 19 87 20 88 21 92 22 89 23 91 24
REMARK SMILES IDX 90 25 18 26 19 27 20 28 21 29 22 31 23 32 24 33 85 34 25 35
REMARK SMILES IDX 84 36 26 37 27 38 28 39 78 40 29 41 83 42 77 43 79 44 30 45
REMARK SMILES IDX 82 46 76 47 75 48 31 50 63 51 43 52 62 53 44 54 47 55 61 56
REMARK SMILES IDX 80 57 45 58 46 59 60 61 81 62 48 63 32 64 33 65 41 66 34 67
REMARK SMILES IDX 40 68 42 69 39 70 35 71 36 72 37 73 38 74 64 75 65 76 73 77
REMARK SMILES IDX 66 78 72 79 74 80 71 81 67 82 68 83 69 84 70 85 49 86 50 87
REMARK SMILES IDX 58 88 51 89 57 90 59 91 56 92 52 93 53 94 54 95 55 96
REMARK H PARENT 13 8 20 30 79 49 47 60
REMARK Flexibility Score: inf
ROOT
ATOM      1  C   UNL A   1      36.675  21.024  24.611  1.00  0.00     0.002 C 
ENDROOT
BRANCH   1   2
ATOM      2  C   UNL A   1      35.465  21.085  25.552  1.00  0.00     0.002 C 
BRANCH   2   3
ATOM      3  C   UNL A   1      35.409  22.236  26.554  1.00  0.00     0.021 C 
BRANCH   3   4
ATOM      4  C   UNL A   1      34.709  23.517  26.118  1.00  0.00     0.116 C 
BRANCH   4   5
ATOM      5  N   UNL A   1      33.442  23.951  26.705  1.00  0.00    -0.356 N 
ATOM      6  C   UNL A   1      32.207  24.160  26.076  1.00  0.00     0.229 C 
ATOM      7  O   UNL A   1      31.188  24.096  26.766  1.00  0.00    -0.274 OA
ATOM      8  H   UNL A   1      33.459  24.119  27.674  1.00  0.00     0.163 HD
BRANCH   6   9
ATOM      9  C   UNL A   1      32.141  24.599  24.582  1.00  0.00     0.089 C 
ATOM     10  C   UNL A   1      31.700  27.795  22.644  1.00  0.00     0.147 C 
ATOM     11  N   UNL A   1      32.244  26.599  23.259  1.00  0.00    -0.337 N 
ATOM     12  C   UNL A   1      33.229  25.795  22.742  1.00  0.00     0.227 C 
ATOM     13  C   UNL A   1      31.765  26.130  24.524  1.00  0.00     0.131 C 
ATOM     14  O   UNL A   1      33.826  25.999  21.702  1.00  0.00    -0.275 OA
ATOM     15  C   UNL A   1      33.467  24.639  23.725  1.00  0.00     0.101 C 
ATOM     16  C   UNL A   1      33.952  23.416  22.946  1.00  0.00     0.041 C 
ATOM     17  C   UNL A   1      31.125  23.578  23.974  1.00  0.00     0.047 C 
ATOM     18  C   UNL A   1      32.956  22.331  22.775  1.00  0.00    -0.030 C 
ATOM     19  C   UNL A   1      31.703  22.405  23.226  1.00  0.00    -0.030 C 
BRANCH  13  20
ATOM     20  C   UNL A   1      32.307  27.007  25.669  1.00  0.00    -0.024 A 
ATOM     21  C   UNL A   1      31.481  27.574  26.655  1.00  0.00     0.006 A 
ATOM     22  C   UNL A   1      33.665  27.368  25.692  1.00  0.00     0.006 A 
ATOM     23  C   UNL A   1      31.936  28.595  27.490  1.00  0.00     0.000 A 
ATOM     24  C   UNL A   1      34.121  28.399  26.521  1.00  0.00     0.000 A 
ATOM     25  C   UNL A   1      33.247  29.037  27.395  1.00  0.00     0.000 A 
ENDBRANCH  13  20
ENDBRANCH   6   9
ENDBRANCH   4   5
ENDBRANCH   3   4
ENDBRANCH   2   3
ENDBRANCH   1   2
BRANCH   1  26
ATOM     26  C   UNL A   1      37.767  19.990  24.920  1.00  0.00     0.021 C 
BRANCH  26  27
ATOM     27  C   UNL A   1      38.968  20.491  25.721  1.00  0.00     0.116 C 
BRANCH  27  28
ATOM     28  N   UNL A   1      39.981  19.465  25.899  1.00  0.00    -0.352 N 
ATOM     29  C   UNL A   1      41.335  19.573  26.086  1.00  0.00     0.251 C 
ATOM     30  H   UNL A   1      39.638  18.542  25.883  1.00  0.00     0.163 HD
ATOM     31  O   UNL A   1      42.036  18.570  25.975  1.00  0.00    -0.269 OA
BRANCH  29  32
ATOM     32  C   UNL A   1      41.954  20.877  26.410  1.00  0.00     0.039 A 
ATOM     33  C   UNL A   1      42.280  21.749  25.366  1.00  0.00     0.014 A 
ATOM     34  C   UNL A   1      42.254  21.227  27.729  1.00  0.00     0.014 A 
ATOM     35  C   UNL A   1      42.846  22.995  25.650  1.00  0.00     0.010 A 
ATOM     36  C   UNL A   1      42.758  22.494  28.015  1.00  0.00     0.010 A 
ATOM     37  C   UNL A   1      43.054  23.394  26.979  1.00  0.00    -0.014 A 
BRANCH  37  38
ATOM     38  C   UNL A   1      43.569  24.749  27.310  1.00  0.00     0.031 A 
ATOM     39  C   UNL A   1      42.629  25.817  27.797  1.00  0.00     0.074 A 
ATOM     40  C   UNL A   1      44.872  25.030  27.110  1.00  0.00     0.049 A 
ATOM     41  N   UNL A   1      42.862  27.084  28.027  1.00  0.00    -0.248 NA
ATOM     42  C   UNL A   1      41.235  25.411  28.035  1.00  0.00     0.031 C 
ATOM     43  C   UNL A   1      45.877  24.079  26.629  1.00  0.00     0.029 A 
ATOM     44  N   UNL A   1      45.576  26.197  27.275  1.00  0.00    -0.354 N 
ATOM     45  C   UNL A   1      41.649  27.627  28.436  1.00  0.00     0.074 A 
ATOM     46  C   UNL A   1      40.669  26.563  28.361  1.00  0.00     0.031 C 
ATOM     47  C   UNL A   1      47.067  24.694  26.558  1.00  0.00     0.029 A 
ATOM     48  C   UNL A   1      46.905  26.096  26.928  1.00  0.00     0.049 A 
ATOM     49  H   UNL A   1      45.170  27.029  27.611  1.00  0.00     0.167 HD
ATOM     50  C   UNL A   1      41.383  28.889  28.855  1.00  0.00     0.034 A 
ATOM     51  C   UNL A   1      47.875  27.031  26.888  1.00  0.00     0.034 A 
ATOM     52  C   UNL A   1      42.373  29.936  28.923  1.00  0.00     0.049 A 
ATOM     53  C   UNL A   1      47.532  28.448  27.288  1.00  0.00     0.074 A 
ATOM     54  C   UNL A   1      42.217  31.242  29.360  1.00  0.00     0.029 A 
ATOM     55  N   UNL A   1      43.701  29.804  28.541  1.00  0.00    -0.354 N 
ATOM     56  N   UNL A   1      46.385  28.935  27.702  1.00  0.00    -0.248 NA
ATOM     57  C   UNL A   1      48.617  29.436  27.219  1.00  0.00     0.031 C 
ATOM     58  C   UNL A   1      43.428  31.915  29.171  1.00  0.00     0.029 A 
ATOM     59  C   UNL A   1      44.365  31.011  28.696  1.00  0.00     0.049 A 
ATOM     60  H   UNL A   1      44.112  28.973  28.206  1.00  0.00     0.167 HD
ATOM     61  C   UNL A   1      46.623  30.280  27.975  1.00  0.00     0.074 A 
ATOM     62  C   UNL A   1      48.025  30.517  27.701  1.00  0.00     0.031 C 
ATOM     63  C   UNL A   1      45.763  31.234  28.413  1.00  0.00     0.034 A 
BRANCH  50  64
ATOM     64  C   UNL A   1      39.962  29.210  29.251  1.00  0.00     0.023 A 
ATOM     65  C   UNL A   1      39.571  29.275  30.600  1.00  0.00     0.031 A 
ATOM     66  C   UNL A   1      38.984  29.456  28.272  1.00  0.00     0.131 A 
ATOM     67  C   UNL A   1      38.230  29.519  30.930  1.00  0.00     0.055 A 
ATOM     68  C   UNL A   1      37.668  29.777  28.609  1.00  0.00     0.041 A 
ATOM     69  F   UNL A   1      39.291  29.385  26.966  1.00  0.00    -0.206 F 
ATOM     70  C   UNL A   1      37.281  29.798  29.945  1.00  0.00     0.022 A 
BRANCH  67  71
ATOM     71  S   UNL A   1      37.718  29.336  32.660  1.00  0.00     0.124 S 
ATOM     72  O   UNL A   1      37.716  27.883  32.814  1.00  0.00    -0.237 OA
ATOM     73  O   UNL A   1      38.767  30.052  33.377  1.00  0.00    -0.237 OA
ATOM     74  O   UNL A   1      36.398  29.962  32.695  1.00  0.00    -0.744 OA
ENDBRANCH  67  71
ENDBRANCH  50  64
BRANCH  51  75
ATOM     75  C   UNL A   1      49.254  26.688  26.432  1.00  0.00     0.023 A 
ATOM     76  C   UNL A   1      49.743  27.161  25.204  1.00  0.00     0.031 A 
ATOM     77  C   UNL A   1      50.073  25.816  27.173  1.00  0.00     0.131 A 
ATOM     78  C   UNL A   1      50.982  26.708  24.722  1.00  0.00     0.055 A 
ATOM     79  C   UNL A   1      51.334  25.424  26.722  1.00  0.00     0.041 A 
ATOM     80  F   UNL A   1      49.656  25.331  28.354  1.00  0.00    -0.206 F 
ATOM     81  C   UNL A   1      51.787  25.856  25.479  1.00  0.00     0.022 A 
BRANCH  78  82
ATOM     82  S   UNL A   1      51.461  27.147  23.028  1.00  0.00     0.124 S 
ATOM     83  O   UNL A   1      50.286  26.730  22.272  1.00  0.00    -0.237 OA
ATOM     84  O   UNL A   1      51.677  28.584  23.139  1.00  0.00    -0.237 OA
ATOM     85  O   UNL A   1      52.666  26.351  22.801  1.00  0.00    -0.744 OA
ENDBRANCH  78  82
ENDBRANCH  51  75
BRANCH  63  86
ATOM     86  C   UNL A   1      46.333  32.610  28.663  1.00  0.00     0.023 A 
ATOM     87  C   UNL A   1      46.347  33.597  27.664  1.00  0.00     0.031 A 
ATOM     88  C   UNL A   1      46.883  32.931  29.917  1.00  0.00     0.131 A 
ATOM     89  C   UNL A   1      46.953  34.838  27.914  1.00  0.00     0.055 A 
ATOM     90  C   UNL A   1      47.421  34.190  30.183  1.00  0.00     0.041 A 
ATOM     91  F   UNL A   1      46.900  32.026  30.909  1.00  0.00    -0.206 F 
ATOM     92  C   UNL A   1      47.473  35.147  29.174  1.00  0.00     0.022 A 
BRANCH  89  93
ATOM     93  S   UNL A   1      47.144  36.005  26.540  1.00  0.00     0.124 S 
ATOM     94  O   UNL A   1      47.341  35.109  25.405  1.00  0.00    -0.237 OA
ATOM     95  O   UNL A   1      45.877  36.730  26.568  1.00  0.00    -0.237 OA
ATOM     96  O   UNL A   1      48.316  36.793  26.920  1.00  0.00    -0.744 OA
ENDBRANCH  89  93
ENDBRANCH  63  86
ENDBRANCH  37  38
ENDBRANCH  29  32
ENDBRANCH  27  28
ENDBRANCH  26  27
ENDBRANCH   1  26
TORSDOF 17
ENDMDL
MODEL 3
REMARK VINA RESULT:     -12.4      1.787      7.662
REMARK SMILES CN1C(=O)[C@@H]2CC=CC[C@]2(C(=O)NCCCCCCNC(=O)c2ccc(-c3c4nc(c(-c5cc(S(=O)(=O)[O-])ccc5F)c5ccc([nH]5)c(-c5cc(S(=O)(=O)[O-])ccc5F)c5nc(c(-c6cc(S(=O)(=O)[O-])ccc6F)c6ccc3[nH]6)C=C5)C=C4)cc2)[C@H]1c1ccccc1
REMARK SMILES IDX 17 1 16 2 15 3 14 4 13 5 11 6 12 7 10 9 1 10 2 11 3 12 86 13
REMARK SMILES IDX 4 14 5 15 6 16 9 17 7 18 8 19 87 20 88 21 92 22 89 23 91 24
REMARK SMILES IDX 90 25 18 26 19 27 20 28 21 29 22 31 23 32 24 33 85 34 25 35
REMARK SMILES IDX 84 36 26 37 27 38 28 39 78 40 29 41 83 42 77 43 79 44 30 45
REMARK SMILES IDX 82 46 76 47 75 48 31 50 63 51 43 52 62 53 44 54 47 55 61 56
REMARK SMILES IDX 80 57 45 58 46 59 60 61 81 62 48 63 32 64 33 65 41 66 34 67
REMARK SMILES IDX 40 68 42 69 39 70 35 71 36 72 37 73 38 74 64 75 65 76 73 77
REMARK SMILES IDX 66 78 72 79 74 80 71 81 67 82 68 83 69 84 70 85 49 86 50 87
REMARK SMILES IDX 58 88 51 89 57 90 59 91 56 92 52 93 53 94 54 95 55 96
REMARK H PARENT 13 8 20 30 79 49 47 60
REMARK Flexibility Score: inf
ROOT
ATOM      1  C   UNL A   1      30.984  30.891  25.383  1.00  0.00     0.002 C 
ENDROOT
BRANCH   1   2
ATOM      2  C   UNL A   1      32.001  29.799  25.739  1.00  0.00     0.002 C 
BRANCH   2   3
ATOM      3  C   UNL A   1      32.805  29.185  24.595  1.00  0.00     0.021 C 
BRANCH   3   4
ATOM      4  C   UNL A   1      33.470  27.836  24.845  1.00  0.00     0.116 C 
BRANCH   4   5
ATOM      5  N   UNL A   1      33.933  26.982  23.753  1.00  0.00    -0.356 N 
ATOM      6  C   UNL A   1      33.299  25.875  23.174  1.00  0.00     0.229 C 
ATOM      7  O   UNL A   1      33.615  25.562  22.024  1.00  0.00    -0.274 OA
ATOM      8  H   UNL A   1      34.810  27.216  23.374  1.00  0.00     0.163 HD
BRANCH   6   9
ATOM      9  C   UNL A   1      32.330  24.986  24.010  1.00  0.00     0.089 C 
ATOM     10  C   UNL A   1      32.400  21.616  25.685  1.00  0.00     0.147 C 
ATOM     11  N   UNL A   1      32.388  23.042  25.417  1.00  0.00    -0.337 N 
ATOM     12  C   UNL A   1      31.807  24.011  26.196  1.00  0.00     0.227 C 
ATOM     13  C   UNL A   1      33.012  23.583  24.247  1.00  0.00     0.131 C 
ATOM     14  O   UNL A   1      31.251  23.815  27.260  1.00  0.00    -0.275 OA
ATOM     15  C   UNL A   1      32.026  25.369  25.512  1.00  0.00     0.101 C 
ATOM     16  C   UNL A   1      30.874  26.303  25.881  1.00  0.00     0.041 C 
ATOM     17  C   UNL A   1      31.019  25.021  23.159  1.00  0.00     0.047 C 
ATOM     18  C   UNL A   1      29.882  26.550  24.808  1.00  0.00    -0.030 C 
ATOM     19  C   UNL A   1      29.944  25.978  23.604  1.00  0.00    -0.030 C 
BRANCH  13  20
ATOM     20  C   UNL A   1      34.545  23.591  24.403  1.00  0.00    -0.024 A 
ATOM     21  C   UNL A   1      35.411  22.985  23.477  1.00  0.00     0.006 A 
ATOM     22  C   UNL A   1      35.128  24.118  25.568  1.00  0.00     0.006 A 
ATOM     23  C   UNL A   1      36.751  22.737  23.782  1.00  0.00     0.000 A 
ATOM     24  C   UNL A   1      36.468  23.863  25.881  1.00  0.00     0.000 A 
ATOM     25  C   UNL A   1      37.269  23.141  25.003  1.00  0.00     0.000 A 
ENDBRANCH  13  20
ENDBRANCH   6   9
ENDBRANCH   4   5
ENDBRANCH   3   4
ENDBRANCH   2   3
ENDBRANCH   1   2
BRANCH   1  26
ATOM     26  C   UNL A   1      31.026  32.195  26.191  1.00  0.00     0.021 C 
BRANCH  26  27
ATOM     27  C   UNL A   1      32.202  32.358  27.154  1.00  0.00     0.116 C 
BRANCH  27  28
ATOM     28  N   UNL A   1      32.546  33.752  27.375  1.00  0.00    -0.352 N 
ATOM     29  C   UNL A   1      33.529  34.315  28.147  1.00  0.00     0.251 C 
ATOM     30  H   UNL A   1      31.980  34.397  26.892  1.00  0.00     0.163 HD
ATOM     31  O   UNL A   1      33.491  35.521  28.379  1.00  0.00    -0.269 OA
BRANCH  29  32
ATOM     32  C   UNL A   1      34.623  33.488  28.704  1.00  0.00     0.039 A 
ATOM     33  C   UNL A   1      35.946  33.897  28.514  1.00  0.00     0.014 A 
ATOM     34  C   UNL A   1      34.353  32.291  29.374  1.00  0.00     0.014 A 
ATOM     35  C   UNL A   1      36.993  33.143  29.050  1.00  0.00     0.010 A 
ATOM     36  C   UNL A   1      35.393  31.575  29.963  1.00  0.00     0.010 A 
ATOM     37  C   UNL A   1      36.723  31.996  29.812  1.00  0.00    -0.014 A 
BRANCH  37  38
ATOM     38  C   UNL A   1      37.814  31.227  30.469  1.00  0.00     0.031 A 
ATOM     39  C   UNL A   1      38.153  31.480  31.913  1.00  0.00     0.074 A 
ATOM     40  C   UNL A   1      38.537  30.351  29.744  1.00  0.00     0.049 A 
ATOM     41  N   UNL A   1      39.137  30.999  32.629  1.00  0.00    -0.248 NA
ATOM     42  C   UNL A   1      37.282  32.415  32.641  1.00  0.00     0.031 C 
ATOM     43  C   UNL A   1      38.310  30.032  28.332  1.00  0.00     0.029 A 
ATOM     44  N   UNL A   1      39.615  29.573  30.088  1.00  0.00    -0.354 N 
ATOM     45  C   UNL A   1      39.005  31.571  33.890  1.00  0.00     0.074 A 
ATOM     46  C   UNL A   1      37.883  32.482  33.820  1.00  0.00     0.031 C 
ATOM     47  C   UNL A   1      39.206  29.114  27.939  1.00  0.00     0.029 A 
ATOM     48  C   UNL A   1      40.110  28.821  29.045  1.00  0.00     0.049 A 
ATOM     49  H   UNL A   1      40.000  29.555  30.994  1.00  0.00     0.167 HD
ATOM     50  C   UNL A   1      39.740  31.340  35.006  1.00  0.00     0.034 A 
ATOM     51  C   UNL A   1      41.183  28.008  28.983  1.00  0.00     0.034 A 
ATOM     52  C   UNL A   1      40.856  30.427  35.057  1.00  0.00     0.049 A 
ATOM     53  C   UNL A   1      42.029  27.827  30.221  1.00  0.00     0.074 A 
ATOM     54  C   UNL A   1      41.651  30.097  36.142  1.00  0.00     0.029 A 
ATOM     55  N   UNL A   1      41.343  29.702  33.977  1.00  0.00    -0.354 N 
ATOM     56  N   UNL A   1      41.870  28.354  31.415  1.00  0.00    -0.248 NA
ATOM     57  C   UNL A   1      43.194  26.941  30.105  1.00  0.00     0.031 C 
ATOM     58  C   UNL A   1      42.659  29.233  35.703  1.00  0.00     0.029 A 
ATOM     59  C   UNL A   1      42.446  28.955  34.362  1.00  0.00     0.049 A 
ATOM     60  H   UNL A   1      40.960  29.716  33.069  1.00  0.00     0.167 HD
ATOM     61  C   UNL A   1      42.897  27.831  32.197  1.00  0.00     0.074 A 
ATOM     62  C   UNL A   1      43.651  26.934  31.347  1.00  0.00     0.031 C 
ATOM     63  C   UNL A   1      43.192  28.069  33.500  1.00  0.00     0.034 A 
BRANCH  50  64
ATOM     64  C   UNL A   1      39.372  32.102  36.256  1.00  0.00     0.023 A 
ATOM     65  C   UNL A   1      38.419  31.609  37.164  1.00  0.00     0.031 A 
ATOM     66  C   UNL A   1      39.980  33.336  36.547  1.00  0.00     0.131 A 
ATOM     67  C   UNL A   1      38.059  32.371  38.286  1.00  0.00     0.055 A 
ATOM     68  C   UNL A   1      39.676  34.052  37.706  1.00  0.00     0.041 A 
ATOM     69  F   UNL A   1      40.881  33.869  35.706  1.00  0.00    -0.206 F 
ATOM     70  C   UNL A   1      38.701  33.577  38.578  1.00  0.00     0.022 A 
BRANCH  67  71
ATOM     71  S   UNL A   1      36.648  31.827  39.285  1.00  0.00     0.124 S 
ATOM     72  O   UNL A   1      37.153  32.029  40.641  1.00  0.00    -0.237 OA
ATOM     73  O   UNL A   1      35.589  32.734  38.857  1.00  0.00    -0.237 OA
ATOM     74  O   UNL A   1      36.470  30.430  38.896  1.00  0.00    -0.744 OA
ENDBRANCH  67  71
ENDBRANCH  50  64
BRANCH  51  75
ATOM     75  C   UNL A   1      41.550  27.319  27.710  1.00  0.00     0.023 A 
ATOM     76  C   UNL A   1      41.407  25.929  27.579  1.00  0.00     0.031 A 
ATOM     77  C   UNL A   1      42.124  28.024  26.637  1.00  0.00     0.131 A 
ATOM     78  C   UNL A   1      41.895  25.279  26.434  1.00  0.00     0.055 A 
ATOM     79  C   UNL A   1      42.544  27.382  25.471  1.00  0.00     0.041 A 
ATOM     80  F   UNL A   1      42.288  29.355  26.707  1.00  0.00    -0.206 F 
ATOM     81  C   UNL A   1      42.447  25.997  25.373  1.00  0.00     0.022 A 
BRANCH  78  82
ATOM     82  S   UNL A   1      41.915  23.465  26.413  1.00  0.00     0.124 S 
ATOM     83  O   UNL A   1      40.492  23.153  26.484  1.00  0.00    -0.237 OA
ATOM     84  O   UNL A   1      42.571  23.185  25.141  1.00  0.00    -0.237 OA
ATOM     85  O   UNL A   1      42.690  23.122  27.604  1.00  0.00    -0.744 OA
ENDBRANCH  78  82
ENDBRANCH  51  75
BRANCH  63  86
ATOM     86  C   UNL A   1      44.357  27.311  34.090  1.00  0.00     0.023 A 
ATOM     87  C   UNL A   1      44.249  25.958  34.456  1.00  0.00     0.031 A 
ATOM     88  C   UNL A   1      45.589  27.956  34.301  1.00  0.00     0.131 A 
ATOM     89  C   UNL A   1      45.332  25.311  35.069  1.00  0.00     0.055 A 
ATOM     90  C   UNL A   1      46.684  27.288  34.847  1.00  0.00     0.041 A 
ATOM     91  F   UNL A   1      45.749  29.249  33.974  1.00  0.00    -0.206 F 
ATOM     92  C   UNL A   1      46.556  25.961  35.248  1.00  0.00     0.022 A 
BRANCH  89  93
ATOM     93  S   UNL A   1      45.088  23.636  35.721  1.00  0.00     0.124 S 
ATOM     94  O   UNL A   1      43.634  23.556  35.816  1.00  0.00    -0.237 OA
ATOM     95  O   UNL A   1      45.707  22.807  34.691  1.00  0.00    -0.237 OA
ATOM     96  O   UNL A   1      45.794  23.661  37.002  1.00  0.00    -0.744 OA
ENDBRANCH  89  93
ENDBRANCH  63  86
ENDBRANCH  37  38
ENDBRANCH  29  32
ENDBRANCH  27  28
ENDBRANCH  26  27
ENDBRANCH   1  26
TORSDOF 17
ENDMDL
