MODEL 1
REMARK VINA RESULT:     -10.3      0.000      0.000
REMARK SMILES Cc1cscc1-c1noc(SCC(=O)NCCCCCCNC(=O)c2ccc(-c3c4nc(c(-c5cc(S(=O)(=O)[O-])ccc5F)c5ccc([nH]5)c(-c5cc(S(=O)(=O)[O-])ccc5F)c5nc(c(-c6cc(S(=O)(=O)[O-])ccc6F)c6ccc3[nH]6)C=C5)C=C4)cc2)n1
REMARK SMILES IDX 18 1 17 2 16 3 15 4 13 5 14 6 12 8 11 9 10 10 7 11 8 12
REMARK SMILES IDX 88 13 9 14 6 15 1 16 2 17 3 18 4 19 5 20 19 21 20 22 21 23
REMARK SMILES IDX 22 24 23 25 24 27 25 28 26 29 87 30 27 31 86 32 28 33 29 34
REMARK SMILES IDX 30 35 80 36 31 37 85 38 79 39 81 40 32 41 84 42 78 43 77 44
REMARK SMILES IDX 33 46 65 47 45 48 64 49 46 50 49 51 63 52 82 53 47 54 48 55
REMARK SMILES IDX 62 57 83 58 50 59 34 60 35 61 43 62 36 63 42 64 44 65 41 66
REMARK SMILES IDX 37 67 38 68 39 69 40 70 66 71 67 72 75 73 68 74 74 75 76 76
REMARK SMILES IDX 73 77 69 78 70 79 71 80 72 81 51 82 52 83 60 84 53 85 59 86
REMARK SMILES IDX 61 87 58 88 54 89 55 90 56 91 57 92
REMARK H PARENT 15 7 22 26 81 45 49 56
REMARK Flexibility Score: inf
ROOT
ATOM      1  C   UNL A   1      37.665  21.897  25.294  1.00  0.00     0.002 C 
ENDROOT
BRANCH   1   2
ATOM      2  C   UNL A   1      36.956  23.126  24.705  1.00  0.00     0.021 C 
BRANCH   2   3
ATOM      3  C   UNL A   1      36.084  23.877  25.712  1.00  0.00     0.116 C 
BRANCH   3   4
ATOM      4  N   UNL A   1      35.493  22.953  26.662  1.00  0.00    -0.355 N 
ATOM      5  C   UNL A   1      34.296  22.304  26.634  1.00  0.00     0.230 C 
ATOM      6  O   UNL A   1      34.008  21.603  27.608  1.00  0.00    -0.274 OA
ATOM      7  H   UNL A   1      36.046  22.766  27.454  1.00  0.00     0.163 HD
BRANCH   5   8
ATOM      8  C   UNL A   1      33.421  22.323  25.395  1.00  0.00     0.179 C 
BRANCH   8   9
ATOM      9  S   UNL A   1      31.650  22.159  25.699  1.00  0.00    -0.055 SA
BRANCH   9  10
ATOM     10  C   UNL A   1      31.113  23.797  25.844  1.00  0.00     0.286 A 
ATOM     11  C   UNL A   1      30.892  25.869  25.718  1.00  0.00     0.204 A 
ATOM     12  N   UNL A   1      29.965  25.530  26.621  1.00  0.00    -0.056 NA
ATOM     13  N   UNL A   1      31.624  24.827  25.212  1.00  0.00    -0.181 NA
ATOM     14  O   UNL A   1      30.095  24.144  26.691  1.00  0.00    -0.327 OA
BRANCH  11  15
ATOM     15  C   UNL A   1      31.189  27.251  25.348  1.00  0.00     0.036 A 
ATOM     16  C   UNL A   1      29.591  27.340  23.291  1.00  0.00     0.046 C 
ATOM     17  C   UNL A   1      30.599  27.926  24.225  1.00  0.00    -0.029 A 
ATOM     18  C   UNL A   1      31.076  29.223  24.137  1.00  0.00     0.069 A 
ATOM     19  S   UNL A   1      32.193  29.613  25.372  1.00  0.00    -0.151 S 
ATOM     20  C   UNL A   1      32.053  28.057  26.058  1.00  0.00     0.077 A 
ENDBRANCH  11  15
ENDBRANCH   9  10
ENDBRANCH   8   9
ENDBRANCH   5   8
ENDBRANCH   3   4
ENDBRANCH   2   3
ENDBRANCH   1   2
BRANCH   1  21
ATOM     21  C   UNL A   1      37.485  20.602  24.495  1.00  0.00     0.002 C 
BRANCH  21  22
ATOM     22  C   UNL A   1      38.342  19.429  24.972  1.00  0.00     0.021 C 
BRANCH  22  23
ATOM     23  C   UNL A   1      39.318  19.776  26.091  1.00  0.00     0.116 C 
BRANCH  23  24
ATOM     24  N   UNL A   1      40.574  19.056  25.958  1.00  0.00    -0.352 N 
ATOM     25  C   UNL A   1      41.856  19.546  25.963  1.00  0.00     0.251 C 
ATOM     26  H   UNL A   1      40.494  18.081  25.849  1.00  0.00     0.163 HD
ATOM     27  O   UNL A   1      42.786  18.817  25.618  1.00  0.00    -0.269 OA
BRANCH  25  28
ATOM     28  C   UNL A   1      42.112  20.947  26.361  1.00  0.00     0.039 A 
ATOM     29  C   UNL A   1      42.312  21.243  27.712  1.00  0.00     0.014 A 
ATOM     30  C   UNL A   1      42.143  21.969  25.407  1.00  0.00     0.014 A 
ATOM     31  C   UNL A   1      42.588  22.557  28.098  1.00  0.00     0.010 A 
ATOM     32  C   UNL A   1      42.501  23.260  25.785  1.00  0.00     0.010 A 
ATOM     33  C   UNL A   1      42.711  23.573  27.137  1.00  0.00    -0.014 A 
BRANCH  33  34
ATOM     34  C   UNL A   1      43.018  24.974  27.531  1.00  0.00     0.031 A 
ATOM     35  C   UNL A   1      44.423  25.501  27.396  1.00  0.00     0.074 A 
ATOM     36  C   UNL A   1      42.050  25.755  28.050  1.00  0.00     0.049 A 
ATOM     37  N   UNL A   1      44.908  26.667  27.737  1.00  0.00    -0.248 NA
ATOM     38  C   UNL A   1      45.419  24.579  26.830  1.00  0.00     0.031 C 
ATOM     39  C   UNL A   1      40.660  25.347  28.263  1.00  0.00     0.029 A 
ATOM     40  N   UNL A   1      42.086  27.052  28.495  1.00  0.00    -0.354 N 
ATOM     41  C   UNL A   1      46.267  26.614  27.439  1.00  0.00     0.074 A 
ATOM     42  C   UNL A   1      46.537  25.276  26.960  1.00  0.00     0.031 C 
ATOM     43  C   UNL A   1      39.971  26.383  28.768  1.00  0.00     0.029 A 
ATOM     44  C   UNL A   1      40.876  27.512  28.961  1.00  0.00     0.049 A 
ATOM     45  H   UNL A   1      42.901  27.603  28.482  1.00  0.00     0.167 HD
ATOM     46  C   UNL A   1      47.197  27.598  27.531  1.00  0.00     0.034 A 
ATOM     47  C   UNL A   1      40.535  28.703  29.493  1.00  0.00     0.034 A 
ATOM     48  C   UNL A   1      46.906  28.929  28.005  1.00  0.00     0.049 A 
ATOM     49  C   UNL A   1      41.591  29.774  29.613  1.00  0.00     0.074 A 
ATOM     50  C   UNL A   1      47.759  30.016  28.101  1.00  0.00     0.029 A 
ATOM     51  N   UNL A   1      45.668  29.358  28.470  1.00  0.00    -0.354 N 
ATOM     52  N   UNL A   1      42.863  29.723  29.286  1.00  0.00    -0.248 NA
ATOM     53  C   UNL A   1      41.161  31.067  30.156  1.00  0.00     0.031 C 
ATOM     54  C   UNL A   1      47.060  31.072  28.695  1.00  0.00     0.029 A 
ATOM     55  C   UNL A   1      45.744  30.680  28.881  1.00  0.00     0.049 A 
ATOM     56  H   UNL A   1      44.855  28.803  28.503  1.00  0.00     0.167 HD
ATOM     57  C   UNL A   1      43.373  30.993  29.547  1.00  0.00     0.074 A 
ATOM     58  C   UNL A   1      42.268  31.788  30.044  1.00  0.00     0.031 C 
ATOM     59  C   UNL A   1      44.637  31.463  29.382  1.00  0.00     0.034 A 
BRANCH  46  60
ATOM     60  C   UNL A   1      48.615  27.252  27.138  1.00  0.00     0.023 A 
ATOM     61  C   UNL A   1      49.170  27.674  25.916  1.00  0.00     0.031 A 
ATOM     62  C   UNL A   1      49.414  26.456  27.978  1.00  0.00     0.131 A 
ATOM     63  C   UNL A   1      50.443  27.228  25.530  1.00  0.00     0.055 A 
ATOM     64  C   UNL A   1      50.718  26.093  27.630  1.00  0.00     0.041 A 
ATOM     65  F   UNL A   1      48.937  26.001  29.147  1.00  0.00    -0.206 F 
ATOM     66  C   UNL A   1      51.232  26.464  26.391  1.00  0.00     0.022 A 
BRANCH  63  67
ATOM     67  S   UNL A   1      50.981  27.520  23.823  1.00  0.00     0.124 S 
ATOM     68  O   UNL A   1      49.982  26.768  23.067  1.00  0.00    -0.237 OA
ATOM     69  O   UNL A   1      50.907  28.972  23.712  1.00  0.00    -0.237 OA
ATOM     70  O   UNL A   1      52.329  26.959  23.788  1.00  0.00    -0.744 OA
ENDBRANCH  63  67
ENDBRANCH  46  60
BRANCH  47  71
ATOM     71  C   UNL A   1      39.139  28.953  29.958  1.00  0.00     0.023 A 
ATOM     72  C   UNL A   1      38.186  29.538  29.109  1.00  0.00     0.031 A 
ATOM     73  C   UNL A   1      38.750  28.653  31.276  1.00  0.00     0.131 A 
ATOM     74  C   UNL A   1      36.909  29.852  29.600  1.00  0.00     0.055 A 
ATOM     75  C   UNL A   1      37.460  28.911  31.742  1.00  0.00     0.041 A 
ATOM     76  F   UNL A   1      39.620  28.089  32.129  1.00  0.00    -0.206 F 
ATOM     77  C   UNL A   1      36.535  29.528  30.906  1.00  0.00     0.022 A 
BRANCH  74  78
ATOM     78  S   UNL A   1      35.770  30.776  28.533  1.00  0.00     0.124 S 
ATOM     79  O   UNL A   1      35.094  29.699  27.819  1.00  0.00    -0.237 OA
ATOM     80  O   UNL A   1      34.965  31.504  29.509  1.00  0.00    -0.237 OA
ATOM     81  O   UNL A   1      36.660  31.604  27.722  1.00  0.00    -0.744 OA
ENDBRANCH  74  78
ENDBRANCH  47  71
BRANCH  59  82
ATOM     82  C   UNL A   1      44.873  32.925  29.684  1.00  0.00     0.023 A 
ATOM     83  C   UNL A   1      44.935  33.897  28.671  1.00  0.00     0.031 A 
ATOM     84  C   UNL A   1      45.061  33.347  31.013  1.00  0.00     0.131 A 
ATOM     85  C   UNL A   1      45.250  35.226  28.993  1.00  0.00     0.055 A 
ATOM     86  C   UNL A   1      45.300  34.684  31.335  1.00  0.00     0.041 A 
ATOM     87  F   UNL A   1      45.017  32.465  32.024  1.00  0.00    -0.206 F 
ATOM     88  C   UNL A   1      45.413  35.629  30.321  1.00  0.00     0.022 A 
BRANCH  85  89
ATOM     89  S   UNL A   1      45.567  36.398  27.646  1.00  0.00     0.124 S 
ATOM     90  O   UNL A   1      44.438  37.314  27.769  1.00  0.00    -0.237 OA
ATOM     91  O   UNL A   1      46.872  36.942  28.006  1.00  0.00    -0.237 OA
ATOM     92  O   UNL A   1      45.555  35.558  26.449  1.00  0.00    -0.744 OA
ENDBRANCH  85  89
ENDBRANCH  59  82
ENDBRANCH  33  34
ENDBRANCH  25  28
ENDBRANCH  23  24
ENDBRANCH  22  23
ENDBRANCH  21  22
ENDBRANCH   1  21
TORSDOF 19
ENDMDL
MODEL 2
REMARK VINA RESULT:     -10.1      6.474     11.510
REMARK SMILES Cc1cscc1-c1noc(SCC(=O)NCCCCCCNC(=O)c2ccc(-c3c4nc(c(-c5cc(S(=O)(=O)[O-])ccc5F)c5ccc([nH]5)c(-c5cc(S(=O)(=O)[O-])ccc5F)c5nc(c(-c6cc(S(=O)(=O)[O-])ccc6F)c6ccc3[nH]6)C=C5)C=C4)cc2)n1
REMARK SMILES IDX 18 1 17 2 16 3 15 4 13 5 14 6 12 8 11 9 10 10 7 11 8 12
REMARK SMILES IDX 88 13 9 14 6 15 1 16 2 17 3 18 4 19 5 20 19 21 20 22 21 23
REMARK SMILES IDX 22 24 23 25 24 27 25 28 26 29 87 30 27 31 86 32 28 33 29 34
REMARK SMILES IDX 30 35 80 36 31 37 85 38 79 39 81 40 32 41 84 42 78 43 77 44
REMARK SMILES IDX 33 46 65 47 45 48 64 49 46 50 49 51 63 52 82 53 47 54 48 55
REMARK SMILES IDX 62 57 83 58 50 59 34 60 35 61 43 62 36 63 42 64 44 65 41 66
REMARK SMILES IDX 37 67 38 68 39 69 40 70 66 71 67 72 75 73 68 74 74 75 76 76
REMARK SMILES IDX 73 77 69 78 70 79 71 80 72 81 51 82 52 83 60 84 53 85 59 86
REMARK SMILES IDX 61 87 58 88 54 89 55 90 56 91 57 92
REMARK H PARENT 15 7 22 26 81 45 49 56
REMARK Flexibility Score: inf
ROOT
ATOM      1  C   UNL A   1      34.976  31.964  28.650  1.00  0.00     0.002 C 
ENDROOT
BRANCH   1   2
ATOM      2  C   UNL A   1      35.683  30.962  27.726  1.00  0.00     0.021 C 
BRANCH   2   3
ATOM      3  C   UNL A   1      34.857  29.711  27.424  1.00  0.00     0.116 C 
BRANCH   3   4
ATOM      4  N   UNL A   1      33.617  30.068  26.761  1.00  0.00    -0.355 N 
ATOM      5  C   UNL A   1      33.051  29.578  25.623  1.00  0.00     0.230 C 
ATOM      6  O   UNL A   1      31.999  30.100  25.242  1.00  0.00    -0.274 OA
ATOM      7  H   UNL A   1      33.101  30.780  27.205  1.00  0.00     0.163 HD
BRANCH   5   8
ATOM      8  C   UNL A   1      33.609  28.346  24.936  1.00  0.00     0.179 C 
BRANCH   8   9
ATOM      9  S   UNL A   1      32.655  27.751  23.525  1.00  0.00    -0.055 SA
BRANCH   9  10
ATOM     10  C   UNL A   1      33.236  26.137  23.299  1.00  0.00     0.286 A 
ATOM     11  C   UNL A   1      33.937  24.188  23.558  1.00  0.00     0.204 A 
ATOM     12  N   UNL A   1      34.076  24.377  22.240  1.00  0.00    -0.056 NA
ATOM     13  N   UNL A   1      33.421  25.252  24.249  1.00  0.00    -0.181 NA
ATOM     14  O   UNL A   1      33.588  25.670  22.061  1.00  0.00    -0.327 OA
BRANCH  11  15
ATOM     15  C   UNL A   1      34.382  22.981  24.249  1.00  0.00     0.036 A 
ATOM     16  C   UNL A   1      32.448  21.448  23.411  1.00  0.00     0.046 C 
ATOM     17  C   UNL A   1      33.692  21.721  24.192  1.00  0.00    -0.029 A 
ATOM     18  C   UNL A   1      34.360  20.771  24.946  1.00  0.00     0.069 A 
ATOM     19  S   UNL A   1      35.773  21.378  25.693  1.00  0.00    -0.151 S 
ATOM     20  C   UNL A   1      35.529  22.923  25.013  1.00  0.00     0.077 A 
ENDBRANCH  11  15
ENDBRANCH   9  10
ENDBRANCH   8   9
ENDBRANCH   5   8
ENDBRANCH   3   4
ENDBRANCH   2   3
ENDBRANCH   1   2
BRANCH   1  21
ATOM     21  C   UNL A   1      34.956  33.409  28.141  1.00  0.00     0.002 C 
BRANCH  21  22
ATOM     22  C   UNL A   1      33.647  34.160  28.392  1.00  0.00     0.021 C 
BRANCH  22  23
ATOM     23  C   UNL A   1      33.824  35.552  28.988  1.00  0.00     0.116 C 
BRANCH  23  24
ATOM     24  N   UNL A   1      33.024  35.735  30.187  1.00  0.00    -0.352 N 
ATOM     25  C   UNL A   1      33.164  35.147  31.419  1.00  0.00     0.251 C 
ATOM     26  H   UNL A   1      32.277  36.371  30.105  1.00  0.00     0.163 HD
ATOM     27  O   UNL A   1      32.263  35.255  32.250  1.00  0.00    -0.269 OA
BRANCH  25  28
ATOM     28  C   UNL A   1      34.383  34.370  31.734  1.00  0.00     0.039 A 
ATOM     29  C   UNL A   1      35.628  34.997  31.649  1.00  0.00     0.014 A 
ATOM     30  C   UNL A   1      34.300  33.023  32.100  1.00  0.00     0.014 A 
ATOM     31  C   UNL A   1      36.785  34.286  31.977  1.00  0.00     0.010 A 
ATOM     32  C   UNL A   1      35.445  32.342  32.506  1.00  0.00     0.010 A 
ATOM     33  C   UNL A   1      36.702  32.960  32.433  1.00  0.00    -0.014 A 
BRANCH  33  34
ATOM     34  C   UNL A   1      37.924  32.193  32.798  1.00  0.00     0.031 A 
ATOM     35  C   UNL A   1      38.650  32.505  34.080  1.00  0.00     0.074 A 
ATOM     36  C   UNL A   1      38.404  31.252  31.960  1.00  0.00     0.049 A 
ATOM     37  N   UNL A   1      39.761  31.997  34.549  1.00  0.00    -0.248 NA
ATOM     38  C   UNL A   1      38.064  33.553  34.930  1.00  0.00     0.031 C 
ATOM     39  C   UNL A   1      37.808  30.885  30.674  1.00  0.00     0.029 A 
ATOM     40  N   UNL A   1      39.502  30.436  32.062  1.00  0.00    -0.354 N 
ATOM     41  C   UNL A   1      40.012  32.670  35.741  1.00  0.00     0.074 A 
ATOM     42  C   UNL A   1      38.977  33.672  35.881  1.00  0.00     0.031 C 
ATOM     43  C   UNL A   1      38.530  29.895  30.123  1.00  0.00     0.029 A 
ATOM     44  C   UNL A   1      39.665  29.590  30.989  1.00  0.00     0.049 A 
ATOM     45  H   UNL A   1      40.114  30.452  32.833  1.00  0.00     0.167 HD
ATOM     46  C   UNL A   1      40.997  32.454  36.649  1.00  0.00     0.034 A 
ATOM     47  C   UNL A   1      40.625  28.681  30.726  1.00  0.00     0.034 A 
ATOM     48  C   UNL A   1      42.016  31.444  36.496  1.00  0.00     0.049 A 
ATOM     49  C   UNL A   1      41.728  28.478  31.736  1.00  0.00     0.074 A 
ATOM     50  C   UNL A   1      43.037  31.109  37.370  1.00  0.00     0.029 A 
ATOM     51  N   UNL A   1      42.151  30.607  35.394  1.00  0.00    -0.354 N 
ATOM     52  N   UNL A   1      41.928  29.092  32.880  1.00  0.00    -0.248 NA
ATOM     53  C   UNL A   1      42.723  27.445  31.426  1.00  0.00     0.031 C 
ATOM     54  C   UNL A   1      43.831  30.130  36.764  1.00  0.00     0.029 A 
ATOM     55  C   UNL A   1      43.254  29.782  35.554  1.00  0.00     0.049 A 
ATOM     56  H   UNL A   1      41.551  30.602  34.614  1.00  0.00     0.167 HD
ATOM     57  C   UNL A   1      43.050  28.489  33.444  1.00  0.00     0.074 A 
ATOM     58  C   UNL A   1      43.472  27.455  32.520  1.00  0.00     0.031 C 
ATOM     59  C   UNL A   1      43.670  28.758  34.622  1.00  0.00     0.034 A 
BRANCH  46  60
ATOM     60  C   UNL A   1      41.029  33.351  37.866  1.00  0.00     0.023 A 
ATOM     61  C   UNL A   1      40.296  33.048  39.029  1.00  0.00     0.031 A 
ATOM     62  C   UNL A   1      41.771  34.545  37.853  1.00  0.00     0.131 A 
ATOM     63  C   UNL A   1      40.250  33.966  40.089  1.00  0.00     0.055 A 
ATOM     64  C   UNL A   1      41.796  35.410  38.950  1.00  0.00     0.041 A 
ATOM     65  F   UNL A   1      42.472  34.904  36.766  1.00  0.00    -0.206 F 
ATOM     66  C   UNL A   1      41.018  35.132  40.069  1.00  0.00     0.022 A 
BRANCH  63  67
ATOM     67  S   UNL A   1      39.043  33.695  41.416  1.00  0.00     0.124 S 
ATOM     68  O   UNL A   1      38.005  32.939  40.719  1.00  0.00    -0.237 OA
ATOM     69  O   UNL A   1      39.820  32.953  42.402  1.00  0.00    -0.237 OA
ATOM     70  O   UNL A   1      38.659  35.047  41.811  1.00  0.00    -0.744 OA
ENDBRANCH  63  67
ENDBRANCH  46  60
BRANCH  47  71
ATOM     71  C   UNL A   1      40.597  27.895  29.459  1.00  0.00     0.023 A 
ATOM     72  C   UNL A   1      41.487  28.177  28.410  1.00  0.00     0.031 A 
ATOM     73  C   UNL A   1      39.647  26.877  29.259  1.00  0.00     0.131 A 
ATOM     74  C   UNL A   1      41.375  27.488  27.192  1.00  0.00     0.055 A 
ATOM     75  C   UNL A   1      39.579  26.153  28.068  1.00  0.00     0.041 A 
ATOM     76  F   UNL A   1      38.774  26.563  30.230  1.00  0.00    -0.206 F 
ATOM     77  C   UNL A   1      40.437  26.468  27.020  1.00  0.00     0.022 A 
BRANCH  74  78
ATOM     78  S   UNL A   1      42.415  28.009  25.800  1.00  0.00     0.124 S 
ATOM     79  O   UNL A   1      43.704  28.210  26.452  1.00  0.00    -0.237 OA
ATOM     80  O   UNL A   1      42.320  26.860  24.905  1.00  0.00    -0.237 OA
ATOM     81  O   UNL A   1      41.759  29.224  25.322  1.00  0.00    -0.744 OA
ENDBRANCH  74  78
ENDBRANCH  47  71
BRANCH  59  82
ATOM     82  C   UNL A   1      44.834  27.874  35.005  1.00  0.00     0.023 A 
ATOM     83  C   UNL A   1      44.660  26.673  35.714  1.00  0.00     0.031 A 
ATOM     84  C   UNL A   1      46.147  28.256  34.670  1.00  0.00     0.131 A 
ATOM     85  C   UNL A   1      45.779  25.935  36.129  1.00  0.00     0.055 A 
ATOM     86  C   UNL A   1      47.252  27.479  35.020  1.00  0.00     0.041 A 
ATOM     87  F   UNL A   1      46.378  29.394  33.997  1.00  0.00    -0.206 F 
ATOM     88  C   UNL A   1      47.074  26.320  35.768  1.00  0.00     0.022 A 
BRANCH  85  89
ATOM     89  S   UNL A   1      45.532  24.531  37.250  1.00  0.00     0.124 S 
ATOM     90  O   UNL A   1      46.758  24.554  38.040  1.00  0.00    -0.237 OA
ATOM     91  O   UNL A   1      44.312  24.908  37.956  1.00  0.00    -0.237 OA
ATOM     92  O   UNL A   1      45.397  23.389  36.347  1.00  0.00    -0.744 OA
ENDBRANCH  85  89
ENDBRANCH  59  82
ENDBRANCH  33  34
ENDBRANCH  25  28
ENDBRANCH  23  24
ENDBRANCH  22  23
ENDBRANCH  21  22
ENDBRANCH   1  21
TORSDOF 19
ENDMDL
MODEL 3
REMARK VINA RESULT:     -10.1      4.442      7.815
REMARK SMILES Cc1cscc1-c1noc(SCC(=O)NCCCCCCNC(=O)c2ccc(-c3c4nc(c(-c5cc(S(=O)(=O)[O-])ccc5F)c5ccc([nH]5)c(-c5cc(S(=O)(=O)[O-])ccc5F)c5nc(c(-c6cc(S(=O)(=O)[O-])ccc6F)c6ccc3[nH]6)C=C5)C=C4)cc2)n1
REMARK SMILES IDX 18 1 17 2 16 3 15 4 13 5 14 6 12 8 11 9 10 10 7 11 8 12
REMARK SMILES IDX 88 13 9 14 6 15 1 16 2 17 3 18 4 19 5 20 19 21 20 22 21 23
REMARK SMILES IDX 22 24 23 25 24 27 25 28 26 29 87 30 27 31 86 32 28 33 29 34
REMARK SMILES IDX 30 35 80 36 31 37 85 38 79 39 81 40 32 41 84 42 78 43 77 44
REMARK SMILES IDX 33 46 65 47 45 48 64 49 46 50 49 51 63 52 82 53 47 54 48 55
REMARK SMILES IDX 62 57 83 58 50 59 34 60 35 61 43 62 36 63 42 64 44 65 41 66
REMARK SMILES IDX 37 67 38 68 39 69 40 70 66 71 67 72 75 73 68 74 74 75 76 76
REMARK SMILES IDX 73 77 69 78 70 79 71 80 72 81 51 82 52 83 60 84 53 85 59 86
REMARK SMILES IDX 61 87 58 88 54 89 55 90 56 91 57 92
REMARK H PARENT 15 7 22 26 81 45 49 56
REMARK Flexibility Score: inf
ROOT
ATOM      1  C   UNL A   1      42.971  22.957  29.446  1.00  0.00     0.002 C 
ENDROOT
BRANCH   1   2
ATOM      2  C   UNL A   1      44.492  23.166  29.442  1.00  0.00     0.021 C 
BRANCH   2   3
ATOM      3  C   UNL A   1      44.970  24.206  28.426  1.00  0.00     0.116 C 
BRANCH   3   4
ATOM      4  N   UNL A   1      46.382  24.483  28.609  1.00  0.00    -0.355 N 
ATOM      5  C   UNL A   1      47.267  25.128  27.798  1.00  0.00     0.230 C 
ATOM      6  O   UNL A   1      48.442  25.184  28.172  1.00  0.00    -0.274 OA
ATOM      7  H   UNL A   1      46.763  24.151  29.453  1.00  0.00     0.163 HD
BRANCH   5   8
ATOM      8  C   UNL A   1      46.801  25.874  26.563  1.00  0.00     0.179 C 
BRANCH   8   9
ATOM      9  S   UNL A   1      47.178  25.075  24.990  1.00  0.00    -0.055 SA
BRANCH   9  10
ATOM     10  C   UNL A   1      45.981  23.831  24.873  1.00  0.00     0.286 A 
ATOM     11  C   UNL A   1      44.923  22.034  24.945  1.00  0.00     0.204 A 
ATOM     12  N   UNL A   1      44.105  22.827  24.244  1.00  0.00    -0.056 NA
ATOM     13  N   UNL A   1      46.093  22.615  25.354  1.00  0.00    -0.181 NA
ATOM     14  O   UNL A   1      44.799  24.035  24.213  1.00  0.00    -0.327 OA
BRANCH  11  15
ATOM     15  C   UNL A   1      44.655  20.619  25.192  1.00  0.00     0.036 A 
ATOM     16  C   UNL A   1      47.033  19.766  24.549  1.00  0.00     0.046 C 
ATOM     17  C   UNL A   1      45.621  19.573  25.000  1.00  0.00    -0.029 A 
ATOM     18  C   UNL A   1      45.071  18.343  25.321  1.00  0.00     0.069 A 
ATOM     19  S   UNL A   1      43.446  18.449  25.840  1.00  0.00    -0.151 S 
ATOM     20  C   UNL A   1      43.447  20.146  25.660  1.00  0.00     0.077 A 
ENDBRANCH  11  15
ENDBRANCH   9  10
ENDBRANCH   8   9
ENDBRANCH   5   8
ENDBRANCH   3   4
ENDBRANCH   2   3
ENDBRANCH   1   2
BRANCH   1  21
ATOM     21  C   UNL A   1      42.297  23.083  28.076  1.00  0.00     0.002 C 
BRANCH  21  22
ATOM     22  C   UNL A   1      41.309  21.965  27.740  1.00  0.00     0.021 C 
BRANCH  22  23
ATOM     23  C   UNL A   1      41.039  21.788  26.251  1.00  0.00     0.116 C 
BRANCH  23  24
ATOM     24  N   UNL A   1      39.623  21.891  25.939  1.00  0.00    -0.352 N 
ATOM     25  C   UNL A   1      38.742  22.899  26.237  1.00  0.00     0.251 C 
ATOM     26  H   UNL A   1      39.242  21.129  25.444  1.00  0.00     0.163 HD
ATOM     27  O   UNL A   1      37.535  22.715  26.088  1.00  0.00    -0.269 OA
BRANCH  25  28
ATOM     28  C   UNL A   1      39.244  24.191  26.755  1.00  0.00     0.039 A 
ATOM     29  C   UNL A   1      39.984  25.019  25.909  1.00  0.00     0.014 A 
ATOM     30  C   UNL A   1      38.994  24.580  28.075  1.00  0.00     0.014 A 
ATOM     31  C   UNL A   1      40.435  26.257  26.374  1.00  0.00     0.010 A 
ATOM     32  C   UNL A   1      39.372  25.847  28.508  1.00  0.00     0.010 A 
ATOM     33  C   UNL A   1      40.111  26.694  27.669  1.00  0.00    -0.014 A 
BRANCH  33  34
ATOM     34  C   UNL A   1      40.572  28.016  28.174  1.00  0.00     0.031 A 
ATOM     35  C   UNL A   1      42.041  28.348  28.173  1.00  0.00     0.074 A 
ATOM     36  C   UNL A   1      39.680  28.894  28.673  1.00  0.00     0.049 A 
ATOM     37  N   UNL A   1      42.651  29.415  28.623  1.00  0.00    -0.248 NA
ATOM     38  C   UNL A   1      42.946  27.329  27.619  1.00  0.00     0.031 C 
ATOM     39  C   UNL A   1      38.236  28.673  28.760  1.00  0.00     0.029 A 
ATOM     40  N   UNL A   1      39.855  30.148  29.203  1.00  0.00    -0.354 N 
ATOM     41  C   UNL A   1      44.009  29.190  28.419  1.00  0.00     0.074 A 
ATOM     42  C   UNL A   1      44.134  27.856  27.873  1.00  0.00     0.031 C 
ATOM     43  C   UNL A   1      37.655  29.765  29.282  1.00  0.00     0.029 A 
ATOM     44  C   UNL A   1      38.685  30.745  29.611  1.00  0.00     0.049 A 
ATOM     45  H   UNL A   1      40.736  30.579  29.283  1.00  0.00     0.167 HD
ATOM     46  C   UNL A   1      45.053  30.028  28.640  1.00  0.00     0.034 A 
ATOM     47  C   UNL A   1      38.467  31.941  30.194  1.00  0.00     0.034 A 
ATOM     48  C   UNL A   1      44.908  31.359  29.177  1.00  0.00     0.049 A 
ATOM     49  C   UNL A   1      39.646  32.846  30.458  1.00  0.00     0.074 A 
ATOM     50  C   UNL A   1      45.889  32.310  29.403  1.00  0.00     0.029 A 
ATOM     51  N   UNL A   1      43.706  31.930  29.580  1.00  0.00    -0.354 N 
ATOM     52  N   UNL A   1      40.921  32.637  30.219  1.00  0.00    -0.248 NA
ATOM     53  C   UNL A   1      39.352  34.155  31.051  1.00  0.00     0.031 C 
ATOM     54  C   UNL A   1      45.294  33.419  30.014  1.00  0.00     0.029 A 
ATOM     55  C   UNL A   1      43.927  33.204  30.081  1.00  0.00     0.049 A 
ATOM     56  H   UNL A   1      42.826  31.493  29.520  1.00  0.00     0.167 HD
ATOM     57  C   UNL A   1      41.575  33.807  30.597  1.00  0.00     0.074 A 
ATOM     58  C   UNL A   1      40.551  34.720  31.065  1.00  0.00     0.031 C 
ATOM     59  C   UNL A   1      42.899  34.105  30.553  1.00  0.00     0.034 A 
BRANCH  46  60
ATOM     60  C   UNL A   1      46.439  29.510  28.326  1.00  0.00     0.023 A 
ATOM     61  C   UNL A   1      47.212  28.833  29.287  1.00  0.00     0.031 A 
ATOM     62  C   UNL A   1      47.012  29.727  27.060  1.00  0.00     0.131 A 
ATOM     63  C   UNL A   1      48.539  28.479  28.999  1.00  0.00     0.055 A 
ATOM     64  C   UNL A   1      48.301  29.288  26.749  1.00  0.00     0.041 A 
ATOM     65  F   UNL A   1      46.336  30.387  26.107  1.00  0.00    -0.206 F 
ATOM     66  C   UNL A   1      49.080  28.676  27.728  1.00  0.00     0.022 A 
BRANCH  63  67
ATOM     67  S   UNL A   1      49.597  27.914  30.360  1.00  0.00     0.124 S 
ATOM     68  O   UNL A   1      50.738  27.360  29.634  1.00  0.00    -0.237 OA
ATOM     69  O   UNL A   1      49.846  29.146  31.099  1.00  0.00    -0.237 OA
ATOM     70  O   UNL A   1      48.770  26.928  31.050  1.00  0.00    -0.744 OA
ENDBRANCH  63  67
ENDBRANCH  46  60
BRANCH  47  71
ATOM     71  C   UNL A   1      37.086  32.357  30.574  1.00  0.00     0.023 A 
ATOM     72  C   UNL A   1      36.200  32.888  29.623  1.00  0.00     0.031 A 
ATOM     73  C   UNL A   1      36.645  32.274  31.908  1.00  0.00     0.131 A 
ATOM     74  C   UNL A   1      34.942  33.361  30.025  1.00  0.00     0.055 A 
ATOM     75  C   UNL A   1      35.370  32.691  32.292  1.00  0.00     0.041 A 
ATOM     76  F   UNL A   1      37.450  31.772  32.858  1.00  0.00    -0.206 F 
ATOM     77  C   UNL A   1      34.515  33.252  31.350  1.00  0.00     0.022 A 
BRANCH  74  78
ATOM     78  S   UNL A   1      33.901  34.210  28.804  1.00  0.00     0.124 S 
ATOM     79  O   UNL A   1      33.521  33.111  27.924  1.00  0.00    -0.237 OA
ATOM     80  O   UNL A   1      32.840  34.760  29.642  1.00  0.00    -0.237 OA
ATOM     81  O   UNL A   1      34.804  35.198  28.217  1.00  0.00    -0.744 OA
ENDBRANCH  74  78
ENDBRANCH  47  71
BRANCH  59  82
ATOM     82  C   UNL A   1      43.306  35.501  30.964  1.00  0.00     0.023 A 
ATOM     83  C   UNL A   1      43.467  35.866  32.312  1.00  0.00     0.031 A 
ATOM     84  C   UNL A   1      43.514  36.490  29.985  1.00  0.00     0.131 A 
ATOM     85  C   UNL A   1      43.753  37.198  32.648  1.00  0.00     0.055 A 
ATOM     86  C   UNL A   1      43.873  37.796  30.322  1.00  0.00     0.041 A 
ATOM     87  F   UNL A   1      43.372  36.203  28.681  1.00  0.00    -0.206 F 
ATOM     88  C   UNL A   1      43.977  38.161  31.660  1.00  0.00     0.022 A 
BRANCH  85  89
ATOM     89  S   UNL A   1      43.708  37.686  34.394  1.00  0.00     0.124 S 
ATOM     90  O   UNL A   1      44.379  38.981  34.365  1.00  0.00    -0.237 OA
ATOM     91  O   UNL A   1      42.276  37.717  34.672  1.00  0.00    -0.237 OA
ATOM     92  O   UNL A   1      44.447  36.620  35.068  1.00  0.00    -0.744 OA
ENDBRANCH  85  89
ENDBRANCH  59  82
ENDBRANCH  33  34
ENDBRANCH  25  28
ENDBRANCH  23  24
ENDBRANCH  22  23
ENDBRANCH  21  22
ENDBRANCH   1  21
TORSDOF 19
ENDMDL
