MODEL 1
REMARK VINA RESULT:     -11.2      0.000      0.000
REMARK SMILES Nc1ccc(O)c(C(=O)NCCCCCCNC(=O)c2ccc(-c3c4nc(c(-c5cc(S(=O)(=O)[O-])ccc5F)c5ccc([nH]5)c(-c5cc(S(=O)(=O)[O-])ccc5F)c5nc(c(-c6cc(S(=O)(=O)[O-])ccc6F)c6ccc3[nH]6)C=C5)C=C4)cc2)c1
REMARK SMILES IDX 14 1 13 2 12 3 11 4 10 5 8 6 9 7 7 9 2 10 3 11 83 12 4 13
REMARK SMILES IDX 5 14 1 15 6 18 15 20 16 21 17 22 18 23 19 25 20 26 21 27
REMARK SMILES IDX 82 28 22 29 81 30 23 31 24 32 25 33 75 34 26 35 80 36 74 37
REMARK SMILES IDX 76 38 27 39 79 40 73 41 72 42 28 44 60 45 40 46 59 47 41 48
REMARK SMILES IDX 44 49 58 50 77 51 42 52 43 53 57 55 78 56 45 57 29 58 30 59
REMARK SMILES IDX 38 60 31 61 37 62 39 63 36 64 32 65 33 66 34 67 35 68 61 69
REMARK SMILES IDX 62 70 70 71 63 72 69 73 71 74 68 75 64 76 65 77 66 78 67 79
REMARK SMILES IDX 46 80 47 81 55 82 48 83 54 84 56 85 53 86 49 87 50 88 51 89
REMARK SMILES IDX 52 90
REMARK H PARENT 10 8 1 16 1 17 6 19 17 24 76 43 44 54
REMARK Flexibility Score: inf
ROOT
ATOM      1  C   UNL A   1      31.405  30.597  25.945  1.00  0.00     0.002 C 
ENDROOT
BRANCH   1   2
ATOM      2  C   UNL A   1      31.897  29.535  26.938  1.00  0.00     0.002 C 
BRANCH   2   3
ATOM      3  C   UNL A   1      32.368  28.220  26.295  1.00  0.00     0.021 C 
BRANCH   3   4
ATOM      4  C   UNL A   1      31.233  27.214  26.093  1.00  0.00     0.116 C 
BRANCH   4   5
ATOM      5  N   UNL A   1      31.347  26.605  24.781  1.00  0.00    -0.352 N 
ATOM      6  C   UNL A   1      30.730  26.811  23.578  1.00  0.00     0.255 C 
ATOM      7  O   UNL A   1      31.064  26.058  22.656  1.00  0.00    -0.269 OA
ATOM      8  H   UNL A   1      32.016  25.884  24.751  1.00  0.00     0.163 HD
BRANCH   6   9
ATOM      9  C   UNL A   1      29.757  27.901  23.273  1.00  0.00     0.083 A 
ATOM     10  C   UNL A   1      29.151  30.121  22.445  1.00  0.00     0.032 A 
ATOM     11  C   UNL A   1      27.802  29.815  22.612  1.00  0.00     0.029 A 
ATOM     12  C   UNL A   1      30.116  29.189  22.857  1.00  0.00     0.043 A 
ATOM     13  C   UNL A   1      27.416  28.573  23.108  1.00  0.00     0.049 A 
ATOM     14  C   UNL A   1      28.384  27.623  23.422  1.00  0.00     0.128 A 
BRANCH  10  15
ATOM     15  N   UNL A   1      29.533  31.379  22.004  1.00  0.00    -0.399 N 
ATOM     16  H   UNL A   1      29.567  31.574  21.040  1.00  0.00     0.156 HD
ATOM     17  H   UNL A   1      29.769  32.078  22.656  1.00  0.00     0.156 HD
ENDBRANCH  10  15
BRANCH  14  18
ATOM     18  O   UNL A   1      27.898  26.428  23.892  1.00  0.00    -0.507 OA
ATOM     19  H   UNL A   1      27.221  26.420  24.541  1.00  0.00     0.293 HD
ENDBRANCH  14  18
ENDBRANCH   6   9
ENDBRANCH   4   5
ENDBRANCH   3   4
ENDBRANCH   2   3
ENDBRANCH   1   2
BRANCH   1  20
ATOM     20  C   UNL A   1      31.362  32.024  26.499  1.00  0.00     0.021 C 
BRANCH  20  21
ATOM     21  C   UNL A   1      32.630  32.447  27.235  1.00  0.00     0.116 C 
BRANCH  21  22
ATOM     22  N   UNL A   1      32.581  33.848  27.618  1.00  0.00    -0.352 N 
ATOM     23  C   UNL A   1      33.263  34.500  28.615  1.00  0.00     0.251 C 
ATOM     24  H   UNL A   1      31.971  34.410  27.087  1.00  0.00     0.163 HD
ATOM     25  O   UNL A   1      32.906  35.619  28.966  1.00  0.00    -0.269 OA
BRANCH  23  26
ATOM     26  C   UNL A   1      34.417  33.841  29.265  1.00  0.00     0.039 A 
ATOM     27  C   UNL A   1      35.710  34.263  28.942  1.00  0.00     0.014 A 
ATOM     28  C   UNL A   1      34.224  32.801  30.178  1.00  0.00     0.014 A 
ATOM     29  C   UNL A   1      36.807  33.675  29.576  1.00  0.00     0.010 A 
ATOM     30  C   UNL A   1      35.314  32.267  30.862  1.00  0.00     0.010 A 
ATOM     31  C   UNL A   1      36.616  32.693  30.564  1.00  0.00    -0.014 A 
BRANCH  31  32
ATOM     32  C   UNL A   1      37.769  32.098  31.289  1.00  0.00     0.031 A 
ATOM     33  C   UNL A   1      38.577  31.002  30.647  1.00  0.00     0.074 A 
ATOM     34  C   UNL A   1      38.050  32.504  32.544  1.00  0.00     0.049 A 
ATOM     35  N   UNL A   1      39.568  30.306  31.143  1.00  0.00    -0.248 NA
ATOM     36  C   UNL A   1      38.201  30.618  29.278  1.00  0.00     0.031 C 
ATOM     37  C   UNL A   1      37.315  33.536  33.281  1.00  0.00     0.029 A 
ATOM     38  N   UNL A   1      39.020  32.097  33.425  1.00  0.00    -0.354 N 
ATOM     39  C   UNL A   1      39.926  29.396  30.153  1.00  0.00     0.074 A 
ATOM     40  C   UNL A   1      39.005  29.590  29.053  1.00  0.00     0.031 C 
ATOM     41  C   UNL A   1      37.879  33.699  34.489  1.00  0.00     0.029 A 
ATOM     42  C   UNL A   1      38.979  32.750  34.636  1.00  0.00     0.049 A 
ATOM     43  H   UNL A   1      39.683  31.401  33.211  1.00  0.00     0.167 HD
ATOM     44  C   UNL A   1      40.941  28.497  30.155  1.00  0.00     0.034 A 
ATOM     45  C   UNL A   1      39.734  32.595  35.742  1.00  0.00     0.034 A 
ATOM     46  C   UNL A   1      41.858  28.328  31.255  1.00  0.00     0.049 A 
ATOM     47  C   UNL A   1      40.837  31.565  35.729  1.00  0.00     0.074 A 
ATOM     48  C   UNL A   1      42.956  27.489  31.339  1.00  0.00     0.029 A 
ATOM     49  N   UNL A   1      41.783  29.003  32.468  1.00  0.00    -0.354 N 
ATOM     50  N   UNL A   1      41.194  30.748  34.764  1.00  0.00    -0.248 NA
ATOM     51  C   UNL A   1      41.644  31.444  36.949  1.00  0.00     0.031 C 
ATOM     52  C   UNL A   1      43.497  27.601  32.624  1.00  0.00     0.029 A 
ATOM     53  C   UNL A   1      42.792  28.573  33.315  1.00  0.00     0.049 A 
ATOM     54  H   UNL A   1      41.111  29.687  32.691  1.00  0.00     0.167 HD
ATOM     55  C   UNL A   1      42.293  30.045  35.251  1.00  0.00     0.074 A 
ATOM     56  C   UNL A   1      42.546  30.545  36.586  1.00  0.00     0.031 C 
ATOM     57  C   UNL A   1      43.029  29.077  34.648  1.00  0.00     0.034 A 
BRANCH  44  58
ATOM     58  C   UNL A   1      41.092  27.609  28.942  1.00  0.00     0.023 A 
ATOM     59  C   UNL A   1      42.079  27.845  27.969  1.00  0.00     0.031 A 
ATOM     60  C   UNL A   1      40.232  26.512  28.753  1.00  0.00     0.131 A 
ATOM     61  C   UNL A   1      42.139  27.040  26.821  1.00  0.00     0.055 A 
ATOM     62  C   UNL A   1      40.350  25.665  27.649  1.00  0.00     0.041 A 
ATOM     63  F   UNL A   1      39.257  26.248  29.636  1.00  0.00    -0.206 F 
ATOM     64  C   UNL A   1      41.298  25.935  26.667  1.00  0.00     0.022 A 
BRANCH  61  65
ATOM     65  S   UNL A   1      43.239  27.538  25.469  1.00  0.00     0.124 S 
ATOM     66  O   UNL A   1      42.317  28.246  24.583  1.00  0.00    -0.237 OA
ATOM     67  O   UNL A   1      44.226  28.364  26.154  1.00  0.00    -0.237 OA
ATOM     68  O   UNL A   1      43.740  26.269  24.949  1.00  0.00    -0.744 OA
ENDBRANCH  61  65
ENDBRANCH  44  58
BRANCH  45  69
ATOM     69  C   UNL A   1      39.476  33.416  36.962  1.00  0.00     0.023 A 
ATOM     70  C   UNL A   1      40.221  34.576  37.220  1.00  0.00     0.031 A 
ATOM     71  C   UNL A   1      38.524  33.019  37.917  1.00  0.00     0.131 A 
ATOM     72  C   UNL A   1      40.047  35.266  38.430  1.00  0.00     0.055 A 
ATOM     73  C   UNL A   1      38.308  33.744  39.091  1.00  0.00     0.041 A 
ATOM     74  F   UNL A   1      37.780  31.918  37.721  1.00  0.00    -0.206 F 
ATOM     75  C   UNL A   1      39.085  34.867  39.361  1.00  0.00     0.022 A 
BRANCH  72  76
ATOM     76  S   UNL A   1      41.174  36.633  38.819  1.00  0.00     0.124 S 
ATOM     77  O   UNL A   1      41.898  36.102  39.967  1.00  0.00    -0.237 OA
ATOM     78  O   UNL A   1      41.934  36.759  37.580  1.00  0.00    -0.237 OA
ATOM     79  O   UNL A   1      40.270  37.745  39.110  1.00  0.00    -0.744 OA
ENDBRANCH  72  76
ENDBRANCH  45  69
BRANCH  57  80
ATOM     80  C   UNL A   1      44.212  28.536  35.414  1.00  0.00     0.023 A 
ATOM     81  C   UNL A   1      44.076  27.501  36.357  1.00  0.00     0.031 A 
ATOM     82  C   UNL A   1      45.494  29.073  35.203  1.00  0.00     0.131 A 
ATOM     83  C   UNL A   1      45.191  27.079  37.096  1.00  0.00     0.055 A 
ATOM     84  C   UNL A   1      46.613  28.602  35.894  1.00  0.00     0.041 A 
ATOM     85  F   UNL A   1      45.683  30.064  34.317  1.00  0.00    -0.206 F 
ATOM     86  C   UNL A   1      46.462  27.609  36.857  1.00  0.00     0.022 A 
BRANCH  83  87
ATOM     87  S   UNL A   1      44.943  25.892  38.445  1.00  0.00     0.124 S 
ATOM     88  O   UNL A   1      44.191  26.686  39.412  1.00  0.00    -0.237 OA
ATOM     89  O   UNL A   1      44.202  24.821  37.787  1.00  0.00    -0.237 OA
ATOM     90  O   UNL A   1      46.303  25.544  38.852  1.00  0.00    -0.744 OA
ENDBRANCH  83  87
ENDBRANCH  57  80
ENDBRANCH  31  32
ENDBRANCH  23  26
ENDBRANCH  21  22
ENDBRANCH  20  21
ENDBRANCH   1  20
TORSDOF 18
ENDMDL
MODEL 2
REMARK VINA RESULT:     -10.9      2.024      2.274
REMARK SMILES Nc1ccc(O)c(C(=O)NCCCCCCNC(=O)c2ccc(-c3c4nc(c(-c5cc(S(=O)(=O)[O-])ccc5F)c5ccc([nH]5)c(-c5cc(S(=O)(=O)[O-])ccc5F)c5nc(c(-c6cc(S(=O)(=O)[O-])ccc6F)c6ccc3[nH]6)C=C5)C=C4)cc2)c1
REMARK SMILES IDX 14 1 13 2 12 3 11 4 10 5 8 6 9 7 7 9 2 10 3 11 83 12 4 13
REMARK SMILES IDX 5 14 1 15 6 18 15 20 16 21 17 22 18 23 19 25 20 26 21 27
REMARK SMILES IDX 82 28 22 29 81 30 23 31 24 32 25 33 75 34 26 35 80 36 74 37
REMARK SMILES IDX 76 38 27 39 79 40 73 41 72 42 28 44 60 45 40 46 59 47 41 48
REMARK SMILES IDX 44 49 58 50 77 51 42 52 43 53 57 55 78 56 45 57 29 58 30 59
REMARK SMILES IDX 38 60 31 61 37 62 39 63 36 64 32 65 33 66 34 67 35 68 61 69
REMARK SMILES IDX 62 70 70 71 63 72 69 73 71 74 68 75 64 76 65 77 66 78 67 79
REMARK SMILES IDX 46 80 47 81 55 82 48 83 54 84 56 85 53 86 49 87 50 88 51 89
REMARK SMILES IDX 52 90
REMARK H PARENT 10 8 1 16 1 17 6 19 17 24 76 43 44 54
REMARK Flexibility Score: inf
ROOT
ATOM      1  C   UNL A   1      31.351  30.322  25.616  1.00  0.00     0.002 C 
ENDROOT
BRANCH   1   2
ATOM      2  C   UNL A   1      32.688  29.568  25.589  1.00  0.00     0.002 C 
BRANCH   2   3
ATOM      3  C   UNL A   1      32.582  28.059  25.860  1.00  0.00     0.021 C 
BRANCH   3   4
ATOM      4  C   UNL A   1      31.262  27.455  25.376  1.00  0.00     0.116 C 
BRANCH   4   5
ATOM      5  N   UNL A   1      31.373  27.100  23.973  1.00  0.00    -0.352 N 
ATOM      6  C   UNL A   1      30.717  27.489  22.837  1.00  0.00     0.255 C 
ATOM      7  O   UNL A   1      31.064  26.935  21.788  1.00  0.00    -0.269 OA
ATOM      8  H   UNL A   1      32.075  26.433  23.801  1.00  0.00     0.163 HD
BRANCH   6   9
ATOM      9  C   UNL A   1      29.686  28.564  22.751  1.00  0.00     0.083 A 
ATOM     10  C   UNL A   1      28.904  30.799  22.137  1.00  0.00     0.032 A 
ATOM     11  C   UNL A   1      27.610  30.452  22.519  1.00  0.00     0.029 A 
ATOM     12  C   UNL A   1      29.943  29.877  22.336  1.00  0.00     0.043 A 
ATOM     13  C   UNL A   1      27.339  29.181  23.019  1.00  0.00     0.049 A 
ATOM     14  C   UNL A   1      28.365  28.245  23.121  1.00  0.00     0.128 A 
BRANCH  10  15
ATOM     15  N   UNL A   1      29.181  32.084  21.692  1.00  0.00    -0.399 N 
ATOM     16  H   UNL A   1      29.145  32.841  22.321  1.00  0.00     0.156 HD
ATOM     17  H   UNL A   1      29.412  32.239  20.748  1.00  0.00     0.156 HD
ENDBRANCH  10  15
BRANCH  14  18
ATOM     18  O   UNL A   1      27.990  27.020  23.615  1.00  0.00    -0.507 OA
ATOM     19  H   UNL A   1      27.648  26.951  24.485  1.00  0.00     0.293 HD
ENDBRANCH  14  18
ENDBRANCH   6   9
ENDBRANCH   4   5
ENDBRANCH   3   4
ENDBRANCH   2   3
ENDBRANCH   1   2
BRANCH   1  20
ATOM     20  C   UNL A   1      31.322  31.548  26.534  1.00  0.00     0.021 C 
BRANCH  20  21
ATOM     21  C   UNL A   1      32.689  32.185  26.767  1.00  0.00     0.116 C 
BRANCH  21  22
ATOM     22  N   UNL A   1      32.563  33.544  27.266  1.00  0.00    -0.352 N 
ATOM     23  C   UNL A   1      33.213  34.148  28.313  1.00  0.00     0.251 C 
ATOM     24  H   UNL A   1      31.921  34.114  26.783  1.00  0.00     0.163 HD
ATOM     25  O   UNL A   1      32.796  35.212  28.757  1.00  0.00    -0.269 OA
BRANCH  23  26
ATOM     26  C   UNL A   1      34.404  33.503  28.907  1.00  0.00     0.039 A 
ATOM     27  C   UNL A   1      35.666  34.053  28.664  1.00  0.00     0.014 A 
ATOM     28  C   UNL A   1      34.278  32.349  29.687  1.00  0.00     0.014 A 
ATOM     29  C   UNL A   1      36.795  33.475  29.248  1.00  0.00     0.010 A 
ATOM     30  C   UNL A   1      35.396  31.819  30.326  1.00  0.00     0.010 A 
ATOM     31  C   UNL A   1      36.666  32.372  30.110  1.00  0.00    -0.014 A 
BRANCH  31  32
ATOM     32  C   UNL A   1      37.851  31.780  30.785  1.00  0.00     0.031 A 
ATOM     33  C   UNL A   1      38.681  30.743  30.076  1.00  0.00     0.074 A 
ATOM     34  C   UNL A   1      38.142  32.134  32.053  1.00  0.00     0.049 A 
ATOM     35  N   UNL A   1      39.703  30.057  30.520  1.00  0.00    -0.248 NA
ATOM     36  C   UNL A   1      38.291  30.414  28.696  1.00  0.00     0.031 C 
ATOM     37  C   UNL A   1      37.389  33.105  32.852  1.00  0.00     0.029 A 
ATOM     38  N   UNL A   1      39.141  31.717  32.896  1.00  0.00    -0.354 N 
ATOM     39  C   UNL A   1      40.071  29.208  29.481  1.00  0.00     0.074 A 
ATOM     40  C   UNL A   1      39.123  29.425  28.408  1.00  0.00     0.031 C 
ATOM     41  C   UNL A   1      37.971  33.228  34.056  1.00  0.00     0.029 A 
ATOM     42  C   UNL A   1      39.103  32.310  34.138  1.00  0.00     0.049 A 
ATOM     43  H   UNL A   1      39.822  31.055  32.636  1.00  0.00     0.167 HD
ATOM     44  C   UNL A   1      41.113  28.343  29.421  1.00  0.00     0.034 A 
ATOM     45  C   UNL A   1      39.883  32.126  35.221  1.00  0.00     0.034 A 
ATOM     46  C   UNL A   1      42.056  28.152  30.496  1.00  0.00     0.049 A 
ATOM     47  C   UNL A   1      41.018  31.134  35.139  1.00  0.00     0.074 A 
ATOM     48  C   UNL A   1      43.182  27.346  30.520  1.00  0.00     0.029 A 
ATOM     49  N   UNL A   1      41.983  28.765  31.741  1.00  0.00    -0.354 N 
ATOM     50  N   UNL A   1      41.382  30.377  34.129  1.00  0.00    -0.248 NA
ATOM     51  C   UNL A   1      41.851  30.981  36.337  1.00  0.00     0.031 C 
ATOM     52  C   UNL A   1      43.743  27.414  31.799  1.00  0.00     0.029 A 
ATOM     53  C   UNL A   1      43.021  28.327  32.549  1.00  0.00     0.049 A 
ATOM     54  H   UNL A   1      41.293  29.415  32.009  1.00  0.00     0.167 HD
ATOM     55  C   UNL A   1      42.512  29.687  34.562  1.00  0.00     0.074 A 
ATOM     56  C   UNL A   1      42.775  30.130  35.916  1.00  0.00     0.031 C 
ATOM     57  C   UNL A   1      43.267  28.774  33.900  1.00  0.00     0.034 A 
BRANCH  44  58
ATOM     58  C   UNL A   1      41.270  27.520  28.164  1.00  0.00     0.023 A 
ATOM     59  C   UNL A   1      40.922  26.158  28.122  1.00  0.00     0.031 A 
ATOM     60  C   UNL A   1      41.781  28.104  26.991  1.00  0.00     0.131 A 
ATOM     61  C   UNL A   1      41.152  25.412  26.955  1.00  0.00     0.055 A 
ATOM     62  C   UNL A   1      41.930  27.375  25.810  1.00  0.00     0.041 A 
ATOM     63  F   UNL A   1      42.151  29.394  26.976  1.00  0.00    -0.206 F 
ATOM     64  C   UNL A   1      41.629  26.017  25.791  1.00  0.00     0.022 A 
BRANCH  61  65
ATOM     65  S   UNL A   1      40.947  23.611  27.024  1.00  0.00     0.124 S 
ATOM     66  O   UNL A   1      39.507  23.470  26.815  1.00  0.00    -0.237 OA
ATOM     67  O   UNL A   1      41.799  23.155  25.933  1.00  0.00    -0.237 OA
ATOM     68  O   UNL A   1      41.411  23.265  28.366  1.00  0.00    -0.744 OA
ENDBRANCH  61  65
ENDBRANCH  44  58
BRANCH  45  69
ATOM     69  C   UNL A   1      39.623  32.878  36.484  1.00  0.00     0.023 A 
ATOM     70  C   UNL A   1      38.730  32.384  37.448  1.00  0.00     0.031 A 
ATOM     71  C   UNL A   1      40.216  34.132  36.719  1.00  0.00     0.131 A 
ATOM     72  C   UNL A   1      38.409  33.162  38.570  1.00  0.00     0.055 A 
ATOM     73  C   UNL A   1      39.941  34.875  37.868  1.00  0.00     0.041 A 
ATOM     74  F   UNL A   1      41.080  34.652  35.832  1.00  0.00    -0.206 F 
ATOM     75  C   UNL A   1      39.019  34.398  38.795  1.00  0.00     0.022 A 
BRANCH  72  76
ATOM     76  S   UNL A   1      37.095  32.583  39.679  1.00  0.00     0.124 S 
ATOM     77  O   UNL A   1      37.529  31.221  39.964  1.00  0.00    -0.237 OA
ATOM     78  O   UNL A   1      37.192  33.533  40.782  1.00  0.00    -0.237 OA
ATOM     79  O   UNL A   1      35.888  32.697  38.863  1.00  0.00    -0.744 OA
ENDBRANCH  72  76
ENDBRANCH  45  69
BRANCH  57  80
ATOM     80  C   UNL A   1      44.481  28.235  34.619  1.00  0.00     0.023 A 
ATOM     81  C   UNL A   1      44.429  27.056  35.383  1.00  0.00     0.031 A 
ATOM     82  C   UNL A   1      45.706  28.922  34.545  1.00  0.00     0.131 A 
ATOM     83  C   UNL A   1      45.564  26.632  36.090  1.00  0.00     0.055 A 
ATOM     84  C   UNL A   1      46.850  28.458  35.196  1.00  0.00     0.041 A 
ATOM     85  F   UNL A   1      45.813  30.055  33.832  1.00  0.00    -0.206 F 
ATOM     86  C   UNL A   1      46.779  27.314  35.986  1.00  0.00     0.022 A 
BRANCH  83  87
ATOM     87  S   UNL A   1      45.407  25.227  37.226  1.00  0.00     0.124 S 
ATOM     88  O   UNL A   1      43.972  25.210  37.490  1.00  0.00    -0.237 OA
ATOM     89  O   UNL A   1      45.920  24.119  36.427  1.00  0.00    -0.237 OA
ATOM     90  O   UNL A   1      46.242  25.609  38.363  1.00  0.00    -0.744 OA
ENDBRANCH  83  87
ENDBRANCH  57  80
ENDBRANCH  31  32
ENDBRANCH  23  26
ENDBRANCH  21  22
ENDBRANCH  20  21
ENDBRANCH   1  20
TORSDOF 18
ENDMDL
MODEL 3
REMARK VINA RESULT:     -10.9      2.304      8.268
REMARK SMILES Nc1ccc(O)c(C(=O)NCCCCCCNC(=O)c2ccc(-c3c4nc(c(-c5cc(S(=O)(=O)[O-])ccc5F)c5ccc([nH]5)c(-c5cc(S(=O)(=O)[O-])ccc5F)c5nc(c(-c6cc(S(=O)(=O)[O-])ccc6F)c6ccc3[nH]6)C=C5)C=C4)cc2)c1
REMARK SMILES IDX 14 1 13 2 12 3 11 4 10 5 8 6 9 7 7 9 2 10 3 11 83 12 4 13
REMARK SMILES IDX 5 14 1 15 6 18 15 20 16 21 17 22 18 23 19 25 20 26 21 27
REMARK SMILES IDX 82 28 22 29 81 30 23 31 24 32 25 33 75 34 26 35 80 36 74 37
REMARK SMILES IDX 76 38 27 39 79 40 73 41 72 42 28 44 60 45 40 46 59 47 41 48
REMARK SMILES IDX 44 49 58 50 77 51 42 52 43 53 57 55 78 56 45 57 29 58 30 59
REMARK SMILES IDX 38 60 31 61 37 62 39 63 36 64 32 65 33 66 34 67 35 68 61 69
REMARK SMILES IDX 62 70 70 71 63 72 69 73 71 74 68 75 64 76 65 77 66 78 67 79
REMARK SMILES IDX 46 80 47 81 55 82 48 83 54 84 56 85 53 86 49 87 50 88 51 89
REMARK SMILES IDX 52 90
REMARK H PARENT 10 8 1 16 1 17 6 19 17 24 76 43 44 54
REMARK Flexibility Score: inf
ROOT
ATOM      1  C   UNL A   1      31.817  27.914  27.134  1.00  0.00     0.002 C 
ENDROOT
BRANCH   1   2
ATOM      2  C   UNL A   1      32.071  26.533  26.514  1.00  0.00     0.002 C 
BRANCH   2   3
ATOM      3  C   UNL A   1      33.411  26.395  25.774  1.00  0.00     0.021 C 
BRANCH   3   4
ATOM      4  C   UNL A   1      33.488  25.139  24.905  1.00  0.00     0.116 C 
BRANCH   4   5
ATOM      5  N   UNL A   1      33.754  25.512  23.528  1.00  0.00    -0.352 N 
ATOM      6  C   UNL A   1      33.045  26.179  22.568  1.00  0.00     0.255 C 
ATOM      7  O   UNL A   1      33.588  26.287  21.462  1.00  0.00    -0.269 OA
ATOM      8  H   UNL A   1      34.641  25.220  23.217  1.00  0.00     0.163 HD
BRANCH   6   9
ATOM      9  C   UNL A   1      31.723  26.843  22.764  1.00  0.00     0.083 A 
ATOM     10  C   UNL A   1      29.388  26.891  23.489  1.00  0.00     0.032 A 
ATOM     11  C   UNL A   1      29.330  28.256  23.213  1.00  0.00     0.029 A 
ATOM     12  C   UNL A   1      30.560  26.184  23.181  1.00  0.00     0.043 A 
ATOM     13  C   UNL A   1      30.445  28.923  22.714  1.00  0.00     0.049 A 
ATOM     14  C   UNL A   1      31.632  28.225  22.504  1.00  0.00     0.128 A 
BRANCH  10  15
ATOM     15  N   UNL A   1      28.258  26.220  23.933  1.00  0.00    -0.399 N 
ATOM     16  H   UNL A   1      27.950  25.410  23.465  1.00  0.00     0.156 HD
ATOM     17  H   UNL A   1      27.764  26.553  24.717  1.00  0.00     0.156 HD
ENDBRANCH  10  15
BRANCH  14  18
ATOM     18  O   UNL A   1      32.674  28.976  22.020  1.00  0.00    -0.507 OA
ATOM     19  H   UNL A   1      32.935  28.892  21.124  1.00  0.00     0.293 HD
ENDBRANCH  14  18
ENDBRANCH   6   9
ENDBRANCH   4   5
ENDBRANCH   3   4
ENDBRANCH   2   3
ENDBRANCH   1   2
BRANCH   1  20
ATOM     20  C   UNL A   1      31.566  29.036  26.123  1.00  0.00     0.021 C 
BRANCH  20  21
ATOM     21  C   UNL A   1      32.792  29.894  25.826  1.00  0.00     0.116 C 
BRANCH  21  22
ATOM     22  N   UNL A   1      32.575  31.281  26.202  1.00  0.00    -0.352 N 
ATOM     23  C   UNL A   1      33.193  32.023  27.177  1.00  0.00     0.251 C 
ATOM     24  H   UNL A   1      31.887  31.756  25.682  1.00  0.00     0.163 HD
ATOM     25  O   UNL A   1      32.706  33.091  27.531  1.00  0.00    -0.269 OA
BRANCH  23  26
ATOM     26  C   UNL A   1      34.436  31.521  27.803  1.00  0.00     0.039 A 
ATOM     27  C   UNL A   1      35.531  32.381  27.921  1.00  0.00     0.014 A 
ATOM     28  C   UNL A   1      34.525  30.202  28.256  1.00  0.00     0.014 A 
ATOM     29  C   UNL A   1      36.698  31.931  28.543  1.00  0.00     0.010 A 
ATOM     30  C   UNL A   1      35.662  29.779  28.940  1.00  0.00     0.010 A 
ATOM     31  C   UNL A   1      36.762  30.636  29.086  1.00  0.00    -0.014 A 
BRANCH  31  32
ATOM     32  C   UNL A   1      37.976  30.161  29.801  1.00  0.00     0.031 A 
ATOM     33  C   UNL A   1      38.272  30.653  31.192  1.00  0.00     0.074 A 
ATOM     34  C   UNL A   1      38.837  29.333  29.175  1.00  0.00     0.049 A 
ATOM     35  N   UNL A   1      39.311  30.416  31.950  1.00  0.00    -0.248 NA
ATOM     36  C   UNL A   1      37.280  31.556  31.798  1.00  0.00     0.031 C 
ATOM     37  C   UNL A   1      38.672  28.816  27.814  1.00  0.00     0.029 A 
ATOM     38  N   UNL A   1      40.024  28.787  29.593  1.00  0.00    -0.354 N 
ATOM     39  C   UNL A   1      39.107  31.147  33.116  1.00  0.00     0.074 A 
ATOM     40  C   UNL A   1      37.872  31.882  32.937  1.00  0.00     0.031 C 
ATOM     41  C   UNL A   1      39.704  28.006  27.523  1.00  0.00     0.029 A 
ATOM     42  C   UNL A   1      40.630  27.987  28.651  1.00  0.00     0.049 A 
ATOM     43  H   UNL A   1      40.408  28.953  30.485  1.00  0.00     0.167 HD
ATOM     44  C   UNL A   1      39.868  31.186  34.237  1.00  0.00     0.034 A 
ATOM     45  C   UNL A   1      41.804  27.325  28.687  1.00  0.00     0.034 A 
ATOM     46  C   UNL A   1      41.087  30.434  34.402  1.00  0.00     0.049 A 
ATOM     47  C   UNL A   1      42.647  27.409  29.936  1.00  0.00     0.074 A 
ATOM     48  C   UNL A   1      41.905  30.354  35.517  1.00  0.00     0.029 A 
ATOM     49  N   UNL A   1      41.673  29.639  33.425  1.00  0.00    -0.354 N 
ATOM     50  N   UNL A   1      42.411  28.065  31.049  1.00  0.00    -0.248 NA
ATOM     51  C   UNL A   1      43.907  26.656  29.936  1.00  0.00     0.031 C 
ATOM     52  C   UNL A   1      43.018  29.574  35.189  1.00  0.00     0.029 A 
ATOM     53  C   UNL A   1      42.857  29.096  33.899  1.00  0.00     0.049 A 
ATOM     54  H   UNL A   1      41.301  29.485  32.526  1.00  0.00     0.167 HD
ATOM     55  C   UNL A   1      43.478  27.769  31.895  1.00  0.00     0.074 A 
ATOM     56  C   UNL A   1      44.346  26.867  31.167  1.00  0.00     0.031 C 
ATOM     57  C   UNL A   1      43.716  28.201  33.159  1.00  0.00     0.034 A 
BRANCH  44  58
ATOM     58  C   UNL A   1      39.416  32.091  35.360  1.00  0.00     0.023 A 
ATOM     59  C   UNL A   1      39.880  33.413  35.478  1.00  0.00     0.031 A 
ATOM     60  C   UNL A   1      38.513  31.622  36.331  1.00  0.00     0.131 A 
ATOM     61  C   UNL A   1      39.493  34.196  36.577  1.00  0.00     0.055 A 
ATOM     62  C   UNL A   1      38.068  32.434  37.376  1.00  0.00     0.041 A 
ATOM     63  F   UNL A   1      38.052  30.362  36.284  1.00  0.00    -0.206 F 
ATOM     64  C   UNL A   1      38.569  33.724  37.512  1.00  0.00     0.022 A 
BRANCH  61  65
ATOM     65  S   UNL A   1      40.319  35.789  36.839  1.00  0.00     0.124 S 
ATOM     66  O   UNL A   1      41.714  35.445  36.573  1.00  0.00    -0.237 OA
ATOM     67  O   UNL A   1      39.672  36.646  35.852  1.00  0.00    -0.237 OA
ATOM     68  O   UNL A   1      40.018  36.105  38.233  1.00  0.00    -0.744 OA
ENDBRANCH  61  65
ENDBRANCH  44  58
BRANCH  45  69
ATOM     69  C   UNL A   1      42.267  26.532  27.510  1.00  0.00     0.023 A 
ATOM     70  C   UNL A   1      41.916  25.181  27.366  1.00  0.00     0.031 A 
ATOM     71  C   UNL A   1      43.119  27.097  26.543  1.00  0.00     0.131 A 
ATOM     72  C   UNL A   1      42.461  24.423  26.318  1.00  0.00     0.055 A 
ATOM     73  C   UNL A   1      43.607  26.356  25.466  1.00  0.00     0.041 A 
ATOM     74  F   UNL A   1      43.485  28.386  26.629  1.00  0.00    -0.206 F 
ATOM     75  C   UNL A   1      43.292  25.005  25.358  1.00  0.00     0.022 A 
BRANCH  72  76
ATOM     76  S   UNL A   1      42.152  22.636  26.290  1.00  0.00     0.124 S 
ATOM     77  O   UNL A   1      42.894  22.189  27.463  1.00  0.00    -0.237 OA
ATOM     78  O   UNL A   1      40.698  22.579  26.388  1.00  0.00    -0.237 OA
ATOM     79  O   UNL A   1      42.706  22.217  25.003  1.00  0.00    -0.744 OA
ENDBRANCH  72  76
ENDBRANCH  45  69
BRANCH  57  80
ATOM     80  C   UNL A   1      44.942  27.655  33.852  1.00  0.00     0.023 A 
ATOM     81  C   UNL A   1      44.905  26.465  34.600  1.00  0.00     0.031 A 
ATOM     82  C   UNL A   1      46.164  28.346  33.771  1.00  0.00     0.131 A 
ATOM     83  C   UNL A   1      46.051  26.034  35.284  1.00  0.00     0.055 A 
ATOM     84  C   UNL A   1      47.319  27.877  34.399  1.00  0.00     0.041 A 
ATOM     85  F   UNL A   1      46.258  29.490  33.073  1.00  0.00    -0.206 F 
ATOM     86  C   UNL A   1      47.262  26.722  35.173  1.00  0.00     0.022 A 
BRANCH  83  87
ATOM     87  S   UNL A   1      45.913  24.612  36.403  1.00  0.00     0.124 S 
ATOM     88  O   UNL A   1      45.975  25.251  37.713  1.00  0.00    -0.237 OA
ATOM     89  O   UNL A   1      44.621  24.045  36.031  1.00  0.00    -0.237 OA
ATOM     90  O   UNL A   1      47.072  23.791  36.058  1.00  0.00    -0.744 OA
ENDBRANCH  83  87
ENDBRANCH  57  80
ENDBRANCH  31  32
ENDBRANCH  23  26
ENDBRANCH  21  22
ENDBRANCH  20  21
ENDBRANCH   1  20
TORSDOF 18
ENDMDL
