MODEL 1
REMARK VINA RESULT:     -11.2      0.000      0.000
REMARK SMILES Cc1cc(C(=O)N[C@@H](C)C(=O)NCCCCCCNC(=O)c2ccc(-c3c4nc(c(-c5cc(S(=O)(=O)[O-])ccc5F)c5ccc([nH]5)c(-c5cc(S(=O)(=O)[O-])ccc5F)c5nc(c(-c6cc(S(=O)(=O)[O-])ccc6F)c6ccc3[nH]6)C=C5)C=C4)cc2)cc(C)c1OC(F)F
REMARK SMILES IDX 15 1 14 2 13 3 12 4 10 5 11 6 8 8 9 9 7 10 5 11 6 12 4 14
REMARK SMILES IDX 1 15 2 16 3 17 88 18 86 19 85 20 87 21 89 22 90 23 91 24
REMARK SMILES IDX 92 25 16 26 17 27 18 28 19 29 20 30 21 32 22 33 23 34 84 35
REMARK SMILES IDX 24 36 83 37 25 38 26 39 27 40 77 41 28 42 82 43 76 44 78 45
REMARK SMILES IDX 29 46 81 47 75 48 74 49 30 51 62 52 42 53 61 54 43 55 46 56
REMARK SMILES IDX 60 57 79 58 44 59 45 60 59 62 80 63 47 64 31 65 32 66 40 67
REMARK SMILES IDX 33 68 39 69 41 70 38 71 34 72 35 73 36 74 37 75 63 76 64 77
REMARK SMILES IDX 72 78 65 79 71 80 73 81 70 82 66 83 67 84 68 85 69 86 48 87
REMARK SMILES IDX 49 88 57 89 50 90 56 91 58 92 55 93 51 94 52 95 53 96 54 97
REMARK H PARENT 12 7 7 13 19 31 78 50 46 61
REMARK Flexibility Score: inf
ROOT
ATOM      1  C   UNL A   1      31.551  29.271  26.816  1.00  0.00     0.002 C 
ENDROOT
BRANCH   1   2
ATOM      2  C   UNL A   1      32.360  28.061  26.344  1.00  0.00     0.021 C 
BRANCH   2   3
ATOM      3  C   UNL A   1      31.566  27.003  25.583  1.00  0.00     0.116 C 
BRANCH   3   4
ATOM      4  N   UNL A   1      30.921  27.528  24.395  1.00  0.00    -0.354 N 
ATOM      5  C   UNL A   1      31.404  27.703  23.130  1.00  0.00     0.242 C 
ATOM      6  O   UNL A   1      30.608  28.055  22.253  1.00  0.00    -0.273 OA
ATOM      7  H   UNL A   1      29.983  27.802  24.521  1.00  0.00     0.163 HD
BRANCH   5   8
ATOM      8  C   UNL A   1      32.891  27.469  22.790  1.00  0.00     0.168 C 
ATOM      9  C   UNL A   1      33.712  28.754  22.796  1.00  0.00     0.041 C 
BRANCH   8  10
ATOM     10  N   UNL A   1      32.981  26.712  21.541  1.00  0.00    -0.341 N 
ATOM     11  C   UNL A   1      33.059  25.367  21.270  1.00  0.00     0.251 C 
ATOM     12  O   UNL A   1      32.947  25.022  20.094  1.00  0.00    -0.269 OA
ATOM     13  H   UNL A   1      32.989  27.277  20.735  1.00  0.00     0.164 HD
BRANCH  11  14
ATOM     14  C   UNL A   1      33.386  24.338  22.294  1.00  0.00     0.040 A 
ATOM     15  C   UNL A   1      35.501  24.482  25.418  1.00  0.00     0.048 C 
ATOM     16  C   UNL A   1      34.540  23.876  24.433  1.00  0.00    -0.008 A 
ATOM     17  C   UNL A   1      34.259  24.710  23.322  1.00  0.00     0.021 A 
ATOM     18  C   UNL A   1      33.840  22.662  24.540  1.00  0.00     0.131 A 
ATOM     19  C   UNL A   1      33.028  22.243  23.457  1.00  0.00    -0.008 A 
ATOM     20  C   UNL A   1      32.868  23.054  22.320  1.00  0.00     0.021 A 
ATOM     21  C   UNL A   1      32.211  20.975  23.497  1.00  0.00     0.048 C 
BRANCH  18  22
ATOM     22  O   UNL A   1      33.737  21.830  25.615  1.00  0.00    -0.434 OA
BRANCH  22  23
ATOM     23  C   UNL A   1      32.982  22.144  26.765  1.00  0.00     0.542 C 
ATOM     24  F   UNL A   1      33.767  22.205  27.864  1.00  0.00    -0.167 F 
ATOM     25  F   UNL A   1      32.353  23.329  26.587  1.00  0.00    -0.167 F 
ENDBRANCH  22  23
ENDBRANCH  18  22
ENDBRANCH  11  14
ENDBRANCH   8  10
ENDBRANCH   5   8
ENDBRANCH   3   4
ENDBRANCH   2   3
ENDBRANCH   1   2
BRANCH   1  26
ATOM     26  C   UNL A   1      31.506  30.460  25.851  1.00  0.00     0.002 C 
BRANCH  26  27
ATOM     27  C   UNL A   1      31.414  31.846  26.498  1.00  0.00     0.021 C 
BRANCH  27  28
ATOM     28  C   UNL A   1      32.719  32.400  27.062  1.00  0.00     0.116 C 
BRANCH  28  29
ATOM     29  N   UNL A   1      32.560  33.728  27.623  1.00  0.00    -0.352 N 
ATOM     30  C   UNL A   1      33.267  34.356  28.618  1.00  0.00     0.251 C 
ATOM     31  H   UNL A   1      31.832  34.261  27.231  1.00  0.00     0.163 HD
ATOM     32  O   UNL A   1      32.852  35.423  29.059  1.00  0.00    -0.269 OA
BRANCH  30  33
ATOM     33  C   UNL A   1      34.499  33.750  29.178  1.00  0.00     0.039 A 
ATOM     34  C   UNL A   1      34.363  32.727  30.122  1.00  0.00     0.014 A 
ATOM     35  C   UNL A   1      35.776  34.200  28.826  1.00  0.00     0.014 A 
ATOM     36  C   UNL A   1      35.498  32.130  30.674  1.00  0.00     0.010 A 
ATOM     37  C   UNL A   1      36.910  33.557  29.328  1.00  0.00     0.010 A 
ATOM     38  C   UNL A   1      36.785  32.520  30.263  1.00  0.00    -0.014 A 
BRANCH  38  39
ATOM     39  C   UNL A   1      37.986  31.832  30.810  1.00  0.00     0.031 A 
ATOM     40  C   UNL A   1      38.511  32.174  32.180  1.00  0.00     0.074 A 
ATOM     41  C   UNL A   1      38.613  30.906  30.056  1.00  0.00     0.049 A 
ATOM     42  N   UNL A   1      39.513  31.645  32.835  1.00  0.00    -0.248 NA
ATOM     43  C   UNL A   1      37.839  33.266  32.899  1.00  0.00     0.031 C 
ATOM     44  C   UNL A   1      38.232  30.532  28.692  1.00  0.00     0.029 A 
ATOM     45  N   UNL A   1      39.694  30.104  30.328  1.00  0.00    -0.354 N 
ATOM     46  C   UNL A   1      39.601  32.345  34.034  1.00  0.00     0.074 A 
ATOM     47  C   UNL A   1      38.580  33.369  33.994  1.00  0.00     0.031 C 
ATOM     48  C   UNL A   1      39.040  29.549  28.262  1.00  0.00     0.029 A 
ATOM     49  C   UNL A   1      40.017  29.244  29.302  1.00  0.00     0.049 A 
ATOM     50  H   UNL A   1      40.191  30.141  31.176  1.00  0.00     0.167 HD
ATOM     51  C   UNL A   1      40.443  32.139  35.077  1.00  0.00     0.034 A 
ATOM     52  C   UNL A   1      40.986  28.312  29.212  1.00  0.00     0.034 A 
ATOM     53  C   UNL A   1      41.439  31.095  35.113  1.00  0.00     0.049 A 
ATOM     54  C   UNL A   1      41.895  28.094  30.398  1.00  0.00     0.074 A 
ATOM     55  C   UNL A   1      42.280  30.743  36.156  1.00  0.00     0.029 A 
ATOM     56  N   UNL A   1      41.738  30.241  34.059  1.00  0.00    -0.354 N 
ATOM     57  N   UNL A   1      41.896  28.703  31.562  1.00  0.00    -0.248 NA
ATOM     58  C   UNL A   1      42.916  27.049  30.263  1.00  0.00     0.031 C 
ATOM     59  C   UNL A   1      43.133  29.727  35.709  1.00  0.00     0.029 A 
ATOM     60  C   UNL A   1      42.775  29.391  34.414  1.00  0.00     0.049 A 
ATOM     61  H   UNL A   1      41.281  30.240  33.188  1.00  0.00     0.167 HD
ATOM     62  C   UNL A   1      42.901  28.090  32.306  1.00  0.00     0.074 A 
ATOM     63  C   UNL A   1      43.456  27.045  31.471  1.00  0.00     0.031 C 
ATOM     64  C   UNL A   1      43.330  28.363  33.565  1.00  0.00     0.034 A 
BRANCH  51  65
ATOM     65  C   UNL A   1      40.345  33.076  36.258  1.00  0.00     0.023 A 
ATOM     66  C   UNL A   1      39.602  32.753  37.406  1.00  0.00     0.031 A 
ATOM     67  C   UNL A   1      41.023  34.309  36.239  1.00  0.00     0.131 A 
ATOM     68  C   UNL A   1      39.510  33.671  38.463  1.00  0.00     0.055 A 
ATOM     69  C   UNL A   1      40.985  35.188  37.323  1.00  0.00     0.041 A 
ATOM     70  F   UNL A   1      41.734  34.680  35.163  1.00  0.00    -0.206 F 
ATOM     71  C   UNL A   1      40.217  34.875  38.441  1.00  0.00     0.022 A 
BRANCH  68  72
ATOM     72  S   UNL A   1      38.370  33.317  39.829  1.00  0.00     0.124 S 
ATOM     73  O   UNL A   1      39.011  32.166  40.458  1.00  0.00    -0.237 OA
ATOM     74  O   UNL A   1      38.396  34.560  40.593  1.00  0.00    -0.237 OA
ATOM     75  O   UNL A   1      37.105  33.027  39.154  1.00  0.00    -0.744 OA
ENDBRANCH  68  72
ENDBRANCH  51  65
BRANCH  52  76
ATOM     76  C   UNL A   1      41.162  27.505  27.969  1.00  0.00     0.023 A 
ATOM     77  C   UNL A   1      40.821  26.143  27.936  1.00  0.00     0.031 A 
ATOM     78  C   UNL A   1      41.747  28.063  26.818  1.00  0.00     0.131 A 
ATOM     79  C   UNL A   1      41.131  25.370  26.807  1.00  0.00     0.055 A 
ATOM     80  C   UNL A   1      41.995  27.304  25.674  1.00  0.00     0.041 A 
ATOM     81  F   UNL A   1      42.088  29.362  26.791  1.00  0.00    -0.206 F 
ATOM     82  C   UNL A   1      41.704  25.943  25.671  1.00  0.00     0.022 A 
BRANCH  79  83
ATOM     83  S   UNL A   1      40.882  23.574  26.891  1.00  0.00     0.124 S 
ATOM     84  O   UNL A   1      41.664  23.112  25.751  1.00  0.00    -0.237 OA
ATOM     85  O   UNL A   1      41.421  23.257  28.210  1.00  0.00    -0.237 OA
ATOM     86  O   UNL A   1      39.434  23.426  26.759  1.00  0.00    -0.744 OA
ENDBRANCH  79  83
ENDBRANCH  52  76
BRANCH  64  87
ATOM     87  C   UNL A   1      44.433  27.489  34.110  1.00  0.00     0.023 A 
ATOM     88  C   UNL A   1      44.153  26.279  34.774  1.00  0.00     0.031 A 
ATOM     89  C   UNL A   1      45.776  27.893  34.014  1.00  0.00     0.131 A 
ATOM     90  C   UNL A   1      45.192  25.561  35.386  1.00  0.00     0.055 A 
ATOM     91  C   UNL A   1      46.812  27.136  34.562  1.00  0.00     0.041 A 
ATOM     92  F   UNL A   1      46.103  29.038  33.393  1.00  0.00    -0.206 F 
ATOM     93  C   UNL A   1      46.521  25.973  35.271  1.00  0.00     0.022 A 
BRANCH  90  94
ATOM     94  S   UNL A   1      44.763  24.153  36.446  1.00  0.00     0.124 S 
ATOM     95  O   UNL A   1      44.192  24.815  37.615  1.00  0.00    -0.237 OA
ATOM     96  O   UNL A   1      43.824  23.410  35.613  1.00  0.00    -0.237 OA
ATOM     97  O   UNL A   1      46.047  23.492  36.673  1.00  0.00    -0.744 OA
ENDBRANCH  90  94
ENDBRANCH  64  87
ENDBRANCH  38  39
ENDBRANCH  30  33
ENDBRANCH  28  29
ENDBRANCH  27  28
ENDBRANCH  26  27
ENDBRANCH   1  26
TORSDOF 20
ENDMDL
MODEL 2
REMARK VINA RESULT:     -10.8      5.856      9.517
REMARK SMILES Cc1cc(C(=O)N[C@@H](C)C(=O)NCCCCCCNC(=O)c2ccc(-c3c4nc(c(-c5cc(S(=O)(=O)[O-])ccc5F)c5ccc([nH]5)c(-c5cc(S(=O)(=O)[O-])ccc5F)c5nc(c(-c6cc(S(=O)(=O)[O-])ccc6F)c6ccc3[nH]6)C=C5)C=C4)cc2)cc(C)c1OC(F)F
REMARK SMILES IDX 15 1 14 2 13 3 12 4 10 5 11 6 8 8 9 9 7 10 5 11 6 12 4 14
REMARK SMILES IDX 1 15 2 16 3 17 88 18 86 19 85 20 87 21 89 22 90 23 91 24
REMARK SMILES IDX 92 25 16 26 17 27 18 28 19 29 20 30 21 32 22 33 23 34 84 35
REMARK SMILES IDX 24 36 83 37 25 38 26 39 27 40 77 41 28 42 82 43 76 44 78 45
REMARK SMILES IDX 29 46 81 47 75 48 74 49 30 51 62 52 42 53 61 54 43 55 46 56
REMARK SMILES IDX 60 57 79 58 44 59 45 60 59 62 80 63 47 64 31 65 32 66 40 67
REMARK SMILES IDX 33 68 39 69 41 70 38 71 34 72 35 73 36 74 37 75 63 76 64 77
REMARK SMILES IDX 72 78 65 79 71 80 73 81 70 82 66 83 67 84 68 85 69 86 48 87
REMARK SMILES IDX 49 88 57 89 50 90 56 91 58 92 55 93 51 94 52 95 53 96 54 97
REMARK H PARENT 12 7 7 13 19 31 78 50 46 61
REMARK Flexibility Score: inf
ROOT
ATOM      1  C   UNL A   1      37.964  23.821  26.353  1.00  0.00     0.002 C 
ENDROOT
BRANCH   1   2
ATOM      2  C   UNL A   1      36.577  23.712  25.715  1.00  0.00     0.021 C 
BRANCH   2   3
ATOM      3  C   UNL A   1      35.572  22.859  26.482  1.00  0.00     0.116 C 
BRANCH   3   4
ATOM      4  N   UNL A   1      35.477  21.505  25.974  1.00  0.00    -0.354 N 
ATOM      5  C   UNL A   1      34.548  20.931  25.154  1.00  0.00     0.242 C 
ATOM      6  O   UNL A   1      34.761  19.779  24.760  1.00  0.00    -0.273 OA
ATOM      7  H   UNL A   1      36.199  20.902  26.266  1.00  0.00     0.163 HD
BRANCH   5   8
ATOM      8  C   UNL A   1      33.271  21.683  24.723  1.00  0.00     0.168 C 
ATOM      9  C   UNL A   1      32.023  20.810  24.767  1.00  0.00     0.041 C 
BRANCH   8  10
ATOM     10  N   UNL A   1      33.508  22.318  23.425  1.00  0.00    -0.341 N 
ATOM     11  C   UNL A   1      33.414  23.618  22.993  1.00  0.00     0.251 C 
ATOM     12  O   UNL A   1      33.852  23.873  21.870  1.00  0.00    -0.269 OA
ATOM     13  H   UNL A   1      33.789  21.688  22.722  1.00  0.00     0.164 HD
BRANCH  11  14
ATOM     14  C   UNL A   1      32.714  24.690  23.751  1.00  0.00     0.040 A 
ATOM     15  C   UNL A   1      33.990  27.327  26.133  1.00  0.00     0.048 C 
ATOM     16  C   UNL A   1      32.978  26.624  25.273  1.00  0.00    -0.008 A 
ATOM     17  C   UNL A   1      33.489  25.483  24.605  1.00  0.00     0.021 A 
ATOM     18  C   UNL A   1      31.658  27.015  24.992  1.00  0.00     0.131 A 
ATOM     19  C   UNL A   1      30.845  26.163  24.203  1.00  0.00    -0.008 A 
ATOM     20  C   UNL A   1      31.364  24.979  23.652  1.00  0.00     0.021 A 
ATOM     21  C   UNL A   1      29.429  26.518  23.818  1.00  0.00     0.048 C 
BRANCH  18  22
ATOM     22  O   UNL A   1      31.035  28.190  25.293  1.00  0.00    -0.434 OA
BRANCH  22  23
ATOM     23  C   UNL A   1      31.361  29.417  24.676  1.00  0.00     0.542 C 
ATOM     24  F   UNL A   1      32.096  29.222  23.558  1.00  0.00    -0.167 F 
ATOM     25  F   UNL A   1      30.227  30.086  24.365  1.00  0.00    -0.167 F 
ENDBRANCH  22  23
ENDBRANCH  18  22
ENDBRANCH  11  14
ENDBRANCH   8  10
ENDBRANCH   5   8
ENDBRANCH   3   4
ENDBRANCH   2   3
ENDBRANCH   1   2
BRANCH   1  26
ATOM     26  C   UNL A   1      39.029  22.869  25.799  1.00  0.00     0.002 C 
BRANCH  26  27
ATOM     27  C   UNL A   1      39.123  21.499  26.481  1.00  0.00     0.021 C 
BRANCH  27  28
ATOM     28  C   UNL A   1      39.433  20.322  25.560  1.00  0.00     0.116 C 
BRANCH  28  29
ATOM     29  N   UNL A   1      40.436  19.434  26.114  1.00  0.00    -0.352 N 
ATOM     30  C   UNL A   1      41.669  19.719  26.647  1.00  0.00     0.251 C 
ATOM     31  H   UNL A   1      40.197  18.479  26.106  1.00  0.00     0.163 HD
ATOM     32  O   UNL A   1      42.433  18.793  26.902  1.00  0.00    -0.269 OA
BRANCH  30  33
ATOM     33  C   UNL A   1      42.091  21.119  26.889  1.00  0.00     0.039 A 
ATOM     34  C   UNL A   1      42.439  21.905  25.786  1.00  0.00     0.014 A 
ATOM     35  C   UNL A   1      42.193  21.653  28.178  1.00  0.00     0.014 A 
ATOM     36  C   UNL A   1      42.842  23.229  25.971  1.00  0.00     0.010 A 
ATOM     37  C   UNL A   1      42.532  22.996  28.357  1.00  0.00     0.010 A 
ATOM     38  C   UNL A   1      42.867  23.798  27.256  1.00  0.00    -0.014 A 
BRANCH  38  39
ATOM     39  C   UNL A   1      43.236  25.229  27.434  1.00  0.00     0.031 A 
ATOM     40  C   UNL A   1      42.267  26.201  28.054  1.00  0.00     0.074 A 
ATOM     41  C   UNL A   1      44.448  25.652  27.019  1.00  0.00     0.049 A 
ATOM     42  N   UNL A   1      42.434  27.470  28.330  1.00  0.00    -0.248 NA
ATOM     43  C   UNL A   1      40.928  25.691  28.384  1.00  0.00     0.031 C 
ATOM     44  C   UNL A   1      45.449  24.815  26.352  1.00  0.00     0.029 A 
ATOM     45  N   UNL A   1      45.049  26.883  27.101  1.00  0.00    -0.354 N 
ATOM     46  C   UNL A   1      41.224  27.912  28.854  1.00  0.00     0.074 A 
ATOM     47  C   UNL A   1      40.315  26.787  28.811  1.00  0.00     0.031 C 
ATOM     48  C   UNL A   1      46.552  25.546  26.122  1.00  0.00     0.029 A 
ATOM     49  C   UNL A   1      46.328  26.910  26.592  1.00  0.00     0.049 A 
ATOM     50  H   UNL A   1      44.608  27.673  27.488  1.00  0.00     0.167 HD
ATOM     51  C   UNL A   1      40.907  29.137  29.341  1.00  0.00     0.034 A 
ATOM     52  C   UNL A   1      47.221  27.916  26.518  1.00  0.00     0.034 A 
ATOM     53  C   UNL A   1      41.833  30.243  29.402  1.00  0.00     0.049 A 
ATOM     54  C   UNL A   1      46.846  29.262  27.087  1.00  0.00     0.074 A 
ATOM     55  C   UNL A   1      41.642  31.497  29.959  1.00  0.00     0.029 A 
ATOM     56  N   UNL A   1      43.120  30.235  28.880  1.00  0.00    -0.354 N 
ATOM     57  N   UNL A   1      45.727  29.632  27.668  1.00  0.00    -0.248 NA
ATOM     58  C   UNL A   1      47.862  30.319  27.008  1.00  0.00     0.031 C 
ATOM     59  C   UNL A   1      42.784  32.266  29.712  1.00  0.00     0.029 A 
ATOM     60  C   UNL A   1      43.719  31.472  29.068  1.00  0.00     0.049 A 
ATOM     61  H   UNL A   1      43.546  29.464  28.441  1.00  0.00     0.167 HD
ATOM     62  C   UNL A   1      45.921  30.957  28.050  1.00  0.00     0.074 A 
ATOM     63  C   UNL A   1      47.272  31.305  27.664  1.00  0.00     0.031 C 
ATOM     64  C   UNL A   1      45.062  31.811  28.663  1.00  0.00     0.034 A 
BRANCH  51  65
ATOM     65  C   UNL A   1      39.493  29.360  29.826  1.00  0.00     0.023 A 
ATOM     66  C   UNL A   1      38.540  30.046  29.054  1.00  0.00     0.031 A 
ATOM     67  C   UNL A   1      39.090  28.860  31.078  1.00  0.00     0.131 A 
ATOM     68  C   UNL A   1      37.250  30.260  29.562  1.00  0.00     0.055 A 
ATOM     69  C   UNL A   1      37.784  29.015  31.547  1.00  0.00     0.041 A 
ATOM     70  F   UNL A   1      39.961  28.212  31.867  1.00  0.00    -0.206 F 
ATOM     71  C   UNL A   1      36.858  29.727  30.792  1.00  0.00     0.022 A 
BRANCH  68  72
ATOM     72  S   UNL A   1      36.117  31.334  28.638  1.00  0.00     0.124 S 
ATOM     73  O   UNL A   1      35.899  30.557  27.421  1.00  0.00    -0.237 OA
ATOM     74  O   UNL A   1      34.976  31.441  29.541  1.00  0.00    -0.237 OA
ATOM     75  O   UNL A   1      36.884  32.566  28.455  1.00  0.00    -0.744 OA
ENDBRANCH  68  72
ENDBRANCH  51  65
BRANCH  52  76
ATOM     76  C   UNL A   1      48.559  27.710  25.889  1.00  0.00     0.023 A 
ATOM     77  C   UNL A   1      48.726  27.797  24.497  1.00  0.00     0.031 A 
ATOM     78  C   UNL A   1      49.676  27.346  26.663  1.00  0.00     0.131 A 
ATOM     79  C   UNL A   1      49.957  27.455  23.916  1.00  0.00     0.055 A 
ATOM     80  C   UNL A   1      50.915  27.069  26.084  1.00  0.00     0.041 A 
ATOM     81  F   UNL A   1      49.577  27.253  27.998  1.00  0.00    -0.206 F 
ATOM     82  C   UNL A   1      51.057  27.104  24.700  1.00  0.00     0.022 A 
BRANCH  79  83
ATOM     83  S   UNL A   1      50.065  27.361  22.107  1.00  0.00     0.124 S 
ATOM     84  O   UNL A   1      51.401  26.809  21.917  1.00  0.00    -0.237 OA
ATOM     85  O   UNL A   1      48.952  26.473  21.785  1.00  0.00    -0.237 OA
ATOM     86  O   UNL A   1      49.896  28.750  21.684  1.00  0.00    -0.744 OA
ENDBRANCH  79  83
ENDBRANCH  52  76
BRANCH  64  87
ATOM     87  C   UNL A   1      45.587  33.192  28.975  1.00  0.00     0.023 A 
ATOM     88  C   UNL A   1      45.436  34.259  28.069  1.00  0.00     0.031 A 
ATOM     89  C   UNL A   1      46.293  33.433  30.166  1.00  0.00     0.131 A 
ATOM     90  C   UNL A   1      46.054  35.491  28.331  1.00  0.00     0.055 A 
ATOM     91  C   UNL A   1      46.843  34.683  30.454  1.00  0.00     0.041 A 
ATOM     92  F   UNL A   1      46.470  32.454  31.067  1.00  0.00    -0.206 F 
ATOM     93  C   UNL A   1      46.742  35.715  29.525  1.00  0.00     0.022 A 
BRANCH  90  94
ATOM     94  S   UNL A   1      46.055  36.754  27.028  1.00  0.00     0.124 S 
ATOM     95  O   UNL A   1      46.573  36.010  25.885  1.00  0.00    -0.237 OA
ATOM     96  O   UNL A   1      44.647  37.129  26.958  1.00  0.00    -0.237 OA
ATOM     97  O   UNL A   1      46.946  37.786  27.553  1.00  0.00    -0.744 OA
ENDBRANCH  90  94
ENDBRANCH  64  87
ENDBRANCH  38  39
ENDBRANCH  30  33
ENDBRANCH  28  29
ENDBRANCH  27  28
ENDBRANCH  26  27
ENDBRANCH   1  26
TORSDOF 20
ENDMDL
MODEL 3
REMARK VINA RESULT:     -10.8      3.177      3.997
REMARK SMILES Cc1cc(C(=O)N[C@@H](C)C(=O)NCCCCCCNC(=O)c2ccc(-c3c4nc(c(-c5cc(S(=O)(=O)[O-])ccc5F)c5ccc([nH]5)c(-c5cc(S(=O)(=O)[O-])ccc5F)c5nc(c(-c6cc(S(=O)(=O)[O-])ccc6F)c6ccc3[nH]6)C=C5)C=C4)cc2)cc(C)c1OC(F)F
REMARK SMILES IDX 15 1 14 2 13 3 12 4 10 5 11 6 8 8 9 9 7 10 5 11 6 12 4 14
REMARK SMILES IDX 1 15 2 16 3 17 88 18 86 19 85 20 87 21 89 22 90 23 91 24
REMARK SMILES IDX 92 25 16 26 17 27 18 28 19 29 20 30 21 32 22 33 23 34 84 35
REMARK SMILES IDX 24 36 83 37 25 38 26 39 27 40 77 41 28 42 82 43 76 44 78 45
REMARK SMILES IDX 29 46 81 47 75 48 74 49 30 51 62 52 42 53 61 54 43 55 46 56
REMARK SMILES IDX 60 57 79 58 44 59 45 60 59 62 80 63 47 64 31 65 32 66 40 67
REMARK SMILES IDX 33 68 39 69 41 70 38 71 34 72 35 73 36 74 37 75 63 76 64 77
REMARK SMILES IDX 72 78 65 79 71 80 73 81 70 82 66 83 67 84 68 85 69 86 48 87
REMARK SMILES IDX 49 88 57 89 50 90 56 91 58 92 55 93 51 94 52 95 53 96 54 97
REMARK H PARENT 12 7 7 13 19 31 78 50 46 61
REMARK Flexibility Score: inf
ROOT
ATOM      1  C   UNL A   1      31.257  29.466  24.876  1.00  0.00     0.002 C 
ENDROOT
BRANCH   1   2
ATOM      2  C   UNL A   1      30.429  29.734  23.616  1.00  0.00     0.021 C 
BRANCH   2   3
ATOM      3  C   UNL A   1      30.195  28.522  22.720  1.00  0.00     0.116 C 
BRANCH   3   4
ATOM      4  N   UNL A   1      29.063  27.720  23.140  1.00  0.00    -0.354 N 
ATOM      5  C   UNL A   1      29.015  26.589  23.902  1.00  0.00     0.242 C 
ATOM      6  O   UNL A   1      27.903  26.160  24.227  1.00  0.00    -0.273 OA
ATOM      7  H   UNL A   1      28.187  28.044  22.825  1.00  0.00     0.163 HD
BRANCH   5   8
ATOM      8  C   UNL A   1      30.298  25.859  24.353  1.00  0.00     0.168 C 
ATOM      9  C   UNL A   1      30.642  26.108  25.816  1.00  0.00     0.041 C 
BRANCH   8  10
ATOM     10  N   UNL A   1      31.383  26.184  23.424  1.00  0.00    -0.341 N 
ATOM     11  C   UNL A   1      32.599  25.598  23.170  1.00  0.00     0.251 C 
ATOM     12  O   UNL A   1      33.228  26.006  22.193  1.00  0.00    -0.269 OA
ATOM     13  H   UNL A   1      31.206  26.981  22.873  1.00  0.00     0.164 HD
BRANCH  11  14
ATOM     14  C   UNL A   1      33.236  24.597  24.068  1.00  0.00     0.040 A 
ATOM     15  C   UNL A   1      32.500  20.946  24.685  1.00  0.00     0.048 C 
ATOM     16  C   UNL A   1      33.269  22.233  24.797  1.00  0.00    -0.008 A 
ATOM     17  C   UNL A   1      32.677  23.315  24.098  1.00  0.00     0.021 A 
ATOM     18  C   UNL A   1      34.513  22.448  25.413  1.00  0.00     0.131 A 
ATOM     19  C   UNL A   1      35.033  23.766  25.463  1.00  0.00    -0.008 A 
ATOM     20  C   UNL A   1      34.352  24.833  24.852  1.00  0.00     0.021 A 
ATOM     21  C   UNL A   1      36.378  24.088  26.070  1.00  0.00     0.048 C 
BRANCH  18  22
ATOM     22  O   UNL A   1      35.390  21.529  25.909  1.00  0.00    -0.434 OA
BRANCH  22  23
ATOM     23  C   UNL A   1      36.217  20.731  25.090  1.00  0.00     0.542 C 
ATOM     24  F   UNL A   1      35.621  19.556  24.788  1.00  0.00    -0.167 F 
ATOM     25  F   UNL A   1      36.510  21.399  23.951  1.00  0.00    -0.167 F 
ENDBRANCH  22  23
ENDBRANCH  18  22
ENDBRANCH  11  14
ENDBRANCH   8  10
ENDBRANCH   5   8
ENDBRANCH   3   4
ENDBRANCH   2   3
ENDBRANCH   1   2
BRANCH   1  26
ATOM     26  C   UNL A   1      32.773  29.385  24.671  1.00  0.00     0.002 C 
BRANCH  26  27
ATOM     27  C   UNL A   1      33.520  28.406  25.583  1.00  0.00     0.021 C 
BRANCH  27  28
ATOM     28  C   UNL A   1      33.521  28.756  27.069  1.00  0.00     0.116 C 
BRANCH  28  29
ATOM     29  N   UNL A   1      33.406  30.182  27.302  1.00  0.00    -0.352 N 
ATOM     30  C   UNL A   1      34.243  31.036  27.976  1.00  0.00     0.251 C 
ATOM     31  H   UNL A   1      32.603  30.603  26.919  1.00  0.00     0.163 HD
ATOM     32  O   UNL A   1      33.865  32.182  28.202  1.00  0.00    -0.269 OA
BRANCH  30  33
ATOM     33  C   UNL A   1      35.573  30.586  28.451  1.00  0.00     0.039 A 
ATOM     34  C   UNL A   1      35.628  29.775  29.590  1.00  0.00     0.014 A 
ATOM     35  C   UNL A   1      36.760  30.981  27.827  1.00  0.00     0.014 A 
ATOM     36  C   UNL A   1      36.861  29.329  30.070  1.00  0.00     0.010 A 
ATOM     37  C   UNL A   1      37.987  30.481  28.269  1.00  0.00     0.010 A 
ATOM     38  C   UNL A   1      38.052  29.654  29.400  1.00  0.00    -0.014 A 
BRANCH  38  39
ATOM     39  C   UNL A   1      39.354  29.120  29.884  1.00  0.00     0.031 A 
ATOM     40  C   UNL A   1      40.022  29.706  31.101  1.00  0.00     0.074 A 
ATOM     41  C   UNL A   1      39.941  28.110  29.210  1.00  0.00     0.049 A 
ATOM     42  N   UNL A   1      41.130  29.337  31.691  1.00  0.00    -0.248 NA
ATOM     43  C   UNL A   1      39.376  30.872  31.720  1.00  0.00     0.031 C 
ATOM     44  C   UNL A   1      39.419  27.499  27.984  1.00  0.00     0.029 A 
ATOM     45  N   UNL A   1      41.097  27.412  29.458  1.00  0.00    -0.354 N 
ATOM     46  C   UNL A   1      41.321  30.229  32.742  1.00  0.00     0.074 A 
ATOM     47  C   UNL A   1      40.239  31.187  32.676  1.00  0.00     0.031 C 
ATOM     48  C   UNL A   1      40.229  26.495  27.612  1.00  0.00     0.029 A 
ATOM     49  C   UNL A   1      41.346  26.409  28.548  1.00  0.00     0.049 A 
ATOM     50  H   UNL A   1      41.692  27.610  30.217  1.00  0.00     0.167 HD
ATOM     51  C   UNL A   1      42.297  30.236  33.683  1.00  0.00     0.034 A 
ATOM     52  C   UNL A   1      42.354  25.519  28.479  1.00  0.00     0.034 A 
ATOM     53  C   UNL A   1      43.355  29.257  33.751  1.00  0.00     0.049 A 
ATOM     54  C   UNL A   1      43.415  25.539  29.552  1.00  0.00     0.074 A 
ATOM     55  C   UNL A   1      44.341  29.119  34.715  1.00  0.00     0.029 A 
ATOM     56  N   UNL A   1      43.576  28.254  32.815  1.00  0.00    -0.354 N 
ATOM     57  N   UNL A   1      43.522  26.332  30.595  1.00  0.00    -0.248 NA
ATOM     58  C   UNL A   1      44.477  24.532  29.449  1.00  0.00     0.031 C 
ATOM     59  C   UNL A   1      45.195  28.081  34.325  1.00  0.00     0.029 A 
ATOM     60  C   UNL A   1      44.702  27.520  33.159  1.00  0.00     0.049 A 
ATOM     61  H   UNL A   1      43.015  28.088  32.023  1.00  0.00     0.167 HD
ATOM     62  C   UNL A   1      44.649  25.895  31.286  1.00  0.00     0.074 A 
ATOM     63  C   UNL A   1      45.162  24.752  30.560  1.00  0.00     0.031 C 
ATOM     64  C   UNL A   1      45.212  26.392  32.417  1.00  0.00     0.034 A 
BRANCH  51  65
ATOM     65  C   UNL A   1      42.286  31.350  34.703  1.00  0.00     0.023 A 
ATOM     66  C   UNL A   1      42.918  32.583  34.467  1.00  0.00     0.031 A 
ATOM     67  C   UNL A   1      41.615  31.178  35.928  1.00  0.00     0.131 A 
ATOM     68  C   UNL A   1      42.912  33.575  35.459  1.00  0.00     0.055 A 
ATOM     69  C   UNL A   1      41.553  32.195  36.883  1.00  0.00     0.041 A 
ATOM     70  F   UNL A   1      41.010  30.017  36.217  1.00  0.00    -0.206 F 
ATOM     71  C   UNL A   1      42.212  33.399  36.655  1.00  0.00     0.022 A 
BRANCH  68  72
ATOM     72  S   UNL A   1      43.919  35.063  35.210  1.00  0.00     0.124 S 
ATOM     73  O   UNL A   1      42.942  35.989  34.644  1.00  0.00    -0.237 OA
ATOM     74  O   UNL A   1      44.376  35.365  36.562  1.00  0.00    -0.237 OA
ATOM     75  O   UNL A   1      44.960  34.623  34.284  1.00  0.00    -0.744 OA
ENDBRANCH  68  72
ENDBRANCH  51  65
BRANCH  52  76
ATOM     76  C   UNL A   1      42.426  24.526  27.367  1.00  0.00     0.023 A 
ATOM     77  C   UNL A   1      41.615  23.379  27.367  1.00  0.00     0.031 A 
ATOM     78  C   UNL A   1      43.362  24.667  26.327  1.00  0.00     0.131 A 
ATOM     79  C   UNL A   1      41.802  22.387  26.392  1.00  0.00     0.055 A 
ATOM     80  C   UNL A   1      43.501  23.707  25.323  1.00  0.00     0.041 A 
ATOM     81  F   UNL A   1      44.160  25.745  26.272  1.00  0.00    -0.206 F 
ATOM     82  C   UNL A   1      42.731  22.549  25.362  1.00  0.00     0.022 A 
BRANCH  79  83
ATOM     83  S   UNL A   1      40.895  20.825  26.559  1.00  0.00     0.124 S 
ATOM     84  O   UNL A   1      41.735  19.910  25.795  1.00  0.00    -0.237 OA
ATOM     85  O   UNL A   1      40.888  20.634  28.006  1.00  0.00    -0.237 OA
ATOM     86  O   UNL A   1      39.593  21.123  25.965  1.00  0.00    -0.744 OA
ENDBRANCH  79  83
ENDBRANCH  52  76
BRANCH  64  87
ATOM     87  C   UNL A   1      46.429  25.668  32.942  1.00  0.00     0.023 A 
ATOM     88  C   UNL A   1      47.722  25.968  32.475  1.00  0.00     0.031 A 
ATOM     89  C   UNL A   1      46.290  24.631  33.881  1.00  0.00     0.131 A 
ATOM     90  C   UNL A   1      48.812  25.185  32.884  1.00  0.00     0.055 A 
ATOM     91  C   UNL A   1      47.389  23.903  34.339  1.00  0.00     0.041 A 
ATOM     92  F   UNL A   1      45.081  24.300  34.361  1.00  0.00    -0.206 F 
ATOM     93  C   UNL A   1      48.657  24.165  33.825  1.00  0.00     0.022 A 
BRANCH  90  94
ATOM     94  S   UNL A   1      50.413  25.434  32.068  1.00  0.00     0.124 S 
ATOM     95  O   UNL A   1      50.119  26.531  31.151  1.00  0.00    -0.237 OA
ATOM     96  O   UNL A   1      51.287  25.759  33.189  1.00  0.00    -0.237 OA
ATOM     97  O   UNL A   1      50.676  24.146  31.430  1.00  0.00    -0.744 OA
ENDBRANCH  90  94
ENDBRANCH  64  87
ENDBRANCH  38  39
ENDBRANCH  30  33
ENDBRANCH  28  29
ENDBRANCH  27  28
ENDBRANCH  26  27
ENDBRANCH   1  26
TORSDOF 20
ENDMDL
