MODEL 1
REMARK VINA RESULT:     -10.9      0.000      0.000
REMARK SMILES O=C(NCCCCCCNC(=O)c1cc(SC[C@H]2CCOC2)ccn1)c1ccc(-c2c3nc(c(-c4cc(S(=O)(=O)[O-])ccc4F)c4ccc([nH]4)c(-c4cc(S(=O)(=O)[O-])ccc4F)c4nc(c(-c5cc(S(=O)(=O)[O-])ccc5F)c5ccc2[nH]5)C=C4)C=C3)cc1
REMARK SMILES IDX 6 1 5 2 4 3 3 4 1 5 2 6 26 8 27 9 88 10 28 11 87 12 29 13
REMARK SMILES IDX 30 14 31 15 81 16 32 17 86 18 80 19 82 20 33 21 85 22 79 23
REMARK SMILES IDX 78 24 34 26 66 27 46 28 65 29 47 30 50 31 64 32 83 33 48 34
REMARK SMILES IDX 49 35 63 37 84 38 51 39 35 40 36 41 44 42 37 43 43 44 45 45
REMARK SMILES IDX 42 46 38 47 39 48 40 49 41 50 67 51 68 52 76 53 69 54 75 55
REMARK SMILES IDX 77 56 74 57 70 58 71 59 72 60 73 61 52 62 53 63 61 64 54 65
REMARK SMILES IDX 60 66 62 67 59 68 55 69 56 70 57 71 58 72 7 73 8 74 9 75
REMARK SMILES IDX 10 76 11 77 12 79 13 80 14 81 25 82 15 83 24 84 23 85 16 86
REMARK SMILES IDX 17 87 18 88 19 89 22 90 20 91 21 92
REMARK H PARENT 3 7 82 25 50 36 10 78
REMARK Flexibility Score: inf
ROOT
ATOM      1  C   UNL A   1      31.738  27.171  26.138  1.00  0.00     0.002 C 
ENDROOT
BRANCH   1   2
ATOM      2  C   UNL A   1      33.173  27.455  26.589  1.00  0.00     0.021 C 
BRANCH   2   3
ATOM      3  C   UNL A   1      33.903  28.577  25.859  1.00  0.00     0.116 C 
BRANCH   3   4
ATOM      4  N   UNL A   1      33.542  29.901  26.342  1.00  0.00    -0.352 N 
ATOM      5  O   UNL A   1      33.609  31.740  27.641  1.00  0.00    -0.269 OA
ATOM      6  C   UNL A   1      34.153  30.696  27.284  1.00  0.00     0.251 C 
ATOM      7  H   UNL A   1      32.736  30.289  25.932  1.00  0.00     0.163 HD
BRANCH   6   8
ATOM      8  C   UNL A   1      35.447  30.296  27.886  1.00  0.00     0.039 A 
ATOM      9  C   UNL A   1      36.654  30.535  27.229  1.00  0.00     0.014 A 
ATOM     10  C   UNL A   1      35.450  29.688  29.147  1.00  0.00     0.014 A 
ATOM     11  C   UNL A   1      37.843  30.036  27.757  1.00  0.00     0.010 A 
ATOM     12  C   UNL A   1      36.655  29.262  29.715  1.00  0.00     0.010 A 
ATOM     13  C   UNL A   1      37.861  29.397  29.008  1.00  0.00    -0.014 A 
BRANCH  13  14
ATOM     14  C   UNL A   1      39.151  28.902  29.562  1.00  0.00     0.031 A 
ATOM     15  C   UNL A   1      39.744  29.508  30.805  1.00  0.00     0.074 A 
ATOM     16  C   UNL A   1      39.774  27.873  28.954  1.00  0.00     0.049 A 
ATOM     17  N   UNL A   1      40.842  29.185  31.442  1.00  0.00    -0.248 NA
ATOM     18  C   UNL A   1      39.013  30.633  31.405  1.00  0.00     0.031 C 
ATOM     19  C   UNL A   1      39.297  27.203  27.742  1.00  0.00     0.029 A 
ATOM     20  N   UNL A   1      40.924  27.200  29.275  1.00  0.00    -0.354 N 
ATOM     21  C   UNL A   1      40.947  30.076  32.505  1.00  0.00     0.074 A 
ATOM     22  C   UNL A   1      39.819  30.979  32.400  1.00  0.00     0.031 C 
ATOM     23  C   UNL A   1      40.118  26.182  27.453  1.00  0.00     0.029 A 
ATOM     24  C   UNL A   1      41.214  26.166  28.416  1.00  0.00     0.049 A 
ATOM     25  H   UNL A   1      41.487  27.433  30.048  1.00  0.00     0.167 HD
ATOM     26  C   UNL A   1      41.889  30.129  33.483  1.00  0.00     0.034 A 
ATOM     27  C   UNL A   1      42.253  25.308  28.391  1.00  0.00     0.034 A 
ATOM     28  C   UNL A   1      43.011  29.221  33.570  1.00  0.00     0.049 A 
ATOM     29  C   UNL A   1      43.311  25.418  29.456  1.00  0.00     0.074 A 
ATOM     30  C   UNL A   1      44.002  29.163  34.535  1.00  0.00     0.029 A 
ATOM     31  N   UNL A   1      43.301  28.219  32.650  1.00  0.00    -0.354 N 
ATOM     32  N   UNL A   1      43.383  26.250  30.469  1.00  0.00    -0.248 NA
ATOM     33  C   UNL A   1      44.426  24.468  29.374  1.00  0.00     0.031 C 
ATOM     34  C   UNL A   1      44.930  28.184  34.158  1.00  0.00     0.029 A 
ATOM     35  C   UNL A   1      44.474  27.565  33.005  1.00  0.00     0.049 A 
ATOM     36  H   UNL A   1      42.754  28.004  31.859  1.00  0.00     0.167 HD
ATOM     37  C   UNL A   1      44.536  25.900  31.165  1.00  0.00     0.074 A 
ATOM     38  C   UNL A   1      45.118  24.775  30.462  1.00  0.00     0.031 C 
ATOM     39  C   UNL A   1      45.059  26.453  32.290  1.00  0.00     0.034 A 
BRANCH  26  40
ATOM     40  C   UNL A   1      41.769  31.241  34.502  1.00  0.00     0.023 A 
ATOM     41  C   UNL A   1      40.779  31.232  35.501  1.00  0.00     0.031 A 
ATOM     42  C   UNL A   1      42.631  32.352  34.448  1.00  0.00     0.131 A 
ATOM     43  C   UNL A   1      40.616  32.346  36.341  1.00  0.00     0.055 A 
ATOM     44  C   UNL A   1      42.522  33.417  35.345  1.00  0.00     0.041 A 
ATOM     45  F   UNL A   1      43.585  32.432  33.507  1.00  0.00    -0.206 F 
ATOM     46  C   UNL A   1      41.496  33.428  36.285  1.00  0.00     0.022 A 
BRANCH  43  47
ATOM     47  S   UNL A   1      39.132  32.434  37.383  1.00  0.00     0.124 S 
ATOM     48  O   UNL A   1      39.702  32.334  38.725  1.00  0.00    -0.237 OA
ATOM     49  O   UNL A   1      38.572  33.732  37.025  1.00  0.00    -0.237 OA
ATOM     50  O   UNL A   1      38.347  31.277  36.962  1.00  0.00    -0.744 OA
ENDBRANCH  43  47
ENDBRANCH  26  40
BRANCH  27  51
ATOM     51  C   UNL A   1      42.347  24.279  27.318  1.00  0.00     0.023 A 
ATOM     52  C   UNL A   1      41.549  23.125  27.352  1.00  0.00     0.031 A 
ATOM     53  C   UNL A   1      43.249  24.428  26.250  1.00  0.00     0.131 A 
ATOM     54  C   UNL A   1      41.693  22.148  26.355  1.00  0.00     0.055 A 
ATOM     55  C   UNL A   1      43.350  23.479  25.232  1.00  0.00     0.041 A 
ATOM     56  F   UNL A   1      44.032  25.516  26.169  1.00  0.00    -0.206 F 
ATOM     57  C   UNL A   1      42.577  22.324  25.288  1.00  0.00     0.022 A 
BRANCH  54  58
ATOM     58  S   UNL A   1      40.752  20.606  26.510  1.00  0.00     0.124 S 
ATOM     59  O   UNL A   1      40.859  20.336  27.939  1.00  0.00    -0.237 OA
ATOM     60  O   UNL A   1      39.434  21.004  26.029  1.00  0.00    -0.237 OA
ATOM     61  O   UNL A   1      41.475  19.678  25.642  1.00  0.00    -0.744 OA
ENDBRANCH  54  58
ENDBRANCH  27  51
BRANCH  39  62
ATOM     62  C   UNL A   1      46.299  25.804  32.857  1.00  0.00     0.023 A 
ATOM     63  C   UNL A   1      46.232  24.726  33.759  1.00  0.00     0.031 A 
ATOM     64  C   UNL A   1      47.571  26.294  32.509  1.00  0.00     0.131 A 
ATOM     65  C   UNL A   1      47.409  24.219  34.332  1.00  0.00     0.055 A 
ATOM     66  C   UNL A   1      48.742  25.741  33.031  1.00  0.00     0.041 A 
ATOM     67  F   UNL A   1      47.698  27.324  31.658  1.00  0.00    -0.206 F 
ATOM     68  C   UNL A   1      48.664  24.709  33.961  1.00  0.00     0.022 A 
BRANCH  65  69
ATOM     69  S   UNL A   1      47.274  22.987  35.656  1.00  0.00     0.124 S 
ATOM     70  O   UNL A   1      48.149  21.924  35.173  1.00  0.00    -0.237 OA
ATOM     71  O   UNL A   1      47.751  23.726  36.820  1.00  0.00    -0.237 OA
ATOM     72  O   UNL A   1      45.849  22.657  35.673  1.00  0.00    -0.744 OA
ENDBRANCH  65  69
ENDBRANCH  39  62
ENDBRANCH  13  14
ENDBRANCH   6   8
ENDBRANCH   3   4
ENDBRANCH   2   3
ENDBRANCH   1   2
BRANCH   1  73
ATOM     73  C   UNL A   1      31.437  27.340  24.643  1.00  0.00     0.002 C 
BRANCH  73  74
ATOM     74  C   UNL A   1      30.250  26.550  24.083  1.00  0.00     0.021 C 
BRANCH  74  75
ATOM     75  C   UNL A   1      30.591  25.241  23.382  1.00  0.00     0.116 C 
BRANCH  75  76
ATOM     76  N   UNL A   1      31.468  25.350  22.236  1.00  0.00    -0.351 N 
ATOM     77  C   UNL A   1      32.737  24.814  22.110  1.00  0.00     0.269 C 
ATOM     78  H   UNL A   1      31.126  25.858  21.466  1.00  0.00     0.163 HD
ATOM     79  O   UNL A   1      33.313  24.838  21.025  1.00  0.00    -0.268 OA
BRANCH  77  80
ATOM     80  C   UNL A   1      33.413  24.231  23.309  1.00  0.00     0.129 A 
ATOM     81  C   UNL A   1      33.151  22.923  23.720  1.00  0.00     0.049 A 
ATOM     82  N   UNL A   1      34.232  25.088  23.970  1.00  0.00    -0.251 NA
ATOM     83  C   UNL A   1      33.706  22.493  24.926  1.00  0.00     0.011 A 
ATOM     84  C   UNL A   1      34.805  24.624  25.093  1.00  0.00     0.113 A 
ATOM     85  C   UNL A   1      34.569  23.361  25.605  1.00  0.00     0.035 A 
BRANCH  83  86
ATOM     86  S   UNL A   1      33.429  20.919  25.738  1.00  0.00    -0.126 SA
BRANCH  86  87
ATOM     87  C   UNL A   1      34.267  19.631  24.736  1.00  0.00     0.081 C 
BRANCH  87  88
ATOM     88  C   UNL A   1      33.619  18.253  24.586  1.00  0.00     0.027 C 
ATOM     89  C   UNL A   1      34.489  17.014  24.543  1.00  0.00     0.035 C 
ATOM     90  C   UNL A   1      32.671  17.887  25.696  1.00  0.00     0.164 C 
ATOM     91  C   UNL A   1      33.487  15.903  24.845  1.00  0.00     0.160 C 
ATOM     92  O   UNL A   1      32.397  16.493  25.573  1.00  0.00    -0.381 OA
ENDBRANCH  87  88
ENDBRANCH  86  87
ENDBRANCH  83  86
ENDBRANCH  77  80
ENDBRANCH  75  76
ENDBRANCH  74  75
ENDBRANCH  73  74
ENDBRANCH   1  73
TORSDOF 19
ENDMDL
MODEL 2
REMARK VINA RESULT:     -10.9      1.922      2.322
REMARK SMILES O=C(NCCCCCCNC(=O)c1cc(SC[C@H]2CCOC2)ccn1)c1ccc(-c2c3nc(c(-c4cc(S(=O)(=O)[O-])ccc4F)c4ccc([nH]4)c(-c4cc(S(=O)(=O)[O-])ccc4F)c4nc(c(-c5cc(S(=O)(=O)[O-])ccc5F)c5ccc2[nH]5)C=C4)C=C3)cc1
REMARK SMILES IDX 6 1 5 2 4 3 3 4 1 5 2 6 26 8 27 9 88 10 28 11 87 12 29 13
REMARK SMILES IDX 30 14 31 15 81 16 32 17 86 18 80 19 82 20 33 21 85 22 79 23
REMARK SMILES IDX 78 24 34 26 66 27 46 28 65 29 47 30 50 31 64 32 83 33 48 34
REMARK SMILES IDX 49 35 63 37 84 38 51 39 35 40 36 41 44 42 37 43 43 44 45 45
REMARK SMILES IDX 42 46 38 47 39 48 40 49 41 50 67 51 68 52 76 53 69 54 75 55
REMARK SMILES IDX 77 56 74 57 70 58 71 59 72 60 73 61 52 62 53 63 61 64 54 65
REMARK SMILES IDX 60 66 62 67 59 68 55 69 56 70 57 71 58 72 7 73 8 74 9 75
REMARK SMILES IDX 10 76 11 77 12 79 13 80 14 81 25 82 15 83 24 84 23 85 16 86
REMARK SMILES IDX 17 87 18 88 19 89 22 90 20 91 21 92
REMARK H PARENT 3 7 82 25 50 36 10 78
REMARK Flexibility Score: inf
ROOT
ATOM      1  C   UNL A   1      31.204  28.975  24.754  1.00  0.00     0.002 C 
ENDROOT
BRANCH   1   2
ATOM      2  C   UNL A   1      32.633  29.422  25.070  1.00  0.00     0.021 C 
BRANCH   2   3
ATOM      3  C   UNL A   1      32.930  29.758  26.528  1.00  0.00     0.116 C 
BRANCH   3   4
ATOM      4  N   UNL A   1      32.817  31.179  26.820  1.00  0.00    -0.352 N 
ATOM      5  O   UNL A   1      33.290  33.155  27.791  1.00  0.00    -0.269 OA
ATOM      6  C   UNL A   1      33.637  31.998  27.560  1.00  0.00     0.251 C 
ATOM      7  H   UNL A   1      32.032  31.624  26.427  1.00  0.00     0.163 HD
BRANCH   6   8
ATOM      8  C   UNL A   1      34.922  31.493  28.100  1.00  0.00     0.039 A 
ATOM      9  C   UNL A   1      35.052  30.176  28.543  1.00  0.00     0.014 A 
ATOM     10  C   UNL A   1      36.025  32.352  28.143  1.00  0.00     0.014 A 
ATOM     11  C   UNL A   1      36.229  29.764  29.163  1.00  0.00     0.010 A 
ATOM     12  C   UNL A   1      37.235  31.911  28.691  1.00  0.00     0.010 A 
ATOM     13  C   UNL A   1      37.337  30.623  29.242  1.00  0.00    -0.014 A 
BRANCH  13  14
ATOM     14  C   UNL A   1      38.594  30.146  29.881  1.00  0.00     0.031 A 
ATOM     15  C   UNL A   1      38.996  30.623  31.251  1.00  0.00     0.074 A 
ATOM     16  C   UNL A   1      39.361  29.249  29.230  1.00  0.00     0.049 A 
ATOM     17  N   UNL A   1      40.041  30.292  31.970  1.00  0.00    -0.248 NA
ATOM     18  C   UNL A   1      38.116  31.609  31.892  1.00  0.00     0.031 C 
ATOM     19  C   UNL A   1      39.076  28.713  27.897  1.00  0.00     0.029 A 
ATOM     20  N   UNL A   1      40.519  28.617  29.601  1.00  0.00    -0.354 N 
ATOM     21  C   UNL A   1      39.957  31.041  33.139  1.00  0.00     0.074 A 
ATOM     22  C   UNL A   1      38.777  31.874  33.010  1.00  0.00     0.031 C 
ATOM     23  C   UNL A   1      40.003  27.795  27.586  1.00  0.00     0.029 A 
ATOM     24  C   UNL A   1      40.985  27.726  28.663  1.00  0.00     0.049 A 
ATOM     25  H   UNL A   1      40.974  28.783  30.459  1.00  0.00     0.167 HD
ATOM     26  C   UNL A   1      40.778  31.028  34.221  1.00  0.00     0.034 A 
ATOM     27  C   UNL A   1      42.086  26.949  28.658  1.00  0.00     0.034 A 
ATOM     28  C   UNL A   1      41.953  30.193  34.328  1.00  0.00     0.049 A 
ATOM     29  C   UNL A   1      43.009  26.989  29.846  1.00  0.00     0.074 A 
ATOM     30  C   UNL A   1      42.834  30.075  35.391  1.00  0.00     0.029 A 
ATOM     31  N   UNL A   1      42.423  29.342  33.334  1.00  0.00    -0.354 N 
ATOM     32  N   UNL A   1      42.901  27.684  30.954  1.00  0.00    -0.248 NA
ATOM     33  C   UNL A   1      44.199  26.133  29.782  1.00  0.00     0.031 C 
ATOM     34  C   UNL A   1      43.873  29.217  35.009  1.00  0.00     0.029 A 
ATOM     35  C   UNL A   1      43.598  28.726  33.744  1.00  0.00     0.049 A 
ATOM     36  H   UNL A   1      41.985  29.196  32.464  1.00  0.00     0.167 HD
ATOM     37  C   UNL A   1      43.996  27.323  31.735  1.00  0.00     0.074 A 
ATOM     38  C   UNL A   1      44.741  26.340  30.973  1.00  0.00     0.031 C 
ATOM     39  C   UNL A   1      44.346  27.758  32.974  1.00  0.00     0.034 A 
BRANCH  26  40
ATOM     40  C   UNL A   1      40.458  31.988  35.346  1.00  0.00     0.023 A 
ATOM     41  C   UNL A   1      39.453  31.716  36.292  1.00  0.00     0.031 A 
ATOM     42  C   UNL A   1      41.138  33.215  35.451  1.00  0.00     0.131 A 
ATOM     43  C   UNL A   1      39.095  32.691  37.238  1.00  0.00     0.055 A 
ATOM     44  C   UNL A   1      40.839  34.144  36.451  1.00  0.00     0.041 A 
ATOM     45  F   UNL A   1      42.095  33.544  34.568  1.00  0.00    -0.206 F 
ATOM     46  C   UNL A   1      39.798  33.893  37.339  1.00  0.00     0.022 A 
BRANCH  43  47
ATOM     47  S   UNL A   1      37.586  32.436  38.215  1.00  0.00     0.124 S 
ATOM     48  O   UNL A   1      37.907  33.144  39.452  1.00  0.00    -0.237 OA
ATOM     49  O   UNL A   1      36.561  33.050  37.379  1.00  0.00    -0.237 OA
ATOM     50  O   UNL A   1      37.501  30.983  38.343  1.00  0.00    -0.744 OA
ENDBRANCH  43  47
ENDBRANCH  26  40
BRANCH  27  51
ATOM     51  C   UNL A   1      42.380  26.077  27.486  1.00  0.00     0.023 A 
ATOM     52  C   UNL A   1      41.953  24.741  27.454  1.00  0.00     0.031 A 
ATOM     53  C   UNL A   1      43.107  26.566  26.385  1.00  0.00     0.131 A 
ATOM     54  C   UNL A   1      42.286  23.928  26.360  1.00  0.00     0.055 A 
ATOM     55  C   UNL A   1      43.389  25.768  25.276  1.00  0.00     0.041 A 
ATOM     56  F   UNL A   1      43.535  27.838  26.365  1.00  0.00    -0.206 F 
ATOM     57  C   UNL A   1      42.988  24.436  25.265  1.00  0.00     0.022 A 
BRANCH  54  58
ATOM     58  S   UNL A   1      41.844  22.170  26.419  1.00  0.00     0.124 S 
ATOM     59  O   UNL A   1      40.412  22.215  26.142  1.00  0.00    -0.237 OA
ATOM     60  O   UNL A   1      42.684  21.610  25.367  1.00  0.00    -0.237 OA
ATOM     61  O   UNL A   1      42.205  21.775  27.779  1.00  0.00    -0.744 OA
ENDBRANCH  54  58
ENDBRANCH  27  51
BRANCH  39  62
ATOM     62  C   UNL A   1      45.565  27.124  33.600  1.00  0.00     0.023 A 
ATOM     63  C   UNL A   1      45.484  25.942  34.360  1.00  0.00     0.031 A 
ATOM     64  C   UNL A   1      46.826  27.731  33.457  1.00  0.00     0.131 A 
ATOM     65  C   UNL A   1      46.629  25.444  35.002  1.00  0.00     0.055 A 
ATOM     66  C   UNL A   1      47.973  27.193  34.043  1.00  0.00     0.041 A 
ATOM     67  F   UNL A   1      46.963  28.862  32.749  1.00  0.00    -0.206 F 
ATOM     68  C   UNL A   1      47.876  26.053  34.834  1.00  0.00     0.022 A 
BRANCH  65  69
ATOM     69  S   UNL A   1      46.448  24.054  36.154  1.00  0.00     0.124 S 
ATOM     70  O   UNL A   1      46.427  24.732  37.446  1.00  0.00    -0.237 OA
ATOM     71  O   UNL A   1      45.188  23.457  35.726  1.00  0.00    -0.237 OA
ATOM     72  O   UNL A   1      47.637  23.241  35.900  1.00  0.00    -0.744 OA
ENDBRANCH  65  69
ENDBRANCH  39  62
ENDBRANCH  13  14
ENDBRANCH   6   8
ENDBRANCH   3   4
ENDBRANCH   2   3
ENDBRANCH   1   2
BRANCH   1  73
ATOM     73  C   UNL A   1      31.048  27.743  23.854  1.00  0.00     0.002 C 
BRANCH  73  74
ATOM     74  C   UNL A   1      30.171  26.605  24.384  1.00  0.00     0.021 C 
BRANCH  74  75
ATOM     75  C   UNL A   1      30.728  25.832  25.574  1.00  0.00     0.116 C 
BRANCH  75  76
ATOM     76  N   UNL A   1      29.776  25.019  26.298  1.00  0.00    -0.351 N 
ATOM     77  C   UNL A   1      30.014  23.788  26.884  1.00  0.00     0.269 C 
ATOM     78  H   UNL A   1      28.864  25.379  26.384  1.00  0.00     0.163 HD
ATOM     79  O   UNL A   1      29.166  23.275  27.610  1.00  0.00    -0.268 OA
BRANCH  77  80
ATOM     80  C   UNL A   1      31.297  23.074  26.603  1.00  0.00     0.129 A 
ATOM     81  C   UNL A   1      31.590  22.593  25.326  1.00  0.00     0.049 A 
ATOM     82  N   UNL A   1      32.093  22.893  27.688  1.00  0.00    -0.251 NA
ATOM     83  C   UNL A   1      32.737  21.814  25.168  1.00  0.00     0.011 A 
ATOM     84  C   UNL A   1      33.224  22.195  27.491  1.00  0.00     0.113 A 
ATOM     85  C   UNL A   1      33.576  21.639  26.275  1.00  0.00     0.035 A 
BRANCH  83  86
ATOM     86  S   UNL A   1      33.273  20.977  23.676  1.00  0.00    -0.126 SA
BRANCH  86  87
ATOM     87  C   UNL A   1      32.485  19.320  23.665  1.00  0.00     0.081 C 
BRANCH  87  88
ATOM     88  C   UNL A   1      33.199  18.142  24.332  1.00  0.00     0.027 C 
ATOM     89  C   UNL A   1      32.655  17.567  25.623  1.00  0.00     0.035 C 
ATOM     90  C   UNL A   1      33.275  16.901  23.486  1.00  0.00     0.164 C 
ATOM     91  C   UNL A   1      33.338  16.204  25.686  1.00  0.00     0.160 C 
ATOM     92  O   UNL A   1      33.683  15.833  24.340  1.00  0.00    -0.381 OA
ENDBRANCH  87  88
ENDBRANCH  86  87
ENDBRANCH  83  86
ENDBRANCH  77  80
ENDBRANCH  75  76
ENDBRANCH  74  75
ENDBRANCH  73  74
ENDBRANCH   1  73
TORSDOF 19
ENDMDL
MODEL 3
REMARK VINA RESULT:     -10.9      1.953      2.610
REMARK SMILES O=C(NCCCCCCNC(=O)c1cc(SC[C@H]2CCOC2)ccn1)c1ccc(-c2c3nc(c(-c4cc(S(=O)(=O)[O-])ccc4F)c4ccc([nH]4)c(-c4cc(S(=O)(=O)[O-])ccc4F)c4nc(c(-c5cc(S(=O)(=O)[O-])ccc5F)c5ccc2[nH]5)C=C4)C=C3)cc1
REMARK SMILES IDX 6 1 5 2 4 3 3 4 1 5 2 6 26 8 27 9 88 10 28 11 87 12 29 13
REMARK SMILES IDX 30 14 31 15 81 16 32 17 86 18 80 19 82 20 33 21 85 22 79 23
REMARK SMILES IDX 78 24 34 26 66 27 46 28 65 29 47 30 50 31 64 32 83 33 48 34
REMARK SMILES IDX 49 35 63 37 84 38 51 39 35 40 36 41 44 42 37 43 43 44 45 45
REMARK SMILES IDX 42 46 38 47 39 48 40 49 41 50 67 51 68 52 76 53 69 54 75 55
REMARK SMILES IDX 77 56 74 57 70 58 71 59 72 60 73 61 52 62 53 63 61 64 54 65
REMARK SMILES IDX 60 66 62 67 59 68 55 69 56 70 57 71 58 72 7 73 8 74 9 75
REMARK SMILES IDX 10 76 11 77 12 79 13 80 14 81 25 82 15 83 24 84 23 85 16 86
REMARK SMILES IDX 17 87 18 88 19 89 22 90 20 91 21 92
REMARK H PARENT 3 7 82 25 50 36 10 78
REMARK Flexibility Score: inf
ROOT
ATOM      1  C   UNL A   1      30.813  29.250  24.087  1.00  0.00     0.002 C 
ENDROOT
BRANCH   1   2
ATOM      2  C   UNL A   1      32.337  29.140  24.179  1.00  0.00     0.021 C 
BRANCH   2   3
ATOM      3  C   UNL A   1      32.961  29.498  25.523  1.00  0.00     0.116 C 
BRANCH   3   4
ATOM      4  N   UNL A   1      32.549  30.805  26.014  1.00  0.00    -0.352 N 
ATOM      5  O   UNL A   1      32.515  32.619  27.347  1.00  0.00    -0.269 OA
ATOM      6  C   UNL A   1      33.098  31.594  26.996  1.00  0.00     0.251 C 
ATOM      7  H   UNL A   1      31.753  31.182  25.574  1.00  0.00     0.163 HD
BRANCH   6   8
ATOM      8  C   UNL A   1      34.372  31.211  27.650  1.00  0.00     0.039 A 
ATOM      9  C   UNL A   1      34.618  29.892  28.035  1.00  0.00     0.014 A 
ATOM     10  C   UNL A   1      35.349  32.191  27.862  1.00  0.00     0.014 A 
ATOM     11  C   UNL A   1      35.766  29.584  28.762  1.00  0.00     0.010 A 
ATOM     12  C   UNL A   1      36.539  31.861  28.518  1.00  0.00     0.010 A 
ATOM     13  C   UNL A   1      36.744  30.561  29.009  1.00  0.00    -0.014 A 
BRANCH  13  14
ATOM     14  C   UNL A   1      37.976  30.196  29.760  1.00  0.00     0.031 A 
ATOM     15  C   UNL A   1      38.216  30.711  31.154  1.00  0.00     0.074 A 
ATOM     16  C   UNL A   1      38.870  29.365  29.188  1.00  0.00     0.049 A 
ATOM     17  N   UNL A   1      39.218  30.474  31.964  1.00  0.00    -0.248 NA
ATOM     18  C   UNL A   1      37.203  31.621  31.705  1.00  0.00     0.031 C 
ATOM     19  C   UNL A   1      38.748  28.801  27.842  1.00  0.00     0.029 A 
ATOM     20  N   UNL A   1      40.041  28.835  29.665  1.00  0.00    -0.354 N 
ATOM     21  C   UNL A   1      38.970  31.218  33.112  1.00  0.00     0.074 A 
ATOM     22  C   UNL A   1      37.740  31.947  32.873  1.00  0.00     0.031 C 
ATOM     23  C   UNL A   1      39.773  27.964  27.623  1.00  0.00     0.029 A 
ATOM     24  C   UNL A   1      40.660  27.983  28.781  1.00  0.00     0.049 A 
ATOM     25  H   UNL A   1      40.404  29.044  30.557  1.00  0.00     0.167 HD
ATOM     26  C   UNL A   1      39.692  31.280  34.261  1.00  0.00     0.034 A 
ATOM     27  C   UNL A   1      41.819  27.303  28.880  1.00  0.00     0.034 A 
ATOM     28  C   UNL A   1      40.919  30.548  34.479  1.00  0.00     0.049 A 
ATOM     29  C   UNL A   1      42.628  27.426  30.143  1.00  0.00     0.074 A 
ATOM     30  C   UNL A   1      41.712  30.510  35.615  1.00  0.00     0.029 A 
ATOM     31  N   UNL A   1      41.544  29.736  33.539  1.00  0.00    -0.354 N 
ATOM     32  N   UNL A   1      42.366  28.115  31.229  1.00  0.00    -0.248 NA
ATOM     33  C   UNL A   1      43.887  26.675  30.192  1.00  0.00     0.031 C 
ATOM     34  C   UNL A   1      42.849  29.742  35.335  1.00  0.00     0.029 A 
ATOM     35  C   UNL A   1      42.727  29.224  34.057  1.00  0.00     0.049 A 
ATOM     36  H   UNL A   1      41.197  29.550  32.637  1.00  0.00     0.167 HD
ATOM     37  C   UNL A   1      43.415  27.852  32.105  1.00  0.00     0.074 A 
ATOM     38  C   UNL A   1      44.304  26.932  31.423  1.00  0.00     0.031 C 
ATOM     39  C   UNL A   1      43.618  28.320  33.365  1.00  0.00     0.034 A 
BRANCH  26  40
ATOM     40  C   UNL A   1      39.195  32.214  35.344  1.00  0.00     0.023 A 
ATOM     41  C   UNL A   1      39.613  33.554  35.418  1.00  0.00     0.031 A 
ATOM     42  C   UNL A   1      38.322  31.745  36.343  1.00  0.00     0.131 A 
ATOM     43  C   UNL A   1      39.235  34.349  36.513  1.00  0.00     0.055 A 
ATOM     44  C   UNL A   1      37.878  32.567  37.381  1.00  0.00     0.041 A 
ATOM     45  F   UNL A   1      37.901  30.470  36.340  1.00  0.00    -0.206 F 
ATOM     46  C   UNL A   1      38.351  33.871  37.482  1.00  0.00     0.022 A 
BRANCH  43  47
ATOM     47  S   UNL A   1      40.057  35.951  36.743  1.00  0.00     0.124 S 
ATOM     48  O   UNL A   1      41.453  35.551  36.905  1.00  0.00    -0.237 OA
ATOM     49  O   UNL A   1      39.736  36.652  35.505  1.00  0.00    -0.237 OA
ATOM     50  O   UNL A   1      39.430  36.490  37.947  1.00  0.00    -0.744 OA
ENDBRANCH  43  47
ENDBRANCH  26  40
BRANCH  27  51
ATOM     51  C   UNL A   1      42.286  26.455  27.748  1.00  0.00     0.023 A 
ATOM     52  C   UNL A   1      42.048  25.072  27.736  1.00  0.00     0.031 A 
ATOM     53  C   UNL A   1      42.992  27.014  26.668  1.00  0.00     0.131 A 
ATOM     54  C   UNL A   1      42.543  24.288  26.681  1.00  0.00     0.055 A 
ATOM     55  C   UNL A   1      43.435  26.238  25.596  1.00  0.00     0.041 A 
ATOM     56  F   UNL A   1      43.241  28.332  26.630  1.00  0.00    -0.206 F 
ATOM     57  C   UNL A   1      43.220  24.864  25.605  1.00  0.00     0.022 A 
BRANCH  54  58
ATOM     58  S   UNL A   1      42.344  22.488  26.771  1.00  0.00     0.124 S 
ATOM     59  O   UNL A   1      43.528  22.023  26.058  1.00  0.00    -0.237 OA
ATOM     60  O   UNL A   1      42.329  22.255  28.211  1.00  0.00    -0.237 OA
ATOM     61  O   UNL A   1      41.072  22.252  26.092  1.00  0.00    -0.744 OA
ENDBRANCH  54  58
ENDBRANCH  27  51
BRANCH  39  62
ATOM     62  C   UNL A   1      44.827  27.795  34.101  1.00  0.00     0.023 A 
ATOM     63  C   UNL A   1      44.814  26.558  34.771  1.00  0.00     0.031 A 
ATOM     64  C   UNL A   1      46.005  28.562  34.158  1.00  0.00     0.131 A 
ATOM     65  C   UNL A   1      45.931  26.157  35.522  1.00  0.00     0.055 A 
ATOM     66  C   UNL A   1      47.136  28.127  34.850  1.00  0.00     0.041 A 
ATOM     67  F   UNL A   1      46.075  29.753  33.543  1.00  0.00    -0.206 F 
ATOM     68  C   UNL A   1      47.097  26.925  35.552  1.00  0.00     0.022 A 
BRANCH  65  69
ATOM     69  S   UNL A   1      45.800  24.671  36.555  1.00  0.00     0.124 S 
ATOM     70  O   UNL A   1      44.392  24.318  36.402  1.00  0.00    -0.237 OA
ATOM     71  O   UNL A   1      46.756  23.767  35.924  1.00  0.00    -0.237 OA
ATOM     72  O   UNL A   1      46.179  25.143  37.886  1.00  0.00    -0.744 OA
ENDBRANCH  65  69
ENDBRANCH  39  62
ENDBRANCH  13  14
ENDBRANCH   6   8
ENDBRANCH   3   4
ENDBRANCH   2   3
ENDBRANCH   1   2
BRANCH   1  73
ATOM     73  C   UNL A   1      30.114  28.344  23.065  1.00  0.00     0.002 C 
BRANCH  73  74
ATOM     74  C   UNL A   1      29.813  26.909  23.504  1.00  0.00     0.021 C 
BRANCH  74  75
ATOM     75  C   UNL A   1      30.882  25.873  23.181  1.00  0.00     0.116 C 
BRANCH  75  76
ATOM     76  N   UNL A   1      31.609  26.081  21.947  1.00  0.00    -0.351 N 
ATOM     77  C   UNL A   1      32.639  25.301  21.450  1.00  0.00     0.269 C 
ATOM     78  H   UNL A   1      31.344  26.858  21.405  1.00  0.00     0.163 HD
ATOM     79  O   UNL A   1      33.063  25.490  20.313  1.00  0.00    -0.268 OA
BRANCH  77  80
ATOM     80  C   UNL A   1      33.250  24.248  22.317  1.00  0.00     0.129 A 
ATOM     81  C   UNL A   1      32.550  23.085  22.640  1.00  0.00     0.049 A 
ATOM     82  N   UNL A   1      34.485  24.552  22.791  1.00  0.00    -0.251 NA
ATOM     83  C   UNL A   1      33.123  22.213  23.567  1.00  0.00     0.011 A 
ATOM     84  C   UNL A   1      35.041  23.661  23.630  1.00  0.00     0.113 A 
ATOM     85  C   UNL A   1      34.406  22.505  24.045  1.00  0.00     0.035 A 
BRANCH  83  86
ATOM     86  S   UNL A   1      32.386  20.726  24.244  1.00  0.00    -0.126 SA
BRANCH  86  87
ATOM     87  C   UNL A   1      33.756  19.585  24.678  1.00  0.00     0.081 C 
BRANCH  87  88
ATOM     88  C   UNL A   1      33.545  18.074  24.558  1.00  0.00     0.027 C 
ATOM     89  C   UNL A   1      34.738  17.143  24.590  1.00  0.00     0.035 C 
ATOM     90  C   UNL A   1      32.697  17.476  25.648  1.00  0.00     0.164 C 
ATOM     91  C   UNL A   1      34.092  15.796  24.900  1.00  0.00     0.160 C 
ATOM     92  O   UNL A   1      32.847  16.059  25.569  1.00  0.00    -0.381 OA
ENDBRANCH  87  88
ENDBRANCH  86  87
ENDBRANCH  83  86
ENDBRANCH  77  80
ENDBRANCH  75  76
ENDBRANCH  74  75
ENDBRANCH  73  74
ENDBRANCH   1  73
TORSDOF 19
ENDMDL
