MODEL 1
REMARK VINA RESULT:     -14.0      0.000      0.000
REMARK SMILES COc1ccc(/C=C2/C(=O)N(c3ccccc3)C(=O)[NH+]=C2NCCCCCCNC(=O)c2ccc(-c3c4nc(c(-c5cc(S(=O)(=O)[O-])ccc5F)c5ccc([nH]5)c(-c5cc(S(=O)(=O)[O-])ccc5F)c5nc(c(-c6cc(S(=O)(=O)[O-])ccc6F)c6ccc3[nH]6)C=C5)C=C4)cc2)cc1C(=O)[O-]
REMARK SMILES IDX 26 1 25 2 24 3 23 4 22 5 7 6 8 7 9 8 21 9 10 10 11 11 20 12
REMARK SMILES IDX 18 13 19 16 6 17 3 18 4 19 96 20 5 21 95 22 2 23 1 24 97 25
REMARK SMILES IDX 98 26 99 27 12 28 13 29 17 30 14 31 16 32 15 33 27 34 28 35
REMARK SMILES IDX 29 36 30 37 31 39 32 40 33 41 94 42 34 43 93 44 35 45 36 46
REMARK SMILES IDX 37 47 87 48 38 49 92 50 86 51 88 52 39 53 91 54 85 55 84 56
REMARK SMILES IDX 40 58 72 59 52 60 71 61 53 62 56 63 70 64 89 65 54 66 55 67
REMARK SMILES IDX 69 69 90 70 57 71 41 72 42 73 50 74 43 75 49 76 51 77 48 78
REMARK SMILES IDX 44 79 45 80 46 81 47 82 73 83 74 84 82 85 75 86 81 87 83 88
REMARK SMILES IDX 80 89 76 90 77 91 78 92 79 93 58 94 59 95 67 96 60 97 66 98
REMARK SMILES IDX 68 99 65 100 61 101 62 102 63 103 64 104
REMARK H PARENT 20 14 22 15 29 38 88 57 56 68
REMARK Flexibility Score: inf
ROOT
ATOM      1  C   UNL A   1      37.479  20.779  24.832  1.00  0.00     0.002 C 
ENDROOT
BRANCH   1   2
ATOM      2  C   UNL A   1      37.565  22.145  25.573  1.00  0.00     0.003 C 
BRANCH   2   3
ATOM      3  C   UNL A   1      36.454  23.531  25.578  1.00  0.00     0.037 C 
BRANCH   3   4
ATOM      4  C   UNL A   1      34.445  23.952  24.816  1.00  0.00     0.194 C 
BRANCH   4   5
ATOM      5  N   UNL A   1      33.945  25.071  23.721  1.00  0.00    -0.305 N 
ATOM      6  C   UNL A   1      31.428  24.578  25.321  1.00  0.00     0.030 C 
ATOM      7  C   UNL A   1      31.690  25.720  24.675  1.00  0.00     0.129 C 
ATOM      8  C   UNL A   1      30.874  26.936  24.842  1.00  0.00     0.328 C 
ATOM      9  C   UNL A   1      32.762  25.786  23.654  1.00  0.00     0.236 C 
ATOM     10  O   UNL A   1      30.331  27.193  25.914  1.00  0.00    -0.249 OA
ATOM     11  N   UNL A   1      30.791  27.670  23.674  1.00  0.00    -0.155 N 
ATOM     12  N   UNL A   1      32.543  26.515  22.594  1.00  0.00    -0.209 N 
ATOM     13  C   UNL A   1      31.326  27.164  22.493  1.00  0.00     0.448 C 
ATOM     14  H   UNL A   1      33.225  26.601  21.889  1.00  0.00     0.270 HD
ATOM     15  H   UNL A   1      34.588  25.264  23.001  1.00  0.00     0.256 HD
ATOM     16  O   UNL A   1      30.749  27.259  21.411  1.00  0.00    -0.212 OA
BRANCH   6  17
ATOM     17  C   UNL A   1      32.431  23.531  25.184  1.00  0.00    -0.024 A 
ATOM     18  C   UNL A   1      33.537  20.097  25.093  1.00  0.00     0.127 A 
ATOM     19  C   UNL A   1      33.826  21.088  26.575  1.00  0.00     0.048 A 
ATOM     20  C   UNL A   1      32.646  20.800  23.708  1.00  0.00     0.040 A 
ATOM     21  C   UNL A   1      33.337  22.847  26.606  1.00  0.00     0.012 A 
ATOM     22  C   UNL A   1      32.131  22.507  23.734  1.00  0.00     0.022 A 
BRANCH  18  23
ATOM     23  O   UNL A   1      34.105  18.853  25.047  1.00  0.00    -0.496 OA
ATOM     24  C   UNL A   1      33.196  17.859  25.535  1.00  0.00     0.278 C 
ENDBRANCH  18  23
BRANCH  20  25
ATOM     25  C   UNL A   1      32.182  20.027  22.551  1.00  0.00     0.075 C 
ATOM     26  O   UNL A   1      32.160  18.814  22.496  1.00  0.00    -0.545 OA
ATOM     27  O   UNL A   1      31.891  20.817  21.513  1.00  0.00    -0.545 OA
ENDBRANCH  20  25
ENDBRANCH   6  17
BRANCH  11  28
ATOM     28  C   UNL A   1      29.906  28.772  23.637  1.00  0.00     0.111 A 
ATOM     29  C   UNL A   1      30.330  30.060  23.976  1.00  0.00     0.044 A 
ATOM     30  C   UNL A   1      28.593  28.556  23.204  1.00  0.00     0.044 A 
ATOM     31  C   UNL A   1      29.438  31.130  23.873  1.00  0.00     0.004 A 
ATOM     32  C   UNL A   1      27.702  29.624  23.116  1.00  0.00     0.004 A 
ATOM     33  C   UNL A   1      28.126  30.911  23.446  1.00  0.00     0.000 A 
ENDBRANCH  11  28
ENDBRANCH   4   5
ENDBRANCH   3   4
ENDBRANCH   2   3
ENDBRANCH   1   2
BRANCH   1  34
ATOM     34  C   UNL A   1      38.520  19.680  25.083  1.00  0.00     0.021 C 
BRANCH  34  35
ATOM     35  C   UNL A   1      39.557  19.997  26.154  1.00  0.00     0.116 C 
BRANCH  35  36
ATOM     36  N   UNL A   1      40.718  19.129  26.094  1.00  0.00    -0.352 N 
ATOM     37  C   UNL A   1      42.044  19.503  26.084  1.00  0.00     0.251 C 
ATOM     38  H   UNL A   1      40.537  18.163  26.056  1.00  0.00     0.163 HD
ATOM     39  O   UNL A   1      42.908  18.669  25.826  1.00  0.00    -0.269 OA
BRANCH  37  40
ATOM     40  C   UNL A   1      42.428  20.914  26.357  1.00  0.00     0.039 A 
ATOM     41  C   UNL A   1      42.569  21.797  25.282  1.00  0.00     0.014 A 
ATOM     42  C   UNL A   1      42.688  21.364  27.656  1.00  0.00     0.014 A 
ATOM     43  C   UNL A   1      42.953  23.123  25.508  1.00  0.00     0.010 A 
ATOM     44  C   UNL A   1      43.015  22.704  27.886  1.00  0.00     0.010 A 
ATOM     45  C   UNL A   1      43.174  23.595  26.813  1.00  0.00    -0.014 A 
BRANCH  45  46
ATOM     46  C   UNL A   1      43.634  24.995  27.046  1.00  0.00     0.031 A 
ATOM     47  C   UNL A   1      42.678  26.025  27.596  1.00  0.00     0.074 A 
ATOM     48  C   UNL A   1      44.905  25.348  26.771  1.00  0.00     0.049 A 
ATOM     49  N   UNL A   1      42.891  27.286  27.882  1.00  0.00    -0.248 NA
ATOM     50  C   UNL A   1      41.296  25.584  27.834  1.00  0.00     0.031 C 
ATOM     51  C   UNL A   1      45.926  24.459  26.215  1.00  0.00     0.029 A 
ATOM     52  N   UNL A   1      45.562  26.545  26.929  1.00  0.00    -0.354 N 
ATOM     53  C   UNL A   1      41.673  27.788  28.333  1.00  0.00     0.074 A 
ATOM     54  C   UNL A   1      40.713  26.711  28.215  1.00  0.00     0.031 C 
ATOM     55  C   UNL A   1      47.085  25.130  26.111  1.00  0.00     0.029 A 
ATOM     56  C   UNL A   1      46.886  26.508  26.556  1.00  0.00     0.049 A 
ATOM     57  H   UNL A   1      45.125  27.356  27.278  1.00  0.00     0.167 HD
ATOM     58  C   UNL A   1      41.387  29.018  28.828  1.00  0.00     0.034 A 
ATOM     59  C   UNL A   1      47.832  27.469  26.568  1.00  0.00     0.034 A 
ATOM     60  C   UNL A   1      42.352  30.083  28.954  1.00  0.00     0.049 A 
ATOM     61  C   UNL A   1      47.479  28.844  27.083  1.00  0.00     0.074 A 
ATOM     62  C   UNL A   1      42.174  31.348  29.489  1.00  0.00     0.029 A 
ATOM     63  N   UNL A   1      43.674  30.015  28.533  1.00  0.00    -0.354 N 
ATOM     64  N   UNL A   1      46.335  29.282  27.553  1.00  0.00    -0.248 NA
ATOM     65  C   UNL A   1      48.550  29.850  27.077  1.00  0.00     0.031 C 
ATOM     66  C   UNL A   1      43.363  32.067  29.325  1.00  0.00     0.029 A 
ATOM     67  C   UNL A   1      44.309  31.226  28.761  1.00  0.00     0.049 A 
ATOM     68  H   UNL A   1      44.097  29.222  28.131  1.00  0.00     0.167 HD
ATOM     69  C   UNL A   1      46.560  30.605  27.926  1.00  0.00     0.074 A 
ATOM     70  C   UNL A   1      47.950  30.887  27.643  1.00  0.00     0.031 C 
ATOM     71  C   UNL A   1      45.694  31.505  28.460  1.00  0.00     0.034 A 
BRANCH  58  72
ATOM     72  C   UNL A   1      39.957  29.283  29.247  1.00  0.00     0.023 A 
ATOM     73  C   UNL A   1      39.587  29.354  30.602  1.00  0.00     0.031 A 
ATOM     74  C   UNL A   1      38.950  29.450  28.281  1.00  0.00     0.131 A 
ATOM     75  C   UNL A   1      38.237  29.507  30.952  1.00  0.00     0.055 A 
ATOM     76  C   UNL A   1      37.620  29.686  28.637  1.00  0.00     0.041 A 
ATOM     77  F   UNL A   1      39.238  29.374  26.972  1.00  0.00    -0.206 F 
ATOM     78  C   UNL A   1      37.253  29.699  29.979  1.00  0.00     0.022 A 
BRANCH  75  79
ATOM     79  S   UNL A   1      37.765  29.299  32.691  1.00  0.00     0.124 S 
ATOM     80  O   UNL A   1      36.487  30.005  32.735  1.00  0.00    -0.237 OA
ATOM     81  O   UNL A   1      37.700  27.849  32.829  1.00  0.00    -0.237 OA
ATOM     82  O   UNL A   1      38.852  29.949  33.421  1.00  0.00    -0.744 OA
ENDBRANCH  75  79
ENDBRANCH  58  72
BRANCH  59  83
ATOM     83  C   UNL A   1      49.209  27.182  26.067  1.00  0.00     0.023 A 
ATOM     84  C   UNL A   1      49.605  27.559  24.774  1.00  0.00     0.031 A 
ATOM     85  C   UNL A   1      50.133  26.474  26.859  1.00  0.00     0.131 A 
ATOM     86  C   UNL A   1      50.870  27.186  24.292  1.00  0.00     0.055 A 
ATOM     87  C   UNL A   1      51.410  26.155  26.395  1.00  0.00     0.041 A 
ATOM     88  F   UNL A   1      49.806  26.091  28.103  1.00  0.00    -0.206 F 
ATOM     89  C   UNL A   1      51.780  26.499  25.099  1.00  0.00     0.022 A 
BRANCH  86  90
ATOM     90  S   UNL A   1      51.279  27.532  22.559  1.00  0.00     0.124 S 
ATOM     91  O   UNL A   1      50.134  26.952  21.864  1.00  0.00    -0.237 OA
ATOM     92  O   UNL A   1      51.362  28.989  22.554  1.00  0.00    -0.237 OA
ATOM     93  O   UNL A   1      52.548  26.835  22.363  1.00  0.00    -0.744 OA
ENDBRANCH  86  90
ENDBRANCH  59  83
BRANCH  71  94
ATOM     94  C   UNL A   1      46.243  32.871  28.804  1.00  0.00     0.023 A 
ATOM     95  C   UNL A   1      46.185  33.942  27.896  1.00  0.00     0.031 A 
ATOM     96  C   UNL A   1      46.835  33.100  30.059  1.00  0.00     0.131 A 
ATOM     97  C   UNL A   1      46.758  35.177  28.233  1.00  0.00     0.055 A 
ATOM     98  C   UNL A   1      47.350  34.348  30.412  1.00  0.00     0.041 A 
ATOM     99  F   UNL A   1      46.920  32.113  30.965  1.00  0.00    -0.206 F 
ATOM    100  C   UNL A   1      47.325  35.393  29.492  1.00  0.00     0.022 A 
BRANCH  97 101
ATOM    101  S   UNL A   1      46.834  36.477  26.971  1.00  0.00     0.124 S 
ATOM    102  O   UNL A   1      45.751  37.365  27.384  1.00  0.00    -0.237 OA
ATOM    103  O   UNL A   1      48.186  37.000  27.139  1.00  0.00    -0.237 OA
ATOM    104  O   UNL A   1      46.600  35.757  25.720  1.00  0.00    -0.744 OA
ENDBRANCH  97 101
ENDBRANCH  71  94
ENDBRANCH  45  46
ENDBRANCH  37  40
ENDBRANCH  35  36
ENDBRANCH  34  35
ENDBRANCH   1  34
TORSDOF 19
ENDMDL
MODEL 2
REMARK VINA RESULT:     -13.8      1.482      7.295
REMARK SMILES COc1ccc(/C=C2/C(=O)N(c3ccccc3)C(=O)[NH+]=C2NCCCCCCNC(=O)c2ccc(-c3c4nc(c(-c5cc(S(=O)(=O)[O-])ccc5F)c5ccc([nH]5)c(-c5cc(S(=O)(=O)[O-])ccc5F)c5nc(c(-c6cc(S(=O)(=O)[O-])ccc6F)c6ccc3[nH]6)C=C5)C=C4)cc2)cc1C(=O)[O-]
REMARK SMILES IDX 26 1 25 2 24 3 23 4 22 5 7 6 8 7 9 8 21 9 10 10 11 11 20 12
REMARK SMILES IDX 18 13 19 16 6 17 3 18 4 19 96 20 5 21 95 22 2 23 1 24 97 25
REMARK SMILES IDX 98 26 99 27 12 28 13 29 17 30 14 31 16 32 15 33 27 34 28 35
REMARK SMILES IDX 29 36 30 37 31 39 32 40 33 41 94 42 34 43 93 44 35 45 36 46
REMARK SMILES IDX 37 47 87 48 38 49 92 50 86 51 88 52 39 53 91 54 85 55 84 56
REMARK SMILES IDX 40 58 72 59 52 60 71 61 53 62 56 63 70 64 89 65 54 66 55 67
REMARK SMILES IDX 69 69 90 70 57 71 41 72 42 73 50 74 43 75 49 76 51 77 48 78
REMARK SMILES IDX 44 79 45 80 46 81 47 82 73 83 74 84 82 85 75 86 81 87 83 88
REMARK SMILES IDX 80 89 76 90 77 91 78 92 79 93 58 94 59 95 67 96 60 97 66 98
REMARK SMILES IDX 68 99 65 100 61 101 62 102 63 103 64 104
REMARK H PARENT 20 14 22 15 29 38 88 57 56 68
REMARK Flexibility Score: inf
ROOT
ATOM      1  C   UNL A   1      37.269  20.562  24.895  1.00  0.00     0.002 C 
ENDROOT
BRANCH   1   2
ATOM      2  C   UNL A   1      37.231  21.840  25.782  1.00  0.00     0.003 C 
BRANCH   2   3
ATOM      3  C   UNL A   1      36.086  23.199  25.807  1.00  0.00     0.037 C 
BRANCH   3   4
ATOM      4  C   UNL A   1      34.146  23.651  24.897  1.00  0.00     0.194 C 
BRANCH   4   5
ATOM      5  N   UNL A   1      33.739  24.803  23.799  1.00  0.00    -0.305 N 
ATOM      6  C   UNL A   1      31.082  24.210  25.114  1.00  0.00     0.030 C 
ATOM      7  C   UNL A   1      31.386  25.380  24.540  1.00  0.00     0.129 C 
ATOM      8  C   UNL A   1      30.534  26.575  24.667  1.00  0.00     0.328 C 
ATOM      9  C   UNL A   1      32.555  25.501  23.637  1.00  0.00     0.236 C 
ATOM     10  O   UNL A   1      29.880  26.783  25.686  1.00  0.00    -0.249 OA
ATOM     11  N   UNL A   1      30.556  27.353  23.524  1.00  0.00    -0.155 N 
ATOM     12  N   UNL A   1      32.431  26.266  22.588  1.00  0.00    -0.209 N 
ATOM     13  C   UNL A   1      31.218  26.900  22.386  1.00  0.00     0.448 C 
ATOM     14  H   UNL A   1      33.179  26.390  21.959  1.00  0.00     0.270 HD
ATOM     15  H   UNL A   1      34.448  25.032  23.156  1.00  0.00     0.256 HD
ATOM     16  O   UNL A   1      30.752  27.027  21.255  1.00  0.00    -0.212 OA
BRANCH   6  17
ATOM     17  C   UNL A   1      32.113  23.185  25.042  1.00  0.00    -0.024 A 
ATOM     18  C   UNL A   1      33.292  19.774  24.984  1.00  0.00     0.127 A 
ATOM     19  C   UNL A   1      33.438  20.743  26.502  1.00  0.00     0.048 A 
ATOM     20  C   UNL A   1      32.504  20.486  23.543  1.00  0.00     0.040 A 
ATOM     21  C   UNL A   1      32.914  22.491  26.523  1.00  0.00     0.012 A 
ATOM     22  C   UNL A   1      31.955  22.183  23.555  1.00  0.00     0.022 A 
BRANCH  18  23
ATOM     23  O   UNL A   1      33.887  18.542  24.965  1.00  0.00    -0.496 OA
ATOM     24  C   UNL A   1      32.975  17.529  25.406  1.00  0.00     0.278 C 
ENDBRANCH  18  23
BRANCH  20  25
ATOM     25  C   UNL A   1      32.152  19.726  22.339  1.00  0.00     0.075 C 
ATOM     26  O   UNL A   1      32.185  18.516  22.253  1.00  0.00    -0.545 OA
ATOM     27  O   UNL A   1      31.899  20.531  21.302  1.00  0.00    -0.545 OA
ENDBRANCH  20  25
ENDBRANCH   6  17
BRANCH  11  28
ATOM     28  C   UNL A   1      29.659  28.441  23.437  1.00  0.00     0.111 A 
ATOM     29  C   UNL A   1      28.305  28.249  23.146  1.00  0.00     0.044 A 
ATOM     30  C   UNL A   1      30.146  29.727  23.696  1.00  0.00     0.044 A 
ATOM     31  C   UNL A   1      27.441  29.347  23.123  1.00  0.00     0.004 A 
ATOM     32  C   UNL A   1      29.283  30.821  23.659  1.00  0.00     0.004 A 
ATOM     33  C   UNL A   1      27.930  30.630  23.377  1.00  0.00     0.000 A 
ENDBRANCH  11  28
ENDBRANCH   4   5
ENDBRANCH   3   4
ENDBRANCH   2   3
ENDBRANCH   1   2
BRANCH   1  34
ATOM     34  C   UNL A   1      38.440  19.575  24.985  1.00  0.00     0.021 C 
BRANCH  34  35
ATOM     35  C   UNL A   1      39.462  19.874  26.076  1.00  0.00     0.116 C 
BRANCH  35  36
ATOM     36  N   UNL A   1      40.712  19.161  25.895  1.00  0.00    -0.352 N 
ATOM     37  C   UNL A   1      41.986  19.684  25.910  1.00  0.00     0.251 C 
ATOM     38  H   UNL A   1      40.641  18.192  25.742  1.00  0.00     0.163 HD
ATOM     39  O   UNL A   1      42.931  18.994  25.541  1.00  0.00    -0.269 OA
BRANCH  37  40
ATOM     40  C   UNL A   1      42.214  21.089  26.346  1.00  0.00     0.039 A 
ATOM     41  C   UNL A   1      42.301  22.092  25.378  1.00  0.00     0.014 A 
ATOM     42  C   UNL A   1      42.382  21.418  27.696  1.00  0.00     0.014 A 
ATOM     43  C   UNL A   1      42.540  23.417  25.759  1.00  0.00     0.010 A 
ATOM     44  C   UNL A   1      42.562  22.750  28.080  1.00  0.00     0.010 A 
ATOM     45  C   UNL A   1      42.667  23.764  27.115  1.00  0.00    -0.014 A 
BRANCH  45  46
ATOM     46  C   UNL A   1      42.974  25.169  27.514  1.00  0.00     0.031 A 
ATOM     47  C   UNL A   1      44.363  25.725  27.322  1.00  0.00     0.074 A 
ATOM     48  C   UNL A   1      42.012  25.950  28.044  1.00  0.00     0.049 A 
ATOM     49  N   UNL A   1      44.821  26.924  27.590  1.00  0.00    -0.248 NA
ATOM     50  C   UNL A   1      45.374  24.807  26.779  1.00  0.00     0.031 C 
ATOM     51  C   UNL A   1      40.634  25.531  28.304  1.00  0.00     0.029 A 
ATOM     52  N   UNL A   1      42.041  27.262  28.451  1.00  0.00    -0.354 N 
ATOM     53  C   UNL A   1      46.170  26.902  27.248  1.00  0.00     0.074 A 
ATOM     54  C   UNL A   1      46.469  25.552  26.820  1.00  0.00     0.031 C 
ATOM     55  C   UNL A   1      39.943  26.574  28.794  1.00  0.00     0.029 A 
ATOM     56  C   UNL A   1      40.833  27.726  28.920  1.00  0.00     0.049 A 
ATOM     57  H   UNL A   1      42.851  27.820  28.411  1.00  0.00     0.167 HD
ATOM     58  C   UNL A   1      47.070  27.918  27.260  1.00  0.00     0.034 A 
ATOM     59  C   UNL A   1      40.480  28.937  29.397  1.00  0.00     0.034 A 
ATOM     60  C   UNL A   1      46.764  29.265  27.677  1.00  0.00     0.049 A 
ATOM     61  C   UNL A   1      41.509  30.041  29.441  1.00  0.00     0.074 A 
ATOM     62  C   UNL A   1      47.591  30.376  27.677  1.00  0.00     0.029 A 
ATOM     63  N   UNL A   1      45.538  29.685  28.176  1.00  0.00    -0.354 N 
ATOM     64  N   UNL A   1      42.766  30.014  29.064  1.00  0.00    -0.248 NA
ATOM     65  C   UNL A   1      41.067  31.340  29.966  1.00  0.00     0.031 C 
ATOM     66  C   UNL A   1      46.890  31.446  28.245  1.00  0.00     0.029 A 
ATOM     67  C   UNL A   1      45.599  31.026  28.524  1.00  0.00     0.049 A 
ATOM     68  H   UNL A   1      44.742  29.113  28.270  1.00  0.00     0.167 HD
ATOM     69  C   UNL A   1      43.254  31.301  29.280  1.00  0.00     0.074 A 
ATOM     70  C   UNL A   1      42.153  32.082  29.802  1.00  0.00     0.031 C 
ATOM     71  C   UNL A   1      44.500  31.794  29.060  1.00  0.00     0.034 A 
BRANCH  58  72
ATOM     72  C   UNL A   1      48.485  27.598  26.829  1.00  0.00     0.023 A 
ATOM     73  C   UNL A   1      48.917  27.801  25.506  1.00  0.00     0.031 A 
ATOM     74  C   UNL A   1      49.408  27.068  27.747  1.00  0.00     0.131 A 
ATOM     75  C   UNL A   1      50.206  27.403  25.121  1.00  0.00     0.055 A 
ATOM     76  C   UNL A   1      50.718  26.754  27.377  1.00  0.00     0.041 A 
ATOM     77  F   UNL A   1      49.050  26.835  29.020  1.00  0.00    -0.206 F 
ATOM     78  C   UNL A   1      51.119  26.905  26.054  1.00  0.00     0.022 A 
BRANCH  75  79
ATOM     79  S   UNL A   1      50.622  27.407  23.356  1.00  0.00     0.124 S 
ATOM     80  O   UNL A   1      51.903  26.704  23.354  1.00  0.00    -0.237 OA
ATOM     81  O   UNL A   1      49.499  26.689  22.766  1.00  0.00    -0.237 OA
ATOM     82  O   UNL A   1      50.700  28.828  23.025  1.00  0.00    -0.744 OA
ENDBRANCH  75  79
ENDBRANCH  58  72
BRANCH  59  83
ATOM     83  C   UNL A   1      39.091  29.182  29.888  1.00  0.00     0.023 A 
ATOM     84  C   UNL A   1      38.150  29.863  29.098  1.00  0.00     0.031 A 
ATOM     85  C   UNL A   1      38.700  28.783  31.180  1.00  0.00     0.131 A 
ATOM     86  C   UNL A   1      36.885  30.169  29.623  1.00  0.00     0.055 A 
ATOM     87  C   UNL A   1      37.422  29.041  31.677  1.00  0.00     0.041 A 
ATOM     88  F   UNL A   1      39.559  28.128  31.976  1.00  0.00    -0.206 F 
ATOM     89  C   UNL A   1      36.510  29.750  30.902  1.00  0.00     0.022 A 
BRANCH  86  90
ATOM     90  S   UNL A   1      35.763  31.205  28.645  1.00  0.00     0.124 S 
ATOM     91  O   UNL A   1      35.191  30.231  27.721  1.00  0.00    -0.237 OA
ATOM     92  O   UNL A   1      34.862  31.725  29.668  1.00  0.00    -0.237 OA
ATOM     93  O   UNL A   1      36.653  32.193  28.038  1.00  0.00    -0.744 OA
ENDBRANCH  86  90
ENDBRANCH  59  83
BRANCH  71  94
ATOM     94  C   UNL A   1      44.724  33.259  29.354  1.00  0.00     0.023 A 
ATOM     95  C   UNL A   1      44.495  34.252  28.387  1.00  0.00     0.031 A 
ATOM     96  C   UNL A   1      45.179  33.666  30.623  1.00  0.00     0.131 A 
ATOM     97  C   UNL A   1      44.772  35.596  28.682  1.00  0.00     0.055 A 
ATOM     98  C   UNL A   1      45.395  35.010  30.930  1.00  0.00     0.041 A 
ATOM     99  F   UNL A   1      45.417  32.761  31.585  1.00  0.00    -0.206 F 
ATOM    100  C   UNL A   1      45.204  35.983  29.953  1.00  0.00     0.022 A 
BRANCH  97 101
ATOM    101  S   UNL A   1      44.644  36.825  27.354  1.00  0.00     0.124 S 
ATOM    102  O   UNL A   1      44.786  38.079  28.087  1.00  0.00    -0.237 OA
ATOM    103  O   UNL A   1      45.760  36.464  26.486  1.00  0.00    -0.237 OA
ATOM    104  O   UNL A   1      43.318  36.585  26.789  1.00  0.00    -0.744 OA
ENDBRANCH  97 101
ENDBRANCH  71  94
ENDBRANCH  45  46
ENDBRANCH  37  40
ENDBRANCH  35  36
ENDBRANCH  34  35
ENDBRANCH   1  34
TORSDOF 19
ENDMDL
MODEL 3
REMARK VINA RESULT:     -13.6      2.265      7.670
REMARK SMILES COc1ccc(/C=C2/C(=O)N(c3ccccc3)C(=O)[NH+]=C2NCCCCCCNC(=O)c2ccc(-c3c4nc(c(-c5cc(S(=O)(=O)[O-])ccc5F)c5ccc([nH]5)c(-c5cc(S(=O)(=O)[O-])ccc5F)c5nc(c(-c6cc(S(=O)(=O)[O-])ccc6F)c6ccc3[nH]6)C=C5)C=C4)cc2)cc1C(=O)[O-]
REMARK SMILES IDX 26 1 25 2 24 3 23 4 22 5 7 6 8 7 9 8 21 9 10 10 11 11 20 12
REMARK SMILES IDX 18 13 19 16 6 17 3 18 4 19 96 20 5 21 95 22 2 23 1 24 97 25
REMARK SMILES IDX 98 26 99 27 12 28 13 29 17 30 14 31 16 32 15 33 27 34 28 35
REMARK SMILES IDX 29 36 30 37 31 39 32 40 33 41 94 42 34 43 93 44 35 45 36 46
REMARK SMILES IDX 37 47 87 48 38 49 92 50 86 51 88 52 39 53 91 54 85 55 84 56
REMARK SMILES IDX 40 58 72 59 52 60 71 61 53 62 56 63 70 64 89 65 54 66 55 67
REMARK SMILES IDX 69 69 90 70 57 71 41 72 42 73 50 74 43 75 49 76 51 77 48 78
REMARK SMILES IDX 44 79 45 80 46 81 47 82 73 83 74 84 82 85 75 86 81 87 83 88
REMARK SMILES IDX 80 89 76 90 77 91 78 92 79 93 58 94 59 95 67 96 60 97 66 98
REMARK SMILES IDX 68 99 65 100 61 101 62 102 63 103 64 104
REMARK H PARENT 20 14 22 15 29 38 88 57 56 68
REMARK Flexibility Score: inf
ROOT
ATOM      1  C   UNL A   1      36.818  22.829  24.160  1.00  0.00     0.002 C 
ENDROOT
BRANCH   1   2
ATOM      2  C   UNL A   1      35.878  22.941  22.925  1.00  0.00     0.003 C 
BRANCH   2   3
ATOM      3  C   UNL A   1      34.150  23.341  22.818  1.00  0.00     0.037 C 
BRANCH   3   4
ATOM      4  C   UNL A   1      32.849  24.949  23.537  1.00  0.00     0.194 C 
BRANCH   4   5
ATOM      5  N   UNL A   1      31.514  25.614  22.848  1.00  0.00    -0.305 N 
ATOM      6  C   UNL A   1      31.964  27.416  25.232  1.00  0.00     0.030 C 
ATOM      7  C   UNL A   1      31.347  27.804  24.109  1.00  0.00     0.129 C 
ATOM      8  C   UNL A   1      31.003  29.210  23.834  1.00  0.00     0.328 C 
ATOM      9  C   UNL A   1      30.869  26.806  23.124  1.00  0.00     0.236 C 
ATOM     10  O   UNL A   1      31.708  30.128  24.246  1.00  0.00    -0.249 OA
ATOM     11  N   UNL A   1      29.825  29.326  23.120  1.00  0.00    -0.155 N 
ATOM     12  N   UNL A   1      29.732  27.043  22.529  1.00  0.00    -0.209 N 
ATOM     13  C   UNL A   1      29.051  28.198  22.867  1.00  0.00     0.448 C 
ATOM     14  H   UNL A   1      29.372  26.418  21.858  1.00  0.00     0.270 HD
ATOM     15  H   UNL A   1      31.111  25.081  22.125  1.00  0.00     0.256 HD
ATOM     16  O   UNL A   1      27.824  28.203  22.957  1.00  0.00    -0.212 OA
BRANCH   6  17
ATOM     17  C   UNL A   1      32.392  26.026  25.269  1.00  0.00    -0.024 A 
ATOM     18  C   UNL A   1      32.998  22.865  26.903  1.00  0.00     0.127 A 
ATOM     19  C   UNL A   1      34.385  23.966  26.549  1.00  0.00     0.048 A 
ATOM     20  C   UNL A   1      31.328  23.375  26.507  1.00  0.00     0.040 A 
ATOM     21  C   UNL A   1      34.101  25.533  25.657  1.00  0.00     0.012 A 
ATOM     22  C   UNL A   1      31.028  24.919  25.665  1.00  0.00     0.022 A 
BRANCH  18  23
ATOM     23  O   UNL A   1      33.292  21.618  27.384  1.00  0.00    -0.496 OA
ATOM     24  C   UNL A   1      33.536  20.702  26.310  1.00  0.00     0.278 C 
ENDBRANCH  18  23
BRANCH  20  25
ATOM     25  C   UNL A   1      30.124  22.655  26.935  1.00  0.00     0.075 C 
ATOM     26  O   UNL A   1      29.514  22.881  27.960  1.00  0.00    -0.545 OA
ATOM     27  O   UNL A   1      29.840  21.636  26.117  1.00  0.00    -0.545 OA
ENDBRANCH  20  25
ENDBRANCH   6  17
BRANCH  11  28
ATOM     28  C   UNL A   1      29.283  30.617  22.928  1.00  0.00     0.111 A 
ATOM     29  C   UNL A   1      29.158  31.521  23.986  1.00  0.00     0.044 A 
ATOM     30  C   UNL A   1      28.911  30.995  21.633  1.00  0.00     0.044 A 
ATOM     31  C   UNL A   1      28.668  32.807  23.743  1.00  0.00     0.004 A 
ATOM     32  C   UNL A   1      28.409  32.274  21.397  1.00  0.00     0.004 A 
ATOM     33  C   UNL A   1      28.292  33.181  22.451  1.00  0.00     0.000 A 
ENDBRANCH  11  28
ENDBRANCH   4   5
ENDBRANCH   3   4
ENDBRANCH   2   3
ENDBRANCH   1   2
BRANCH   1  34
ATOM     34  C   UNL A   1      37.383  21.471  24.599  1.00  0.00     0.021 C 
BRANCH  34  35
ATOM     35  C   UNL A   1      37.998  21.441  25.993  1.00  0.00     0.116 C 
BRANCH  35  36
ATOM     36  N   UNL A   1      39.107  20.514  26.105  1.00  0.00    -0.352 N 
ATOM     37  C   UNL A   1      40.422  20.810  26.392  1.00  0.00     0.251 C 
ATOM     38  H   UNL A   1      38.897  19.564  25.959  1.00  0.00     0.163 HD
ATOM     39  O   UNL A   1      41.283  19.947  26.253  1.00  0.00    -0.269 OA
BRANCH  37  40
ATOM     40  C   UNL A   1      40.802  22.177  26.842  1.00  0.00     0.039 A 
ATOM     41  C   UNL A   1      40.544  23.262  26.000  1.00  0.00     0.014 A 
ATOM     42  C   UNL A   1      41.445  22.392  28.066  1.00  0.00     0.014 A 
ATOM     43  C   UNL A   1      40.914  24.555  26.387  1.00  0.00     0.010 A 
ATOM     44  C   UNL A   1      41.761  23.691  28.478  1.00  0.00     0.010 A 
ATOM     45  C   UNL A   1      41.521  24.786  27.634  1.00  0.00    -0.014 A 
BRANCH  45  46
ATOM     46  C   UNL A   1      41.960  26.158  28.021  1.00  0.00     0.031 A 
ATOM     47  C   UNL A   1      43.362  26.621  27.710  1.00  0.00     0.074 A 
ATOM     48  C   UNL A   1      41.108  26.993  28.648  1.00  0.00     0.049 A 
ATOM     49  N   UNL A   1      43.926  27.780  27.950  1.00  0.00    -0.248 NA
ATOM     50  C   UNL A   1      44.252  25.646  27.064  1.00  0.00     0.031 C 
ATOM     51  C   UNL A   1      39.734  26.666  29.028  1.00  0.00     0.029 A 
ATOM     52  N   UNL A   1      41.266  28.293  29.068  1.00  0.00    -0.354 N 
ATOM     53  C   UNL A   1      45.234  27.672  27.486  1.00  0.00     0.074 A 
ATOM     54  C   UNL A   1      45.396  26.313  27.014  1.00  0.00     0.031 C 
ATOM     55  C   UNL A   1      39.165  27.744  29.593  1.00  0.00     0.029 A 
ATOM     56  C   UNL A   1      40.142  28.829  29.652  1.00  0.00     0.049 A 
ATOM     57  H   UNL A   1      42.107  28.794  28.960  1.00  0.00     0.167 HD
ATOM     58  C   UNL A   1      46.201  28.622  27.427  1.00  0.00     0.034 A 
ATOM     59  C   UNL A   1      39.920  30.053  30.175  1.00  0.00     0.034 A 
ATOM     60  C   UNL A   1      46.029  29.979  27.888  1.00  0.00     0.049 A 
ATOM     61  C   UNL A   1      41.024  31.082  30.139  1.00  0.00     0.074 A 
ATOM     62  C   UNL A   1      46.929  31.030  27.827  1.00  0.00     0.029 A 
ATOM     63  N   UNL A   1      44.886  30.473  28.504  1.00  0.00    -0.354 N 
ATOM     64  N   UNL A   1      42.237  30.975  29.647  1.00  0.00    -0.248 NA
ATOM     65  C   UNL A   1      40.725  32.398  30.719  1.00  0.00     0.031 C 
ATOM     66  C   UNL A   1      46.360  32.135  28.471  1.00  0.00     0.029 A 
ATOM     67  C   UNL A   1      45.073  31.799  28.862  1.00  0.00     0.049 A 
ATOM     68  H   UNL A   1      44.064  29.956  28.664  1.00  0.00     0.167 HD
ATOM     69  C   UNL A   1      42.832  32.221  29.834  1.00  0.00     0.074 A 
ATOM     70  C   UNL A   1      41.840  33.066  30.465  1.00  0.00     0.031 C 
ATOM     71  C   UNL A   1      44.084  32.632  29.507  1.00  0.00     0.034 A 
BRANCH  58  72
ATOM     72  C   UNL A   1      47.544  28.214  26.865  1.00  0.00     0.023 A 
ATOM     73  C   UNL A   1      47.750  28.064  25.481  1.00  0.00     0.031 A 
ATOM     74  C   UNL A   1      48.628  27.954  27.721  1.00  0.00     0.131 A 
ATOM     75  C   UNL A   1      48.981  27.592  25.003  1.00  0.00     0.055 A 
ATOM     76  C   UNL A   1      49.878  27.566  27.232  1.00  0.00     0.041 A 
ATOM     77  F   UNL A   1      48.489  28.062  29.052  1.00  0.00    -0.206 F 
ATOM     78  C   UNL A   1      50.056  27.366  25.867  1.00  0.00     0.022 A 
BRANCH  75  79
ATOM     79  S   UNL A   1      49.112  27.134  23.253  1.00  0.00     0.124 S 
ATOM     80  O   UNL A   1      48.363  25.880  23.221  1.00  0.00    -0.237 OA
ATOM     81  O   UNL A   1      48.487  28.269  22.583  1.00  0.00    -0.237 OA
ATOM     82  O   UNL A   1      50.551  26.997  23.041  1.00  0.00    -0.744 OA
ENDBRANCH  75  79
ENDBRANCH  58  72
BRANCH  59  83
ATOM     83  C   UNL A   1      38.602  30.383  30.794  1.00  0.00     0.023 A 
ATOM     84  C   UNL A   1      37.601  31.046  30.065  1.00  0.00     0.031 A 
ATOM     85  C   UNL A   1      38.345  30.087  32.146  1.00  0.00     0.131 A 
ATOM     86  C   UNL A   1      36.413  31.435  30.701  1.00  0.00     0.055 A 
ATOM     87  C   UNL A   1      37.137  30.427  32.758  1.00  0.00     0.041 A 
ATOM     88  F   UNL A   1      39.265  29.454  32.889  1.00  0.00    -0.206 F 
ATOM     89  C   UNL A   1      36.168  31.118  32.039  1.00  0.00     0.022 A 
BRANCH  86  90
ATOM     90  S   UNL A   1      35.222  32.446  29.778  1.00  0.00     0.124 S 
ATOM     91  O   UNL A   1      34.211  32.715  30.795  1.00  0.00    -0.237 OA
ATOM     92  O   UNL A   1      36.042  33.583  29.371  1.00  0.00    -0.237 OA
ATOM     93  O   UNL A   1      34.797  31.565  28.693  1.00  0.00    -0.744 OA
ENDBRANCH  86  90
ENDBRANCH  59  83
BRANCH  71  94
ATOM     94  C   UNL A   1      44.437  34.071  29.798  1.00  0.00     0.023 A 
ATOM     95  C   UNL A   1      44.307  35.077  28.825  1.00  0.00     0.031 A 
ATOM     96  C   UNL A   1      44.915  34.440  31.069  1.00  0.00     0.131 A 
ATOM     97  C   UNL A   1      44.701  36.391  29.119  1.00  0.00     0.055 A 
ATOM     98  C   UNL A   1      45.248  35.761  31.375  1.00  0.00     0.041 A 
ATOM     99  F   UNL A   1      45.062  33.522  32.037  1.00  0.00    -0.206 F 
ATOM    100  C   UNL A   1      45.155  36.743  30.392  1.00  0.00     0.022 A 
BRANCH  97 101
ATOM    101  S   UNL A   1      44.698  37.621  27.786  1.00  0.00     0.124 S 
ATOM    102  O   UNL A   1      43.273  37.751  27.497  1.00  0.00    -0.237 OA
ATOM    103  O   UNL A   1      45.327  38.774  28.422  1.00  0.00    -0.237 OA
ATOM    104  O   UNL A   1      45.488  36.989  26.731  1.00  0.00    -0.744 OA
ENDBRANCH  97 101
ENDBRANCH  71  94
ENDBRANCH  45  46
ENDBRANCH  37  40
ENDBRANCH  35  36
ENDBRANCH  34  35
ENDBRANCH   1  34
TORSDOF 19
ENDMDL
