MODEL 1
REMARK VINA RESULT:     -11.0      0.000      0.000
REMARK SMILES CCc1c(Cl)ccc2c1C=C(C(=O)NCCCCCCNC(=O)c1ccc(-c3c4nc(c(-c5cc(S(=O)(=O)[O-])ccc5F)c5ccc([nH]5)c(-c5cc(S(=O)(=O)[O-])ccc5F)c5nc(c(-c6cc(S(=O)(=O)[O-])ccc6F)c6ccc3[nH]6)C=C5)C=C4)cc1)[C@@H](C(F)(F)F)O2
REMARK SMILES IDX 18 1 17 2 16 3 15 4 14 5 12 6 13 7 11 9 3 10 4 11 9 12 5 13
REMARK SMILES IDX 6 14 8 15 10 16 7 17 92 18 87 19 2 20 1 21 88 22 89 23 90 24
REMARK SMILES IDX 91 25 19 26 20 27 21 28 22 29 23 31 24 32 25 33 86 34 26 35
REMARK SMILES IDX 85 36 27 37 28 38 29 39 79 40 30 41 84 42 78 43 80 44 31 45
REMARK SMILES IDX 83 46 77 47 76 48 32 50 64 51 44 52 63 53 45 54 48 55 62 56
REMARK SMILES IDX 81 57 46 58 47 59 61 61 82 62 49 63 33 64 34 65 42 66 35 67
REMARK SMILES IDX 41 68 43 69 40 70 36 71 37 72 38 73 39 74 65 75 66 76 74 77
REMARK SMILES IDX 67 78 73 79 75 80 72 81 68 82 69 83 70 84 71 85 50 86 51 87
REMARK SMILES IDX 59 88 52 89 58 90 60 91 57 92 53 93 54 94 55 95 56 96
REMARK H PARENT 14 8 21 30 80 49 48 60
REMARK Flexibility Score: inf
ROOT
ATOM      1  C   UNL A   1      40.618  22.334  27.737  1.00  0.00     0.002 C 
ENDROOT
BRANCH   1   2
ATOM      2  C   UNL A   1      40.164  23.090  26.481  1.00  0.00     0.002 C 
BRANCH   2   3
ATOM      3  C   UNL A   1      38.680  23.471  26.436  1.00  0.00     0.021 C 
BRANCH   3   4
ATOM      4  C   UNL A   1      37.772  22.394  25.849  1.00  0.00     0.116 C 
BRANCH   4   5
ATOM      5  N   UNL A   1      37.499  22.625  24.440  1.00  0.00    -0.352 N 
ATOM      6  C   UNL A   1      36.427  22.923  23.672  1.00  0.00     0.251 C 
ATOM      7  O   UNL A   1      36.674  23.064  22.468  1.00  0.00    -0.270 OA
ATOM      8  H   UNL A   1      38.318  22.543  23.899  1.00  0.00     0.163 HD
BRANCH   6   9
ATOM      9  C   UNL A   1      35.021  23.086  24.159  1.00  0.00     0.067 C 
ATOM     10  C   UNL A   1      32.961  25.884  25.631  1.00  0.00    -0.019 A 
ATOM     11  C   UNL A   1      31.647  25.989  26.150  1.00  0.00     0.045 A 
ATOM     12  C   UNL A   1      33.337  24.629  25.057  1.00  0.00     0.022 A 
ATOM     13  Cl  UNL A   1      31.047  27.353  27.028  1.00  0.00    -0.084 Cl
ATOM     14  C   UNL A   1      30.725  24.940  26.022  1.00  0.00     0.024 A 
ATOM     15  C   UNL A   1      32.394  23.591  24.962  1.00  0.00     0.128 A 
ATOM     16  C   UNL A   1      34.678  24.336  24.527  1.00  0.00     0.026 C 
ATOM     17  C   UNL A   1      31.093  23.751  25.415  1.00  0.00     0.048 A 
ATOM     18  O   UNL A   1      32.652  22.378  24.394  1.00  0.00    -0.475 OA
ATOM     19  C   UNL A   1      34.037  21.967  24.296  1.00  0.00     0.314 C 
BRANCH  10  20
ATOM     20  C   UNL A   1      34.000  26.997  25.722  1.00  0.00     0.034 C 
ATOM     21  C   UNL A   1      33.912  28.223  24.819  1.00  0.00     0.009 C 
ENDBRANCH  10  20
BRANCH  19  22
ATOM     22  C   UNL A   1      34.372  21.021  25.464  1.00  0.00     0.429 C 
ATOM     23  F   UNL A   1      35.384  20.185  25.126  1.00  0.00    -0.167 F 
ATOM     24  F   UNL A   1      34.779  21.686  26.570  1.00  0.00    -0.167 F 
ATOM     25  F   UNL A   1      33.317  20.257  25.829  1.00  0.00    -0.167 F 
ENDBRANCH  19  22
ENDBRANCH   6   9
ENDBRANCH   4   5
ENDBRANCH   3   4
ENDBRANCH   2   3
ENDBRANCH   1   2
BRANCH   1  26
ATOM     26  C   UNL A   1      40.933  20.849  27.541  1.00  0.00     0.021 C 
BRANCH  26  27
ATOM     27  C   UNL A   1      40.841  20.353  26.104  1.00  0.00     0.116 C 
BRANCH  27  28
ATOM     28  N   UNL A   1      42.007  19.579  25.709  1.00  0.00    -0.352 N 
ATOM     29  C   UNL A   1      43.289  20.004  25.451  1.00  0.00     0.251 C 
ATOM     30  H   UNL A   1      41.856  18.611  25.611  1.00  0.00     0.163 HD
ATOM     31  O   UNL A   1      44.099  19.223  24.957  1.00  0.00    -0.269 OA
BRANCH  29  32
ATOM     32  C   UNL A   1      43.675  21.402  25.741  1.00  0.00     0.039 A 
ATOM     33  C   UNL A   1      44.274  21.742  26.956  1.00  0.00     0.014 A 
ATOM     34  C   UNL A   1      43.431  22.389  24.782  1.00  0.00     0.014 A 
ATOM     35  C   UNL A   1      44.482  23.080  27.274  1.00  0.00     0.010 A 
ATOM     36  C   UNL A   1      43.722  23.727  25.071  1.00  0.00     0.010 A 
ATOM     37  C   UNL A   1      44.210  24.089  26.334  1.00  0.00    -0.014 A 
BRANCH  37  38
ATOM     38  C   UNL A   1      44.477  25.509  26.689  1.00  0.00     0.031 A 
ATOM     39  C   UNL A   1      43.403  26.373  27.290  1.00  0.00     0.074 A 
ATOM     40  C   UNL A   1      45.717  26.003  26.504  1.00  0.00     0.049 A 
ATOM     41  N   UNL A   1      43.480  27.615  27.696  1.00  0.00    -0.248 NA
ATOM     42  C   UNL A   1      42.069  25.773  27.455  1.00  0.00     0.031 C 
ATOM     43  C   UNL A   1      46.833  25.255  25.923  1.00  0.00     0.029 A 
ATOM     44  N   UNL A   1      46.257  27.229  26.800  1.00  0.00    -0.354 N 
ATOM     45  C   UNL A   1      42.211  27.950  28.152  1.00  0.00     0.074 A 
ATOM     46  C   UNL A   1      41.370  26.792  27.938  1.00  0.00     0.031 C 
ATOM     47  C   UNL A   1      47.935  26.015  25.956  1.00  0.00     0.029 A 
ATOM     48  C   UNL A   1      47.594  27.331  26.492  1.00  0.00     0.049 A 
ATOM     49  H   UNL A   1      45.738  27.967  27.194  1.00  0.00     0.167 HD
ATOM     50  C   UNL A   1      41.792  29.110  28.711  1.00  0.00     0.034 A 
ATOM     51  C   UNL A   1      48.452  28.364  26.616  1.00  0.00     0.034 A 
ATOM     52  C   UNL A   1      42.648  30.249  28.933  1.00  0.00     0.049 A 
ATOM     53  C   UNL A   1      47.954  29.652  27.215  1.00  0.00     0.074 A 
ATOM     54  C   UNL A   1      42.325  31.456  29.529  1.00  0.00     0.029 A 
ATOM     55  N   UNL A   1      43.987  30.328  28.574  1.00  0.00    -0.354 N 
ATOM     56  N   UNL A   1      46.764  29.932  27.693  1.00  0.00    -0.248 NA
ATOM     57  C   UNL A   1      48.907  30.767  27.293  1.00  0.00     0.031 C 
ATOM     58  C   UNL A   1      43.446  32.285  29.473  1.00  0.00     0.029 A 
ATOM     59  C   UNL A   1      44.493  31.574  28.908  1.00  0.00     0.049 A 
ATOM     60  H   UNL A   1      44.501  29.606  28.146  1.00  0.00     0.167 HD
ATOM     61  C   UNL A   1      46.828  31.248  28.138  1.00  0.00     0.074 A 
ATOM     62  C   UNL A   1      48.186  31.697  27.905  1.00  0.00     0.031 C 
ATOM     63  C   UNL A   1      45.849  32.016  28.678  1.00  0.00     0.034 A 
BRANCH  50  64
ATOM     64  C   UNL A   1      40.352  29.229  29.149  1.00  0.00     0.023 A 
ATOM     65  C   UNL A   1      40.010  29.052  30.503  1.00  0.00     0.031 A 
ATOM     66  C   UNL A   1      39.311  29.378  28.215  1.00  0.00     0.131 A 
ATOM     67  C   UNL A   1      38.662  28.992  30.879  1.00  0.00     0.055 A 
ATOM     68  C   UNL A   1      37.970  29.357  28.601  1.00  0.00     0.041 A 
ATOM     69  F   UNL A   1      39.586  29.547  26.911  1.00  0.00    -0.206 F 
ATOM     70  C   UNL A   1      37.641  29.150  29.937  1.00  0.00     0.022 A 
BRANCH  67  71
ATOM     71  S   UNL A   1      38.179  28.642  32.593  1.00  0.00     0.124 S 
ATOM     72  O   UNL A   1      38.247  27.183  32.631  1.00  0.00    -0.237 OA
ATOM     73  O   UNL A   1      39.220  29.334  33.350  1.00  0.00    -0.237 OA
ATOM     74  O   UNL A   1      36.839  29.204  32.702  1.00  0.00    -0.744 OA
ENDBRANCH  67  71
ENDBRANCH  50  64
BRANCH  51  75
ATOM     75  C   UNL A   1      49.873  28.180  26.195  1.00  0.00     0.023 A 
ATOM     76  C   UNL A   1      50.234  28.212  24.836  1.00  0.00     0.031 A 
ATOM     77  C   UNL A   1      50.865  27.851  27.134  1.00  0.00     0.131 A 
ATOM     78  C   UNL A   1      51.526  27.838  24.448  1.00  0.00     0.055 A 
ATOM     79  C   UNL A   1      52.174  27.555  26.748  1.00  0.00     0.041 A 
ATOM     80  F   UNL A   1      50.568  27.795  28.441  1.00  0.00    -0.206 F 
ATOM     81  C   UNL A   1      52.504  27.527  25.397  1.00  0.00     0.022 A 
BRANCH  78  82
ATOM     82  S   UNL A   1      51.934  27.592  22.697  1.00  0.00     0.124 S 
ATOM     83  O   UNL A   1      52.931  26.529  22.762  1.00  0.00    -0.237 OA
ATOM     84  O   UNL A   1      50.638  27.210  22.139  1.00  0.00    -0.237 OA
ATOM     85  O   UNL A   1      52.428  28.897  22.271  1.00  0.00    -0.744 OA
ENDBRANCH  78  82
ENDBRANCH  51  75
BRANCH  63  86
ATOM     86  C   UNL A   1      46.178  33.441  29.056  1.00  0.00     0.023 A 
ATOM     87  C   UNL A   1      46.058  34.471  28.104  1.00  0.00     0.031 A 
ATOM     88  C   UNL A   1      46.749  33.750  30.302  1.00  0.00     0.131 A 
ATOM     89  C   UNL A   1      46.541  35.752  28.399  1.00  0.00     0.055 A 
ATOM     90  C   UNL A   1      47.185  35.040  30.610  1.00  0.00     0.041 A 
ATOM     91  F   UNL A   1      46.895  32.800  31.240  1.00  0.00    -0.206 F 
ATOM     92  C   UNL A   1      47.096  36.044  29.648  1.00  0.00     0.022 A 
BRANCH  89  93
ATOM     93  S   UNL A   1      46.552  37.061  27.142  1.00  0.00     0.124 S 
ATOM     94  O   UNL A   1      46.504  36.290  25.903  1.00  0.00    -0.237 OA
ATOM     95  O   UNL A   1      45.336  37.804  27.462  1.00  0.00    -0.237 OA
ATOM     96  O   UNL A   1      47.803  37.772  27.384  1.00  0.00    -0.744 OA
ENDBRANCH  89  93
ENDBRANCH  63  86
ENDBRANCH  37  38
ENDBRANCH  29  32
ENDBRANCH  27  28
ENDBRANCH  26  27
ENDBRANCH   1  26
TORSDOF 18
ENDMDL
MODEL 2
REMARK VINA RESULT:     -10.8      6.019     10.132
REMARK SMILES CCc1c(Cl)ccc2c1C=C(C(=O)NCCCCCCNC(=O)c1ccc(-c3c4nc(c(-c5cc(S(=O)(=O)[O-])ccc5F)c5ccc([nH]5)c(-c5cc(S(=O)(=O)[O-])ccc5F)c5nc(c(-c6cc(S(=O)(=O)[O-])ccc6F)c6ccc3[nH]6)C=C5)C=C4)cc1)[C@@H](C(F)(F)F)O2
REMARK SMILES IDX 18 1 17 2 16 3 15 4 14 5 12 6 13 7 11 9 3 10 4 11 9 12 5 13
REMARK SMILES IDX 6 14 8 15 10 16 7 17 92 18 87 19 2 20 1 21 88 22 89 23 90 24
REMARK SMILES IDX 91 25 19 26 20 27 21 28 22 29 23 31 24 32 25 33 86 34 26 35
REMARK SMILES IDX 85 36 27 37 28 38 29 39 79 40 30 41 84 42 78 43 80 44 31 45
REMARK SMILES IDX 83 46 77 47 76 48 32 50 64 51 44 52 63 53 45 54 48 55 62 56
REMARK SMILES IDX 81 57 46 58 47 59 61 61 82 62 49 63 33 64 34 65 42 66 35 67
REMARK SMILES IDX 41 68 43 69 40 70 36 71 37 72 38 73 39 74 65 75 66 76 74 77
REMARK SMILES IDX 67 78 73 79 75 80 72 81 68 82 69 83 70 84 71 85 50 86 51 87
REMARK SMILES IDX 59 88 52 89 58 90 60 91 57 92 53 93 54 94 55 95 56 96
REMARK H PARENT 14 8 21 30 80 49 48 60
REMARK Flexibility Score: inf
ROOT
ATOM      1  C   UNL A   1      31.400  30.889  26.015  1.00  0.00     0.002 C 
ENDROOT
BRANCH   1   2
ATOM      2  C   UNL A   1      32.426  29.934  26.640  1.00  0.00     0.002 C 
BRANCH   2   3
ATOM      3  C   UNL A   1      31.848  28.821  27.520  1.00  0.00     0.021 C 
BRANCH   3   4
ATOM      4  C   UNL A   1      31.761  27.460  26.835  1.00  0.00     0.116 C 
BRANCH   4   5
ATOM      5  N   UNL A   1      32.611  27.391  25.659  1.00  0.00    -0.352 N 
ATOM      6  C   UNL A   1      33.036  26.444  24.793  1.00  0.00     0.251 C 
ATOM      7  O   UNL A   1      33.761  26.859  23.882  1.00  0.00    -0.270 OA
ATOM      8  H   UNL A   1      32.978  28.277  25.430  1.00  0.00     0.163 HD
BRANCH   6   9
ATOM      9  C   UNL A   1      32.702  24.986  24.861  1.00  0.00     0.067 C 
ATOM     10  C   UNL A   1      34.642  21.749  24.890  1.00  0.00    -0.019 A 
ATOM     11  C   UNL A   1      34.292  20.377  24.884  1.00  0.00     0.045 A 
ATOM     12  C   UNL A   1      33.572  22.694  24.982  1.00  0.00     0.022 A 
ATOM     13  Cl  UNL A   1      35.409  19.083  24.616  1.00  0.00    -0.084 Cl
ATOM     14  C   UNL A   1      32.965  19.960  25.056  1.00  0.00     0.024 A 
ATOM     15  C   UNL A   1      32.250  22.243  25.134  1.00  0.00     0.128 A 
ATOM     16  C   UNL A   1      33.758  24.154  24.944  1.00  0.00     0.026 C 
ATOM     17  C   UNL A   1      31.949  20.890  25.197  1.00  0.00     0.048 A 
ATOM     18  O   UNL A   1      31.174  23.071  25.270  1.00  0.00    -0.475 OA
ATOM     19  C   UNL A   1      31.313  24.432  24.795  1.00  0.00     0.314 C 
BRANCH  10  20
ATOM     20  C   UNL A   1      36.069  22.262  24.728  1.00  0.00     0.034 C 
ATOM     21  C   UNL A   1      36.607  22.655  23.356  1.00  0.00     0.009 C 
ENDBRANCH  10  20
BRANCH  19  22
ATOM     22  C   UNL A   1      30.693  24.547  23.391  1.00  0.00     0.429 C 
ATOM     23  F   UNL A   1      31.636  24.886  22.479  1.00  0.00    -0.167 F 
ATOM     24  F   UNL A   1      30.151  23.382  22.966  1.00  0.00    -0.167 F 
ATOM     25  F   UNL A   1      29.716  25.480  23.333  1.00  0.00    -0.167 F 
ENDBRANCH  19  22
ENDBRANCH   6   9
ENDBRANCH   4   5
ENDBRANCH   3   4
ENDBRANCH   2   3
ENDBRANCH   1   2
BRANCH   1  26
ATOM     26  C   UNL A   1      31.424  32.327  26.539  1.00  0.00     0.021 C 
BRANCH  26  27
ATOM     27  C   UNL A   1      32.686  32.717  27.297  1.00  0.00     0.116 C 
BRANCH  27  28
ATOM     28  N   UNL A   1      32.636  34.082  27.793  1.00  0.00    -0.352 N 
ATOM     29  C   UNL A   1      33.394  34.685  28.768  1.00  0.00     0.251 C 
ATOM     30  H   UNL A   1      31.960  34.659  27.369  1.00  0.00     0.163 HD
ATOM     31  O   UNL A   1      33.086  35.803  29.173  1.00  0.00    -0.269 OA
BRANCH  29  32
ATOM     32  C   UNL A   1      34.556  33.973  29.344  1.00  0.00     0.039 A 
ATOM     33  C   UNL A   1      34.376  32.927  30.252  1.00  0.00     0.014 A 
ATOM     34  C   UNL A   1      35.846  34.363  28.973  1.00  0.00     0.014 A 
ATOM     35  C   UNL A   1      35.477  32.380  30.903  1.00  0.00     0.010 A 
ATOM     36  C   UNL A   1      36.955  33.750  29.566  1.00  0.00     0.010 A 
ATOM     37  C   UNL A   1      36.781  32.783  30.566  1.00  0.00    -0.014 A 
BRANCH  37  38
ATOM     38  C   UNL A   1      37.940  32.154  31.253  1.00  0.00     0.031 A 
ATOM     39  C   UNL A   1      38.346  32.580  32.637  1.00  0.00     0.074 A 
ATOM     40  C   UNL A   1      38.602  31.158  30.632  1.00  0.00     0.049 A 
ATOM     41  N   UNL A   1      39.303  32.105  33.394  1.00  0.00    -0.248 NA
ATOM     42  C   UNL A   1      37.588  33.679  33.254  1.00  0.00     0.031 C 
ATOM     43  C   UNL A   1      38.297  30.669  29.286  1.00  0.00     0.029 A 
ATOM     44  N   UNL A   1      39.643  30.365  31.046  1.00  0.00    -0.354 N 
ATOM     45  C   UNL A   1      39.272  32.852  34.566  1.00  0.00     0.074 A 
ATOM     46  C   UNL A   1      38.224  33.838  34.407  1.00  0.00     0.031 C 
ATOM     47  C   UNL A   1      39.091  29.627  29.008  1.00  0.00     0.029 A 
ATOM     48  C   UNL A   1      40.013  29.415  30.121  1.00  0.00     0.049 A 
ATOM     49  H   UNL A   1      40.083  30.466  31.920  1.00  0.00     0.167 HD
ATOM     50  C   UNL A   1      40.035  32.716  35.676  1.00  0.00     0.034 A 
ATOM     51  C   UNL A   1      40.987  28.484  30.154  1.00  0.00     0.034 A 
ATOM     52  C   UNL A   1      41.064  31.716  35.825  1.00  0.00     0.049 A 
ATOM     53  C   UNL A   1      41.841  28.372  31.390  1.00  0.00     0.074 A 
ATOM     54  C   UNL A   1      41.864  31.474  36.928  1.00  0.00     0.029 A 
ATOM     55  N   UNL A   1      41.435  30.796  34.854  1.00  0.00    -0.354 N 
ATOM     56  N   UNL A   1      41.758  29.049  32.511  1.00  0.00    -0.248 NA
ATOM     57  C   UNL A   1      42.919  27.374  31.371  1.00  0.00     0.031 C 
ATOM     58  C   UNL A   1      42.760  30.454  36.603  1.00  0.00     0.029 A 
ATOM     59  C   UNL A   1      42.474  30.008  35.322  1.00  0.00     0.049 A 
ATOM     60  H   UNL A   1      41.022  30.716  33.964  1.00  0.00     0.167 HD
ATOM     61  C   UNL A   1      42.765  28.553  33.334  1.00  0.00     0.074 A 
ATOM     62  C   UNL A   1      43.419  27.494  32.594  1.00  0.00     0.031 C 
ATOM     63  C   UNL A   1      43.120  28.949  34.582  1.00  0.00     0.034 A 
BRANCH  50  64
ATOM     64  C   UNL A   1      39.797  33.645  36.842  1.00  0.00     0.023 A 
ATOM     65  C   UNL A   1      40.726  34.663  37.132  1.00  0.00     0.031 A 
ATOM     66  C   UNL A   1      38.735  33.438  37.740  1.00  0.00     0.131 A 
ATOM     67  C   UNL A   1      40.594  35.411  38.309  1.00  0.00     0.055 A 
ATOM     68  C   UNL A   1      38.587  34.213  38.891  1.00  0.00     0.041 A 
ATOM     69  F   UNL A   1      37.825  32.479  37.509  1.00  0.00    -0.206 F 
ATOM     70  C   UNL A   1      39.526  35.196  39.187  1.00  0.00     0.022 A 
BRANCH  67  71
ATOM     71  S   UNL A   1      41.836  36.646  38.782  1.00  0.00     0.124 S 
ATOM     72  O   UNL A   1      42.417  36.043  39.979  1.00  0.00    -0.237 OA
ATOM     73  O   UNL A   1      42.706  36.667  37.608  1.00  0.00    -0.237 OA
ATOM     74  O   UNL A   1      41.057  37.857  39.012  1.00  0.00    -0.744 OA
ENDBRANCH  67  71
ENDBRANCH  50  64
BRANCH  51  75
ATOM     75  C   UNL A   1      41.157  27.570  28.985  1.00  0.00     0.023 A 
ATOM     76  C   UNL A   1      42.166  27.798  28.032  1.00  0.00     0.031 A 
ATOM     77  C   UNL A   1      40.242  26.533  28.743  1.00  0.00     0.131 A 
ATOM     78  C   UNL A   1      42.183  27.058  26.843  1.00  0.00     0.055 A 
ATOM     79  C   UNL A   1      40.310  25.745  27.593  1.00  0.00     0.041 A 
ATOM     80  F   UNL A   1      39.254  26.284  29.617  1.00  0.00    -0.206 F 
ATOM     81  C   UNL A   1      41.272  26.020  26.625  1.00  0.00     0.022 A 
BRANCH  78  82
ATOM     82  S   UNL A   1      43.285  27.520  25.478  1.00  0.00     0.124 S 
ATOM     83  O   UNL A   1      43.753  26.220  25.009  1.00  0.00    -0.237 OA
ATOM     84  O   UNL A   1      42.370  28.223  24.581  1.00  0.00    -0.237 OA
ATOM     85  O   UNL A   1      44.291  28.361  26.117  1.00  0.00    -0.744 OA
ENDBRANCH  78  82
ENDBRANCH  51  75
BRANCH  63  86
ATOM     86  C   UNL A   1      44.282  28.255  35.253  1.00  0.00     0.023 A 
ATOM     87  C   UNL A   1      44.051  27.314  36.274  1.00  0.00     0.031 A 
ATOM     88  C   UNL A   1      45.609  28.634  34.986  1.00  0.00     0.131 A 
ATOM     89  C   UNL A   1      45.126  26.816  37.020  1.00  0.00     0.055 A 
ATOM     90  C   UNL A   1      46.683  28.098  35.699  1.00  0.00     0.041 A 
ATOM     91  F   UNL A   1      45.881  29.535  34.029  1.00  0.00    -0.206 F 
ATOM     92  C   UNL A   1      46.441  27.196  36.732  1.00  0.00     0.022 A 
BRANCH  89  93
ATOM     93  S   UNL A   1      44.853  25.729  38.446  1.00  0.00     0.124 S 
ATOM     94  O   UNL A   1      43.762  26.410  39.140  1.00  0.00    -0.237 OA
ATOM     95  O   UNL A   1      44.493  24.467  37.807  1.00  0.00    -0.237 OA
ATOM     96  O   UNL A   1      46.133  25.736  39.145  1.00  0.00    -0.744 OA
ENDBRANCH  89  93
ENDBRANCH  63  86
ENDBRANCH  37  38
ENDBRANCH  29  32
ENDBRANCH  27  28
ENDBRANCH  26  27
ENDBRANCH   1  26
TORSDOF 18
ENDMDL
MODEL 3
REMARK VINA RESULT:     -10.8      1.166      7.758
REMARK SMILES CCc1c(Cl)ccc2c1C=C(C(=O)NCCCCCCNC(=O)c1ccc(-c3c4nc(c(-c5cc(S(=O)(=O)[O-])ccc5F)c5ccc([nH]5)c(-c5cc(S(=O)(=O)[O-])ccc5F)c5nc(c(-c6cc(S(=O)(=O)[O-])ccc6F)c6ccc3[nH]6)C=C5)C=C4)cc1)[C@@H](C(F)(F)F)O2
REMARK SMILES IDX 18 1 17 2 16 3 15 4 14 5 12 6 13 7 11 9 3 10 4 11 9 12 5 13
REMARK SMILES IDX 6 14 8 15 10 16 7 17 92 18 87 19 2 20 1 21 88 22 89 23 90 24
REMARK SMILES IDX 91 25 19 26 20 27 21 28 22 29 23 31 24 32 25 33 86 34 26 35
REMARK SMILES IDX 85 36 27 37 28 38 29 39 79 40 30 41 84 42 78 43 80 44 31 45
REMARK SMILES IDX 83 46 77 47 76 48 32 50 64 51 44 52 63 53 45 54 48 55 62 56
REMARK SMILES IDX 81 57 46 58 47 59 61 61 82 62 49 63 33 64 34 65 42 66 35 67
REMARK SMILES IDX 41 68 43 69 40 70 36 71 37 72 38 73 39 74 65 75 66 76 74 77
REMARK SMILES IDX 67 78 73 79 75 80 72 81 68 82 69 83 70 84 71 85 50 86 51 87
REMARK SMILES IDX 59 88 52 89 58 90 60 91 57 92 53 93 54 94 55 95 56 96
REMARK H PARENT 14 8 21 30 80 49 48 60
REMARK Flexibility Score: inf
ROOT
ATOM      1  C   UNL A   1      40.295  22.181  27.406  1.00  0.00     0.002 C 
ENDROOT
BRANCH   1   2
ATOM      2  C   UNL A   1      40.172  23.444  26.543  1.00  0.00     0.002 C 
BRANCH   2   3
ATOM      3  C   UNL A   1      38.794  24.115  26.542  1.00  0.00     0.021 C 
BRANCH   3   4
ATOM      4  C   UNL A   1      37.768  23.442  25.635  1.00  0.00     0.116 C 
BRANCH   4   5
ATOM      5  N   UNL A   1      36.550  23.105  26.353  1.00  0.00    -0.352 N 
ATOM      6  C   UNL A   1      35.224  23.329  26.220  1.00  0.00     0.251 C 
ATOM      7  O   UNL A   1      34.518  22.803  27.088  1.00  0.00    -0.270 OA
ATOM      8  H   UNL A   1      36.745  22.565  27.154  1.00  0.00     0.163 HD
BRANCH   6   9
ATOM      9  C   UNL A   1      34.578  24.138  25.138  1.00  0.00     0.067 C 
ATOM     10  C   UNL A   1      32.762  27.439  24.926  1.00  0.00    -0.019 A 
ATOM     11  C   UNL A   1      32.098  28.147  23.895  1.00  0.00     0.045 A 
ATOM     12  C   UNL A   1      33.431  26.229  24.559  1.00  0.00     0.022 A 
ATOM     13  Cl  UNL A   1      31.098  29.535  24.148  1.00  0.00    -0.084 Cl
ATOM     14  C   UNL A   1      32.172  27.732  22.558  1.00  0.00     0.024 A 
ATOM     15  C   UNL A   1      33.470  25.830  23.212  1.00  0.00     0.128 A 
ATOM     16  C   UNL A   1      34.118  25.346  25.516  1.00  0.00     0.026 C 
ATOM     17  C   UNL A   1      32.870  26.586  22.215  1.00  0.00     0.048 A 
ATOM     18  O   UNL A   1      34.118  24.715  22.766  1.00  0.00    -0.475 OA
ATOM     19  C   UNL A   1      34.386  23.668  23.730  1.00  0.00     0.314 C 
BRANCH  10  20
ATOM     20  C   UNL A   1      32.735  27.853  26.393  1.00  0.00     0.034 C 
ATOM     21  C   UNL A   1      31.491  27.624  27.246  1.00  0.00     0.009 C 
ENDBRANCH  10  20
BRANCH  19  22
ATOM     22  C   UNL A   1      33.307  22.576  23.610  1.00  0.00     0.429 C 
ATOM     23  F   UNL A   1      32.873  22.472  22.330  1.00  0.00    -0.167 F 
ATOM     24  F   UNL A   1      33.768  21.352  23.958  1.00  0.00    -0.167 F 
ATOM     25  F   UNL A   1      32.229  22.827  24.387  1.00  0.00    -0.167 F 
ENDBRANCH  19  22
ENDBRANCH   6   9
ENDBRANCH   4   5
ENDBRANCH   3   4
ENDBRANCH   2   3
ENDBRANCH   1   2
BRANCH   1  26
ATOM     26  C   UNL A   1      40.415  20.861  26.641  1.00  0.00     0.021 C 
BRANCH  26  27
ATOM     27  C   UNL A   1      41.495  19.914  27.150  1.00  0.00     0.116 C 
BRANCH  27  28
ATOM     28  N   UNL A   1      42.343  19.413  26.081  1.00  0.00    -0.352 N 
ATOM     29  C   UNL A   1      43.290  20.075  25.337  1.00  0.00     0.251 C 
ATOM     30  H   UNL A   1      42.221  18.462  25.858  1.00  0.00     0.163 HD
ATOM     31  O   UNL A   1      43.783  19.526  24.355  1.00  0.00    -0.269 OA
BRANCH  29  32
ATOM     32  C   UNL A   1      43.687  21.453  25.704  1.00  0.00     0.039 A 
ATOM     33  C   UNL A   1      44.381  21.705  26.889  1.00  0.00     0.014 A 
ATOM     34  C   UNL A   1      43.356  22.508  24.850  1.00  0.00     0.014 A 
ATOM     35  C   UNL A   1      44.602  23.018  27.294  1.00  0.00     0.010 A 
ATOM     36  C   UNL A   1      43.657  23.823  25.219  1.00  0.00     0.010 A 
ATOM     37  C   UNL A   1      44.245  24.093  26.463  1.00  0.00    -0.014 A 
BRANCH  37  38
ATOM     38  C   UNL A   1      44.527  25.484  26.906  1.00  0.00     0.031 A 
ATOM     39  C   UNL A   1      45.893  26.090  26.739  1.00  0.00     0.074 A 
ATOM     40  C   UNL A   1      43.522  26.217  27.425  1.00  0.00     0.049 A 
ATOM     41  N   UNL A   1      46.296  27.301  27.032  1.00  0.00    -0.248 NA
ATOM     42  C   UNL A   1      46.947  25.231  26.175  1.00  0.00     0.031 C 
ATOM     43  C   UNL A   1      42.159  25.728  27.638  1.00  0.00     0.029 A 
ATOM     44  N   UNL A   1      43.476  27.523  27.844  1.00  0.00    -0.354 N 
ATOM     45  C   UNL A   1      47.645  27.348  26.701  1.00  0.00     0.074 A 
ATOM     46  C   UNL A   1      48.005  26.031  26.220  1.00  0.00     0.031 C 
ATOM     47  C   UNL A   1      41.399  26.732  28.094  1.00  0.00     0.029 A 
ATOM     48  C   UNL A   1      42.231  27.919  28.276  1.00  0.00     0.049 A 
ATOM     49  H   UNL A   1      44.258  28.120  27.838  1.00  0.00     0.167 HD
ATOM     50  C   UNL A   1      48.498  28.396  26.778  1.00  0.00     0.034 A 
ATOM     51  C   UNL A   1      41.802  29.097  28.772  1.00  0.00     0.034 A 
ATOM     52  C   UNL A   1      48.119  29.707  27.244  1.00  0.00     0.049 A 
ATOM     53  C   UNL A   1      42.778  30.239  28.873  1.00  0.00     0.074 A 
ATOM     54  C   UNL A   1      48.904  30.845  27.321  1.00  0.00     0.029 A 
ATOM     55  N   UNL A   1      46.859  30.060  27.708  1.00  0.00    -0.354 N 
ATOM     56  N   UNL A   1      44.037  30.282  28.502  1.00  0.00    -0.248 NA
ATOM     57  C   UNL A   1      42.284  31.493  29.458  1.00  0.00     0.031 C 
ATOM     58  C   UNL A   1      48.140  31.865  27.889  1.00  0.00     0.029 A 
ATOM     59  C   UNL A   1      46.856  31.389  28.101  1.00  0.00     0.049 A 
ATOM     60  H   UNL A   1      46.084  29.456  27.751  1.00  0.00     0.167 HD
ATOM     61  C   UNL A   1      44.482  31.566  28.799  1.00  0.00     0.074 A 
ATOM     62  C   UNL A   1      43.346  32.280  29.346  1.00  0.00     0.031 C 
ATOM     63  C   UNL A   1      45.720  32.099  28.643  1.00  0.00     0.034 A 
BRANCH  50  64
ATOM     64  C   UNL A   1      49.929  28.204  26.338  1.00  0.00     0.023 A 
ATOM     65  C   UNL A   1      50.251  28.200  24.967  1.00  0.00     0.031 A 
ATOM     66  C   UNL A   1      50.944  27.889  27.260  1.00  0.00     0.131 A 
ATOM     67  C   UNL A   1      51.544  27.851  24.556  1.00  0.00     0.055 A 
ATOM     68  C   UNL A   1      52.241  27.581  26.846  1.00  0.00     0.041 A 
ATOM     69  F   UNL A   1      50.687  27.877  28.577  1.00  0.00    -0.206 F 
ATOM     70  C   UNL A   1      52.542  27.548  25.488  1.00  0.00     0.022 A 
BRANCH  67  71
ATOM     71  S   UNL A   1      51.966  27.714  22.796  1.00  0.00     0.124 S 
ATOM     72  O   UNL A   1      50.645  27.674  22.175  1.00  0.00    -0.237 OA
ATOM     73  O   UNL A   1      52.726  28.941  22.569  1.00  0.00    -0.237 OA
ATOM     74  O   UNL A   1      52.729  26.474  22.714  1.00  0.00    -0.744 OA
ENDBRANCH  67  71
ENDBRANCH  50  64
BRANCH  51  75
ATOM     75  C   UNL A   1      40.368  29.241  29.163  1.00  0.00     0.023 A 
ATOM     76  C   UNL A   1      39.979  29.188  30.514  1.00  0.00     0.031 A 
ATOM     77  C   UNL A   1      39.360  29.311  28.188  1.00  0.00     0.131 A 
ATOM     78  C   UNL A   1      38.620  29.120  30.846  1.00  0.00     0.055 A 
ATOM     79  C   UNL A   1      38.006  29.322  28.528  1.00  0.00     0.041 A 
ATOM     80  F   UNL A   1      39.680  29.350  26.885  1.00  0.00    -0.206 F 
ATOM     81  C   UNL A   1      37.631  29.205  29.863  1.00  0.00     0.022 A 
BRANCH  78  82
ATOM     82  S   UNL A   1      38.098  28.763  32.547  1.00  0.00     0.124 S 
ATOM     83  O   UNL A   1      38.286  27.318  32.627  1.00  0.00    -0.237 OA
ATOM     84  O   UNL A   1      39.040  29.566  33.324  1.00  0.00    -0.237 OA
ATOM     85  O   UNL A   1      36.715  29.224  32.587  1.00  0.00    -0.744 OA
ENDBRANCH  78  82
ENDBRANCH  51  75
BRANCH  63  86
ATOM     86  C   UNL A   1      45.948  33.527  29.075  1.00  0.00     0.023 A 
ATOM     87  C   UNL A   1      45.868  34.573  28.135  1.00  0.00     0.031 A 
ATOM     88  C   UNL A   1      46.388  33.834  30.374  1.00  0.00     0.131 A 
ATOM     89  C   UNL A   1      46.263  35.866  28.496  1.00  0.00     0.055 A 
ATOM     90  C   UNL A   1      46.734  35.135  30.744  1.00  0.00     0.041 A 
ATOM     91  F   UNL A   1      46.490  32.871  31.304  1.00  0.00    -0.206 F 
ATOM     92  C   UNL A   1      46.687  36.155  29.797  1.00  0.00     0.022 A 
BRANCH  89  93
ATOM     93  S   UNL A   1      46.328  37.202  27.270  1.00  0.00     0.124 S 
ATOM     94  O   UNL A   1      46.754  36.488  26.069  1.00  0.00    -0.237 OA
ATOM     95  O   UNL A   1      44.947  37.675  27.257  1.00  0.00    -0.237 OA
ATOM     96  O   UNL A   1      47.306  38.136  27.818  1.00  0.00    -0.744 OA
ENDBRANCH  89  93
ENDBRANCH  63  86
ENDBRANCH  37  38
ENDBRANCH  29  32
ENDBRANCH  27  28
ENDBRANCH  26  27
ENDBRANCH   1  26
TORSDOF 18
ENDMDL
