MODEL 1
REMARK VINA RESULT:     -11.3      0.000      0.000
REMARK SMILES CC[C@@](C)(NC(=O)Nc1c(C)cccc1Cl)C(=O)NCCCCCCNC(=O)c1ccc(-c2c3nc(c(-c4cc(S(=O)(=O)[O-])ccc4F)c4ccc([nH]4)c(-c4cc(S(=O)(=O)[O-])ccc4F)c4nc(c(-c5cc(S(=O)(=O)[O-])ccc5F)c5ccc2[nH]5)C=C4)C=C3)cc1
REMARK SMILES IDX 23 1 22 2 21 3 20 4 19 5 17 6 18 7 3 9 4 10 2 11 1 12 5 13
REMARK SMILES IDX 6 14 7 16 8 17 9 19 10 20 15 21 11 22 12 23 14 24 16 25
REMARK SMILES IDX 13 26 24 27 25 28 26 29 27 30 28 32 29 33 30 34 91 35 31 36
REMARK SMILES IDX 90 37 32 38 33 39 34 40 84 41 35 42 89 43 83 44 85 45 36 46
REMARK SMILES IDX 88 47 82 48 81 49 37 51 69 52 49 53 68 54 50 55 53 56 67 57
REMARK SMILES IDX 86 58 51 59 52 60 66 62 87 63 54 64 38 65 39 66 47 67 40 68
REMARK SMILES IDX 46 69 48 70 45 71 41 72 42 73 43 74 44 75 70 76 71 77 79 78
REMARK SMILES IDX 72 79 78 80 80 81 77 82 73 83 74 84 75 85 76 86 55 87 56 88
REMARK SMILES IDX 64 89 57 90 63 91 65 92 62 93 58 94 59 95 60 96 61 97
REMARK H PARENT 19 8 5 15 8 18 26 31 85 50 53 61
REMARK Flexibility Score: inf
ROOT
ATOM      1  C   UNL A   1      32.151  30.329  26.969  1.00  0.00     0.002 C 
ENDROOT
BRANCH   1   2
ATOM      2  C   UNL A   1      33.662  30.142  26.834  1.00  0.00     0.002 C 
BRANCH   2   3
ATOM      3  C   UNL A   1      34.238  28.724  26.695  1.00  0.00     0.021 C 
BRANCH   3   4
ATOM      4  C   UNL A   1      33.662  27.721  25.677  1.00  0.00     0.116 C 
BRANCH   4   5
ATOM      5  N   UNL A   1      33.153  26.461  26.197  1.00  0.00    -0.354 N 
ATOM      6  C   UNL A   1      32.484  25.373  25.631  1.00  0.00     0.245 C 
ATOM      7  O   UNL A   1      32.773  24.222  25.966  1.00  0.00    -0.272 OA
ATOM      8  H   UNL A   1      33.315  26.352  27.162  1.00  0.00     0.163 HD
BRANCH   6   9
ATOM      9  C   UNL A   1      31.488  25.597  24.497  1.00  0.00     0.117 C 
ATOM     10  C   UNL A   1      30.812  24.212  24.356  1.00  0.00     0.045 C 
BRANCH   9  11
ATOM     11  C   UNL A   1      30.358  26.665  24.568  1.00  0.00     0.035 C 
ATOM     12  C   UNL A   1      29.913  27.364  23.301  1.00  0.00     0.007 C 
ENDBRANCH   9  11
BRANCH   9  13
ATOM     13  N   UNL A   1      32.348  25.961  23.389  1.00  0.00    -0.324 N 
ATOM     14  C   UNL A   1      33.276  25.266  22.732  1.00  0.00     0.320 C 
ATOM     15  H   UNL A   1      32.225  26.882  23.065  1.00  0.00     0.166 HD
ATOM     16  O   UNL A   1      33.957  25.958  21.956  1.00  0.00    -0.248 OA
ATOM     17  N   UNL A   1      33.656  23.986  22.808  1.00  0.00    -0.306 N 
ATOM     18  H   UNL A   1      34.376  23.935  22.140  1.00  0.00     0.171 HD
BRANCH  17  19
ATOM     19  C   UNL A   1      33.604  22.638  23.320  1.00  0.00     0.064 A 
ATOM     20  C   UNL A   1      32.714  21.520  23.277  1.00  0.00    -0.026 A 
ATOM     21  C   UNL A   1      34.824  22.360  24.023  1.00  0.00     0.064 A 
ATOM     22  C   UNL A   1      31.886  20.963  22.123  1.00  0.00     0.046 C 
ATOM     23  C   UNL A   1      32.891  20.446  24.201  1.00  0.00     0.005 A 
ATOM     24  C   UNL A   1      35.047  21.216  24.796  1.00  0.00     0.023 A 
ATOM     25  Cl  UNL A   1      36.181  23.465  23.955  1.00  0.00    -0.082 Cl
ATOM     26  C   UNL A   1      34.044  20.287  24.943  1.00  0.00     0.002 A 
ENDBRANCH  17  19
ENDBRANCH   9  13
ENDBRANCH   6   9
ENDBRANCH   4   5
ENDBRANCH   3   4
ENDBRANCH   2   3
ENDBRANCH   1   2
BRANCH   1  27
ATOM     27  C   UNL A   1      31.614  31.748  26.914  1.00  0.00     0.021 C 
BRANCH  27  28
ATOM     28  C   UNL A   1      32.655  32.826  26.689  1.00  0.00     0.116 C 
BRANCH  28  29
ATOM     29  N   UNL A   1      32.473  33.989  27.541  1.00  0.00    -0.352 N 
ATOM     30  C   UNL A   1      33.188  34.359  28.662  1.00  0.00     0.251 C 
ATOM     31  H   UNL A   1      31.741  34.595  27.284  1.00  0.00     0.163 HD
ATOM     32  O   UNL A   1      32.815  35.302  29.341  1.00  0.00    -0.269 OA
BRANCH  30  33
ATOM     33  C   UNL A   1      34.382  33.569  29.058  1.00  0.00     0.039 A 
ATOM     34  C   UNL A   1      35.650  34.106  28.823  1.00  0.00     0.014 A 
ATOM     35  C   UNL A   1      34.254  32.331  29.692  1.00  0.00     0.014 A 
ATOM     36  C   UNL A   1      36.780  33.434  29.294  1.00  0.00     0.010 A 
ATOM     37  C   UNL A   1      35.372  31.714  30.247  1.00  0.00     0.010 A 
ATOM     38  C   UNL A   1      36.650  32.256  30.050  1.00  0.00    -0.014 A 
BRANCH  38  39
ATOM     39  C   UNL A   1      37.844  31.601  30.647  1.00  0.00     0.031 A 
ATOM     40  C   UNL A   1      38.273  31.926  32.052  1.00  0.00     0.074 A 
ATOM     41  C   UNL A   1      38.561  30.733  29.904  1.00  0.00     0.049 A 
ATOM     42  N   UNL A   1      39.263  31.428  32.750  1.00  0.00    -0.248 NA
ATOM     43  C   UNL A   1      37.509  32.967  32.754  1.00  0.00     0.031 C 
ATOM     44  C   UNL A   1      38.278  30.381  28.510  1.00  0.00     0.029 A 
ATOM     45  N   UNL A   1      39.661  29.975  30.217  1.00  0.00    -0.354 N 
ATOM     46  C   UNL A   1      39.243  32.098  33.969  1.00  0.00     0.074 A 
ATOM     47  C   UNL A   1      38.190  33.087  33.883  1.00  0.00     0.031 C 
ATOM     48  C   UNL A   1      39.143  29.437  28.110  1.00  0.00     0.029 A 
ATOM     49  C   UNL A   1      40.071  29.148  29.197  1.00  0.00     0.049 A 
ATOM     50  H   UNL A   1      40.115  30.020  31.089  1.00  0.00     0.167 HD
ATOM     51  C   UNL A   1      40.015  31.890  35.066  1.00  0.00     0.034 A 
ATOM     52  C   UNL A   1      41.077  28.253  29.145  1.00  0.00     0.034 A 
ATOM     53  C   UNL A   1      41.061  30.897  35.130  1.00  0.00     0.049 A 
ATOM     54  C   UNL A   1      41.937  28.057  30.367  1.00  0.00     0.074 A 
ATOM     55  C   UNL A   1      41.857  30.552  36.210  1.00  0.00     0.029 A 
ATOM     56  N   UNL A   1      41.473  30.101  34.068  1.00  0.00    -0.354 N 
ATOM     57  N   UNL A   1      41.853  28.640  31.541  1.00  0.00    -0.248 NA
ATOM     58  C   UNL A   1      43.018  27.072  30.258  1.00  0.00     0.031 C 
ATOM     59  C   UNL A   1      42.803  29.617  35.776  1.00  0.00     0.029 A 
ATOM     60  C   UNL A   1      42.542  29.304  34.452  1.00  0.00     0.049 A 
ATOM     61  H   UNL A   1      41.065  30.102  33.171  1.00  0.00     0.167 HD
ATOM     62  C   UNL A   1      42.858  28.070  32.319  1.00  0.00     0.074 A 
ATOM     63  C   UNL A   1      43.509  27.079  31.487  1.00  0.00     0.031 C 
ATOM     64  C   UNL A   1      43.210  28.341  33.603  1.00  0.00     0.034 A 
BRANCH  51  65
ATOM     65  C   UNL A   1      39.775  32.782  36.264  1.00  0.00     0.023 A 
ATOM     66  C   UNL A   1      38.995  32.366  37.359  1.00  0.00     0.031 A 
ATOM     67  C   UNL A   1      40.302  34.086  36.297  1.00  0.00     0.131 A 
ATOM     68  C   UNL A   1      38.691  33.268  38.390  1.00  0.00     0.055 A 
ATOM     69  C   UNL A   1      40.073  34.948  37.372  1.00  0.00     0.041 A 
ATOM     70  F   UNL A   1      41.035  34.554  35.275  1.00  0.00    -0.206 F 
ATOM     71  C   UNL A   1      39.248  34.548  38.419  1.00  0.00     0.022 A 
BRANCH  68  72
ATOM     72  S   UNL A   1      37.421  32.803  39.600  1.00  0.00     0.124 S 
ATOM     73  O   UNL A   1      36.212  32.827  38.783  1.00  0.00    -0.237 OA
ATOM     74  O   UNL A   1      37.872  31.487  40.040  1.00  0.00    -0.237 OA
ATOM     75  O   UNL A   1      37.505  33.861  40.606  1.00  0.00    -0.744 OA
ENDBRANCH  68  72
ENDBRANCH  51  65
BRANCH  52  76
ATOM     76  C   UNL A   1      41.326  27.465  27.903  1.00  0.00     0.023 A 
ATOM     77  C   UNL A   1      41.037  26.091  27.849  1.00  0.00     0.031 A 
ATOM     78  C   UNL A   1      41.890  28.064  26.763  1.00  0.00     0.131 A 
ATOM     79  C   UNL A   1      41.354  25.353  26.698  1.00  0.00     0.055 A 
ATOM     80  C   UNL A   1      42.151  27.337  25.599  1.00  0.00     0.041 A 
ATOM     81  F   UNL A   1      42.184  29.374  26.758  1.00  0.00    -0.206 F 
ATOM     82  C   UNL A   1      41.894  25.969  25.567  1.00  0.00     0.022 A 
BRANCH  79  83
ATOM     83  S   UNL A   1      41.125  23.554  26.728  1.00  0.00     0.124 S 
ATOM     84  O   UNL A   1      39.700  23.432  26.445  1.00  0.00    -0.237 OA
ATOM     85  O   UNL A   1      42.030  23.115  25.671  1.00  0.00    -0.237 OA
ATOM     86  O   UNL A   1      41.527  23.183  28.083  1.00  0.00    -0.744 OA
ENDBRANCH  79  83
ENDBRANCH  52  76
BRANCH  64  87
ATOM     87  C   UNL A   1      44.343  27.526  34.183  1.00  0.00     0.023 A 
ATOM     88  C   UNL A   1      44.119  26.272  34.780  1.00  0.00     0.031 A 
ATOM     89  C   UNL A   1      45.656  28.029  34.185  1.00  0.00     0.131 A 
ATOM     90  C   UNL A   1      45.170  25.607  35.430  1.00  0.00     0.055 A 
ATOM     91  C   UNL A   1      46.715  27.323  34.761  1.00  0.00     0.041 A 
ATOM     92  F   UNL A   1      45.933  29.221  33.634  1.00  0.00    -0.206 F 
ATOM     93  C   UNL A   1      46.470  26.115  35.407  1.00  0.00     0.022 A 
BRANCH  90  94
ATOM     94  S   UNL A   1      44.782  24.144  36.430  1.00  0.00     0.124 S 
ATOM     95  O   UNL A   1      43.673  23.555  35.688  1.00  0.00    -0.237 OA
ATOM     96  O   UNL A   1      46.038  23.401  36.397  1.00  0.00    -0.237 OA
ATOM     97  O   UNL A   1      44.428  24.705  37.734  1.00  0.00    -0.744 OA
ENDBRANCH  90  94
ENDBRANCH  64  87
ENDBRANCH  38  39
ENDBRANCH  30  33
ENDBRANCH  28  29
ENDBRANCH  27  28
ENDBRANCH   1  27
TORSDOF 19
ENDMDL
MODEL 2
REMARK VINA RESULT:     -11.3      1.593      7.671
REMARK SMILES CC[C@@](C)(NC(=O)Nc1c(C)cccc1Cl)C(=O)NCCCCCCNC(=O)c1ccc(-c2c3nc(c(-c4cc(S(=O)(=O)[O-])ccc4F)c4ccc([nH]4)c(-c4cc(S(=O)(=O)[O-])ccc4F)c4nc(c(-c5cc(S(=O)(=O)[O-])ccc5F)c5ccc2[nH]5)C=C4)C=C3)cc1
REMARK SMILES IDX 23 1 22 2 21 3 20 4 19 5 17 6 18 7 3 9 4 10 2 11 1 12 5 13
REMARK SMILES IDX 6 14 7 16 8 17 9 19 10 20 15 21 11 22 12 23 14 24 16 25
REMARK SMILES IDX 13 26 24 27 25 28 26 29 27 30 28 32 29 33 30 34 91 35 31 36
REMARK SMILES IDX 90 37 32 38 33 39 34 40 84 41 35 42 89 43 83 44 85 45 36 46
REMARK SMILES IDX 88 47 82 48 81 49 37 51 69 52 49 53 68 54 50 55 53 56 67 57
REMARK SMILES IDX 86 58 51 59 52 60 66 62 87 63 54 64 38 65 39 66 47 67 40 68
REMARK SMILES IDX 46 69 48 70 45 71 41 72 42 73 43 74 44 75 70 76 71 77 79 78
REMARK SMILES IDX 72 79 78 80 80 81 77 82 73 83 74 84 75 85 76 86 55 87 56 88
REMARK SMILES IDX 64 89 57 90 63 91 65 92 62 93 58 94 59 95 60 96 61 97
REMARK H PARENT 19 8 5 15 8 18 26 31 85 50 53 61
REMARK Flexibility Score: inf
ROOT
ATOM      1  C   UNL A   1      33.253  28.802  25.128  1.00  0.00     0.002 C 
ENDROOT
BRANCH   1   2
ATOM      2  C   UNL A   1      33.533  28.518  23.653  1.00  0.00     0.002 C 
BRANCH   2   3
ATOM      3  C   UNL A   1      32.361  28.455  22.661  1.00  0.00     0.021 C 
BRANCH   3   4
ATOM      4  C   UNL A   1      31.624  27.133  22.374  1.00  0.00     0.116 C 
BRANCH   4   5
ATOM      5  N   UNL A   1      30.479  26.813  23.213  1.00  0.00    -0.354 N 
ATOM      6  C   UNL A   1      30.312  26.100  24.402  1.00  0.00     0.245 C 
ATOM      7  O   UNL A   1      29.544  26.514  25.274  1.00  0.00    -0.272 OA
ATOM      8  H   UNL A   1      29.634  27.179  22.864  1.00  0.00     0.163 HD
BRANCH   6   9
ATOM      9  C   UNL A   1      31.181  24.877  24.686  1.00  0.00     0.117 C 
ATOM     10  C   UNL A   1      30.955  23.998  23.432  1.00  0.00     0.045 C 
BRANCH   9  11
ATOM     11  C   UNL A   1      32.716  24.973  24.920  1.00  0.00     0.035 C 
ATOM     12  C   UNL A   1      33.664  24.626  23.792  1.00  0.00     0.007 C 
ENDBRANCH   9  11
BRANCH   9  13
ATOM     13  N   UNL A   1      30.596  24.350  25.902  1.00  0.00    -0.324 N 
ATOM     14  C   UNL A   1      30.773  23.187  26.530  1.00  0.00     0.320 C 
ATOM     15  H   UNL A   1      29.958  24.956  26.342  1.00  0.00     0.166 HD
ATOM     16  O   UNL A   1      29.960  22.992  27.450  1.00  0.00    -0.248 OA
ATOM     17  N   UNL A   1      31.607  22.167  26.304  1.00  0.00    -0.306 N 
ATOM     18  H   UNL A   1      31.368  21.532  27.016  1.00  0.00     0.171 HD
BRANCH  17  19
ATOM     19  C   UNL A   1      32.661  21.473  25.604  1.00  0.00     0.064 A 
ATOM     20  C   UNL A   1      32.799  20.644  24.448  1.00  0.00    -0.026 A 
ATOM     21  C   UNL A   1      33.912  21.754  26.248  1.00  0.00     0.064 A 
ATOM     22  C   UNL A   1      32.151  20.755  23.071  1.00  0.00     0.046 C 
ATOM     23  C   UNL A   1      33.993  19.880  24.270  1.00  0.00     0.005 A 
ATOM     24  C   UNL A   1      35.117  21.112  25.948  1.00  0.00     0.023 A 
ATOM     25  Cl  UNL A   1      34.033  22.977  27.497  1.00  0.00    -0.082 Cl
ATOM     26  C   UNL A   1      35.141  20.116  25.000  1.00  0.00     0.002 A 
ENDBRANCH  17  19
ENDBRANCH   9  13
ENDBRANCH   6   9
ENDBRANCH   4   5
ENDBRANCH   3   4
ENDBRANCH   2   3
ENDBRANCH   1   2
BRANCH   1  27
ATOM     27  C   UNL A   1      31.990  29.574  25.464  1.00  0.00     0.021 C 
BRANCH  27  28
ATOM     28  C   UNL A   1      31.950  30.177  26.855  1.00  0.00     0.116 C 
BRANCH  28  29
ATOM     29  N   UNL A   1      31.954  31.630  26.852  1.00  0.00    -0.352 N 
ATOM     30  C   UNL A   1      32.901  32.492  27.366  1.00  0.00     0.251 C 
ATOM     31  H   UNL A   1      31.176  32.057  26.425  1.00  0.00     0.163 HD
ATOM     32  O   UNL A   1      32.683  33.692  27.396  1.00  0.00    -0.269 OA
BRANCH  30  33
ATOM     33  C   UNL A   1      34.161  31.940  27.925  1.00  0.00     0.039 A 
ATOM     34  C   UNL A   1      35.152  32.828  28.350  1.00  0.00     0.014 A 
ATOM     35  C   UNL A   1      34.348  30.563  28.069  1.00  0.00     0.014 A 
ATOM     36  C   UNL A   1      36.293  32.333  28.987  1.00  0.00     0.010 A 
ATOM     37  C   UNL A   1      35.436  30.079  28.791  1.00  0.00     0.010 A 
ATOM     38  C   UNL A   1      36.425  30.959  29.254  1.00  0.00    -0.014 A 
BRANCH  38  39
ATOM     39  C   UNL A   1      37.584  30.445  30.030  1.00  0.00     0.031 A 
ATOM     40  C   UNL A   1      38.586  29.523  29.389  1.00  0.00     0.074 A 
ATOM     41  C   UNL A   1      37.715  30.789  31.328  1.00  0.00     0.049 A 
ATOM     42  N   UNL A   1      39.677  29.006  29.897  1.00  0.00    -0.248 NA
ATOM     43  C   UNL A   1      38.311  29.104  28.008  1.00  0.00     0.031 C 
ATOM     44  C   UNL A   1      36.777  31.629  32.076  1.00  0.00     0.029 A 
ATOM     45  N   UNL A   1      38.693  30.491  32.244  1.00  0.00    -0.354 N 
ATOM     46  C   UNL A   1      40.214  28.198  28.900  1.00  0.00     0.074 A 
ATOM     47  C   UNL A   1      39.288  28.237  27.788  1.00  0.00     0.031 C 
ATOM     48  C   UNL A   1      37.254  31.826  33.315  1.00  0.00     0.029 A 
ATOM     49  C   UNL A   1      38.504  31.092  33.468  1.00  0.00     0.049 A 
ATOM     50  H   UNL A   1      39.456  29.903  32.045  1.00  0.00     0.167 HD
ATOM     51  C   UNL A   1      41.382  27.507  28.903  1.00  0.00     0.034 A 
ATOM     52  C   UNL A   1      39.256  31.059  34.585  1.00  0.00     0.034 A 
ATOM     53  C   UNL A   1      42.292  27.481  30.024  1.00  0.00     0.049 A 
ATOM     54  C   UNL A   1      40.538  30.265  34.573  1.00  0.00     0.074 A 
ATOM     55  C   UNL A   1      43.534  26.875  30.112  1.00  0.00     0.029 A 
ATOM     56  N   UNL A   1      42.054  28.071  31.259  1.00  0.00    -0.354 N 
ATOM     57  N   UNL A   1      41.074  29.572  33.594  1.00  0.00    -0.248 NA
ATOM     58  C   UNL A   1      41.320  30.262  35.814  1.00  0.00     0.031 C 
ATOM     59  C   UNL A   1      44.002  27.022  31.423  1.00  0.00     0.029 A 
ATOM     60  C   UNL A   1      43.101  27.801  32.130  1.00  0.00     0.049 A 
ATOM     61  H   UNL A   1      41.257  28.604  31.486  1.00  0.00     0.167 HD
ATOM     62  C   UNL A   1      42.272  29.071  34.097  1.00  0.00     0.074 A 
ATOM     63  C   UNL A   1      42.388  29.569  35.453  1.00  0.00     0.031 C 
ATOM     64  C   UNL A   1      43.192  28.274  33.494  1.00  0.00     0.034 A 
BRANCH  51  65
ATOM     65  C   UNL A   1      41.715  26.698  27.669  1.00  0.00     0.023 A 
ATOM     66  C   UNL A   1      41.591  25.296  27.641  1.00  0.00     0.031 A 
ATOM     67  C   UNL A   1      42.201  27.333  26.512  1.00  0.00     0.131 A 
ATOM     68  C   UNL A   1      42.031  24.573  26.521  1.00  0.00     0.055 A 
ATOM     69  C   UNL A   1      42.549  26.614  25.366  1.00  0.00     0.041 A 
ATOM     70  F   UNL A   1      42.366  28.664  26.480  1.00  0.00    -0.206 F 
ATOM     71  C   UNL A   1      42.483  25.224  25.372  1.00  0.00     0.022 A 
BRANCH  68  72
ATOM     72  S   UNL A   1      42.164  22.768  26.655  1.00  0.00     0.124 S 
ATOM     73  O   UNL A   1      40.869  22.418  27.230  1.00  0.00    -0.237 OA
ATOM     74  O   UNL A   1      42.381  22.365  25.270  1.00  0.00    -0.237 OA
ATOM     75  O   UNL A   1      43.307  22.576  27.548  1.00  0.00    -0.744 OA
ENDBRANCH  68  72
ENDBRANCH  51  65
BRANCH  52  76
ATOM     76  C   UNL A   1      38.833  31.804  35.806  1.00  0.00     0.023 A 
ATOM     77  C   UNL A   1      38.147  31.156  36.847  1.00  0.00     0.031 A 
ATOM     78  C   UNL A   1      39.077  33.182  35.937  1.00  0.00     0.131 A 
ATOM     79  C   UNL A   1      37.688  31.893  37.949  1.00  0.00     0.055 A 
ATOM     80  C   UNL A   1      38.668  33.901  37.063  1.00  0.00     0.041 A 
ATOM     81  F   UNL A   1      39.730  33.852  34.974  1.00  0.00    -0.206 F 
ATOM     82  C   UNL A   1      37.958  33.257  38.072  1.00  0.00     0.022 A 
BRANCH  79  83
ATOM     83  S   UNL A   1      36.660  31.057  39.187  1.00  0.00     0.124 S 
ATOM     84  O   UNL A   1      35.500  31.936  39.253  1.00  0.00    -0.237 OA
ATOM     85  O   UNL A   1      36.442  29.753  38.570  1.00  0.00    -0.237 OA
ATOM     86  O   UNL A   1      37.505  31.045  40.379  1.00  0.00    -0.744 OA
ENDBRANCH  79  83
ENDBRANCH  52  76
BRANCH  64  87
ATOM     87  C   UNL A   1      44.416  27.916  34.306  1.00  0.00     0.023 A 
ATOM     88  C   UNL A   1      44.461  26.754  35.098  1.00  0.00     0.031 A 
ATOM     89  C   UNL A   1      45.533  28.770  34.329  1.00  0.00     0.131 A 
ATOM     90  C   UNL A   1      45.556  26.525  35.945  1.00  0.00     0.055 A 
ATOM     91  C   UNL A   1      46.656  28.494  35.112  1.00  0.00     0.041 A 
ATOM     92  F   UNL A   1      45.549  29.896  33.597  1.00  0.00    -0.206 F 
ATOM     93  C   UNL A   1      46.663  27.377  35.942  1.00  0.00     0.022 A 
BRANCH  90  94
ATOM     94  S   UNL A   1      45.448  25.179  37.156  1.00  0.00     0.124 S 
ATOM     95  O   UNL A   1      44.253  24.469  36.714  1.00  0.00    -0.237 OA
ATOM     96  O   UNL A   1      46.715  24.480  36.960  1.00  0.00    -0.237 OA
ATOM     97  O   UNL A   1      45.318  25.878  38.434  1.00  0.00    -0.744 OA
ENDBRANCH  90  94
ENDBRANCH  64  87
ENDBRANCH  38  39
ENDBRANCH  30  33
ENDBRANCH  28  29
ENDBRANCH  27  28
ENDBRANCH   1  27
TORSDOF 19
ENDMDL
MODEL 3
REMARK VINA RESULT:     -11.2      2.042      2.874
REMARK SMILES CC[C@@](C)(NC(=O)Nc1c(C)cccc1Cl)C(=O)NCCCCCCNC(=O)c1ccc(-c2c3nc(c(-c4cc(S(=O)(=O)[O-])ccc4F)c4ccc([nH]4)c(-c4cc(S(=O)(=O)[O-])ccc4F)c4nc(c(-c5cc(S(=O)(=O)[O-])ccc5F)c5ccc2[nH]5)C=C4)C=C3)cc1
REMARK SMILES IDX 23 1 22 2 21 3 20 4 19 5 17 6 18 7 3 9 4 10 2 11 1 12 5 13
REMARK SMILES IDX 6 14 7 16 8 17 9 19 10 20 15 21 11 22 12 23 14 24 16 25
REMARK SMILES IDX 13 26 24 27 25 28 26 29 27 30 28 32 29 33 30 34 91 35 31 36
REMARK SMILES IDX 90 37 32 38 33 39 34 40 84 41 35 42 89 43 83 44 85 45 36 46
REMARK SMILES IDX 88 47 82 48 81 49 37 51 69 52 49 53 68 54 50 55 53 56 67 57
REMARK SMILES IDX 86 58 51 59 52 60 66 62 87 63 54 64 38 65 39 66 47 67 40 68
REMARK SMILES IDX 46 69 48 70 45 71 41 72 42 73 43 74 44 75 70 76 71 77 79 78
REMARK SMILES IDX 72 79 78 80 80 81 77 82 73 83 74 84 75 85 76 86 55 87 56 88
REMARK SMILES IDX 64 89 57 90 63 91 65 92 62 93 58 94 59 95 60 96 61 97
REMARK H PARENT 19 8 5 15 8 18 26 31 85 50 53 61
REMARK Flexibility Score: inf
ROOT
ATOM      1  C   UNL A   1      31.845  29.065  24.190  1.00  0.00     0.002 C 
ENDROOT
BRANCH   1   2
ATOM      2  C   UNL A   1      30.751  28.833  23.149  1.00  0.00     0.002 C 
BRANCH   2   3
ATOM      3  C   UNL A   1      29.717  27.718  23.376  1.00  0.00     0.021 C 
BRANCH   3   4
ATOM      4  C   UNL A   1      30.131  26.234  23.402  1.00  0.00     0.116 C 
BRANCH   4   5
ATOM      5  N   UNL A   1      29.705  25.443  24.545  1.00  0.00    -0.354 N 
ATOM      6  C   UNL A   1      30.334  24.994  25.709  1.00  0.00     0.245 C 
ATOM      7  O   UNL A   1      29.735  25.008  26.787  1.00  0.00    -0.272 OA
ATOM      8  H   UNL A   1      28.763  25.160  24.486  1.00  0.00     0.163 HD
BRANCH   6   9
ATOM      9  C   UNL A   1      31.812  24.613  25.676  1.00  0.00     0.117 C 
ATOM     10  C   UNL A   1      31.912  23.738  24.403  1.00  0.00     0.045 C 
BRANCH   9  11
ATOM     11  C   UNL A   1      32.952  25.669  25.610  1.00  0.00     0.035 C 
ATOM     12  C   UNL A   1      33.723  25.852  24.320  1.00  0.00     0.007 C 
ENDBRANCH   9  11
BRANCH   9  13
ATOM     13  N   UNL A   1      31.977  23.885  26.919  1.00  0.00    -0.324 N 
ATOM     14  C   UNL A   1      32.968  23.110  27.358  1.00  0.00     0.320 C 
ATOM     15  H   UNL A   1      31.227  23.981  27.548  1.00  0.00     0.166 HD
ATOM     16  O   UNL A   1      32.689  22.489  28.398  1.00  0.00    -0.248 OA
ATOM     17  N   UNL A   1      34.170  22.820  26.848  1.00  0.00    -0.306 N 
ATOM     18  H   UNL A   1      34.545  22.203  27.516  1.00  0.00     0.171 HD
BRANCH  17  19
ATOM     19  C   UNL A   1      35.227  22.903  25.869  1.00  0.00     0.064 A 
ATOM     20  C   UNL A   1      36.435  23.642  25.673  1.00  0.00    -0.026 A 
ATOM     21  C   UNL A   1      34.992  21.924  24.847  1.00  0.00     0.064 A 
ATOM     22  C   UNL A   1      37.519  24.044  26.668  1.00  0.00     0.046 C 
ATOM     23  C   UNL A   1      37.049  23.652  24.383  1.00  0.00     0.005 A 
ATOM     24  C   UNL A   1      35.715  21.840  23.653  1.00  0.00     0.023 A 
ATOM     25  Cl  UNL A   1      33.746  20.708  25.027  1.00  0.00    -0.082 Cl
ATOM     26  C   UNL A   1      36.705  22.758  23.389  1.00  0.00     0.002 A 
ENDBRANCH  17  19
ENDBRANCH   9  13
ENDBRANCH   6   9
ENDBRANCH   4   5
ENDBRANCH   3   4
ENDBRANCH   2   3
ENDBRANCH   1   2
BRANCH   1  27
ATOM     27  C   UNL A   1      31.407  29.449  25.592  1.00  0.00     0.021 C 
BRANCH  27  28
ATOM     28  C   UNL A   1      32.500  30.011  26.481  1.00  0.00     0.116 C 
BRANCH  28  29
ATOM     29  N   UNL A   1      32.368  31.438  26.722  1.00  0.00    -0.352 N 
ATOM     30  C   UNL A   1      33.227  32.282  27.396  1.00  0.00     0.251 C 
ATOM     31  H   UNL A   1      31.558  31.859  26.354  1.00  0.00     0.163 HD
ATOM     32  O   UNL A   1      32.897  33.435  27.622  1.00  0.00    -0.269 OA
BRANCH  30  33
ATOM     33  C   UNL A   1      34.528  31.760  27.884  1.00  0.00     0.039 A 
ATOM     34  C   UNL A   1      35.600  32.646  28.016  1.00  0.00     0.014 A 
ATOM     35  C   UNL A   1      34.680  30.419  28.249  1.00  0.00     0.014 A 
ATOM     36  C   UNL A   1      36.796  32.200  28.585  1.00  0.00     0.010 A 
ATOM     37  C   UNL A   1      35.836  30.004  28.905  1.00  0.00     0.010 A 
ATOM     38  C   UNL A   1      36.910  30.888  29.077  1.00  0.00    -0.014 A 
BRANCH  38  39
ATOM     39  C   UNL A   1      38.142  30.447  29.782  1.00  0.00     0.031 A 
ATOM     40  C   UNL A   1      38.417  30.891  31.193  1.00  0.00     0.074 A 
ATOM     41  C   UNL A   1      39.030  29.666  29.134  1.00  0.00     0.049 A 
ATOM     42  N   UNL A   1      39.417  30.578  31.979  1.00  0.00    -0.248 NA
ATOM     43  C   UNL A   1      37.459  31.833  31.789  1.00  0.00     0.031 C 
ATOM     44  C   UNL A   1      38.903  29.218  27.745  1.00  0.00     0.029 A 
ATOM     45  N   UNL A   1      40.205  29.097  29.556  1.00  0.00    -0.354 N 
ATOM     46  C   UNL A   1      39.211  31.288  33.157  1.00  0.00     0.074 A 
ATOM     47  C   UNL A   1      38.032  32.102  32.953  1.00  0.00     0.031 C 
ATOM     48  C   UNL A   1      39.924  28.399  27.451  1.00  0.00     0.029 A 
ATOM     49  C   UNL A   1      40.804  28.299  28.609  1.00  0.00     0.049 A 
ATOM     50  H   UNL A   1      40.584  29.247  30.452  1.00  0.00     0.167 HD
ATOM     51  C   UNL A   1      39.925  31.245  34.311  1.00  0.00     0.034 A 
ATOM     52  C   UNL A   1      41.933  27.565  28.669  1.00  0.00     0.034 A 
ATOM     53  C   UNL A   1      41.099  30.425  34.494  1.00  0.00     0.049 A 
ATOM     54  C   UNL A   1      42.723  27.552  29.952  1.00  0.00     0.074 A 
ATOM     55  C   UNL A   1      41.858  30.250  35.639  1.00  0.00     0.029 A 
ATOM     56  N   UNL A   1      41.698  29.657  33.503  1.00  0.00    -0.354 N 
ATOM     57  N   UNL A   1      42.470  28.165  31.086  1.00  0.00    -0.248 NA
ATOM     58  C   UNL A   1      43.942  26.738  29.965  1.00  0.00     0.031 C 
ATOM     59  C   UNL A   1      42.961  29.451  35.317  1.00  0.00     0.029 A 
ATOM     60  C   UNL A   1      42.844  29.047  33.997  1.00  0.00     0.049 A 
ATOM     61  H   UNL A   1      41.360  29.559  32.584  1.00  0.00     0.167 HD
ATOM     62  C   UNL A   1      43.490  27.787  31.956  1.00  0.00     0.074 A 
ATOM     63  C   UNL A   1      44.338  26.871  31.220  1.00  0.00     0.031 C 
ATOM     64  C   UNL A   1      43.705  28.161  33.244  1.00  0.00     0.034 A 
BRANCH  51  65
ATOM     65  C   UNL A   1      39.471  32.141  35.443  1.00  0.00     0.023 A 
ATOM     66  C   UNL A   1      39.890  33.479  35.549  1.00  0.00     0.031 A 
ATOM     67  C   UNL A   1      38.635  31.637  36.456  1.00  0.00     0.131 A 
ATOM     68  C   UNL A   1      39.550  34.236  36.681  1.00  0.00     0.055 A 
ATOM     69  C   UNL A   1      38.222  32.425  37.533  1.00  0.00     0.041 A 
ATOM     70  F   UNL A   1      38.218  30.361  36.428  1.00  0.00    -0.206 F 
ATOM     71  C   UNL A   1      38.695  33.727  37.661  1.00  0.00     0.022 A 
BRANCH  68  72
ATOM     72  S   UNL A   1      40.379  35.830  36.938  1.00  0.00     0.124 S 
ATOM     73  O   UNL A   1      41.776  35.476  36.708  1.00  0.00    -0.237 OA
ATOM     74  O   UNL A   1      39.757  36.676  35.925  1.00  0.00    -0.237 OA
ATOM     75  O   UNL A   1      40.049  36.167  38.322  1.00  0.00    -0.744 OA
ENDBRANCH  68  72
ENDBRANCH  51  65
BRANCH  52  76
ATOM     76  C   UNL A   1      42.384  26.772  27.488  1.00  0.00     0.023 A 
ATOM     77  C   UNL A   1      42.052  25.413  27.361  1.00  0.00     0.031 A 
ATOM     78  C   UNL A   1      43.184  27.350  26.486  1.00  0.00     0.131 A 
ATOM     79  C   UNL A   1      42.554  24.666  26.284  1.00  0.00     0.055 A 
ATOM     80  C   UNL A   1      43.634  26.618  25.386  1.00  0.00     0.041 A 
ATOM     81  F   UNL A   1      43.529  28.646  26.556  1.00  0.00    -0.206 F 
ATOM     82  C   UNL A   1      43.329  25.263  25.287  1.00  0.00     0.022 A 
BRANCH  79  83
ATOM     83  S   UNL A   1      42.246  22.880  26.246  1.00  0.00     0.124 S 
ATOM     84  O   UNL A   1      40.796  22.825  26.386  1.00  0.00    -0.237 OA
ATOM     85  O   UNL A   1      42.778  22.508  24.938  1.00  0.00    -0.237 OA
ATOM     86  O   UNL A   1      43.005  22.379  27.389  1.00  0.00    -0.744 OA
ENDBRANCH  79  83
ENDBRANCH  52  76
BRANCH  64  87
ATOM     87  C   UNL A   1      44.902  27.551  33.937  1.00  0.00     0.023 A 
ATOM     88  C   UNL A   1      44.792  26.375  34.701  1.00  0.00     0.031 A 
ATOM     89  C   UNL A   1      46.159  28.179  33.877  1.00  0.00     0.131 A 
ATOM     90  C   UNL A   1      45.890  25.914  35.443  1.00  0.00     0.055 A 
ATOM     91  C   UNL A   1      47.270  27.670  34.552  1.00  0.00     0.041 A 
ATOM     92  F   UNL A   1      46.327  29.307  33.168  1.00  0.00    -0.206 F 
ATOM     93  C   UNL A   1      47.134  26.542  35.357  1.00  0.00     0.022 A 
BRANCH  90  94
ATOM     94  S   UNL A   1      45.630  24.571  36.633  1.00  0.00     0.124 S 
ATOM     95  O   UNL A   1      46.796  24.704  37.499  1.00  0.00    -0.237 OA
ATOM     96  O   UNL A   1      44.347  24.927  37.231  1.00  0.00    -0.237 OA
ATOM     97  O   UNL A   1      45.612  23.371  35.797  1.00  0.00    -0.744 OA
ENDBRANCH  90  94
ENDBRANCH  64  87
ENDBRANCH  38  39
ENDBRANCH  30  33
ENDBRANCH  28  29
ENDBRANCH  27  28
ENDBRANCH   1  27
TORSDOF 19
ENDMDL
