MODEL 1
REMARK VINA RESULT:     -11.1      0.000      0.000
REMARK SMILES O=C(CNC(=O)OCC1=Cc2ccccc2S1(=O)=O)NCCCCCCNC(=O)c1ccc(-c2c3nc(c(-c4cc(S(=O)(=O)[O-])ccc4F)c4ccc([nH]4)c(-c4cc(S(=O)(=O)[O-])ccc4F)c4nc(c(-c5cc(S(=O)(=O)[O-])ccc5F)c5ccc2[nH]5)C=C4)C=C3)cc1
REMARK SMILES IDX 23 1 22 2 21 3 20 4 1 5 2 6 3 8 4 9 5 10 6 12 7 13 8 14 9 15
REMARK SMILES IDX 10 16 17 17 11 18 16 19 18 20 19 21 12 22 15 23 13 24 14 25
REMARK SMILES IDX 24 26 25 27 26 28 27 29 28 30 29 32 30 33 31 34 92 35 32 36
REMARK SMILES IDX 91 37 33 38 34 39 35 40 85 41 36 42 90 43 84 44 86 45 37 46
REMARK SMILES IDX 89 47 83 48 82 49 38 51 70 52 50 53 69 54 51 55 54 56 68 57
REMARK SMILES IDX 87 58 52 59 53 60 67 62 88 63 55 64 39 65 40 66 48 67 41 68
REMARK SMILES IDX 47 69 49 70 46 71 42 72 43 73 44 74 45 75 71 76 72 77 80 78
REMARK SMILES IDX 73 79 79 80 81 81 78 82 74 83 75 84 76 85 77 86 56 87 57 88
REMARK SMILES IDX 65 89 58 90 64 91 66 92 63 93 59 94 60 95 61 96 62 97
REMARK H PARENT 20 7 4 11 27 31 86 50 54 61
REMARK Flexibility Score: inf
ROOT
ATOM      1  C   UNL A   1      37.038  22.202  24.150  1.00  0.00     0.002 C 
ENDROOT
BRANCH   1   2
ATOM      2  C   UNL A   1      36.383  23.462  24.731  1.00  0.00     0.021 C 
BRANCH   2   3
ATOM      3  C   UNL A   1      35.849  23.307  26.155  1.00  0.00     0.116 C 
BRANCH   3   4
ATOM      4  N   UNL A   1      34.416  23.499  26.221  1.00  0.00    -0.355 N 
ATOM      5  O   UNL A   1      33.972  21.756  27.652  1.00  0.00    -0.273 OA
ATOM      6  C   UNL A   1      33.584  22.717  26.995  1.00  0.00     0.239 C 
ATOM      7  H   UNL A   1      34.015  24.223  25.688  1.00  0.00     0.163 HD
BRANCH   6   8
ATOM      8  C   UNL A   1      32.094  23.041  26.843  1.00  0.00     0.219 C 
BRANCH   8   9
ATOM      9  N   UNL A   1      31.659  22.852  25.469  1.00  0.00    -0.312 N 
ATOM     10  C   UNL A   1      31.157  23.783  24.620  1.00  0.00     0.407 C 
ATOM     11  H   UNL A   1      31.738  21.937  25.111  1.00  0.00     0.167 HD
ATOM     12  O   UNL A   1      30.725  23.460  23.523  1.00  0.00    -0.225 OA
BRANCH  10  13
ATOM     13  O   UNL A   1      31.197  25.048  25.103  1.00  0.00    -0.444 OA
BRANCH  13  14
ATOM     14  C   UNL A   1      31.847  25.995  24.236  1.00  0.00     0.283 C 
BRANCH  14  15
ATOM     15  C   UNL A   1      30.920  27.103  23.904  1.00  0.00     0.087 C 
ATOM     16  C   UNL A   1      29.648  27.036  23.463  1.00  0.00     0.029 C 
ATOM     17  S   UNL A   1      31.460  28.748  24.089  1.00  0.00     0.206 S 
ATOM     18  C   UNL A   1      29.035  28.352  23.312  1.00  0.00    -0.005 A 
ATOM     19  C   UNL A   1      29.897  29.392  23.645  1.00  0.00     0.079 A 
ATOM     20  O   UNL A   1      31.683  29.096  25.474  1.00  0.00    -0.219 OA
ATOM     21  O   UNL A   1      32.390  29.089  23.032  1.00  0.00    -0.219 OA
ATOM     22  C   UNL A   1      27.735  28.647  22.941  1.00  0.00     0.009 A 
ATOM     23  C   UNL A   1      29.521  30.723  23.676  1.00  0.00     0.021 A 
ATOM     24  C   UNL A   1      27.324  29.988  22.944  1.00  0.00     0.001 A 
ATOM     25  C   UNL A   1      28.208  31.016  23.318  1.00  0.00     0.001 A 
ENDBRANCH  14  15
ENDBRANCH  13  14
ENDBRANCH  10  13
ENDBRANCH   8   9
ENDBRANCH   6   8
ENDBRANCH   3   4
ENDBRANCH   2   3
ENDBRANCH   1   2
BRANCH   1  26
ATOM     26  C   UNL A   1      36.643  20.880  24.816  1.00  0.00     0.002 C 
BRANCH  26  27
ATOM     27  C   UNL A   1      37.767  19.853  24.966  1.00  0.00     0.021 C 
BRANCH  27  28
ATOM     28  C   UNL A   1      38.995  20.339  25.732  1.00  0.00     0.116 C 
BRANCH  28  29
ATOM     29  N   UNL A   1      40.023  19.317  25.845  1.00  0.00    -0.352 N 
ATOM     30  C   UNL A   1      41.372  19.452  26.070  1.00  0.00     0.251 C 
ATOM     31  H   UNL A   1      39.706  18.390  25.747  1.00  0.00     0.163 HD
ATOM     32  O   UNL A   1      42.106  18.474  25.962  1.00  0.00    -0.269 OA
BRANCH  30  33
ATOM     33  C   UNL A   1      41.943  20.777  26.410  1.00  0.00     0.039 A 
ATOM     34  C   UNL A   1      42.205  21.685  25.380  1.00  0.00     0.014 A 
ATOM     35  C   UNL A   1      42.227  21.124  27.734  1.00  0.00     0.014 A 
ATOM     36  C   UNL A   1      42.688  22.961  25.684  1.00  0.00     0.010 A 
ATOM     37  C   UNL A   1      42.640  22.419  28.040  1.00  0.00     0.010 A 
ATOM     38  C   UNL A   1      42.875  23.354  27.020  1.00  0.00    -0.014 A 
BRANCH  38  39
ATOM     39  C   UNL A   1      43.315  24.732  27.368  1.00  0.00     0.031 A 
ATOM     40  C   UNL A   1      42.346  25.698  27.995  1.00  0.00     0.074 A 
ATOM     41  C   UNL A   1      44.566  25.133  27.065  1.00  0.00     0.049 A 
ATOM     42  N   UNL A   1      42.509  26.963  28.290  1.00  0.00    -0.248 NA
ATOM     43  C   UNL A   1      41.006  25.178  28.304  1.00  0.00     0.031 C 
ATOM     44  C   UNL A   1      45.589  24.301  26.427  1.00  0.00     0.029 A 
ATOM     45  N   UNL A   1      45.189  26.345  27.240  1.00  0.00    -0.354 N 
ATOM     46  C   UNL A   1      41.291  27.394  28.806  1.00  0.00     0.074 A 
ATOM     47  C   UNL A   1      40.384  26.269  28.725  1.00  0.00     0.031 C 
ATOM     48  C   UNL A   1      46.715  25.019  26.285  1.00  0.00     0.029 A 
ATOM     49  C   UNL A   1      46.484  26.375  26.772  1.00  0.00     0.049 A 
ATOM     50  H   UNL A   1      44.751  27.120  27.660  1.00  0.00     0.167 HD
ATOM     51  C   UNL A   1      40.967  28.607  29.320  1.00  0.00     0.034 A 
ATOM     52  C   UNL A   1      47.378  27.383  26.726  1.00  0.00     0.034 A 
ATOM     53  C   UNL A   1      41.888  29.717  29.401  1.00  0.00     0.049 A 
ATOM     54  C   UNL A   1      46.983  28.733  27.272  1.00  0.00     0.074 A 
ATOM     55  C   UNL A   1      41.679  30.971  29.949  1.00  0.00     0.029 A 
ATOM     56  N   UNL A   1      43.189  29.710  28.917  1.00  0.00    -0.354 N 
ATOM     57  N   UNL A   1      45.841  29.111  27.798  1.00  0.00    -0.248 NA
ATOM     58  C   UNL A   1      48.003  29.790  27.225  1.00  0.00     0.031 C 
ATOM     59  C   UNL A   1      42.825  31.743  29.729  1.00  0.00     0.029 A 
ATOM     60  C   UNL A   1      43.781  30.947  29.121  1.00  0.00     0.049 A 
ATOM     61  H   UNL A   1      43.628  28.939  28.489  1.00  0.00     0.167 HD
ATOM     62  C   UNL A   1      46.019  30.439  28.178  1.00  0.00     0.074 A 
ATOM     63  C   UNL A   1      47.381  30.790  27.832  1.00  0.00     0.031 C 
ATOM     64  C   UNL A   1      45.139  31.289  28.765  1.00  0.00     0.034 A 
BRANCH  51  65
ATOM     65  C   UNL A   1      39.549  28.801  29.805  1.00  0.00     0.023 A 
ATOM     66  C   UNL A   1      38.525  29.232  28.944  1.00  0.00     0.031 A 
ATOM     67  C   UNL A   1      39.219  28.574  31.154  1.00  0.00     0.131 A 
ATOM     68  C   UNL A   1      37.245  29.498  29.454  1.00  0.00     0.055 A 
ATOM     69  C   UNL A   1      37.922  28.757  31.637  1.00  0.00     0.041 A 
ATOM     70  F   UNL A   1      40.157  28.181  32.030  1.00  0.00    -0.206 F 
ATOM     71  C   UNL A   1      36.929  29.238  30.789  1.00  0.00     0.022 A 
BRANCH  68  72
ATOM     72  S   UNL A   1      36.042  30.330  28.381  1.00  0.00     0.124 S 
ATOM     73  O   UNL A   1      36.832  30.556  27.173  1.00  0.00    -0.237 OA
ATOM     74  O   UNL A   1      34.977  29.339  28.273  1.00  0.00    -0.237 OA
ATOM     75  O   UNL A   1      35.697  31.539  29.126  1.00  0.00    -0.744 OA
ENDBRANCH  68  72
ENDBRANCH  51  65
BRANCH  52  76
ATOM     76  C   UNL A   1      48.730  27.170  26.131  1.00  0.00     0.023 A 
ATOM     77  C   UNL A   1      48.986  27.479  24.786  1.00  0.00     0.031 A 
ATOM     78  C   UNL A   1      49.774  26.607  26.887  1.00  0.00     0.131 A 
ATOM     79  C   UNL A   1      50.236  27.176  24.223  1.00  0.00     0.055 A 
ATOM     80  C   UNL A   1      51.034  26.363  26.338  1.00  0.00     0.041 A 
ATOM     81  F   UNL A   1      49.586  26.295  28.180  1.00  0.00    -0.206 F 
ATOM     82  C   UNL A   1      51.266  26.634  24.994  1.00  0.00     0.022 A 
BRANCH  79  83
ATOM     83  S   UNL A   1      50.465  27.416  22.440  1.00  0.00     0.124 S 
ATOM     84  O   UNL A   1      49.428  26.551  21.889  1.00  0.00    -0.237 OA
ATOM     85  O   UNL A   1      50.248  28.852  22.297  1.00  0.00    -0.237 OA
ATOM     86  O   UNL A   1      51.838  26.970  22.211  1.00  0.00    -0.744 OA
ENDBRANCH  79  83
ENDBRANCH  52  76
BRANCH  64  87
ATOM     87  C   UNL A   1      45.645  32.667  29.119  1.00  0.00     0.023 A 
ATOM     88  C   UNL A   1      45.639  33.724  28.191  1.00  0.00     0.031 A 
ATOM     89  C   UNL A   1      46.149  32.924  30.407  1.00  0.00     0.131 A 
ATOM     90  C   UNL A   1      46.177  34.970  28.546  1.00  0.00     0.055 A 
ATOM     91  C   UNL A   1      46.625  34.183  30.775  1.00  0.00     0.041 A 
ATOM     92  F   UNL A   1      46.182  31.953  31.334  1.00  0.00    -0.206 F 
ATOM     93  C   UNL A   1      46.654  35.211  29.837  1.00  0.00     0.022 A 
BRANCH  90  94
ATOM     94  S   UNL A   1      46.335  36.249  27.268  1.00  0.00     0.124 S 
ATOM     95  O   UNL A   1      47.776  36.271  27.038  1.00  0.00    -0.237 OA
ATOM     96  O   UNL A   1      45.525  35.706  26.182  1.00  0.00    -0.237 OA
ATOM     97  O   UNL A   1      45.791  37.443  27.909  1.00  0.00    -0.744 OA
ENDBRANCH  90  94
ENDBRANCH  64  87
ENDBRANCH  38  39
ENDBRANCH  30  33
ENDBRANCH  28  29
ENDBRANCH  27  28
ENDBRANCH  26  27
ENDBRANCH   1  26
TORSDOF 20
ENDMDL
MODEL 2
REMARK VINA RESULT:     -11.0      1.981      8.080
REMARK SMILES O=C(CNC(=O)OCC1=Cc2ccccc2S1(=O)=O)NCCCCCCNC(=O)c1ccc(-c2c3nc(c(-c4cc(S(=O)(=O)[O-])ccc4F)c4ccc([nH]4)c(-c4cc(S(=O)(=O)[O-])ccc4F)c4nc(c(-c5cc(S(=O)(=O)[O-])ccc5F)c5ccc2[nH]5)C=C4)C=C3)cc1
REMARK SMILES IDX 23 1 22 2 21 3 20 4 1 5 2 6 3 8 4 9 5 10 6 12 7 13 8 14 9 15
REMARK SMILES IDX 10 16 17 17 11 18 16 19 18 20 19 21 12 22 15 23 13 24 14 25
REMARK SMILES IDX 24 26 25 27 26 28 27 29 28 30 29 32 30 33 31 34 92 35 32 36
REMARK SMILES IDX 91 37 33 38 34 39 35 40 85 41 36 42 90 43 84 44 86 45 37 46
REMARK SMILES IDX 89 47 83 48 82 49 38 51 70 52 50 53 69 54 51 55 54 56 68 57
REMARK SMILES IDX 87 58 52 59 53 60 67 62 88 63 55 64 39 65 40 66 48 67 41 68
REMARK SMILES IDX 47 69 49 70 46 71 42 72 43 73 44 74 45 75 71 76 72 77 80 78
REMARK SMILES IDX 73 79 79 80 81 81 78 82 74 83 75 84 76 85 77 86 56 87 57 88
REMARK SMILES IDX 65 89 58 90 64 91 66 92 63 93 59 94 60 95 61 96 62 97
REMARK H PARENT 20 7 4 11 27 31 86 50 54 61
REMARK Flexibility Score: inf
ROOT
ATOM      1  C   UNL A   1      36.754  23.461  25.273  1.00  0.00     0.002 C 
ENDROOT
BRANCH   1   2
ATOM      2  C   UNL A   1      35.433  24.239  25.202  1.00  0.00     0.021 C 
BRANCH   2   3
ATOM      3  C   UNL A   1      34.851  24.386  23.796  1.00  0.00     0.116 C 
BRANCH   3   4
ATOM      4  N   UNL A   1      34.003  25.552  23.679  1.00  0.00    -0.355 N 
ATOM      5  O   UNL A   1      33.690  25.436  21.405  1.00  0.00    -0.273 OA
ATOM      6  C   UNL A   1      33.460  25.974  22.484  1.00  0.00     0.239 C 
ATOM      7  H   UNL A   1      33.802  26.069  24.493  1.00  0.00     0.163 HD
BRANCH   6   8
ATOM      8  C   UNL A   1      32.666  27.281  22.579  1.00  0.00     0.219 C 
BRANCH   8   9
ATOM      9  N   UNL A   1      32.563  27.727  23.959  1.00  0.00    -0.312 N 
ATOM     10  C   UNL A   1      31.457  27.751  24.745  1.00  0.00     0.407 C 
ATOM     11  H   UNL A   1      33.397  28.049  24.374  1.00  0.00     0.167 HD
ATOM     12  O   UNL A   1      31.492  28.258  25.856  1.00  0.00    -0.225 OA
BRANCH  10  13
ATOM     13  O   UNL A   1      30.370  27.170  24.183  1.00  0.00    -0.444 OA
BRANCH  13  14
ATOM     14  C   UNL A   1      29.744  26.165  25.001  1.00  0.00     0.283 C 
BRANCH  14  15
ATOM     15  C   UNL A   1      30.480  24.883  24.886  1.00  0.00     0.087 C 
ATOM     16  C   UNL A   1      30.678  24.118  23.794  1.00  0.00     0.029 C 
ATOM     17  S   UNL A   1      31.231  24.203  26.302  1.00  0.00     0.206 S 
ATOM     18  C   UNL A   1      31.517  22.956  24.066  1.00  0.00    -0.005 A 
ATOM     19  C   UNL A   1      31.923  22.880  25.395  1.00  0.00     0.079 A 
ATOM     20  O   UNL A   1      32.332  25.011  26.776  1.00  0.00    -0.219 OA
ATOM     21  O   UNL A   1      30.223  23.650  27.183  1.00  0.00    -0.219 OA
ATOM     22  C   UNL A   1      31.965  22.002  23.168  1.00  0.00     0.009 A 
ATOM     23  C   UNL A   1      32.798  21.925  25.878  1.00  0.00     0.021 A 
ATOM     24  C   UNL A   1      32.841  21.008  23.628  1.00  0.00     0.001 A 
ATOM     25  C   UNL A   1      33.262  20.976  24.970  1.00  0.00     0.001 A 
ENDBRANCH  14  15
ENDBRANCH  13  14
ENDBRANCH  10  13
ENDBRANCH   8   9
ENDBRANCH   6   8
ENDBRANCH   3   4
ENDBRANCH   2   3
ENDBRANCH   1   2
BRANCH   1  26
ATOM     26  C   UNL A   1      36.906  22.317  24.266  1.00  0.00     0.002 C 
BRANCH  26  27
ATOM     27  C   UNL A   1      37.688  21.098  24.763  1.00  0.00     0.021 C 
BRANCH  27  28
ATOM     28  C   UNL A   1      38.625  21.361  25.940  1.00  0.00     0.116 C 
BRANCH  28  29
ATOM     29  N   UNL A   1      39.723  20.410  26.002  1.00  0.00    -0.352 N 
ATOM     30  C   UNL A   1      41.058  20.629  26.243  1.00  0.00     0.251 C 
ATOM     31  H   UNL A   1      39.473  19.470  25.849  1.00  0.00     0.163 HD
ATOM     32  O   UNL A   1      41.861  19.713  26.085  1.00  0.00    -0.269 OA
BRANCH  30  33
ATOM     33  C   UNL A   1      41.531  21.969  26.662  1.00  0.00     0.039 A 
ATOM     34  C   UNL A   1      41.851  22.911  25.679  1.00  0.00     0.014 A 
ATOM     35  C   UNL A   1      41.668  22.299  28.014  1.00  0.00     0.014 A 
ATOM     36  C   UNL A   1      42.243  24.200  26.052  1.00  0.00     0.010 A 
ATOM     37  C   UNL A   1      41.990  23.603  28.382  1.00  0.00     0.010 A 
ATOM     38  C   UNL A   1      42.280  24.570  27.407  1.00  0.00    -0.014 A 
BRANCH  38  39
ATOM     39  C   UNL A   1      42.621  25.958  27.822  1.00  0.00     0.031 A 
ATOM     40  C   UNL A   1      44.049  26.434  27.766  1.00  0.00     0.074 A 
ATOM     41  C   UNL A   1      41.658  26.769  28.305  1.00  0.00     0.049 A 
ATOM     42  N   UNL A   1      44.560  27.571  28.166  1.00  0.00    -0.248 NA
ATOM     43  C   UNL A   1      45.034  25.493  27.216  1.00  0.00     0.031 C 
ATOM     44  C   UNL A   1      40.244  26.414  28.439  1.00  0.00     0.029 A 
ATOM     45  N   UNL A   1      41.723  28.054  28.786  1.00  0.00    -0.354 N 
ATOM     46  C   UNL A   1      45.927  27.478  27.927  1.00  0.00     0.074 A 
ATOM     47  C   UNL A   1      46.169  26.149  27.406  1.00  0.00     0.031 C 
ATOM     48  C   UNL A   1      39.573  27.461  28.945  1.00  0.00     0.029 A 
ATOM     49  C   UNL A   1      40.511  28.544  29.220  1.00  0.00     0.049 A 
ATOM     50  H   UNL A   1      42.556  28.576  28.817  1.00  0.00     0.167 HD
ATOM     51  C   UNL A   1      46.887  28.420  28.105  1.00  0.00     0.034 A 
ATOM     52  C   UNL A   1      40.194  29.724  29.790  1.00  0.00     0.034 A 
ATOM     53  C   UNL A   1      46.626  29.745  28.618  1.00  0.00     0.049 A 
ATOM     54  C   UNL A   1      41.285  30.744  30.010  1.00  0.00     0.074 A 
ATOM     55  C   UNL A   1      47.515  30.792  28.789  1.00  0.00     0.029 A 
ATOM     56  N   UNL A   1      45.389  30.204  29.048  1.00  0.00    -0.354 N 
ATOM     57  N   UNL A   1      42.566  30.656  29.737  1.00  0.00    -0.248 NA
ATOM     58  C   UNL A   1      40.883  32.025  30.606  1.00  0.00     0.031 C 
ATOM     59  C   UNL A   1      46.832  31.855  29.390  1.00  0.00     0.029 A 
ATOM     60  C   UNL A   1      45.498  31.505  29.516  1.00  0.00     0.049 A 
ATOM     61  H   UNL A   1      44.554  29.682  29.024  1.00  0.00     0.167 HD
ATOM     62  C   UNL A   1      43.116  31.885  30.095  1.00  0.00     0.074 A 
ATOM     63  C   UNL A   1      42.025  32.698  30.591  1.00  0.00     0.031 C 
ATOM     64  C   UNL A   1      44.403  32.305  30.015  1.00  0.00     0.034 A 
BRANCH  51  65
ATOM     65  C   UNL A   1      48.309  28.037  27.769  1.00  0.00     0.023 A 
ATOM     66  C   UNL A   1      48.868  28.301  26.506  1.00  0.00     0.031 A 
ATOM     67  C   UNL A   1      49.114  27.377  28.716  1.00  0.00     0.131 A 
ATOM     68  C   UNL A   1      50.157  27.839  26.198  1.00  0.00     0.055 A 
ATOM     69  C   UNL A   1      50.427  26.998  28.432  1.00  0.00     0.041 A 
ATOM     70  F   UNL A   1      48.632  27.079  29.932  1.00  0.00    -0.206 F 
ATOM     71  C   UNL A   1      50.951  27.214  27.161  1.00  0.00     0.022 A 
BRANCH  68  72
ATOM     72  S   UNL A   1      50.722  27.937  24.477  1.00  0.00     0.124 S 
ATOM     73  O   UNL A   1      49.461  27.832  23.746  1.00  0.00    -0.237 OA
ATOM     74  O   UNL A   1      51.380  29.238  24.434  1.00  0.00    -0.237 OA
ATOM     75  O   UNL A   1      51.609  26.783  24.342  1.00  0.00    -0.744 OA
ENDBRANCH  68  72
ENDBRANCH  51  65
BRANCH  52  76
ATOM     76  C   UNL A   1      38.791  30.011  30.209  1.00  0.00     0.023 A 
ATOM     77  C   UNL A   1      37.952  30.819  29.426  1.00  0.00     0.031 A 
ATOM     78  C   UNL A   1      38.284  29.520  31.426  1.00  0.00     0.131 A 
ATOM     79  C   UNL A   1      36.671  31.156  29.890  1.00  0.00     0.055 A 
ATOM     80  C   UNL A   1      36.987  29.810  31.855  1.00  0.00     0.041 A 
ATOM     81  F   UNL A   1      39.042  28.740  32.213  1.00  0.00    -0.206 F 
ATOM     82  C   UNL A   1      36.178  30.645  31.092  1.00  0.00     0.022 A 
BRANCH  79  83
ATOM     83  S   UNL A   1      35.691  32.352  28.942  1.00  0.00     0.124 S 
ATOM     84  O   UNL A   1      36.545  33.534  28.984  1.00  0.00    -0.237 OA
ATOM     85  O   UNL A   1      35.574  31.689  27.647  1.00  0.00    -0.237 OA
ATOM     86  O   UNL A   1      34.447  32.452  29.703  1.00  0.00    -0.744 OA
ENDBRANCH  79  83
ENDBRANCH  52  76
BRANCH  64  87
ATOM     87  C   UNL A   1      44.690  33.729  30.427  1.00  0.00     0.023 A 
ATOM     88  C   UNL A   1      44.435  34.817  29.573  1.00  0.00     0.031 A 
ATOM     89  C   UNL A   1      45.236  33.999  31.696  1.00  0.00     0.131 A 
ATOM     90  C   UNL A   1      44.777  36.117  29.976  1.00  0.00     0.055 A 
ATOM     91  C   UNL A   1      45.515  35.301  32.115  1.00  0.00     0.041 A 
ATOM     92  F   UNL A   1      45.503  33.000  32.551  1.00  0.00    -0.206 F 
ATOM     93  C   UNL A   1      45.298  36.367  31.248  1.00  0.00     0.022 A 
BRANCH  90  94
ATOM     94  S   UNL A   1      44.619  37.472  28.779  1.00  0.00     0.124 S 
ATOM     95  O   UNL A   1      43.499  37.022  27.958  1.00  0.00    -0.237 OA
ATOM     96  O   UNL A   1      44.357  38.621  29.641  1.00  0.00    -0.237 OA
ATOM     97  O   UNL A   1      45.915  37.486  28.105  1.00  0.00    -0.744 OA
ENDBRANCH  90  94
ENDBRANCH  64  87
ENDBRANCH  38  39
ENDBRANCH  30  33
ENDBRANCH  28  29
ENDBRANCH  27  28
ENDBRANCH  26  27
ENDBRANCH   1  26
TORSDOF 20
ENDMDL
MODEL 3
REMARK VINA RESULT:     -10.9      2.100      3.423
REMARK SMILES O=C(CNC(=O)OCC1=Cc2ccccc2S1(=O)=O)NCCCCCCNC(=O)c1ccc(-c2c3nc(c(-c4cc(S(=O)(=O)[O-])ccc4F)c4ccc([nH]4)c(-c4cc(S(=O)(=O)[O-])ccc4F)c4nc(c(-c5cc(S(=O)(=O)[O-])ccc5F)c5ccc2[nH]5)C=C4)C=C3)cc1
REMARK SMILES IDX 23 1 22 2 21 3 20 4 1 5 2 6 3 8 4 9 5 10 6 12 7 13 8 14 9 15
REMARK SMILES IDX 10 16 17 17 11 18 16 19 18 20 19 21 12 22 15 23 13 24 14 25
REMARK SMILES IDX 24 26 25 27 26 28 27 29 28 30 29 32 30 33 31 34 92 35 32 36
REMARK SMILES IDX 91 37 33 38 34 39 35 40 85 41 36 42 90 43 84 44 86 45 37 46
REMARK SMILES IDX 89 47 83 48 82 49 38 51 70 52 50 53 69 54 51 55 54 56 68 57
REMARK SMILES IDX 87 58 52 59 53 60 67 62 88 63 55 64 39 65 40 66 48 67 41 68
REMARK SMILES IDX 47 69 49 70 46 71 42 72 43 73 44 74 45 75 71 76 72 77 80 78
REMARK SMILES IDX 73 79 79 80 81 81 78 82 74 83 75 84 76 85 77 86 56 87 57 88
REMARK SMILES IDX 65 89 58 90 64 91 66 92 63 93 59 94 60 95 61 96 62 97
REMARK H PARENT 20 7 4 11 27 31 86 50 54 61
REMARK Flexibility Score: inf
ROOT
ATOM      1  C   UNL A   1      36.081  22.740  25.613  1.00  0.00     0.002 C 
ENDROOT
BRANCH   1   2
ATOM      2  C   UNL A   1      35.229  23.980  25.314  1.00  0.00     0.021 C 
BRANCH   2   3
ATOM      3  C   UNL A   1      34.827  24.142  23.848  1.00  0.00     0.116 C 
BRANCH   3   4
ATOM      4  N   UNL A   1      34.157  25.402  23.605  1.00  0.00    -0.355 N 
ATOM      5  O   UNL A   1      33.493  24.947  21.452  1.00  0.00    -0.273 OA
ATOM      6  C   UNL A   1      33.512  25.698  22.422  1.00  0.00     0.239 C 
ATOM      7  H   UNL A   1      34.162  26.080  24.318  1.00  0.00     0.163 HD
BRANCH   6   8
ATOM      8  C   UNL A   1      32.949  27.121  22.351  1.00  0.00     0.219 C 
BRANCH   8   9
ATOM      9  N   UNL A   1      32.756  27.670  23.684  1.00  0.00    -0.312 N 
ATOM     10  C   UNL A   1      31.595  27.787  24.375  1.00  0.00     0.407 C 
ATOM     11  H   UNL A   1      33.567  27.996  24.139  1.00  0.00     0.167 HD
ATOM     12  O   UNL A   1      31.563  28.373  25.447  1.00  0.00    -0.225 OA
BRANCH  10  13
ATOM     13  O   UNL A   1      30.533  27.199  23.772  1.00  0.00    -0.444 OA
BRANCH  13  14
ATOM     14  C   UNL A   1      29.799  26.291  24.613  1.00  0.00     0.283 C 
BRANCH  14  15
ATOM     15  C   UNL A   1      30.438  24.954  24.599  1.00  0.00     0.087 C 
ATOM     16  C   UNL A   1      30.671  24.140  23.550  1.00  0.00     0.029 C 
ATOM     17  S   UNL A   1      31.002  24.265  26.095  1.00  0.00     0.206 S 
ATOM     18  C   UNL A   1      31.387  22.926  23.927  1.00  0.00    -0.005 A 
ATOM     19  C   UNL A   1      31.665  22.863  25.290  1.00  0.00     0.079 A 
ATOM     20  O   UNL A   1      32.117  25.001  26.648  1.00  0.00    -0.219 OA
ATOM     21  O   UNL A   1      29.879  23.821  26.894  1.00  0.00    -0.219 OA
ATOM     22  C   UNL A   1      31.837  21.912  23.100  1.00  0.00     0.009 A 
ATOM     23  C   UNL A   1      32.415  21.860  25.876  1.00  0.00     0.021 A 
ATOM     24  C   UNL A   1      32.586  20.869  23.664  1.00  0.00     0.001 A 
ATOM     25  C   UNL A   1      32.881  20.849  25.039  1.00  0.00     0.001 A 
ENDBRANCH  14  15
ENDBRANCH  13  14
ENDBRANCH  10  13
ENDBRANCH   8   9
ENDBRANCH   6   8
ENDBRANCH   3   4
ENDBRANCH   2   3
ENDBRANCH   1   2
BRANCH   1  26
ATOM     26  C   UNL A   1      36.401  21.847  24.410  1.00  0.00     0.002 C 
BRANCH  26  27
ATOM     27  C   UNL A   1      37.402  20.719  24.672  1.00  0.00     0.021 C 
BRANCH  27  28
ATOM     28  C   UNL A   1      38.442  21.008  25.750  1.00  0.00     0.116 C 
BRANCH  28  29
ATOM     29  N   UNL A   1      39.436  19.953  25.864  1.00  0.00    -0.352 N 
ATOM     30  C   UNL A   1      40.780  20.042  26.137  1.00  0.00     0.251 C 
ATOM     31  H   UNL A   1      39.096  19.039  25.726  1.00  0.00     0.163 HD
ATOM     32  O   UNL A   1      41.490  19.046  26.022  1.00  0.00    -0.269 OA
BRANCH  30  33
ATOM     33  C   UNL A   1      41.377  21.338  26.538  1.00  0.00     0.039 A 
ATOM     34  C   UNL A   1      41.905  22.174  25.550  1.00  0.00     0.014 A 
ATOM     35  C   UNL A   1      41.425  21.727  27.880  1.00  0.00     0.014 A 
ATOM     36  C   UNL A   1      42.418  23.426  25.900  1.00  0.00     0.010 A 
ATOM     37  C   UNL A   1      41.872  23.003  28.218  1.00  0.00     0.010 A 
ATOM     38  C   UNL A   1      42.373  23.869  27.233  1.00  0.00    -0.014 A 
BRANCH  38  39
ATOM     39  C   UNL A   1      42.845  25.228  27.614  1.00  0.00     0.031 A 
ATOM     40  C   UNL A   1      41.881  26.222  28.207  1.00  0.00     0.074 A 
ATOM     41  C   UNL A   1      44.121  25.587  27.372  1.00  0.00     0.049 A 
ATOM     42  N   UNL A   1      42.075  27.478  28.521  1.00  0.00    -0.248 NA
ATOM     43  C   UNL A   1      40.512  25.747  28.449  1.00  0.00     0.031 C 
ATOM     44  C   UNL A   1      45.142  24.725  26.774  1.00  0.00     0.029 A 
ATOM     45  N   UNL A   1      44.777  26.775  27.587  1.00  0.00    -0.354 N 
ATOM     46  C   UNL A   1      40.850  27.947  28.986  1.00  0.00     0.074 A 
ATOM     47  C   UNL A   1      39.909  26.855  28.853  1.00  0.00     0.031 C 
ATOM     48  C   UNL A   1      46.298  25.404  26.690  1.00  0.00     0.029 A 
ATOM     49  C   UNL A   1      46.093  26.763  27.180  1.00  0.00     0.049 A 
ATOM     50  H   UNL A   1      44.348  27.561  27.995  1.00  0.00     0.167 HD
ATOM     51  C   UNL A   1      40.546  29.166  29.496  1.00  0.00     0.034 A 
ATOM     52  C   UNL A   1      47.022  27.739  27.184  1.00  0.00     0.034 A 
ATOM     53  C   UNL A   1      41.500  30.242  29.631  1.00  0.00     0.049 A 
ATOM     54  C   UNL A   1      46.650  29.098  27.725  1.00  0.00     0.074 A 
ATOM     55  C   UNL A   1      41.310  31.498  30.180  1.00  0.00     0.029 A 
ATOM     56  N   UNL A   1      42.821  30.193  29.206  1.00  0.00    -0.354 N 
ATOM     57  N   UNL A   1      45.499  29.511  28.202  1.00  0.00    -0.248 NA
ATOM     58  C   UNL A   1      47.707  30.119  27.735  1.00  0.00     0.031 C 
ATOM     59  C   UNL A   1      42.490  32.231  30.021  1.00  0.00     0.029 A 
ATOM     60  C   UNL A   1      43.446  31.408  29.449  1.00  0.00     0.049 A 
ATOM     61  H   UNL A   1      43.251  29.411  28.791  1.00  0.00     0.167 HD
ATOM     62  C   UNL A   1      45.705  30.829  28.604  1.00  0.00     0.074 A 
ATOM     63  C   UNL A   1      47.093  31.135  28.323  1.00  0.00     0.031 C 
ATOM     64  C   UNL A   1      44.830  31.704  29.159  1.00  0.00     0.034 A 
BRANCH  51  65
ATOM     65  C   UNL A   1      39.115  29.406  29.919  1.00  0.00     0.023 A 
ATOM     66  C   UNL A   1      38.220  30.139  29.120  1.00  0.00     0.031 A 
ATOM     67  C   UNL A   1      38.642  28.913  31.149  1.00  0.00     0.131 A 
ATOM     68  C   UNL A   1      36.931  30.427  29.592  1.00  0.00     0.055 A 
ATOM     69  C   UNL A   1      37.330  29.129  31.575  1.00  0.00     0.041 A 
ATOM     70  F   UNL A   1      39.453  28.223  31.966  1.00  0.00    -0.206 F 
ATOM     71  C   UNL A   1      36.470  29.905  30.802  1.00  0.00     0.022 A 
BRANCH  68  72
ATOM     72  S   UNL A   1      35.918  31.618  28.672  1.00  0.00     0.124 S 
ATOM     73  O   UNL A   1      36.893  32.663  28.370  1.00  0.00    -0.237 OA
ATOM     74  O   UNL A   1      35.455  30.827  27.537  1.00  0.00    -0.237 OA
ATOM     75  O   UNL A   1      34.883  32.000  29.631  1.00  0.00    -0.744 OA
ENDBRANCH  68  72
ENDBRANCH  51  65
BRANCH  52  76
ATOM     76  C   UNL A   1      48.392  27.484  26.650  1.00  0.00     0.023 A 
ATOM     77  C   UNL A   1      49.448  27.129  27.504  1.00  0.00     0.031 A 
ATOM     78  C   UNL A   1      48.676  27.639  25.281  1.00  0.00     0.131 A 
ATOM     79  C   UNL A   1      50.747  26.992  26.991  1.00  0.00     0.055 A 
ATOM     80  C   UNL A   1      49.959  27.444  24.767  1.00  0.00     0.041 A 
ATOM     81  F   UNL A   1      47.703  27.975  24.418  1.00  0.00    -0.206 F 
ATOM     82  C   UNL A   1      51.007  27.133  25.627  1.00  0.00     0.022 A 
BRANCH  79  83
ATOM     83  S   UNL A   1      52.114  26.719  28.152  1.00  0.00     0.124 S 
ATOM     84  O   UNL A   1      52.623  28.073  28.334  1.00  0.00    -0.237 OA
ATOM     85  O   UNL A   1      51.425  26.132  29.297  1.00  0.00    -0.237 OA
ATOM     86  O   UNL A   1      52.999  25.810  27.427  1.00  0.00    -0.744 OA
ENDBRANCH  79  83
ENDBRANCH  52  76
BRANCH  64  87
ATOM     87  C   UNL A   1      45.366  33.061  29.549  1.00  0.00     0.023 A 
ATOM     88  C   UNL A   1      45.389  34.140  28.647  1.00  0.00     0.031 A 
ATOM     89  C   UNL A   1      45.870  33.273  30.845  1.00  0.00     0.131 A 
ATOM     90  C   UNL A   1      45.955  35.364  29.036  1.00  0.00     0.055 A 
ATOM     91  C   UNL A   1      46.374  34.512  31.246  1.00  0.00     0.041 A 
ATOM     92  F   UNL A   1      45.876  32.279  31.747  1.00  0.00    -0.206 F 
ATOM     93  C   UNL A   1      46.432  35.561  30.334  1.00  0.00     0.022 A 
BRANCH  90  94
ATOM     94  S   UNL A   1      46.149  36.670  27.791  1.00  0.00     0.124 S 
ATOM     95  O   UNL A   1      47.149  37.534  28.411  1.00  0.00    -0.237 OA
ATOM     96  O   UNL A   1      46.593  35.920  26.619  1.00  0.00    -0.237 OA
ATOM     97  O   UNL A   1      44.811  37.246  27.686  1.00  0.00    -0.744 OA
ENDBRANCH  90  94
ENDBRANCH  64  87
ENDBRANCH  38  39
ENDBRANCH  30  33
ENDBRANCH  28  29
ENDBRANCH  27  28
ENDBRANCH  26  27
ENDBRANCH   1  26
TORSDOF 20
ENDMDL
