MODEL 1
REMARK VINA RESULT:     -11.8      0.000      0.000
REMARK SMILES CCC[C@@H]1CCc2nc3c(F)cccc3c(C(=O)NCCCCCCNC(=O)c3ccc(-c4c5nc(c(-c6cc(S(=O)(=O)[O-])ccc6F)c6ccc([nH]6)c(-c6cc(S(=O)(=O)[O-])ccc6F)c6nc(c(-c7cc(S(=O)(=O)[O-])ccc7F)c7ccc4[nH]7)C=C6)C=C5)cc3)c2C1
REMARK SMILES IDX 23 1 22 2 21 3 20 4 19 5 17 6 18 7 16 9 4 10 5 11 93 12 6 13
REMARK SMILES IDX 92 14 7 15 8 16 15 17 9 18 14 19 10 20 13 21 11 22 12 23
REMARK SMILES IDX 3 24 2 25 1 26 24 27 25 28 26 29 27 30 28 32 29 33 30 34
REMARK SMILES IDX 91 35 31 36 90 37 32 38 33 39 34 40 84 41 35 42 89 43 83 44
REMARK SMILES IDX 85 45 36 46 88 47 82 48 81 49 37 51 69 52 49 53 68 54 50 55
REMARK SMILES IDX 53 56 67 57 86 58 51 59 52 60 66 62 87 63 54 64 38 65 39 66
REMARK SMILES IDX 47 67 40 68 46 69 48 70 45 71 41 72 42 73 43 74 44 75 70 76
REMARK SMILES IDX 71 77 79 78 72 79 78 80 80 81 77 82 73 83 74 84 75 85 76 86
REMARK SMILES IDX 55 87 56 88 64 89 57 90 63 91 65 92 62 93 58 94 59 95 60 96
REMARK SMILES IDX 61 97
REMARK H PARENT 19 8 26 31 85 50 53 61
REMARK Flexibility Score: inf
ROOT
ATOM      1  C   UNL A   1      31.636  29.451  25.673  1.00  0.00     0.002 C 
ENDROOT
BRANCH   1   2
ATOM      2  C   UNL A   1      33.066  29.021  25.342  1.00  0.00     0.002 C 
BRANCH   2   3
ATOM      3  C   UNL A   1      33.510  29.326  23.908  1.00  0.00     0.021 C 
BRANCH   3   4
ATOM      4  C   UNL A   1      34.178  28.146  23.179  1.00  0.00     0.116 C 
BRANCH   4   5
ATOM      5  N   UNL A   1      33.349  27.766  22.046  1.00  0.00    -0.352 N 
ATOM      6  C   UNL A   1      32.284  26.897  21.957  1.00  0.00     0.252 C 
ATOM      7  O   UNL A   1      32.264  26.197  20.944  1.00  0.00    -0.269 OA
ATOM      8  H   UNL A   1      33.590  28.206  21.200  1.00  0.00     0.163 HD
BRANCH   6   9
ATOM      9  C   UNL A   1      31.113  26.892  22.910  1.00  0.00     0.054 A 
ATOM     10  C   UNL A   1      32.409  24.580  25.746  1.00  0.00    -0.006 C 
ATOM     11  C   UNL A   1      31.053  24.023  26.186  1.00  0.00     0.010 C 
ATOM     12  C   UNL A   1      32.315  25.054  24.284  1.00  0.00     0.042 C 
ATOM     13  C   UNL A   1      29.981  25.097  26.081  1.00  0.00     0.057 C 
ATOM     14  C   UNL A   1      31.142  25.964  23.988  1.00  0.00    -0.013 A 
ATOM     15  C   UNL A   1      30.004  25.870  24.787  1.00  0.00     0.045 A 
ATOM     16  N   UNL A   1      28.874  26.558  24.531  1.00  0.00    -0.249 NA
ATOM     17  C   UNL A   1      30.008  27.784  22.803  1.00  0.00     0.016 A 
ATOM     18  C   UNL A   1      28.865  27.494  23.571  1.00  0.00     0.107 A 
ATOM     19  C   UNL A   1      29.979  28.976  22.041  1.00  0.00     0.011 A 
ATOM     20  C   UNL A   1      27.703  28.238  23.357  1.00  0.00     0.149 A 
ATOM     21  C   UNL A   1      28.812  29.716  21.846  1.00  0.00     0.004 A 
ATOM     22  F   UNL A   1      26.584  27.934  24.037  1.00  0.00    -0.205 F 
ATOM     23  C   UNL A   1      27.651  29.315  22.479  1.00  0.00     0.041 A 
BRANCH  10  24
ATOM     24  C   UNL A   1      33.516  23.527  25.961  1.00  0.00     0.003 C 
BRANCH  24  25
ATOM     25  C   UNL A   1      34.935  23.940  25.551  1.00  0.00    -0.003 C 
ATOM     26  C   UNL A   1      36.037  23.071  26.140  1.00  0.00     0.004 C 
ENDBRANCH  24  25
ENDBRANCH  10  24
ENDBRANCH   6   9
ENDBRANCH   4   5
ENDBRANCH   3   4
ENDBRANCH   2   3
ENDBRANCH   1   2
BRANCH   1  27
ATOM     27  C   UNL A   1      31.485  30.905  26.126  1.00  0.00     0.021 C 
BRANCH  27  28
ATOM     28  C   UNL A   1      32.561  31.372  27.103  1.00  0.00     0.116 C 
BRANCH  28  29
ATOM     29  N   UNL A   1      32.559  32.820  27.235  1.00  0.00    -0.352 N 
ATOM     30  C   UNL A   1      33.345  33.591  28.055  1.00  0.00     0.251 C 
ATOM     31  H   UNL A   1      31.917  33.307  26.670  1.00  0.00     0.163 HD
ATOM     32  O   UNL A   1      33.067  34.767  28.272  1.00  0.00    -0.269 OA
BRANCH  30  33
ATOM     33  C   UNL A   1      34.535  32.976  28.671  1.00  0.00     0.039 A 
ATOM     34  C   UNL A   1      34.406  32.275  29.870  1.00  0.00     0.014 A 
ATOM     35  C   UNL A   1      35.777  33.086  28.034  1.00  0.00     0.014 A 
ATOM     36  C   UNL A   1      35.527  31.653  30.422  1.00  0.00     0.010 A 
ATOM     37  C   UNL A   1      36.878  32.419  28.556  1.00  0.00     0.010 A 
ATOM     38  C   UNL A   1      36.767  31.716  29.765  1.00  0.00    -0.014 A 
BRANCH  38  39
ATOM     39  C   UNL A   1      37.978  31.107  30.363  1.00  0.00     0.031 A 
ATOM     40  C   UNL A   1      38.426  31.549  31.727  1.00  0.00     0.074 A 
ATOM     41  C   UNL A   1      38.690  30.200  29.669  1.00  0.00     0.049 A 
ATOM     42  N   UNL A   1      39.455  31.147  32.423  1.00  0.00    -0.248 NA
ATOM     43  C   UNL A   1      37.625  32.595  32.385  1.00  0.00     0.031 C 
ATOM     44  C   UNL A   1      38.372  29.735  28.318  1.00  0.00     0.029 A 
ATOM     45  N   UNL A   1      39.832  29.513  29.999  1.00  0.00    -0.354 N 
ATOM     46  C   UNL A   1      39.425  31.888  33.598  1.00  0.00     0.074 A 
ATOM     47  C   UNL A   1      38.316  32.808  33.495  1.00  0.00     0.031 C 
ATOM     48  C   UNL A   1      39.287  28.826  27.943  1.00  0.00     0.029 A 
ATOM     49  C   UNL A   1      40.267  28.658  29.014  1.00  0.00     0.049 A 
ATOM     50  H   UNL A   1      40.294  29.622  30.861  1.00  0.00     0.167 HD
ATOM     51  C   UNL A   1      40.232  31.786  34.679  1.00  0.00     0.034 A 
ATOM     52  C   UNL A   1      41.329  27.827  28.984  1.00  0.00     0.034 A 
ATOM     53  C   UNL A   1      41.319  30.850  34.778  1.00  0.00     0.049 A 
ATOM     54  C   UNL A   1      42.208  27.720  30.205  1.00  0.00     0.074 A 
ATOM     55  C   UNL A   1      42.163  30.634  35.852  1.00  0.00     0.029 A 
ATOM     56  N   UNL A   1      41.706  29.974  33.776  1.00  0.00    -0.354 N 
ATOM     57  N   UNL A   1      42.111  28.361  31.347  1.00  0.00    -0.248 NA
ATOM     58  C   UNL A   1      43.327  26.769  30.148  1.00  0.00     0.031 C 
ATOM     59  C   UNL A   1      43.088  29.656  35.483  1.00  0.00     0.029 A 
ATOM     60  C   UNL A   1      42.786  29.223  34.202  1.00  0.00     0.049 A 
ATOM     61  H   UNL A   1      41.277  29.899  32.893  1.00  0.00     0.167 HD
ATOM     62  C   UNL A   1      43.128  27.861  32.155  1.00  0.00     0.074 A 
ATOM     63  C   UNL A   1      43.826  26.863  31.374  1.00  0.00     0.031 C 
ATOM     64  C   UNL A   1      43.449  28.201  33.429  1.00  0.00     0.034 A 
BRANCH  51  65
ATOM     65  C   UNL A   1      39.959  32.677  35.860  1.00  0.00     0.023 A 
ATOM     66  C   UNL A   1      39.045  32.274  36.851  1.00  0.00     0.031 A 
ATOM     67  C   UNL A   1      40.517  33.965  35.947  1.00  0.00     0.131 A 
ATOM     68  C   UNL A   1      38.695  33.165  37.872  1.00  0.00     0.055 A 
ATOM     69  C   UNL A   1      40.192  34.834  36.988  1.00  0.00     0.041 A 
ATOM     70  F   UNL A   1      41.398  34.389  35.027  1.00  0.00    -0.206 F 
ATOM     71  C   UNL A   1      39.269  34.438  37.951  1.00  0.00     0.022 A 
BRANCH  68  72
ATOM     72  S   UNL A   1      37.458  32.716  39.119  1.00  0.00     0.124 S 
ATOM     73  O   UNL A   1      36.210  32.858  38.372  1.00  0.00    -0.237 OA
ATOM     74  O   UNL A   1      37.839  31.345  39.443  1.00  0.00    -0.237 OA
ATOM     75  O   UNL A   1      37.657  33.697  40.180  1.00  0.00    -0.744 OA
ENDBRANCH  68  72
ENDBRANCH  51  65
BRANCH  52  76
ATOM     76  C   UNL A   1      41.549  26.973  27.783  1.00  0.00     0.023 A 
ATOM     77  C   UNL A   1      41.159  25.623  27.771  1.00  0.00     0.031 A 
ATOM     78  C   UNL A   1      42.242  27.474  26.668  1.00  0.00     0.131 A 
ATOM     79  C   UNL A   1      41.511  24.808  26.686  1.00  0.00     0.055 A 
ATOM     80  C   UNL A   1      42.538  26.674  25.565  1.00  0.00     0.041 A 
ATOM     81  F   UNL A   1      42.646  28.754  26.644  1.00  0.00    -0.206 F 
ATOM     82  C   UNL A   1      42.182  25.329  25.576  1.00  0.00     0.022 A 
BRANCH  79  83
ATOM     83  S   UNL A   1      41.191  23.023  26.722  1.00  0.00     0.124 S 
ATOM     84  O   UNL A   1      39.749  22.964  26.505  1.00  0.00    -0.237 OA
ATOM     85  O   UNL A   1      42.017  22.554  25.613  1.00  0.00    -0.237 OA
ATOM     86  O   UNL A   1      41.644  22.618  28.049  1.00  0.00    -0.744 OA
ENDBRANCH  79  83
ENDBRANCH  52  76
BRANCH  64  87
ATOM     87  C   UNL A   1      44.584  27.481  34.111  1.00  0.00     0.023 A 
ATOM     88  C   UNL A   1      44.317  26.317  34.856  1.00  0.00     0.031 A 
ATOM     89  C   UNL A   1      45.870  28.038  34.177  1.00  0.00     0.131 A 
ATOM     90  C   UNL A   1      45.311  25.773  35.678  1.00  0.00     0.055 A 
ATOM     91  C   UNL A   1      46.872  27.467  34.964  1.00  0.00     0.041 A 
ATOM     92  F   UNL A   1      46.166  29.154  33.493  1.00  0.00    -0.206 F 
ATOM     93  C   UNL A   1      46.590  26.339  35.730  1.00  0.00     0.022 A 
BRANCH  90  94
ATOM     94  S   UNL A   1      44.959  24.365  36.765  1.00  0.00     0.124 S 
ATOM     95  O   UNL A   1      44.241  23.461  35.870  1.00  0.00    -0.237 OA
ATOM     96  O   UNL A   1      46.300  23.932  37.147  1.00  0.00    -0.237 OA
ATOM     97  O   UNL A   1      44.156  24.941  37.839  1.00  0.00    -0.744 OA
ENDBRANCH  90  94
ENDBRANCH  64  87
ENDBRANCH  38  39
ENDBRANCH  30  33
ENDBRANCH  28  29
ENDBRANCH  27  28
ENDBRANCH   1  27
TORSDOF 18
ENDMDL
MODEL 2
REMARK VINA RESULT:     -11.7      6.150     11.005
REMARK SMILES CCC[C@@H]1CCc2nc3c(F)cccc3c(C(=O)NCCCCCCNC(=O)c3ccc(-c4c5nc(c(-c6cc(S(=O)(=O)[O-])ccc6F)c6ccc([nH]6)c(-c6cc(S(=O)(=O)[O-])ccc6F)c6nc(c(-c7cc(S(=O)(=O)[O-])ccc7F)c7ccc4[nH]7)C=C6)C=C5)cc3)c2C1
REMARK SMILES IDX 23 1 22 2 21 3 20 4 19 5 17 6 18 7 16 9 4 10 5 11 93 12 6 13
REMARK SMILES IDX 92 14 7 15 8 16 15 17 9 18 14 19 10 20 13 21 11 22 12 23
REMARK SMILES IDX 3 24 2 25 1 26 24 27 25 28 26 29 27 30 28 32 29 33 30 34
REMARK SMILES IDX 91 35 31 36 90 37 32 38 33 39 34 40 84 41 35 42 89 43 83 44
REMARK SMILES IDX 85 45 36 46 88 47 82 48 81 49 37 51 69 52 49 53 68 54 50 55
REMARK SMILES IDX 53 56 67 57 86 58 51 59 52 60 66 62 87 63 54 64 38 65 39 66
REMARK SMILES IDX 47 67 40 68 46 69 48 70 45 71 41 72 42 73 43 74 44 75 70 76
REMARK SMILES IDX 71 77 79 78 72 79 78 80 80 81 77 82 73 83 74 84 75 85 76 86
REMARK SMILES IDX 55 87 56 88 64 89 57 90 63 91 65 92 62 93 58 94 59 95 60 96
REMARK SMILES IDX 61 97
REMARK H PARENT 19 8 26 31 85 50 53 61
REMARK Flexibility Score: inf
ROOT
ATOM      1  C   UNL A   1      38.734  21.346  25.365  1.00  0.00     0.002 C 
ENDROOT
BRANCH   1   2
ATOM      2  C   UNL A   1      39.259  22.327  26.415  1.00  0.00     0.002 C 
BRANCH   2   3
ATOM      3  C   UNL A   1      38.491  23.650  26.494  1.00  0.00     0.021 C 
BRANCH   3   4
ATOM      4  C   UNL A   1      37.250  23.727  25.585  1.00  0.00     0.116 C 
BRANCH   4   5
ATOM      5  N   UNL A   1      36.134  23.086  26.262  1.00  0.00    -0.352 N 
ATOM      6  C   UNL A   1      34.779  23.320  26.189  1.00  0.00     0.252 C 
ATOM      7  O   UNL A   1      34.180  23.267  27.264  1.00  0.00    -0.269 OA
ATOM      8  H   UNL A   1      36.392  22.362  26.876  1.00  0.00     0.163 HD
BRANCH   6   9
ATOM      9  C   UNL A   1      34.012  23.457  24.896  1.00  0.00     0.054 A 
ATOM     10  C   UNL A   1      32.490  19.909  24.496  1.00  0.00    -0.006 C 
ATOM     11  C   UNL A   1      32.443  19.882  22.967  1.00  0.00     0.010 C 
ATOM     12  C   UNL A   1      33.569  20.905  24.955  1.00  0.00     0.042 C 
ATOM     13  C   UNL A   1      32.108  21.262  22.423  1.00  0.00     0.057 C 
ATOM     14  C   UNL A   1      33.485  22.272  24.311  1.00  0.00    -0.013 A 
ATOM     15  C   UNL A   1      32.893  22.383  23.053  1.00  0.00     0.045 A 
ATOM     16  N   UNL A   1      32.874  23.535  22.356  1.00  0.00    -0.249 NA
ATOM     17  C   UNL A   1      33.765  24.705  24.256  1.00  0.00     0.016 A 
ATOM     18  C   UNL A   1      33.292  24.673  22.932  1.00  0.00     0.107 A 
ATOM     19  C   UNL A   1      33.890  25.980  24.858  1.00  0.00     0.011 A 
ATOM     20  C   UNL A   1      33.211  25.868  22.215  1.00  0.00     0.149 A 
ATOM     21  C   UNL A   1      33.794  27.167  24.130  1.00  0.00     0.004 A 
ATOM     22  F   UNL A   1      32.820  25.847  20.929  1.00  0.00    -0.205 F 
ATOM     23  C   UNL A   1      33.493  27.105  22.783  1.00  0.00     0.041 A 
BRANCH  10  24
ATOM     24  C   UNL A   1      32.715  18.487  25.051  1.00  0.00     0.003 C 
BRANCH  24  25
ATOM     25  C   UNL A   1      33.941  17.736  24.517  1.00  0.00    -0.003 C 
ATOM     26  C   UNL A   1      33.921  16.236  24.775  1.00  0.00     0.004 C 
ENDBRANCH  24  25
ENDBRANCH  10  24
ENDBRANCH   6   9
ENDBRANCH   4   5
ENDBRANCH   3   4
ENDBRANCH   2   3
ENDBRANCH   1   2
BRANCH   1  27
ATOM     27  C   UNL A   1      39.160  19.890  25.570  1.00  0.00     0.021 C 
BRANCH  27  28
ATOM     28  C   UNL A   1      40.234  19.695  26.637  1.00  0.00     0.116 C 
BRANCH  28  29
ATOM     29  N   UNL A   1      41.360  18.934  26.119  1.00  0.00    -0.352 N 
ATOM     30  C   UNL A   1      42.569  19.414  25.684  1.00  0.00     0.251 C 
ATOM     31  H   UNL A   1      41.239  17.958  26.074  1.00  0.00     0.163 HD
ATOM     32  O   UNL A   1      43.327  18.707  25.025  1.00  0.00    -0.269 OA
BRANCH  30  33
ATOM     33  C   UNL A   1      42.942  20.799  26.025  1.00  0.00     0.039 A 
ATOM     34  C   UNL A   1      43.165  21.725  25.005  1.00  0.00     0.014 A 
ATOM     35  C   UNL A   1      43.048  21.173  27.370  1.00  0.00     0.014 A 
ATOM     36  C   UNL A   1      43.469  23.045  25.337  1.00  0.00     0.010 A 
ATOM     37  C   UNL A   1      43.294  22.501  27.696  1.00  0.00     0.010 A 
ATOM     38  C   UNL A   1      43.528  23.443  26.683  1.00  0.00    -0.014 A 
BRANCH  38  39
ATOM     39  C   UNL A   1      43.901  24.828  27.053  1.00  0.00     0.031 A 
ATOM     40  C   UNL A   1      45.328  25.270  26.903  1.00  0.00     0.074 A 
ATOM     41  C   UNL A   1      42.975  25.663  27.558  1.00  0.00     0.049 A 
ATOM     42  N   UNL A   1      45.861  26.431  27.172  1.00  0.00    -0.248 NA
ATOM     43  C   UNL A   1      46.287  24.269  26.405  1.00  0.00     0.031 C 
ATOM     44  C   UNL A   1      41.571  25.322  27.791  1.00  0.00     0.029 A 
ATOM     45  N   UNL A   1      43.076  26.967  27.975  1.00  0.00    -0.354 N 
ATOM     46  C   UNL A   1      47.212  26.302  26.878  1.00  0.00     0.074 A 
ATOM     47  C   UNL A   1      47.432  24.933  26.471  1.00  0.00     0.031 C 
ATOM     48  C   UNL A   1      40.938  26.396  28.291  1.00  0.00     0.029 A 
ATOM     49  C   UNL A   1      41.892  27.494  28.436  1.00  0.00     0.049 A 
ATOM     50  H   UNL A   1      43.917  27.477  27.946  1.00  0.00     0.167 HD
ATOM     51  C   UNL A   1      48.177  27.249  26.915  1.00  0.00     0.034 A 
ATOM     52  C   UNL A   1      41.608  28.725  28.911  1.00  0.00     0.034 A 
ATOM     53  C   UNL A   1      47.941  28.614  27.300  1.00  0.00     0.049 A 
ATOM     54  C   UNL A   1      42.696  29.769  28.930  1.00  0.00     0.074 A 
ATOM     55  C   UNL A   1      48.842  29.663  27.319  1.00  0.00     0.029 A 
ATOM     56  N   UNL A   1      46.721  29.120  27.724  1.00  0.00    -0.354 N 
ATOM     57  N   UNL A   1      43.951  29.657  28.558  1.00  0.00    -0.248 NA
ATOM     58  C   UNL A   1      42.334  31.109  29.410  1.00  0.00     0.031 C 
ATOM     59  C   UNL A   1      48.177  30.793  27.796  1.00  0.00     0.029 A 
ATOM     60  C   UNL A   1      46.850  30.465  28.020  1.00  0.00     0.049 A 
ATOM     61  H   UNL A   1      45.890  28.600  27.803  1.00  0.00     0.167 HD
ATOM     62  C   UNL A   1      44.514  30.919  28.723  1.00  0.00     0.074 A 
ATOM     63  C   UNL A   1      43.463  31.780  29.223  1.00  0.00     0.031 C 
ATOM     64  C   UNL A   1      45.785  31.323  28.479  1.00  0.00     0.034 A 
BRANCH  51  65
ATOM     65  C   UNL A   1      49.570  26.866  26.495  1.00  0.00     0.023 A 
ATOM     66  C   UNL A   1      50.055  27.245  25.230  1.00  0.00     0.031 A 
ATOM     67  C   UNL A   1      50.372  26.036  27.299  1.00  0.00     0.131 A 
ATOM     68  C   UNL A   1      51.298  26.770  24.794  1.00  0.00     0.055 A 
ATOM     69  C   UNL A   1      51.625  25.596  26.874  1.00  0.00     0.041 A 
ATOM     70  F   UNL A   1      49.951  25.654  28.515  1.00  0.00    -0.206 F 
ATOM     71  C   UNL A   1      52.088  25.955  25.612  1.00  0.00     0.022 A 
BRANCH  68  72
ATOM     72  S   UNL A   1      51.921  27.165  23.138  1.00  0.00     0.124 S 
ATOM     73  O   UNL A   1      53.073  26.273  23.027  1.00  0.00    -0.237 OA
ATOM     74  O   UNL A   1      50.780  26.820  22.296  1.00  0.00    -0.237 OA
ATOM     75  O   UNL A   1      52.245  28.585  23.215  1.00  0.00    -0.744 OA
ENDBRANCH  68  72
ENDBRANCH  51  65
BRANCH  52  76
ATOM     76  C   UNL A   1      40.210  29.041  29.315  1.00  0.00     0.023 A 
ATOM     77  C   UNL A   1      39.819  29.009  30.665  1.00  0.00     0.031 A 
ATOM     78  C   UNL A   1      39.223  29.284  28.344  1.00  0.00     0.131 A 
ATOM     79  C   UNL A   1      38.468  29.165  31.002  1.00  0.00     0.055 A 
ATOM     80  C   UNL A   1      37.888  29.497  28.689  1.00  0.00     0.041 A 
ATOM     81  F   UNL A   1      39.549  29.308  27.043  1.00  0.00    -0.206 F 
ATOM     82  C   UNL A   1      37.503  29.427  30.024  1.00  0.00     0.022 A 
BRANCH  79  83
ATOM     83  S   UNL A   1      37.904  28.942  32.711  1.00  0.00     0.124 S 
ATOM     84  O   UNL A   1      36.615  29.625  32.701  1.00  0.00    -0.237 OA
ATOM     85  O   UNL A   1      37.847  27.486  32.814  1.00  0.00    -0.237 OA
ATOM     86  O   UNL A   1      38.949  29.581  33.505  1.00  0.00    -0.744 OA
ENDBRANCH  79  83
ENDBRANCH  52  76
BRANCH  64  87
ATOM     87  C   UNL A   1      46.146  32.770  28.703  1.00  0.00     0.023 A 
ATOM     88  C   UNL A   1      46.080  33.674  27.626  1.00  0.00     0.031 A 
ATOM     89  C   UNL A   1      46.721  33.203  29.907  1.00  0.00     0.131 A 
ATOM     90  C   UNL A   1      46.627  34.956  27.759  1.00  0.00     0.055 A 
ATOM     91  C   UNL A   1      47.227  34.496  30.049  1.00  0.00     0.041 A 
ATOM     92  F   UNL A   1      46.816  32.371  30.956  1.00  0.00    -0.206 F 
ATOM     93  C   UNL A   1      47.194  35.374  28.968  1.00  0.00     0.022 A 
BRANCH  90  94
ATOM     94  S   UNL A   1      46.695  36.094  26.350  1.00  0.00     0.124 S 
ATOM     95  O   UNL A   1      48.024  36.682  26.497  1.00  0.00    -0.237 OA
ATOM     96  O   UNL A   1      46.534  35.187  25.217  1.00  0.00    -0.237 OA
ATOM     97  O   UNL A   1      45.583  37.011  26.582  1.00  0.00    -0.744 OA
ENDBRANCH  90  94
ENDBRANCH  64  87
ENDBRANCH  38  39
ENDBRANCH  30  33
ENDBRANCH  28  29
ENDBRANCH  27  28
ENDBRANCH   1  27
TORSDOF 18
ENDMDL
MODEL 3
REMARK VINA RESULT:     -11.7      2.065      3.766
REMARK SMILES CCC[C@@H]1CCc2nc3c(F)cccc3c(C(=O)NCCCCCCNC(=O)c3ccc(-c4c5nc(c(-c6cc(S(=O)(=O)[O-])ccc6F)c6ccc([nH]6)c(-c6cc(S(=O)(=O)[O-])ccc6F)c6nc(c(-c7cc(S(=O)(=O)[O-])ccc7F)c7ccc4[nH]7)C=C6)C=C5)cc3)c2C1
REMARK SMILES IDX 23 1 22 2 21 3 20 4 19 5 17 6 18 7 16 9 4 10 5 11 93 12 6 13
REMARK SMILES IDX 92 14 7 15 8 16 15 17 9 18 14 19 10 20 13 21 11 22 12 23
REMARK SMILES IDX 3 24 2 25 1 26 24 27 25 28 26 29 27 30 28 32 29 33 30 34
REMARK SMILES IDX 91 35 31 36 90 37 32 38 33 39 34 40 84 41 35 42 89 43 83 44
REMARK SMILES IDX 85 45 36 46 88 47 82 48 81 49 37 51 69 52 49 53 68 54 50 55
REMARK SMILES IDX 53 56 67 57 86 58 51 59 52 60 66 62 87 63 54 64 38 65 39 66
REMARK SMILES IDX 47 67 40 68 46 69 48 70 45 71 41 72 42 73 43 74 44 75 70 76
REMARK SMILES IDX 71 77 79 78 72 79 78 80 80 81 77 82 73 83 74 84 75 85 76 86
REMARK SMILES IDX 55 87 56 88 64 89 57 90 63 91 65 92 62 93 58 94 59 95 60 96
REMARK SMILES IDX 61 97
REMARK H PARENT 19 8 26 31 85 50 53 61
REMARK Flexibility Score: inf
ROOT
ATOM      1  C   UNL A   1      35.290  31.805  27.810  1.00  0.00     0.002 C 
ENDROOT
BRANCH   1   2
ATOM      2  C   UNL A   1      35.315  30.363  28.321  1.00  0.00     0.002 C 
BRANCH   2   3
ATOM      3  C   UNL A   1      34.778  29.324  27.332  1.00  0.00     0.021 C 
BRANCH   3   4
ATOM      4  C   UNL A   1      33.411  29.674  26.716  1.00  0.00     0.116 C 
BRANCH   4   5
ATOM      5  N   UNL A   1      33.483  29.481  25.277  1.00  0.00    -0.352 N 
ATOM      6  C   UNL A   1      33.513  28.330  24.520  1.00  0.00     0.252 C 
ATOM      7  O   UNL A   1      34.287  28.353  23.562  1.00  0.00    -0.269 OA
ATOM      8  H   UNL A   1      33.516  30.314  24.755  1.00  0.00     0.163 HD
BRANCH   6   9
ATOM      9  C   UNL A   1      32.561  27.172  24.702  1.00  0.00     0.054 A 
ATOM     10  C   UNL A   1      29.431  28.406  22.765  1.00  0.00    -0.006 C 
ATOM     11  C   UNL A   1      28.378  27.666  23.593  1.00  0.00     0.010 C 
ATOM     12  C   UNL A   1      30.698  28.609  23.616  1.00  0.00     0.042 C 
ATOM     13  C   UNL A   1      28.907  26.308  24.027  1.00  0.00     0.057 C 
ATOM     14  C   UNL A   1      31.209  27.358  24.298  1.00  0.00    -0.013 A 
ATOM     15  C   UNL A   1      30.305  26.337  24.588  1.00  0.00     0.045 A 
ATOM     16  N   UNL A   1      30.645  25.240  25.290  1.00  0.00    -0.249 NA
ATOM     17  C   UNL A   1      32.953  25.906  25.222  1.00  0.00     0.016 A 
ATOM     18  C   UNL A   1      31.931  25.017  25.601  1.00  0.00     0.107 A 
ATOM     19  C   UNL A   1      34.283  25.434  25.331  1.00  0.00     0.011 A 
ATOM     20  C   UNL A   1      32.274  23.845  26.280  1.00  0.00     0.149 A 
ATOM     21  C   UNL A   1      34.609  24.254  26.001  1.00  0.00     0.004 A 
ATOM     22  F   UNL A   1      31.305  23.015  26.705  1.00  0.00    -0.205 F 
ATOM     23  C   UNL A   1      33.592  23.474  26.519  1.00  0.00     0.041 A 
BRANCH  10  24
ATOM     24  C   UNL A   1      28.855  29.733  22.228  1.00  0.00     0.003 C 
BRANCH  24  25
ATOM     25  C   UNL A   1      27.804  30.423  23.106  1.00  0.00    -0.003 C 
ATOM     26  C   UNL A   1      27.770  31.938  22.973  1.00  0.00     0.004 C 
ENDBRANCH  24  25
ENDBRANCH  10  24
ENDBRANCH   6   9
ENDBRANCH   4   5
ENDBRANCH   3   4
ENDBRANCH   2   3
ENDBRANCH   1   2
BRANCH   1  27
ATOM     27  C   UNL A   1      33.979  32.556  28.057  1.00  0.00     0.021 C 
BRANCH  27  28
ATOM     28  C   UNL A   1      34.087  34.072  27.911  1.00  0.00     0.116 C 
BRANCH  28  29
ATOM     29  N   UNL A   1      33.453  34.755  29.028  1.00  0.00    -0.352 N 
ATOM     30  C   UNL A   1      33.696  34.582  30.367  1.00  0.00     0.251 C 
ATOM     31  H   UNL A   1      32.766  35.420  28.795  1.00  0.00     0.163 HD
ATOM     32  O   UNL A   1      32.916  35.015  31.210  1.00  0.00    -0.269 OA
BRANCH  30  33
ATOM     33  C   UNL A   1      34.917  33.863  30.774  1.00  0.00     0.039 A 
ATOM     34  C   UNL A   1      36.167  34.369  30.415  1.00  0.00     0.014 A 
ATOM     35  C   UNL A   1      34.808  32.693  31.534  1.00  0.00     0.014 A 
ATOM     36  C   UNL A   1      37.319  33.711  30.846  1.00  0.00     0.010 A 
ATOM     37  C   UNL A   1      35.957  32.072  32.009  1.00  0.00     0.010 A 
ATOM     38  C   UNL A   1      37.221  32.564  31.650  1.00  0.00    -0.014 A 
BRANCH  38  39
ATOM     39  C   UNL A   1      38.433  31.823  32.072  1.00  0.00     0.031 A 
ATOM     40  C   UNL A   1      39.112  32.195  33.359  1.00  0.00     0.074 A 
ATOM     41  C   UNL A   1      38.940  30.856  31.286  1.00  0.00     0.049 A 
ATOM     42  N   UNL A   1      40.179  31.678  33.904  1.00  0.00    -0.248 NA
ATOM     43  C   UNL A   1      38.526  33.310  34.124  1.00  0.00     0.031 C 
ATOM     44  C   UNL A   1      38.389  30.447  29.993  1.00  0.00     0.029 A 
ATOM     45  N   UNL A   1      40.038  30.049  31.452  1.00  0.00    -0.354 N 
ATOM     46  C   UNL A   1      40.394  32.401  35.071  1.00  0.00     0.074 A 
ATOM     47  C   UNL A   1      39.384  33.433  35.125  1.00  0.00     0.031 C 
ATOM     48  C   UNL A   1      39.141  29.453  29.494  1.00  0.00     0.029 A 
ATOM     49  C   UNL A   1      40.239  29.167  30.416  1.00  0.00     0.049 A 
ATOM     50  H   UNL A   1      40.626  30.097  32.240  1.00  0.00     0.167 HD
ATOM     51  C   UNL A   1      41.329  32.200  36.027  1.00  0.00     0.034 A 
ATOM     52  C   UNL A   1      41.192  28.230  30.237  1.00  0.00     0.034 A 
ATOM     53  C   UNL A   1      42.313  31.154  35.973  1.00  0.00     0.049 A 
ATOM     54  C   UNL A   1      42.217  28.014  31.322  1.00  0.00     0.074 A 
ATOM     55  C   UNL A   1      43.272  30.835  36.917  1.00  0.00     0.029 A 
ATOM     56  N   UNL A   1      42.461  30.257  34.926  1.00  0.00    -0.354 N 
ATOM     57  N   UNL A   1      42.349  28.645  32.466  1.00  0.00    -0.248 NA
ATOM     58  C   UNL A   1      43.210  26.952  31.109  1.00  0.00     0.031 C 
ATOM     59  C   UNL A   1      44.027  29.771  36.423  1.00  0.00     0.029 A 
ATOM     60  C   UNL A   1      43.505  29.390  35.196  1.00  0.00     0.049 A 
ATOM     61  H   UNL A   1      41.908  30.239  34.113  1.00  0.00     0.167 HD
ATOM     62  C   UNL A   1      43.411  28.030  33.123  1.00  0.00     0.074 A 
ATOM     63  C   UNL A   1      43.884  26.975  32.252  1.00  0.00     0.031 C 
ATOM     64  C   UNL A   1      43.942  28.316  34.338  1.00  0.00     0.034 A 
BRANCH  51  65
ATOM     65  C   UNL A   1      41.319  33.097  37.235  1.00  0.00     0.023 A 
ATOM     66  C   UNL A   1      40.500  32.789  38.337  1.00  0.00     0.031 A 
ATOM     67  C   UNL A   1      42.034  34.308  37.249  1.00  0.00     0.131 A 
ATOM     68  C   UNL A   1      40.395  33.698  39.396  1.00  0.00     0.055 A 
ATOM     69  C   UNL A   1      41.953  35.193  38.324  1.00  0.00     0.041 A 
ATOM     70  F   UNL A   1      42.831  34.641  36.222  1.00  0.00    -0.206 F 
ATOM     71  C   UNL A   1      41.122  34.893  39.400  1.00  0.00     0.022 A 
BRANCH  68  72
ATOM     72  S   UNL A   1      39.286  33.379  40.794  1.00  0.00     0.124 S 
ATOM     73  O   UNL A   1      39.424  31.934  40.965  1.00  0.00    -0.237 OA
ATOM     74  O   UNL A   1      39.885  34.193  41.847  1.00  0.00    -0.237 OA
ATOM     75  O   UNL A   1      37.981  33.821  40.315  1.00  0.00    -0.744 OA
ENDBRANCH  68  72
ENDBRANCH  51  65
BRANCH  52  76
ATOM     76  C   UNL A   1      41.150  27.375  29.017  1.00  0.00     0.023 A 
ATOM     77  C   UNL A   1      42.075  27.553  27.974  1.00  0.00     0.031 A 
ATOM     78  C   UNL A   1      40.120  26.436  28.838  1.00  0.00     0.131 A 
ATOM     79  C   UNL A   1      41.920  26.837  26.779  1.00  0.00     0.055 A 
ATOM     80  C   UNL A   1      40.004  25.684  27.670  1.00  0.00     0.041 A 
ATOM     81  F   UNL A   1      39.206  26.245  29.802  1.00  0.00    -0.206 F 
ATOM     82  C   UNL A   1      40.902  25.892  26.627  1.00  0.00     0.022 A 
BRANCH  79  83
ATOM     83  S   UNL A   1      42.981  27.179  25.347  1.00  0.00     0.124 S 
ATOM     84  O   UNL A   1      44.243  27.546  25.980  1.00  0.00    -0.237 OA
ATOM     85  O   UNL A   1      42.969  25.890  24.660  1.00  0.00    -0.237 OA
ATOM     86  O   UNL A   1      42.287  28.259  24.654  1.00  0.00    -0.744 OA
ENDBRANCH  79  83
ENDBRANCH  52  76
BRANCH  64  87
ATOM     87  C   UNL A   1      45.078  27.471  34.854  1.00  0.00     0.023 A 
ATOM     88  C   UNL A   1      44.796  26.323  35.619  1.00  0.00     0.031 A 
ATOM     89  C   UNL A   1      46.412  27.896  34.751  1.00  0.00     0.131 A 
ATOM     90  C   UNL A   1      45.831  25.665  36.293  1.00  0.00     0.055 A 
ATOM     91  C   UNL A   1      47.446  27.211  35.390  1.00  0.00     0.041 A 
ATOM     92  F   UNL A   1      46.725  28.992  34.043  1.00  0.00    -0.206 F 
ATOM     93  C   UNL A   1      47.156  26.099  36.177  1.00  0.00     0.022 A 
BRANCH  90  94
ATOM     94  S   UNL A   1      45.486  24.275  37.405  1.00  0.00     0.124 S 
ATOM     95  O   UNL A   1      44.463  24.835  38.285  1.00  0.00    -0.237 OA
ATOM     96  O   UNL A   1      45.018  23.249  36.477  1.00  0.00    -0.237 OA
ATOM     97  O   UNL A   1      46.771  24.006  38.043  1.00  0.00    -0.744 OA
ENDBRANCH  90  94
ENDBRANCH  64  87
ENDBRANCH  38  39
ENDBRANCH  30  33
ENDBRANCH  28  29
ENDBRANCH  27  28
ENDBRANCH   1  27
TORSDOF 18
ENDMDL
