MODEL 1
REMARK VINA RESULT:     -12.0      0.000      0.000
REMARK SMILES O=C(NCCCCCCNC(=O)c1ccccc1-n1ccnn1)c1ccc(-c2c3nc(c(-c4cc(S(=O)(=O)[O-])ccc4F)c4ccc([nH]4)c(-c4cc(S(=O)(=O)[O-])ccc4F)c4nc(c(-c5cc(S(=O)(=O)[O-])ccc5F)c5ccc2[nH]5)C=C4)C=C3)cc1
REMARK SMILES IDX 5 1 4 2 3 3 1 4 2 5 24 7 25 8 86 9 26 10 85 11 27 12 28 13
REMARK SMILES IDX 29 14 79 15 30 16 84 17 78 18 80 19 31 20 83 21 77 22 76 23
REMARK SMILES IDX 32 25 64 26 44 27 63 28 45 29 48 30 62 31 81 32 46 33 47 34
REMARK SMILES IDX 61 36 82 37 49 38 33 39 34 40 42 41 35 42 41 43 43 44 40 45
REMARK SMILES IDX 36 46 37 47 38 48 39 49 65 50 66 51 74 52 67 53 73 54 75 55
REMARK SMILES IDX 72 56 68 57 69 58 70 59 71 60 50 61 51 62 59 63 52 64 58 65
REMARK SMILES IDX 60 66 57 67 53 68 54 69 55 70 56 71 6 72 7 73 8 74 9 75
REMARK SMILES IDX 10 76 11 77 12 79 13 80 14 81 18 82 15 83 17 84 16 85 19 86
REMARK SMILES IDX 20 87 23 88 21 89 22 90
REMARK H PARENT 3 6 80 24 48 35 10 78
REMARK Flexibility Score: inf
ROOT
ATOM      1  C   UNL A   1      33.480  28.914  26.522  1.00  0.00     0.021 C 
ENDROOT
BRANCH   1   2
ATOM      2  C   UNL A   1      34.927  29.092  26.971  1.00  0.00     0.116 C 
BRANCH   2   3
ATOM      3  N   UNL A   1      35.094  29.594  28.318  1.00  0.00    -0.352 N 
ATOM      4  O   UNL A   1      35.931  30.388  30.201  1.00  0.00    -0.269 OA
ATOM      5  C   UNL A   1      36.167  29.807  29.138  1.00  0.00     0.251 C 
ATOM      6  H   UNL A   1      34.239  29.838  28.740  1.00  0.00     0.163 HD
BRANCH   5   7
ATOM      7  C   UNL A   1      37.553  29.338  28.867  1.00  0.00     0.039 A 
ATOM      8  C   UNL A   1      38.317  29.650  27.743  1.00  0.00     0.014 A 
ATOM      9  C   UNL A   1      38.120  28.514  29.859  1.00  0.00     0.014 A 
ATOM     10  C   UNL A   1      39.587  29.096  27.578  1.00  0.00     0.010 A 
ATOM     11  C   UNL A   1      39.391  27.969  29.705  1.00  0.00     0.010 A 
ATOM     12  C   UNL A   1      40.117  28.243  28.550  1.00  0.00    -0.014 A 
BRANCH  12  13
ATOM     13  C   UNL A   1      41.509  27.810  28.418  1.00  0.00     0.031 A 
ATOM     14  C   UNL A   1      41.689  26.514  27.702  1.00  0.00     0.074 A 
ATOM     15  C   UNL A   1      42.576  28.569  28.742  1.00  0.00     0.049 A 
ATOM     16  N   UNL A   1      42.205  25.417  28.148  1.00  0.00    -0.248 NA
ATOM     17  C   UNL A   1      41.123  26.392  26.348  1.00  0.00     0.031 C 
ATOM     18  C   UNL A   1      42.581  29.965  29.181  1.00  0.00     0.029 A 
ATOM     19  N   UNL A   1      43.908  28.276  28.637  1.00  0.00    -0.354 N 
ATOM     20  C   UNL A   1      42.218  24.525  27.077  1.00  0.00     0.074 A 
ATOM     21  C   UNL A   1      41.399  25.121  26.055  1.00  0.00     0.031 C 
ATOM     22  C   UNL A   1      43.837  30.458  29.087  1.00  0.00     0.029 A 
ATOM     23  C   UNL A   1      44.745  29.387  28.702  1.00  0.00     0.049 A 
ATOM     24  H   UNL A   1      44.245  27.358  28.525  1.00  0.00     0.167 HD
ATOM     25  C   UNL A   1      43.065  23.457  27.041  1.00  0.00     0.034 A 
ATOM     26  C   UNL A   1      46.070  29.445  28.396  1.00  0.00     0.034 A 
ATOM     27  C   UNL A   1      43.596  23.167  28.352  1.00  0.00     0.049 A 
ATOM     28  C   UNL A   1      46.603  28.064  28.492  1.00  0.00     0.074 A 
ATOM     29  C   UNL A   1      43.042  22.831  29.572  1.00  0.00     0.029 A 
ATOM     30  N   UNL A   1      44.889  23.546  28.628  1.00  0.00    -0.354 N 
ATOM     31  N   UNL A   1      46.684  27.401  29.613  1.00  0.00    -0.248 NA
ATOM     32  C   UNL A   1      46.617  27.245  27.289  1.00  0.00     0.031 C 
ATOM     33  C   UNL A   1      43.840  23.517  30.534  1.00  0.00     0.029 A 
ATOM     34  C   UNL A   1      44.870  24.167  29.851  1.00  0.00     0.049 A 
ATOM     35  H   UNL A   1      45.678  23.401  28.057  1.00  0.00     0.167 HD
ATOM     36  C   UNL A   1      46.312  26.107  29.289  1.00  0.00     0.074 A 
ATOM     37  C   UNL A   1      46.382  26.047  27.830  1.00  0.00     0.031 C 
ATOM     38  C   UNL A   1      45.716  25.288  30.207  1.00  0.00     0.034 A 
BRANCH  25  39
ATOM     39  C   UNL A   1      43.685  22.875  25.789  1.00  0.00     0.023 A 
ATOM     40  C   UNL A   1      43.755  21.470  25.694  1.00  0.00     0.031 A 
ATOM     41  C   UNL A   1      44.466  23.591  24.856  1.00  0.00     0.131 A 
ATOM     42  C   UNL A   1      44.643  20.847  24.799  1.00  0.00     0.055 A 
ATOM     43  C   UNL A   1      45.292  22.966  23.917  1.00  0.00     0.041 A 
ATOM     44  F   UNL A   1      44.553  24.927  24.861  1.00  0.00    -0.206 F 
ATOM     45  C   UNL A   1      45.413  21.587  23.907  1.00  0.00     0.022 A 
BRANCH  42  46
ATOM     46  S   UNL A   1      44.918  19.063  24.961  1.00  0.00     0.124 S 
ATOM     47  O   UNL A   1      43.818  18.675  25.836  1.00  0.00    -0.237 OA
ATOM     48  O   UNL A   1      44.826  18.619  23.574  1.00  0.00    -0.237 OA
ATOM     49  O   UNL A   1      46.249  18.977  25.556  1.00  0.00    -0.744 OA
ENDBRANCH  42  46
ENDBRANCH  25  39
BRANCH  26  50
ATOM     50  C   UNL A   1      46.799  30.560  27.724  1.00  0.00     0.023 A 
ATOM     51  C   UNL A   1      46.151  31.678  27.153  1.00  0.00     0.031 A 
ATOM     52  C   UNL A   1      48.204  30.646  27.855  1.00  0.00     0.131 A 
ATOM     53  C   UNL A   1      46.904  32.806  26.740  1.00  0.00     0.055 A 
ATOM     54  C   UNL A   1      48.941  31.757  27.441  1.00  0.00     0.041 A 
ATOM     55  F   UNL A   1      48.905  29.684  28.475  1.00  0.00    -0.206 F 
ATOM     56  C   UNL A   1      48.292  32.847  26.888  1.00  0.00     0.022 A 
BRANCH  53  57
ATOM     57  S   UNL A   1      46.074  34.293  26.083  1.00  0.00     0.124 S 
ATOM     58  O   UNL A   1      46.236  35.247  27.175  1.00  0.00    -0.237 OA
ATOM     59  O   UNL A   1      46.830  34.563  24.865  1.00  0.00    -0.237 OA
ATOM     60  O   UNL A   1      44.698  33.847  25.859  1.00  0.00    -0.744 OA
ENDBRANCH  53  57
ENDBRANCH  26  50
BRANCH  38  61
ATOM     61  C   UNL A   1      45.742  25.689  31.666  1.00  0.00     0.023 A 
ATOM     62  C   UNL A   1      46.809  25.436  32.557  1.00  0.00     0.031 A 
ATOM     63  C   UNL A   1      44.677  26.483  32.133  1.00  0.00     0.131 A 
ATOM     64  C   UNL A   1      46.776  25.963  33.864  1.00  0.00     0.055 A 
ATOM     65  C   UNL A   1      44.660  27.021  33.418  1.00  0.00     0.041 A 
ATOM     66  F   UNL A   1      43.647  26.782  31.325  1.00  0.00    -0.206 F 
ATOM     67  C   UNL A   1      45.708  26.759  34.291  1.00  0.00     0.022 A 
BRANCH  64  68
ATOM     68  S   UNL A   1      48.121  25.612  35.043  1.00  0.00     0.124 S 
ATOM     69  O   UNL A   1      47.472  24.812  36.074  1.00  0.00    -0.237 OA
ATOM     70  O   UNL A   1      49.098  24.913  34.211  1.00  0.00    -0.237 OA
ATOM     71  O   UNL A   1      48.544  26.944  35.481  1.00  0.00    -0.744 OA
ENDBRANCH  64  68
ENDBRANCH  38  61
ENDBRANCH  12  13
ENDBRANCH   5   7
ENDBRANCH   2   3
ENDBRANCH   1   2
BRANCH   1  72
ATOM     72  C   UNL A   1      32.848  27.556  26.852  1.00  0.00     0.002 C 
BRANCH  72  73
ATOM     73  C   UNL A   1      31.319  27.473  26.772  1.00  0.00     0.002 C 
BRANCH  73  74
ATOM     74  C   UNL A   1      30.733  26.719  25.574  1.00  0.00     0.021 C 
BRANCH  74  75
ATOM     75  C   UNL A   1      30.196  25.323  25.874  1.00  0.00     0.116 C 
BRANCH  75  76
ATOM     76  N   UNL A   1      30.296  24.419  24.738  1.00  0.00    -0.352 N 
ATOM     77  C   UNL A   1      31.372  23.694  24.292  1.00  0.00     0.253 C 
ATOM     78  H   UNL A   1      29.471  24.311  24.211  1.00  0.00     0.163 HD
ATOM     79  O   UNL A   1      31.279  22.988  23.289  1.00  0.00    -0.269 OA
BRANCH  77  80
ATOM     80  C   UNL A   1      32.677  23.787  24.981  1.00  0.00     0.065 A 
ATOM     81  C   UNL A   1      32.813  22.979  26.124  1.00  0.00     0.016 A 
ATOM     82  C   UNL A   1      33.774  24.531  24.524  1.00  0.00     0.079 A 
ATOM     83  C   UNL A   1      34.042  22.871  26.775  1.00  0.00     0.001 A 
ATOM     84  C   UNL A   1      35.021  24.376  25.159  1.00  0.00     0.029 A 
ATOM     85  C   UNL A   1      35.149  23.556  26.281  1.00  0.00     0.002 A 
BRANCH  82  86
ATOM     86  N   UNL A   1      33.690  25.430  23.435  1.00  0.00    -0.220 N 
ATOM     87  C   UNL A   1      33.488  26.790  23.421  1.00  0.00     0.137 A 
ATOM     88  N   UNL A   1      33.772  24.975  22.162  1.00  0.00    -0.062 NA
ATOM     89  C   UNL A   1      33.333  27.104  22.093  1.00  0.00     0.157 A 
ATOM     90  N   UNL A   1      33.493  25.978  21.343  1.00  0.00    -0.139 NA
ENDBRANCH  82  86
ENDBRANCH  77  80
ENDBRANCH  75  76
ENDBRANCH  74  75
ENDBRANCH  73  74
ENDBRANCH  72  73
ENDBRANCH   1  72
TORSDOF 17
ENDMDL
MODEL 2
REMARK VINA RESULT:     -11.9      2.671      7.445
REMARK SMILES O=C(NCCCCCCNC(=O)c1ccccc1-n1ccnn1)c1ccc(-c2c3nc(c(-c4cc(S(=O)(=O)[O-])ccc4F)c4ccc([nH]4)c(-c4cc(S(=O)(=O)[O-])ccc4F)c4nc(c(-c5cc(S(=O)(=O)[O-])ccc5F)c5ccc2[nH]5)C=C4)C=C3)cc1
REMARK SMILES IDX 5 1 4 2 3 3 1 4 2 5 24 7 25 8 86 9 26 10 85 11 27 12 28 13
REMARK SMILES IDX 29 14 79 15 30 16 84 17 78 18 80 19 31 20 83 21 77 22 76 23
REMARK SMILES IDX 32 25 64 26 44 27 63 28 45 29 48 30 62 31 81 32 46 33 47 34
REMARK SMILES IDX 61 36 82 37 49 38 33 39 34 40 42 41 35 42 41 43 43 44 40 45
REMARK SMILES IDX 36 46 37 47 38 48 39 49 65 50 66 51 74 52 67 53 73 54 75 55
REMARK SMILES IDX 72 56 68 57 69 58 70 59 71 60 50 61 51 62 59 63 52 64 58 65
REMARK SMILES IDX 60 66 57 67 53 68 54 69 55 70 56 71 6 72 7 73 8 74 9 75
REMARK SMILES IDX 10 76 11 77 12 79 13 80 14 81 18 82 15 83 17 84 16 85 19 86
REMARK SMILES IDX 20 87 23 88 21 89 22 90
REMARK H PARENT 3 6 80 24 48 35 10 78
REMARK Flexibility Score: inf
ROOT
ATOM      1  C   UNL A   1      32.074  30.018  26.442  1.00  0.00     0.021 C 
ENDROOT
BRANCH   1   2
ATOM      2  C   UNL A   1      33.524  30.418  26.701  1.00  0.00     0.116 C 
BRANCH   2   3
ATOM      3  N   UNL A   1      33.702  31.490  27.657  1.00  0.00    -0.352 N 
ATOM      4  O   UNL A   1      34.557  32.959  29.067  1.00  0.00    -0.269 OA
ATOM      5  C   UNL A   1      34.726  31.892  28.470  1.00  0.00     0.251 C 
ATOM      6  H   UNL A   1      32.904  32.060  27.742  1.00  0.00     0.163 HD
BRANCH   5   7
ATOM      7  C   UNL A   1      35.968  31.115  28.724  1.00  0.00     0.039 A 
ATOM      8  C   UNL A   1      36.090  29.726  28.665  1.00  0.00     0.014 A 
ATOM      9  C   UNL A   1      37.109  31.878  29.041  1.00  0.00     0.014 A 
ATOM     10  C   UNL A   1      37.301  29.111  28.984  1.00  0.00     0.010 A 
ATOM     11  C   UNL A   1      38.322  31.269  29.348  1.00  0.00     0.010 A 
ATOM     12  C   UNL A   1      38.412  29.881  29.342  1.00  0.00    -0.014 A 
BRANCH  12  13
ATOM     13  C   UNL A   1      39.702  29.211  29.514  1.00  0.00     0.031 A 
ATOM     14  C   UNL A   1      40.125  29.039  30.934  1.00  0.00     0.074 A 
ATOM     15  C   UNL A   1      40.396  28.626  28.516  1.00  0.00     0.049 A 
ATOM     16  N   UNL A   1      41.173  29.516  31.521  1.00  0.00    -0.248 NA
ATOM     17  C   UNL A   1      39.206  28.336  31.845  1.00  0.00     0.031 C 
ATOM     18  C   UNL A   1      39.983  28.451  27.123  1.00  0.00     0.029 A 
ATOM     19  N   UNL A   1      41.587  27.958  28.569  1.00  0.00    -0.354 N 
ATOM     20  C   UNL A   1      41.159  29.010  32.820  1.00  0.00     0.074 A 
ATOM     21  C   UNL A   1      39.855  28.431  33.006  1.00  0.00     0.031 C 
ATOM     22  C   UNL A   1      40.791  27.543  26.529  1.00  0.00     0.029 A 
ATOM     23  C   UNL A   1      41.849  27.165  27.455  1.00  0.00     0.049 A 
ATOM     24  H   UNL A   1      42.207  28.031  29.330  1.00  0.00     0.167 HD
ATOM     25  C   UNL A   1      42.293  28.931  33.572  1.00  0.00     0.034 A 
ATOM     26  C   UNL A   1      42.816  26.216  27.321  1.00  0.00     0.034 A 
ATOM     27  C   UNL A   1      43.337  29.770  33.034  1.00  0.00     0.049 A 
ATOM     28  C   UNL A   1      43.867  26.517  28.323  1.00  0.00     0.074 A 
ATOM     29  C   UNL A   1      43.463  31.122  32.781  1.00  0.00     0.029 A 
ATOM     30  N   UNL A   1      44.359  29.169  32.336  1.00  0.00    -0.354 N 
ATOM     31  N   UNL A   1      44.621  27.581  28.278  1.00  0.00    -0.248 NA
ATOM     32  C   UNL A   1      43.775  25.882  29.630  1.00  0.00     0.031 C 
ATOM     33  C   UNL A   1      44.197  31.196  31.561  1.00  0.00     0.029 A 
ATOM     34  C   UNL A   1      44.536  29.895  31.185  1.00  0.00     0.049 A 
ATOM     35  H   UNL A   1      44.866  28.370  32.608  1.00  0.00     0.167 HD
ATOM     36  C   UNL A   1      44.727  27.999  29.595  1.00  0.00     0.074 A 
ATOM     37  C   UNL A   1      44.274  26.860  30.391  1.00  0.00     0.031 C 
ATOM     38  C   UNL A   1      44.907  29.317  29.909  1.00  0.00     0.034 A 
BRANCH  25  39
ATOM     39  C   UNL A   1      42.591  27.855  34.595  1.00  0.00     0.023 A 
ATOM     40  C   UNL A   1      43.341  26.741  34.164  1.00  0.00     0.031 A 
ATOM     41  C   UNL A   1      41.943  27.711  35.841  1.00  0.00     0.131 A 
ATOM     42  C   UNL A   1      43.331  25.536  34.887  1.00  0.00     0.055 A 
ATOM     43  C   UNL A   1      41.997  26.534  36.594  1.00  0.00     0.041 A 
ATOM     44  F   UNL A   1      41.145  28.655  36.354  1.00  0.00    -0.206 F 
ATOM     45  C   UNL A   1      42.663  25.425  36.103  1.00  0.00     0.022 A 
BRANCH  42  46
ATOM     46  S   UNL A   1      44.041  24.060  34.111  1.00  0.00     0.124 S 
ATOM     47  O   UNL A   1      45.256  23.872  34.897  1.00  0.00    -0.237 OA
ATOM     48  O   UNL A   1      42.983  23.076  34.314  1.00  0.00    -0.237 OA
ATOM     49  O   UNL A   1      44.252  24.474  32.726  1.00  0.00    -0.744 OA
ENDBRANCH  42  46
ENDBRANCH  25  39
BRANCH  26  50
ATOM     50  C   UNL A   1      42.715  24.910  26.607  1.00  0.00     0.023 A 
ATOM     51  C   UNL A   1      43.670  24.465  25.665  1.00  0.00     0.031 A 
ATOM     52  C   UNL A   1      41.767  23.956  27.041  1.00  0.00     0.131 A 
ATOM     53  C   UNL A   1      43.643  23.127  25.197  1.00  0.00     0.055 A 
ATOM     54  C   UNL A   1      41.742  22.641  26.573  1.00  0.00     0.041 A 
ATOM     55  F   UNL A   1      40.881  24.244  28.007  1.00  0.00    -0.206 F 
ATOM     56  C   UNL A   1      42.686  22.218  25.653  1.00  0.00     0.022 A 
BRANCH  53  57
ATOM     57  S   UNL A   1      44.921  22.512  24.049  1.00  0.00     0.124 S 
ATOM     58  O   UNL A   1      45.344  21.272  24.690  1.00  0.00    -0.237 OA
ATOM     59  O   UNL A   1      44.183  22.380  22.798  1.00  0.00    -0.237 OA
ATOM     60  O   UNL A   1      45.926  23.578  24.054  1.00  0.00    -0.744 OA
ENDBRANCH  53  57
ENDBRANCH  26  50
BRANCH  38  61
ATOM     61  C   UNL A   1      45.298  30.282  28.810  1.00  0.00     0.023 A 
ATOM     62  C   UNL A   1      46.623  30.671  28.508  1.00  0.00     0.031 A 
ATOM     63  C   UNL A   1      44.277  30.722  27.948  1.00  0.00     0.131 A 
ATOM     64  C   UNL A   1      46.880  31.481  27.384  1.00  0.00     0.055 A 
ATOM     65  C   UNL A   1      44.539  31.503  26.824  1.00  0.00     0.041 A 
ATOM     66  F   UNL A   1      43.001  30.362  28.165  1.00  0.00    -0.206 F 
ATOM     67  C   UNL A   1      45.842  31.890  26.541  1.00  0.00     0.022 A 
BRANCH  64  68
ATOM     68  S   UNL A   1      48.576  32.031  27.002  1.00  0.00     0.124 S 
ATOM     69  O   UNL A   1      49.085  32.489  28.288  1.00  0.00    -0.237 OA
ATOM     70  O   UNL A   1      49.190  30.819  26.465  1.00  0.00    -0.237 OA
ATOM     71  O   UNL A   1      48.373  33.094  26.015  1.00  0.00    -0.744 OA
ENDBRANCH  64  68
ENDBRANCH  38  61
ENDBRANCH  12  13
ENDBRANCH   5   7
ENDBRANCH   2   3
ENDBRANCH   1   2
BRANCH   1  72
ATOM     72  C   UNL A   1      31.823  28.514  26.283  1.00  0.00     0.002 C 
BRANCH  72  73
ATOM     73  C   UNL A   1      33.009  27.586  26.570  1.00  0.00     0.002 C 
BRANCH  73  74
ATOM     74  C   UNL A   1      33.673  26.925  25.357  1.00  0.00     0.021 C 
BRANCH  74  75
ATOM     75  C   UNL A   1      33.700  27.763  24.083  1.00  0.00     0.116 C 
BRANCH  75  76
ATOM     76  N   UNL A   1      33.512  26.970  22.877  1.00  0.00    -0.352 N 
ATOM     77  C   UNL A   1      32.350  26.603  22.246  1.00  0.00     0.253 C 
ATOM     78  H   UNL A   1      34.340  26.650  22.450  1.00  0.00     0.163 HD
ATOM     79  O   UNL A   1      32.381  25.904  21.234  1.00  0.00    -0.269 OA
BRANCH  77  80
ATOM     80  C   UNL A   1      31.038  27.000  22.800  1.00  0.00     0.065 A 
ATOM     81  C   UNL A   1      30.579  28.271  22.408  1.00  0.00     0.016 A 
ATOM     82  C   UNL A   1      30.217  26.178  23.583  1.00  0.00     0.079 A 
ATOM     83  C   UNL A   1      29.295  28.697  22.747  1.00  0.00     0.001 A 
ATOM     84  C   UNL A   1      28.906  26.598  23.877  1.00  0.00     0.029 A 
ATOM     85  C   UNL A   1      28.453  27.853  23.466  1.00  0.00     0.002 A 
BRANCH  82  86
ATOM     86  N   UNL A   1      30.641  24.926  24.086  1.00  0.00    -0.220 N 
ATOM     87  C   UNL A   1      31.068  24.574  25.345  1.00  0.00     0.137 A 
ATOM     88  N   UNL A   1      30.711  23.847  23.270  1.00  0.00    -0.062 NA
ATOM     89  C   UNL A   1      31.506  23.279  25.213  1.00  0.00     0.157 A 
ATOM     90  N   UNL A   1      31.295  22.860  23.935  1.00  0.00    -0.139 NA
ENDBRANCH  82  86
ENDBRANCH  77  80
ENDBRANCH  75  76
ENDBRANCH  74  75
ENDBRANCH  73  74
ENDBRANCH  72  73
ENDBRANCH   1  72
TORSDOF 17
ENDMDL
MODEL 3
REMARK VINA RESULT:     -11.9      2.492      7.395
REMARK SMILES O=C(NCCCCCCNC(=O)c1ccccc1-n1ccnn1)c1ccc(-c2c3nc(c(-c4cc(S(=O)(=O)[O-])ccc4F)c4ccc([nH]4)c(-c4cc(S(=O)(=O)[O-])ccc4F)c4nc(c(-c5cc(S(=O)(=O)[O-])ccc5F)c5ccc2[nH]5)C=C4)C=C3)cc1
REMARK SMILES IDX 5 1 4 2 3 3 1 4 2 5 24 7 25 8 86 9 26 10 85 11 27 12 28 13
REMARK SMILES IDX 29 14 79 15 30 16 84 17 78 18 80 19 31 20 83 21 77 22 76 23
REMARK SMILES IDX 32 25 64 26 44 27 63 28 45 29 48 30 62 31 81 32 46 33 47 34
REMARK SMILES IDX 61 36 82 37 49 38 33 39 34 40 42 41 35 42 41 43 43 44 40 45
REMARK SMILES IDX 36 46 37 47 38 48 39 49 65 50 66 51 74 52 67 53 73 54 75 55
REMARK SMILES IDX 72 56 68 57 69 58 70 59 71 60 50 61 51 62 59 63 52 64 58 65
REMARK SMILES IDX 60 66 57 67 53 68 54 69 55 70 56 71 6 72 7 73 8 74 9 75
REMARK SMILES IDX 10 76 11 77 12 79 13 80 14 81 18 82 15 83 17 84 16 85 19 86
REMARK SMILES IDX 20 87 23 88 21 89 22 90
REMARK H PARENT 3 6 80 24 48 35 10 78
REMARK Flexibility Score: inf
ROOT
ATOM      1  C   UNL A   1      32.234  29.709  27.036  1.00  0.00     0.021 C 
ENDROOT
BRANCH   1   2
ATOM      2  C   UNL A   1      33.743  29.936  27.038  1.00  0.00     0.116 C 
BRANCH   2   3
ATOM      3  N   UNL A   1      34.167  31.233  27.522  1.00  0.00    -0.352 N 
ATOM      4  O   UNL A   1      35.364  32.964  28.191  1.00  0.00    -0.269 OA
ATOM      5  C   UNL A   1      35.345  31.747  27.989  1.00  0.00     0.251 C 
ATOM      6  H   UNL A   1      33.440  31.897  27.514  1.00  0.00     0.163 HD
BRANCH   5   7
ATOM      7  C   UNL A   1      36.553  30.944  28.321  1.00  0.00     0.039 A 
ATOM      8  C   UNL A   1      36.691  29.566  28.148  1.00  0.00     0.014 A 
ATOM      9  C   UNL A   1      37.639  31.670  28.846  1.00  0.00     0.014 A 
ATOM     10  C   UNL A   1      37.858  28.919  28.556  1.00  0.00     0.010 A 
ATOM     11  C   UNL A   1      38.810  31.030  29.243  1.00  0.00     0.010 A 
ATOM     12  C   UNL A   1      38.910  29.648  29.119  1.00  0.00    -0.014 A 
BRANCH  12  13
ATOM     13  C   UNL A   1      40.175  28.960  29.386  1.00  0.00     0.031 A 
ATOM     14  C   UNL A   1      40.496  28.796  30.834  1.00  0.00     0.074 A 
ATOM     15  C   UNL A   1      40.926  28.354  28.444  1.00  0.00     0.049 A 
ATOM     16  N   UNL A   1      41.508  29.262  31.487  1.00  0.00    -0.248 NA
ATOM     17  C   UNL A   1      39.505  28.117  31.685  1.00  0.00     0.031 C 
ATOM     18  C   UNL A   1      40.607  28.171  27.027  1.00  0.00     0.029 A 
ATOM     19  N   UNL A   1      42.100  27.668  28.586  1.00  0.00    -0.354 N 
ATOM     20  C   UNL A   1      41.397  28.770  32.786  1.00  0.00     0.074 A 
ATOM     21  C   UNL A   1      40.073  28.214  32.888  1.00  0.00     0.031 C 
ATOM     22  C   UNL A   1      41.440  27.244  26.499  1.00  0.00     0.029 A 
ATOM     23  C   UNL A   1      42.424  26.859  27.499  1.00  0.00     0.049 A 
ATOM     24  H   UNL A   1      42.667  27.739  29.387  1.00  0.00     0.167 HD
ATOM     25  C   UNL A   1      42.474  28.682  33.617  1.00  0.00     0.034 A 
ATOM     26  C   UNL A   1      43.383  25.894  27.442  1.00  0.00     0.034 A 
ATOM     27  C   UNL A   1      43.566  29.498  33.144  1.00  0.00     0.049 A 
ATOM     28  C   UNL A   1      44.367  26.189  28.512  1.00  0.00     0.074 A 
ATOM     29  C   UNL A   1      43.732  30.846  32.888  1.00  0.00     0.029 A 
ATOM     30  N   UNL A   1      44.624  28.874  32.524  1.00  0.00    -0.354 N 
ATOM     31  N   UNL A   1      45.139  27.241  28.509  1.00  0.00    -0.248 NA
ATOM     32  C   UNL A   1      44.174  25.569  29.815  1.00  0.00     0.031 C 
ATOM     33  C   UNL A   1      44.549  30.896  31.721  1.00  0.00     0.029 A 
ATOM     34  C   UNL A   1      44.892  29.585  31.381  1.00  0.00     0.049 A 
ATOM     35  H   UNL A   1      45.098  28.071  32.838  1.00  0.00     0.167 HD
ATOM     36  C   UNL A   1      45.162  27.671  29.826  1.00  0.00     0.074 A 
ATOM     37  C   UNL A   1      44.636  26.547  30.599  1.00  0.00     0.031 C 
ATOM     38  C   UNL A   1      45.341  28.989  30.139  1.00  0.00     0.034 A 
BRANCH  25  39
ATOM     39  C   UNL A   1      42.683  27.612  34.667  1.00  0.00     0.023 A 
ATOM     40  C   UNL A   1      43.488  26.508  34.317  1.00  0.00     0.031 A 
ATOM     41  C   UNL A   1      41.916  27.461  35.842  1.00  0.00     0.131 A 
ATOM     42  C   UNL A   1      43.422  25.304  35.039  1.00  0.00     0.055 A 
ATOM     43  C   UNL A   1      41.910  26.286  36.601  1.00  0.00     0.041 A 
ATOM     44  F   UNL A   1      41.057  28.394  36.270  1.00  0.00    -0.206 F 
ATOM     45  C   UNL A   1      42.638  25.185  36.182  1.00  0.00     0.022 A 
BRANCH  42  46
ATOM     46  S   UNL A   1      44.228  23.837  34.344  1.00  0.00     0.124 S 
ATOM     47  O   UNL A   1      43.649  22.772  35.155  1.00  0.00    -0.237 OA
ATOM     48  O   UNL A   1      43.800  23.892  32.950  1.00  0.00    -0.237 OA
ATOM     49  O   UNL A   1      45.649  24.092  34.570  1.00  0.00    -0.744 OA
ENDBRANCH  42  46
ENDBRANCH  25  39
BRANCH  26  50
ATOM     50  C   UNL A   1      43.311  24.582  26.735  1.00  0.00     0.023 A 
ATOM     51  C   UNL A   1      42.392  23.565  27.079  1.00  0.00     0.031 A 
ATOM     52  C   UNL A   1      44.013  24.411  25.520  1.00  0.00     0.131 A 
ATOM     53  C   UNL A   1      42.216  22.444  26.229  1.00  0.00     0.055 A 
ATOM     54  C   UNL A   1      43.839  23.303  24.690  1.00  0.00     0.041 A 
ATOM     55  F   UNL A   1      44.832  25.365  25.050  1.00  0.00    -0.206 F 
ATOM     56  C   UNL A   1      42.933  22.316  25.038  1.00  0.00     0.022 A 
BRANCH  53  57
ATOM     57  S   UNL A   1      40.971  21.166  26.614  1.00  0.00     0.124 S 
ATOM     58  O   UNL A   1      41.619  19.948  26.140  1.00  0.00    -0.237 OA
ATOM     59  O   UNL A   1      40.816  21.302  28.057  1.00  0.00    -0.237 OA
ATOM     60  O   UNL A   1      39.803  21.581  25.834  1.00  0.00    -0.744 OA
ENDBRANCH  53  57
ENDBRANCH  26  50
BRANCH  38  61
ATOM     61  C   UNL A   1      45.823  29.936  29.061  1.00  0.00     0.023 A 
ATOM     62  C   UNL A   1      44.985  30.739  28.255  1.00  0.00     0.031 A 
ATOM     63  C   UNL A   1      47.213  30.120  28.943  1.00  0.00     0.131 A 
ATOM     64  C   UNL A   1      45.550  31.675  27.365  1.00  0.00     0.055 A 
ATOM     65  C   UNL A   1      47.766  31.063  28.080  1.00  0.00     0.041 A 
ATOM     66  F   UNL A   1      48.061  29.407  29.702  1.00  0.00    -0.206 F 
ATOM     67  C   UNL A   1      46.936  31.840  27.282  1.00  0.00     0.022 A 
BRANCH  64  68
ATOM     68  S   UNL A   1      44.489  32.688  26.284  1.00  0.00     0.124 S 
ATOM     69  O   UNL A   1      45.428  33.279  25.339  1.00  0.00    -0.237 OA
ATOM     70  O   UNL A   1      43.562  31.702  25.734  1.00  0.00    -0.237 OA
ATOM     71  O   UNL A   1      43.876  33.643  27.210  1.00  0.00    -0.744 OA
ENDBRANCH  64  68
ENDBRANCH  38  61
ENDBRANCH  12  13
ENDBRANCH   5   7
ENDBRANCH   2   3
ENDBRANCH   1   2
BRANCH   1  72
ATOM     72  C   UNL A   1      31.781  28.279  27.356  1.00  0.00     0.002 C 
BRANCH  72  73
ATOM     73  C   UNL A   1      32.249  27.180  26.395  1.00  0.00     0.002 C 
BRANCH  73  74
ATOM     74  C   UNL A   1      31.400  25.905  26.344  1.00  0.00     0.021 C 
BRANCH  74  75
ATOM     75  C   UNL A   1      32.182  24.596  26.309  1.00  0.00     0.116 C 
BRANCH  75  76
ATOM     76  N   UNL A   1      33.554  24.766  25.853  1.00  0.00    -0.352 N 
ATOM     77  C   UNL A   1      34.267  24.032  24.939  1.00  0.00     0.253 C 
ATOM     78  H   UNL A   1      34.044  25.517  26.261  1.00  0.00     0.163 HD
ATOM     79  O   UNL A   1      35.439  24.311  24.690  1.00  0.00    -0.269 OA
BRANCH  77  80
ATOM     80  C   UNL A   1      33.654  22.863  24.274  1.00  0.00     0.065 A 
ATOM     81  C   UNL A   1      33.843  21.631  24.925  1.00  0.00     0.016 A 
ATOM     82  C   UNL A   1      32.848  22.924  23.128  1.00  0.00     0.079 A 
ATOM     83  C   UNL A   1      33.194  20.482  24.473  1.00  0.00     0.001 A 
ATOM     84  C   UNL A   1      32.160  21.769  22.710  1.00  0.00     0.029 A 
ATOM     85  C   UNL A   1      32.340  20.556  23.377  1.00  0.00     0.002 A 
BRANCH  82  86
ATOM     86  N   UNL A   1      32.681  24.107  22.371  1.00  0.00    -0.220 N 
ATOM     87  C   UNL A   1      31.846  25.180  22.575  1.00  0.00     0.137 A 
ATOM     88  N   UNL A   1      33.379  24.293  21.225  1.00  0.00    -0.062 NA
ATOM     89  C   UNL A   1      31.988  25.950  21.446  1.00  0.00     0.157 A 
ATOM     90  N   UNL A   1      32.915  25.381  20.627  1.00  0.00    -0.139 NA
ENDBRANCH  82  86
ENDBRANCH  77  80
ENDBRANCH  75  76
ENDBRANCH  74  75
ENDBRANCH  73  74
ENDBRANCH  72  73
ENDBRANCH   1  72
TORSDOF 17
ENDMDL
