MODEL 1
REMARK VINA RESULT:     -11.7      0.000      0.000
REMARK SMILES O=C(NCCCCCCNC(=O)[C@@H]1CCCC[C@@H]1C(=O)Nc1cccc(C(F)(F)F)c1)c1ccc(-c2c3nc(c(-c4cc(S(=O)(=O)[O-])ccc4F)c4ccc([nH]4)c(-c4cc(S(=O)(=O)[O-])ccc4F)c4nc(c(-c5cc(S(=O)(=O)[O-])ccc5F)c5ccc2[nH]5)C=C4)C=C3)cc1
REMARK SMILES IDX 6 1 5 2 4 3 3 4 1 5 2 6 32 8 33 9 94 10 34 11 93 12 35 13
REMARK SMILES IDX 36 14 37 15 87 16 38 17 92 18 86 19 88 20 39 21 91 22 85 23
REMARK SMILES IDX 84 24 40 26 72 27 52 28 71 29 53 30 56 31 70 32 89 33 54 34
REMARK SMILES IDX 55 35 69 37 90 38 57 39 41 40 42 41 50 42 43 43 49 44 51 45
REMARK SMILES IDX 48 46 44 47 45 48 46 49 47 50 73 51 74 52 82 53 75 54 81 55
REMARK SMILES IDX 83 56 80 57 76 58 77 59 78 60 79 61 58 62 59 63 67 64 60 65
REMARK SMILES IDX 66 66 68 67 65 68 61 69 62 70 63 71 64 72 7 73 8 74 9 75
REMARK SMILES IDX 10 76 11 77 12 79 13 80 14 81 18 82 15 83 17 84 16 85 19 86
REMARK SMILES IDX 20 87 21 88 22 90 23 91 31 92 24 93 26 94 25 95 27 96 28 97
REMARK SMILES IDX 29 98 30 99
REMARK H PARENT 3 7 88 25 56 36 10 78 21 89
REMARK Flexibility Score: inf
ROOT
ATOM      1  C   UNL A   1      32.307  28.127  27.237  1.00  0.00     0.002 C 
ENDROOT
BRANCH   1   2
ATOM      2  C   UNL A   1      31.667  29.456  26.841  1.00  0.00     0.021 C 
BRANCH   2   3
ATOM      3  C   UNL A   1      32.590  30.455  26.162  1.00  0.00     0.116 C 
BRANCH   3   4
ATOM      4  N   UNL A   1      32.291  31.835  26.496  1.00  0.00    -0.352 N 
ATOM      5  O   UNL A   1      32.557  33.785  27.609  1.00  0.00    -0.269 OA
ATOM      6  C   UNL A   1      32.985  32.669  27.345  1.00  0.00     0.251 C 
ATOM      7  H   UNL A   1      31.496  32.223  26.064  1.00  0.00     0.163 HD
BRANCH   6   8
ATOM      8  C   UNL A   1      34.241  32.180  27.958  1.00  0.00     0.039 A 
ATOM      9  C   UNL A   1      34.298  30.908  28.534  1.00  0.00     0.014 A 
ATOM     10  C   UNL A   1      35.357  33.020  27.994  1.00  0.00     0.014 A 
ATOM     11  C   UNL A   1      35.419  30.533  29.264  1.00  0.00     0.010 A 
ATOM     12  C   UNL A   1      36.518  32.602  28.654  1.00  0.00     0.010 A 
ATOM     13  C   UNL A   1      36.550  31.366  29.317  1.00  0.00    -0.014 A 
BRANCH  13  14
ATOM     14  C   UNL A   1      37.769  30.880  30.013  1.00  0.00     0.031 A 
ATOM     15  C   UNL A   1      38.096  31.308  31.418  1.00  0.00     0.074 A 
ATOM     16  C   UNL A   1      38.563  30.002  29.367  1.00  0.00     0.049 A 
ATOM     17  N   UNL A   1      39.106  30.953  32.172  1.00  0.00    -0.248 NA
ATOM     18  C   UNL A   1      37.179  32.263  32.055  1.00  0.00     0.031 C 
ATOM     19  C   UNL A   1      38.346  29.531  27.995  1.00  0.00     0.029 A 
ATOM     20  N   UNL A   1      39.687  29.332  29.773  1.00  0.00    -0.354 N 
ATOM     21  C   UNL A   1      38.953  31.643  33.370  1.00  0.00     0.074 A 
ATOM     22  C   UNL A   1      37.770  32.468  33.224  1.00  0.00     0.031 C 
ATOM     23  C   UNL A   1      39.275  28.613  27.694  1.00  0.00     0.029 A 
ATOM     24  C   UNL A   1      40.193  28.480  28.819  1.00  0.00     0.049 A 
ATOM     25  H   UNL A   1      40.094  29.449  30.662  1.00  0.00     0.167 HD
ATOM     26  C   UNL A   1      39.723  31.585  34.486  1.00  0.00     0.034 A 
ATOM     27  C   UNL A   1      41.283  27.691  28.836  1.00  0.00     0.034 A 
ATOM     28  C   UNL A   1      40.905  30.762  34.608  1.00  0.00     0.049 A 
ATOM     29  C   UNL A   1      42.127  27.659  30.080  1.00  0.00     0.074 A 
ATOM     30  C   UNL A   1      41.762  30.632  35.688  1.00  0.00     0.029 A 
ATOM     31  N   UNL A   1      41.400  29.928  33.613  1.00  0.00    -0.354 N 
ATOM     32  N   UNL A   1      41.965  28.321  31.203  1.00  0.00    -0.248 NA
ATOM     33  C   UNL A   1      43.292  26.770  30.063  1.00  0.00     0.031 C 
ATOM     34  C   UNL A   1      42.801  29.764  35.329  1.00  0.00     0.029 A 
ATOM     35  C   UNL A   1      42.558  29.297  34.048  1.00  0.00     0.049 A 
ATOM     36  H   UNL A   1      40.990  29.802  32.726  1.00  0.00     0.167 HD
ATOM     37  C   UNL A   1      43.008  27.919  32.030  1.00  0.00     0.074 A 
ATOM     38  C   UNL A   1      43.767  26.932  31.289  1.00  0.00     0.031 C 
ATOM     39  C   UNL A   1      43.317  28.334  33.285  1.00  0.00     0.034 A 
BRANCH  26  40
ATOM     40  C   UNL A   1      39.328  32.463  35.651  1.00  0.00     0.023 A 
ATOM     41  C   UNL A   1      39.765  33.796  35.753  1.00  0.00     0.031 A 
ATOM     42  C   UNL A   1      38.510  31.961  36.679  1.00  0.00     0.131 A 
ATOM     43  C   UNL A   1      39.433  34.560  36.883  1.00  0.00     0.055 A 
ATOM     44  C   UNL A   1      38.123  32.748  37.766  1.00  0.00     0.041 A 
ATOM     45  F   UNL A   1      38.076  30.690  36.647  1.00  0.00    -0.206 F 
ATOM     46  C   UNL A   1      38.596  34.053  37.878  1.00  0.00     0.022 A 
BRANCH  43  47
ATOM     47  S   UNL A   1      40.209  36.186  37.092  1.00  0.00     0.124 S 
ATOM     48  O   UNL A   1      39.495  36.706  38.256  1.00  0.00    -0.237 OA
ATOM     49  O   UNL A   1      41.610  35.842  37.305  1.00  0.00    -0.237 OA
ATOM     50  O   UNL A   1      39.918  36.871  35.834  1.00  0.00    -0.744 OA
ENDBRANCH  43  47
ENDBRANCH  26  40
BRANCH  27  51
ATOM     51  C   UNL A   1      41.656  26.903  27.628  1.00  0.00     0.023 A 
ATOM     52  C   UNL A   1      41.393  25.528  27.544  1.00  0.00     0.031 A 
ATOM     53  C   UNL A   1      42.309  27.518  26.544  1.00  0.00     0.131 A 
ATOM     54  C   UNL A   1      41.818  24.804  26.420  1.00  0.00     0.055 A 
ATOM     55  C   UNL A   1      42.678  26.806  25.404  1.00  0.00     0.041 A 
ATOM     56  F   UNL A   1      42.579  28.834  26.570  1.00  0.00    -0.206 F 
ATOM     57  C   UNL A   1      42.447  25.436  25.343  1.00  0.00     0.022 A 
BRANCH  54  58
ATOM     58  S   UNL A   1      41.620  23.002  26.422  1.00  0.00     0.124 S 
ATOM     59  O   UNL A   1      42.403  22.612  25.255  1.00  0.00    -0.237 OA
ATOM     60  O   UNL A   1      42.180  22.640  27.720  1.00  0.00    -0.237 OA
ATOM     61  O   UNL A   1      40.176  22.818  26.295  1.00  0.00    -0.744 OA
ENDBRANCH  54  58
ENDBRANCH  27  51
BRANCH  39  62
ATOM     62  C   UNL A   1      44.521  27.690  33.925  1.00  0.00     0.023 A 
ATOM     63  C   UNL A   1      44.401  26.528  34.709  1.00  0.00     0.031 A 
ATOM     64  C   UNL A   1      45.792  28.274  33.795  1.00  0.00     0.131 A 
ATOM     65  C   UNL A   1      45.521  26.027  35.389  1.00  0.00     0.055 A 
ATOM     66  C   UNL A   1      46.914  27.735  34.426  1.00  0.00     0.041 A 
ATOM     67  F   UNL A   1      45.962  29.385  33.062  1.00  0.00    -0.206 F 
ATOM     68  C   UNL A   1      46.779  26.615  35.243  1.00  0.00     0.022 A 
BRANCH  65  69
ATOM     69  S   UNL A   1      45.286  24.660  36.559  1.00  0.00     0.124 S 
ATOM     70  O   UNL A   1      46.652  24.182  36.746  1.00  0.00    -0.237 OA
ATOM     71  O   UNL A   1      44.683  25.332  37.706  1.00  0.00    -0.237 OA
ATOM     72  O   UNL A   1      44.402  23.744  35.843  1.00  0.00    -0.744 OA
ENDBRANCH  65  69
ENDBRANCH  39  62
ENDBRANCH  13  14
ENDBRANCH   6   8
ENDBRANCH   3   4
ENDBRANCH   2   3
ENDBRANCH   1   2
BRANCH   1  73
ATOM     73  C   UNL A   1      33.659  27.814  26.595  1.00  0.00     0.002 C 
BRANCH  73  74
ATOM     74  C   UNL A   1      33.633  26.898  25.369  1.00  0.00     0.021 C 
BRANCH  74  75
ATOM     75  C   UNL A   1      34.108  25.465  25.593  1.00  0.00     0.116 C 
BRANCH  75  76
ATOM     76  N   UNL A   1      34.789  24.921  24.435  1.00  0.00    -0.356 N 
ATOM     77  C   UNL A   1      34.832  23.670  23.919  1.00  0.00     0.223 C 
ATOM     78  H   UNL A   1      35.314  25.582  23.929  1.00  0.00     0.163 HD
ATOM     79  O   UNL A   1      35.400  23.542  22.829  1.00  0.00    -0.275 OA
BRANCH  77  80
ATOM     80  C   UNL A   1      34.256  22.440  24.616  1.00  0.00     0.091 C 
ATOM     81  C   UNL A   1      35.142  21.202  24.395  1.00  0.00     0.014 C 
ATOM     82  C   UNL A   1      32.720  22.256  24.517  1.00  0.00     0.091 C 
ATOM     83  C   UNL A   1      34.580  19.943  25.034  1.00  0.00     0.001 C 
ATOM     84  C   UNL A   1      32.260  20.871  25.030  1.00  0.00     0.014 C 
ATOM     85  C   UNL A   1      33.147  19.712  24.588  1.00  0.00     0.001 C 
BRANCH  82  86
ATOM     86  C   UNL A   1      32.070  22.516  23.167  1.00  0.00     0.228 C 
ATOM     87  O   UNL A   1      32.196  21.698  22.247  1.00  0.00    -0.274 OA
ATOM     88  N   UNL A   1      31.271  23.582  22.893  1.00  0.00    -0.326 N 
ATOM     89  H   UNL A   1      30.815  23.475  22.028  1.00  0.00     0.169 HD
BRANCH  88  90
ATOM     90  C   UNL A   1      30.920  24.795  23.509  1.00  0.00     0.041 A 
ATOM     91  C   UNL A   1      30.339  24.684  24.783  1.00  0.00     0.026 A 
ATOM     92  C   UNL A   1      31.036  26.064  22.952  1.00  0.00     0.039 A 
ATOM     93  C   UNL A   1      29.874  25.806  25.471  1.00  0.00     0.003 A 
ATOM     94  C   UNL A   1      30.540  27.204  23.614  1.00  0.00     0.058 A 
ATOM     95  C   UNL A   1      29.964  27.063  24.883  1.00  0.00     0.013 A 
BRANCH  94  96
ATOM     96  C   UNL A   1      30.587  28.564  22.959  1.00  0.00     0.416 C 
ATOM     97  F   UNL A   1      30.272  28.516  21.635  1.00  0.00    -0.166 F 
ATOM     98  F   UNL A   1      29.692  29.431  23.517  1.00  0.00    -0.166 F 
ATOM     99  F   UNL A   1      31.794  29.186  23.043  1.00  0.00    -0.166 F 
ENDBRANCH  94  96
ENDBRANCH  88  90
ENDBRANCH  82  86
ENDBRANCH  77  80
ENDBRANCH  75  76
ENDBRANCH  74  75
ENDBRANCH  73  74
ENDBRANCH   1  73
TORSDOF 19
ENDMDL
MODEL 2
REMARK VINA RESULT:     -11.7      2.175      3.574
REMARK SMILES O=C(NCCCCCCNC(=O)[C@@H]1CCCC[C@@H]1C(=O)Nc1cccc(C(F)(F)F)c1)c1ccc(-c2c3nc(c(-c4cc(S(=O)(=O)[O-])ccc4F)c4ccc([nH]4)c(-c4cc(S(=O)(=O)[O-])ccc4F)c4nc(c(-c5cc(S(=O)(=O)[O-])ccc5F)c5ccc2[nH]5)C=C4)C=C3)cc1
REMARK SMILES IDX 6 1 5 2 4 3 3 4 1 5 2 6 32 8 33 9 94 10 34 11 93 12 35 13
REMARK SMILES IDX 36 14 37 15 87 16 38 17 92 18 86 19 88 20 39 21 91 22 85 23
REMARK SMILES IDX 84 24 40 26 72 27 52 28 71 29 53 30 56 31 70 32 89 33 54 34
REMARK SMILES IDX 55 35 69 37 90 38 57 39 41 40 42 41 50 42 43 43 49 44 51 45
REMARK SMILES IDX 48 46 44 47 45 48 46 49 47 50 73 51 74 52 82 53 75 54 81 55
REMARK SMILES IDX 83 56 80 57 76 58 77 59 78 60 79 61 58 62 59 63 67 64 60 65
REMARK SMILES IDX 66 66 68 67 65 68 61 69 62 70 63 71 64 72 7 73 8 74 9 75
REMARK SMILES IDX 10 76 11 77 12 79 13 80 14 81 18 82 15 83 17 84 16 85 19 86
REMARK SMILES IDX 20 87 21 88 22 90 23 91 31 92 24 93 26 94 25 95 27 96 28 97
REMARK SMILES IDX 29 98 30 99
REMARK H PARENT 3 7 88 25 56 36 10 78 21 89
REMARK Flexibility Score: inf
ROOT
ATOM      1  C   UNL A   1      31.931  27.551  27.115  1.00  0.00     0.002 C 
ENDROOT
BRANCH   1   2
ATOM      2  C   UNL A   1      31.716  28.958  26.563  1.00  0.00     0.021 C 
BRANCH   2   3
ATOM      3  C   UNL A   1      32.964  29.818  26.447  1.00  0.00     0.116 C 
BRANCH   3   4
ATOM      4  N   UNL A   1      32.718  31.228  26.693  1.00  0.00    -0.352 N 
ATOM      5  O   UNL A   1      33.098  33.245  27.639  1.00  0.00    -0.269 OA
ATOM      6  C   UNL A   1      33.482  32.101  27.434  1.00  0.00     0.251 C 
ATOM      7  H   UNL A   1      31.907  31.604  26.282  1.00  0.00     0.163 HD
BRANCH   6   8
ATOM      8  C   UNL A   1      34.762  31.624  28.007  1.00  0.00     0.039 A 
ATOM      9  C   UNL A   1      34.851  30.351  28.576  1.00  0.00     0.014 A 
ATOM     10  C   UNL A   1      35.870  32.476  28.011  1.00  0.00     0.014 A 
ATOM     11  C   UNL A   1      35.998  29.985  29.269  1.00  0.00     0.010 A 
ATOM     12  C   UNL A   1      37.055  32.068  28.633  1.00  0.00     0.010 A 
ATOM     13  C   UNL A   1      37.121  30.830  29.290  1.00  0.00    -0.014 A 
BRANCH  13  14
ATOM     14  C   UNL A   1      38.366  30.354  29.946  1.00  0.00     0.031 A 
ATOM     15  C   UNL A   1      38.752  30.812  31.326  1.00  0.00     0.074 A 
ATOM     16  C   UNL A   1      39.130  29.460  29.288  1.00  0.00     0.049 A 
ATOM     17  N   UNL A   1      39.791  30.470  32.046  1.00  0.00    -0.248 NA
ATOM     18  C   UNL A   1      37.864  31.784  31.979  1.00  0.00     0.031 C 
ATOM     19  C   UNL A   1      38.856  28.960  27.936  1.00  0.00     0.029 A 
ATOM     20  N   UNL A   1      40.268  28.795  29.662  1.00  0.00    -0.354 N 
ATOM     21  C   UNL A   1      39.689  31.186  33.234  1.00  0.00     0.074 A 
ATOM     22  C   UNL A   1      38.504  32.012  33.119  1.00  0.00     0.031 C 
ATOM     23  C   UNL A   1      39.769  28.032  27.617  1.00  0.00     0.029 A 
ATOM     24  C   UNL A   1      40.732  27.920  28.707  1.00  0.00     0.049 A 
ATOM     25  H   UNL A   1      40.711  28.929  30.530  1.00  0.00     0.167 HD
ATOM     26  C   UNL A   1      40.504  31.150  34.319  1.00  0.00     0.034 A 
ATOM     27  C   UNL A   1      41.820  27.128  28.696  1.00  0.00     0.034 A 
ATOM     28  C   UNL A   1      41.688  30.325  34.410  1.00  0.00     0.049 A 
ATOM     29  C   UNL A   1      42.714  27.120  29.905  1.00  0.00     0.074 A 
ATOM     30  C   UNL A   1      42.588  30.216  35.457  1.00  0.00     0.029 A 
ATOM     31  N   UNL A   1      42.140  29.467  33.414  1.00  0.00    -0.354 N 
ATOM     32  N   UNL A   1      42.600  27.806  31.019  1.00  0.00    -0.248 NA
ATOM     33  C   UNL A   1      43.875  26.226  29.860  1.00  0.00     0.031 C 
ATOM     34  C   UNL A   1      43.609  29.336  35.075  1.00  0.00     0.029 A 
ATOM     35  C   UNL A   1      43.312  28.842  33.815  1.00  0.00     0.049 A 
ATOM     36  H   UNL A   1      41.693  29.324  32.548  1.00  0.00     0.167 HD
ATOM     37  C   UNL A   1      43.675  27.419  31.811  1.00  0.00     0.074 A 
ATOM     38  C   UNL A   1      44.401  26.413  31.061  1.00  0.00     0.031 C 
ATOM     39  C   UNL A   1      44.036  27.860  33.043  1.00  0.00     0.034 A 
BRANCH  26  40
ATOM     40  C   UNL A   1      40.160  32.055  35.479  1.00  0.00     0.023 A 
ATOM     41  C   UNL A   1      39.152  31.722  36.402  1.00  0.00     0.031 A 
ATOM     42  C   UNL A   1      40.841  33.272  35.662  1.00  0.00     0.131 A 
ATOM     43  C   UNL A   1      38.815  32.619  37.428  1.00  0.00     0.055 A 
ATOM     44  C   UNL A   1      40.551  34.128  36.727  1.00  0.00     0.041 A 
ATOM     45  F   UNL A   1      41.801  33.654  34.803  1.00  0.00    -0.206 F 
ATOM     46  C   UNL A   1      39.523  33.809  37.610  1.00  0.00     0.022 A 
BRANCH  43  47
ATOM     47  S   UNL A   1      37.358  32.265  38.448  1.00  0.00     0.124 S 
ATOM     48  O   UNL A   1      37.240  30.816  38.302  1.00  0.00    -0.237 OA
ATOM     49  O   UNL A   1      37.770  32.742  39.764  1.00  0.00    -0.237 OA
ATOM     50  O   UNL A   1      36.294  33.038  37.810  1.00  0.00    -0.744 OA
ENDBRANCH  43  47
ENDBRANCH  26  40
BRANCH  27  51
ATOM     51  C   UNL A   1      42.141  26.312  27.491  1.00  0.00     0.023 A 
ATOM     52  C   UNL A   1      41.781  24.959  27.410  1.00  0.00     0.031 A 
ATOM     53  C   UNL A   1      42.839  26.877  26.408  1.00  0.00     0.131 A 
ATOM     54  C   UNL A   1      42.158  24.203  26.289  1.00  0.00     0.055 A 
ATOM     55  C   UNL A   1      43.161  26.137  25.271  1.00  0.00     0.041 A 
ATOM     56  F   UNL A   1      43.201  28.170  26.432  1.00  0.00    -0.206 F 
ATOM     57  C   UNL A   1      42.834  24.786  25.213  1.00  0.00     0.022 A 
BRANCH  54  58
ATOM     58  S   UNL A   1      41.833  22.419  26.295  1.00  0.00     0.124 S 
ATOM     59  O   UNL A   1      40.387  22.378  26.112  1.00  0.00    -0.237 OA
ATOM     60  O   UNL A   1      42.636  21.964  25.166  1.00  0.00    -0.237 OA
ATOM     61  O   UNL A   1      42.309  21.992  27.609  1.00  0.00    -0.744 OA
ENDBRANCH  54  58
ENDBRANCH  27  51
BRANCH  39  62
ATOM     62  C   UNL A   1      45.264  27.226  33.647  1.00  0.00     0.023 A 
ATOM     63  C   UNL A   1      45.179  26.051  34.417  1.00  0.00     0.031 A 
ATOM     64  C   UNL A   1      46.523  27.830  33.497  1.00  0.00     0.131 A 
ATOM     65  C   UNL A   1      46.321  25.557  35.065  1.00  0.00     0.055 A 
ATOM     66  C   UNL A   1      47.667  27.300  34.096  1.00  0.00     0.041 A 
ATOM     67  F   UNL A   1      46.659  28.954  32.776  1.00  0.00    -0.206 F 
ATOM     68  C   UNL A   1      47.566  26.167  34.899  1.00  0.00     0.022 A 
BRANCH  65  69
ATOM     69  S   UNL A   1      46.133  24.171  36.220  1.00  0.00     0.124 S 
ATOM     70  O   UNL A   1      47.174  23.254  35.767  1.00  0.00    -0.237 OA
ATOM     71  O   UNL A   1      46.363  24.809  37.512  1.00  0.00    -0.237 OA
ATOM     72  O   UNL A   1      44.763  23.716  35.989  1.00  0.00    -0.744 OA
ENDBRANCH  65  69
ENDBRANCH  39  62
ENDBRANCH  13  14
ENDBRANCH   6   8
ENDBRANCH   3   4
ENDBRANCH   2   3
ENDBRANCH   1   2
BRANCH   1  73
ATOM     73  C   UNL A   1      33.000  26.710  26.415  1.00  0.00     0.002 C 
BRANCH  73  74
ATOM     74  C   UNL A   1      32.675  25.228  26.214  1.00  0.00     0.021 C 
BRANCH  74  75
ATOM     75  C   UNL A   1      31.230  24.816  26.480  1.00  0.00     0.116 C 
BRANCH  75  76
ATOM     76  N   UNL A   1      30.540  24.407  25.273  1.00  0.00    -0.356 N 
ATOM     77  C   UNL A   1      30.350  25.031  24.087  1.00  0.00     0.223 C 
ATOM     78  H   UNL A   1      30.138  23.510  25.323  1.00  0.00     0.163 HD
ATOM     79  O   UNL A   1      29.826  24.362  23.189  1.00  0.00    -0.275 OA
BRANCH  77  80
ATOM     80  C   UNL A   1      30.713  26.490  23.824  1.00  0.00     0.091 C 
ATOM     81  C   UNL A   1      29.458  27.349  23.592  1.00  0.00     0.014 C 
ATOM     82  C   UNL A   1      31.935  26.734  22.902  1.00  0.00     0.091 C 
ATOM     83  C   UNL A   1      29.777  28.802  23.280  1.00  0.00     0.001 C 
ATOM     84  C   UNL A   1      32.076  28.220  22.494  1.00  0.00     0.014 C 
ATOM     85  C   UNL A   1      30.760  28.896  22.127  1.00  0.00     0.001 C 
BRANCH  82  86
ATOM     86  C   UNL A   1      32.053  25.872  21.655  1.00  0.00     0.228 C 
ATOM     87  O   UNL A   1      31.557  26.251  20.587  1.00  0.00    -0.274 OA
ATOM     88  N   UNL A   1      32.747  24.704  21.592  1.00  0.00    -0.326 N 
ATOM     89  H   UNL A   1      32.845  24.395  20.663  1.00  0.00     0.169 HD
BRANCH  88  90
ATOM     90  C   UNL A   1      33.360  23.818  22.494  1.00  0.00     0.041 A 
ATOM     91  C   UNL A   1      32.727  22.574  22.650  1.00  0.00     0.026 A 
ATOM     92  C   UNL A   1      34.479  24.085  23.276  1.00  0.00     0.039 A 
ATOM     93  C   UNL A   1      33.189  21.633  23.572  1.00  0.00     0.003 A 
ATOM     94  C   UNL A   1      34.939  23.163  24.237  1.00  0.00     0.058 A 
ATOM     95  C   UNL A   1      34.287  21.931  24.372  1.00  0.00     0.013 A 
BRANCH  94  96
ATOM     96  C   UNL A   1      36.098  23.502  25.145  1.00  0.00     0.416 C 
ATOM     97  F   UNL A   1      36.272  22.582  26.134  1.00  0.00    -0.166 F 
ATOM     98  F   UNL A   1      37.283  23.539  24.468  1.00  0.00    -0.166 F 
ATOM     99  F   UNL A   1      35.994  24.711  25.759  1.00  0.00    -0.166 F 
ENDBRANCH  94  96
ENDBRANCH  88  90
ENDBRANCH  82  86
ENDBRANCH  77  80
ENDBRANCH  75  76
ENDBRANCH  74  75
ENDBRANCH  73  74
ENDBRANCH   1  73
TORSDOF 19
ENDMDL
MODEL 3
REMARK VINA RESULT:     -11.6      1.820      8.224
REMARK SMILES O=C(NCCCCCCNC(=O)[C@@H]1CCCC[C@@H]1C(=O)Nc1cccc(C(F)(F)F)c1)c1ccc(-c2c3nc(c(-c4cc(S(=O)(=O)[O-])ccc4F)c4ccc([nH]4)c(-c4cc(S(=O)(=O)[O-])ccc4F)c4nc(c(-c5cc(S(=O)(=O)[O-])ccc5F)c5ccc2[nH]5)C=C4)C=C3)cc1
REMARK SMILES IDX 6 1 5 2 4 3 3 4 1 5 2 6 32 8 33 9 94 10 34 11 93 12 35 13
REMARK SMILES IDX 36 14 37 15 87 16 38 17 92 18 86 19 88 20 39 21 91 22 85 23
REMARK SMILES IDX 84 24 40 26 72 27 52 28 71 29 53 30 56 31 70 32 89 33 54 34
REMARK SMILES IDX 55 35 69 37 90 38 57 39 41 40 42 41 50 42 43 43 49 44 51 45
REMARK SMILES IDX 48 46 44 47 45 48 46 49 47 50 73 51 74 52 82 53 75 54 81 55
REMARK SMILES IDX 83 56 80 57 76 58 77 59 78 60 79 61 58 62 59 63 67 64 60 65
REMARK SMILES IDX 66 66 68 67 65 68 61 69 62 70 63 71 64 72 7 73 8 74 9 75
REMARK SMILES IDX 10 76 11 77 12 79 13 80 14 81 18 82 15 83 17 84 16 85 19 86
REMARK SMILES IDX 20 87 21 88 22 90 23 91 31 92 24 93 26 94 25 95 27 96 28 97
REMARK SMILES IDX 29 98 30 99
REMARK H PARENT 3 7 88 25 56 36 10 78 21 89
REMARK Flexibility Score: inf
ROOT
ATOM      1  C   UNL A   1      32.003  27.368  26.932  1.00  0.00     0.002 C 
ENDROOT
BRANCH   1   2
ATOM      2  C   UNL A   1      31.664  28.606  26.104  1.00  0.00     0.021 C 
BRANCH   2   3
ATOM      3  C   UNL A   1      32.810  29.579  25.875  1.00  0.00     0.116 C 
BRANCH   3   4
ATOM      4  N   UNL A   1      32.464  30.958  26.168  1.00  0.00    -0.352 N 
ATOM      5  O   UNL A   1      32.633  32.932  27.256  1.00  0.00    -0.269 OA
ATOM      6  C   UNL A   1      33.098  31.822  27.033  1.00  0.00     0.251 C 
ATOM      7  H   UNL A   1      31.681  31.318  25.693  1.00  0.00     0.163 HD
BRANCH   6   8
ATOM      8  C   UNL A   1      34.335  31.374  27.713  1.00  0.00     0.039 A 
ATOM      9  C   UNL A   1      34.447  30.064  28.185  1.00  0.00     0.014 A 
ATOM     10  C   UNL A   1      35.373  32.287  27.916  1.00  0.00     0.014 A 
ATOM     11  C   UNL A   1      35.532  29.708  28.978  1.00  0.00     0.010 A 
ATOM     12  C   UNL A   1      36.506  31.899  28.640  1.00  0.00     0.010 A 
ATOM     13  C   UNL A   1      36.583  30.614  29.199  1.00  0.00    -0.014 A 
BRANCH  13  14
ATOM     14  C   UNL A   1      37.776  30.158  29.958  1.00  0.00     0.031 A 
ATOM     15  C   UNL A   1      38.774  29.206  29.357  1.00  0.00     0.074 A 
ATOM     16  C   UNL A   1      37.971  30.656  31.195  1.00  0.00     0.049 A 
ATOM     17  N   UNL A   1      39.879  28.734  29.879  1.00  0.00    -0.248 NA
ATOM     18  C   UNL A   1      38.492  28.712  28.002  1.00  0.00     0.031 C 
ATOM     19  C   UNL A   1      37.057  31.576  31.881  1.00  0.00     0.029 A 
ATOM     20  N   UNL A   1      38.999  30.488  32.086  1.00  0.00    -0.354 N 
ATOM     21  C   UNL A   1      40.423  27.884  28.923  1.00  0.00     0.074 A 
ATOM     22  C   UNL A   1      39.504  27.877  27.803  1.00  0.00     0.031 C 
ATOM     23  C   UNL A   1      37.590  31.929  33.059  1.00  0.00     0.029 A 
ATOM     24  C   UNL A   1      38.845  31.210  33.246  1.00  0.00     0.049 A 
ATOM     25  H   UNL A   1      39.774  29.906  31.912  1.00  0.00     0.167 HD
ATOM     26  C   UNL A   1      41.585  27.184  28.974  1.00  0.00     0.034 A 
ATOM     27  C   UNL A   1      39.614  31.276  34.348  1.00  0.00     0.034 A 
ATOM     28  C   UNL A   1      42.485  27.197  30.105  1.00  0.00     0.049 A 
ATOM     29  C   UNL A   1      40.888  30.477  34.384  1.00  0.00     0.074 A 
ATOM     30  C   UNL A   1      43.683  26.522  30.266  1.00  0.00     0.029 A 
ATOM     31  N   UNL A   1      42.285  27.924  31.273  1.00  0.00    -0.354 N 
ATOM     32  N   UNL A   1      41.385  29.678  33.468  1.00  0.00    -0.248 NA
ATOM     33  C   UNL A   1      41.707  30.596  35.594  1.00  0.00     0.031 C 
ATOM     34  C   UNL A   1      44.179  26.796  31.547  1.00  0.00     0.029 A 
ATOM     35  C   UNL A   1      43.326  27.698  32.163  1.00  0.00     0.049 A 
ATOM     36  H   UNL A   1      41.516  28.513  31.445  1.00  0.00     0.167 HD
ATOM     37  C   UNL A   1      42.582  29.204  33.993  1.00  0.00     0.074 A 
ATOM     38  C   UNL A   1      42.747  29.837  35.286  1.00  0.00     0.031 C 
ATOM     39  C   UNL A   1      43.462  28.319  33.459  1.00  0.00     0.034 A 
BRANCH  26  40
ATOM     40  C   UNL A   1      41.929  26.317  27.784  1.00  0.00     0.023 A 
ATOM     41  C   UNL A   1      41.523  24.973  27.708  1.00  0.00     0.031 A 
ATOM     42  C   UNL A   1      42.680  26.837  26.714  1.00  0.00     0.131 A 
ATOM     43  C   UNL A   1      41.918  24.180  26.618  1.00  0.00     0.055 A 
ATOM     44  C   UNL A   1      43.010  26.065  25.599  1.00  0.00     0.041 A 
ATOM     45  F   UNL A   1      43.112  28.109  26.738  1.00  0.00    -0.206 F 
ATOM     46  C   UNL A   1      42.639  24.723  25.552  1.00  0.00     0.022 A 
BRANCH  43  47
ATOM     47  S   UNL A   1      41.581  22.399  26.670  1.00  0.00     0.124 S 
ATOM     48  O   UNL A   1      40.128  22.378  26.826  1.00  0.00    -0.237 OA
ATOM     49  O   UNL A   1      42.091  21.943  25.382  1.00  0.00    -0.237 OA
ATOM     50  O   UNL A   1      42.332  21.940  27.837  1.00  0.00    -0.744 OA
ENDBRANCH  43  47
ENDBRANCH  26  40
BRANCH  27  51
ATOM     51  C   UNL A   1      39.182  32.096  35.515  1.00  0.00     0.023 A 
ATOM     52  C   UNL A   1      39.627  33.415  35.684  1.00  0.00     0.031 A 
ATOM     53  C   UNL A   1      38.332  31.554  36.496  1.00  0.00     0.131 A 
ATOM     54  C   UNL A   1      39.254  34.136  36.829  1.00  0.00     0.055 A 
ATOM     55  C   UNL A   1      37.918  32.293  37.604  1.00  0.00     0.041 A 
ATOM     56  F   UNL A   1      37.873  30.297  36.380  1.00  0.00    -0.206 F 
ATOM     57  C   UNL A   1      38.391  33.588  37.784  1.00  0.00     0.022 A 
BRANCH  54  58
ATOM     58  S   UNL A   1      39.986  35.771  37.103  1.00  0.00     0.124 S 
ATOM     59  O   UNL A   1      39.652  36.461  35.862  1.00  0.00    -0.237 OA
ATOM     60  O   UNL A   1      39.280  36.221  38.297  1.00  0.00    -0.237 OA
ATOM     61  O   UNL A   1      41.406  35.481  37.293  1.00  0.00    -0.744 OA
ENDBRANCH  54  58
ENDBRANCH  27  51
BRANCH  39  62
ATOM     62  C   UNL A   1      44.688  28.014  34.283  1.00  0.00     0.023 A 
ATOM     63  C   UNL A   1      44.727  26.914  35.160  1.00  0.00     0.031 A 
ATOM     64  C   UNL A   1      45.807  28.861  34.231  1.00  0.00     0.131 A 
ATOM     65  C   UNL A   1      45.835  26.731  36.000  1.00  0.00     0.055 A 
ATOM     66  C   UNL A   1      46.931  28.639  35.027  1.00  0.00     0.041 A 
ATOM     67  F   UNL A   1      45.821  29.926  33.415  1.00  0.00    -0.206 F 
ATOM     68  C   UNL A   1      46.943  27.579  35.931  1.00  0.00     0.022 A 
BRANCH  65  69
ATOM     69  S   UNL A   1      45.759  25.435  37.267  1.00  0.00     0.124 S 
ATOM     70  O   UNL A   1      44.649  25.887  38.099  1.00  0.00    -0.237 OA
ATOM     71  O   UNL A   1      45.513  24.236  36.472  1.00  0.00    -0.237 OA
ATOM     72  O   UNL A   1      47.074  25.498  37.901  1.00  0.00    -0.744 OA
ENDBRANCH  65  69
ENDBRANCH  39  62
ENDBRANCH  13  14
ENDBRANCH   6   8
ENDBRANCH   3   4
ENDBRANCH   2   3
ENDBRANCH   1   2
BRANCH   1  73
ATOM     73  C   UNL A   1      33.133  26.490  26.395  1.00  0.00     0.002 C 
BRANCH  73  74
ATOM     74  C   UNL A   1      32.786  25.023  26.130  1.00  0.00     0.021 C 
BRANCH  74  75
ATOM     75  C   UNL A   1      31.344  24.612  26.415  1.00  0.00     0.116 C 
BRANCH  75  76
ATOM     76  N   UNL A   1      30.650  24.166  25.225  1.00  0.00    -0.356 N 
ATOM     77  C   UNL A   1      30.407  24.775  24.041  1.00  0.00     0.223 C 
ATOM     78  H   UNL A   1      30.290  23.253  25.287  1.00  0.00     0.163 HD
ATOM     79  O   UNL A   1      29.895  24.079  23.156  1.00  0.00    -0.275 OA
BRANCH  77  80
ATOM     80  C   UNL A   1      30.699  26.248  23.764  1.00  0.00     0.091 C 
ATOM     81  C   UNL A   1      29.406  27.036  23.494  1.00  0.00     0.014 C 
ATOM     82  C   UNL A   1      31.926  26.544  22.864  1.00  0.00     0.091 C 
ATOM     83  C   UNL A   1      29.654  28.500  23.167  1.00  0.00     0.001 C 
ATOM     84  C   UNL A   1      31.997  28.029  22.437  1.00  0.00     0.014 C 
ATOM     85  C   UNL A   1      30.655  28.630  22.034  1.00  0.00     0.001 C 
BRANCH  82  86
ATOM     86  C   UNL A   1      32.115  25.673  21.632  1.00  0.00     0.228 C 
ATOM     87  O   UNL A   1      31.642  26.022  20.544  1.00  0.00    -0.274 OA
ATOM     88  N   UNL A   1      32.851  24.529  21.607  1.00  0.00    -0.326 N 
ATOM     89  H   UNL A   1      32.991  24.214  20.685  1.00  0.00     0.169 HD
BRANCH  88  90
ATOM     90  C   UNL A   1      33.465  23.675  22.539  1.00  0.00     0.041 A 
ATOM     91  C   UNL A   1      32.758  22.501  22.846  1.00  0.00     0.026 A 
ATOM     92  C   UNL A   1      34.655  23.918  23.216  1.00  0.00     0.039 A 
ATOM     93  C   UNL A   1      33.218  21.607  23.814  1.00  0.00     0.003 A 
ATOM     94  C   UNL A   1      35.118  23.045  24.221  1.00  0.00     0.058 A 
ATOM     95  C   UNL A   1      34.391  21.884  24.508  1.00  0.00     0.013 A 
BRANCH  94  96
ATOM     96  C   UNL A   1      36.362  23.367  25.014  1.00  0.00     0.416 C 
ATOM     97  F   UNL A   1      37.415  23.708  24.219  1.00  0.00    -0.166 F 
ATOM     98  F   UNL A   1      36.175  24.431  25.849  1.00  0.00    -0.166 F 
ATOM     99  F   UNL A   1      36.797  22.354  25.811  1.00  0.00    -0.166 F 
ENDBRANCH  94  96
ENDBRANCH  88  90
ENDBRANCH  82  86
ENDBRANCH  77  80
ENDBRANCH  75  76
ENDBRANCH  74  75
ENDBRANCH  73  74
ENDBRANCH   1  73
TORSDOF 19
ENDMDL
